MODEL 1
REMARK VINA RESULT:    -5.505      0.000      0.000
REMARK INTER + INTRA:          -5.843
REMARK INTER:                  -5.987
REMARK INTRA:                   0.144
REMARK UNBOUND:                 0.144
REMARK SMILES C[C@@H]1[C@H](C)CC[C@@]2(C(=O)[O-])CC[C@@]3(C)C(=CC[C@@H]4[C@@]5(C)CC[C@@H](O)C(C)(C)[C@@H]5CC[C@]43C)[C@@H]12
REMARK SMILES IDX 7 1 6 2 11 3 33 4 5 5 12 6 15 7 2 8 3 9 13 10 16 11 1 12
REMARK SMILES IDX 4 13 14 14 31 15 17 16 18 17 30 18 32 19 19 20 29 21 28 22
REMARK SMILES IDX 21 23 20 24 25 25 22 26 23 27 26 28 27 29 8 30 9 31 10 32
REMARK SMILES IDX 24 33
REMARK H PARENT 24 34
REMARK Flexibility Score: inf
ROOT
ATOM      1  C   UNL     1     126.699 103.210 118.993  1.00  0.00     0.017 C 
ATOM      2  C   UNL     1     127.802 102.234 118.457  1.00  0.00     0.014 C 
ATOM      3  C   UNL     1     126.655 104.426 118.015  1.00  0.00     0.014 C 
ATOM      4  C   UNL     1     125.304 102.483 119.081  1.00  0.00     0.030 C 
ATOM      5  C   UNL     1     127.533 100.771 118.822  1.00  0.00     0.004 C 
ATOM      6  C   UNL     1     125.485 105.405 118.229  1.00  0.00     0.013 C 
ATOM      7  C   UNL     1     124.147 103.494 119.189  1.00  0.00    -0.063 C 
ATOM      8  C   UNL     1     125.137 101.371 118.003  1.00  0.00    -0.003 C 
ATOM      9  C   UNL     1     126.222 100.244 118.184  1.00  0.00    -0.011 C 
ATOM     10  C   UNL     1     124.078 104.730 118.234  1.00  0.00    -0.006 C 
ATOM     11  C   UNL     1     123.354 103.382 120.299  1.00  0.00    -0.027 C 
ATOM     12  C   UNL     1     123.701 100.806 117.952  1.00  0.00     0.008 C 
ATOM     13  C   UNL     1     125.743  99.017 118.987  1.00  0.00     0.008 C 
ATOM     14  C   UNL     1     123.785 104.262 116.770  1.00  0.00     0.017 C 
ATOM     15  C   UNL     1     122.934 105.760 118.716  1.00  0.00    -0.020 C 
ATOM     16  C   UNL     1     122.548 104.515 120.896  1.00  0.00     0.032 C 
ATOM     17  C   UNL     1     123.020 105.846 120.288  1.00  0.00     0.006 C 
ATOM     18  C   UNL     1     123.042 107.189 118.063  1.00  0.00     0.008 C 
ATOM     19  C   UNL     1     121.533 105.200 118.263  1.00  0.00     0.012 C 
ATOM     20  C   UNL     1     122.533 107.191 120.952  1.00  0.00    -0.025 C 
ATOM     21  C   UNL     1     123.734 108.303 118.872  1.00  0.00     0.005 C 
ATOM     22  C   UNL     1     123.516 108.301 120.417  1.00  0.00     0.003 C 
ATOM     23  C   UNL     1     122.707 107.115 122.500  1.00  0.00     0.010 C 
ATOM     24  C   UNL     1     121.033 107.450 120.647  1.00  0.00     0.012 C 
ATOM     25  C   UNL     1     123.390 109.724 121.082  1.00  0.00    -0.006 C 
ATOM     26  C   UNL     1     122.562 108.471 123.220  1.00  0.00     0.033 C 
ATOM     27  C   UNL     1     123.463 109.586 122.645  1.00  0.00     0.120 C 
ATOM     28  C   UNL     1     122.079 110.459 120.685  1.00  0.00     0.014 C 
ATOM     29  C   UNL     1     124.573 110.623 120.620  1.00  0.00     0.014 C 
ENDROOT
BRANCH   1  30
ATOM     30  C   UNL     1     127.109 103.672 120.395  1.00  0.00     0.048 C 
ATOM     31  O   UNL     1     126.256 103.717 121.320  1.00  0.00    -0.550 OA
ATOM     32  O   UNL     1     128.415 104.045 120.684  1.00  0.00    -0.550 OA
ENDBRANCH   1  30
BRANCH  27  33
ATOM     33  O   UNL     1     124.788 109.438 123.106  1.00  0.00    -0.393 OA
ATOM     34  H   UNL     1     124.760 109.099 124.036  1.00  0.00     0.210 HD
ENDBRANCH  27  33
TORSDOF 2
ENDMDL
MODEL 2
REMARK VINA RESULT:    -5.480      1.317      1.853
REMARK INTER + INTRA:          -5.816
REMARK INTER:                  -5.516
REMARK INTRA:                  -0.301
REMARK UNBOUND:                 0.144
REMARK SMILES C[C@@H]1[C@H](C)CC[C@@]2(C(=O)[O-])CC[C@@]3(C)C(=CC[C@@H]4[C@@]5(C)CC[C@@H](O)C(C)(C)[C@@H]5CC[C@]43C)[C@@H]12
REMARK SMILES IDX 7 1 6 2 11 3 33 4 5 5 12 6 15 7 2 8 3 9 13 10 16 11 1 12
REMARK SMILES IDX 4 13 14 14 31 15 17 16 18 17 30 18 32 19 19 20 29 21 28 22
REMARK SMILES IDX 21 23 20 24 25 25 22 26 23 27 26 28 27 29 8 30 9 31 10 32
REMARK SMILES IDX 24 33
REMARK H PARENT 24 34
REMARK Flexibility Score: inf
ROOT
ATOM      1  C   UNL     1     128.178 103.508 118.544  1.00  0.00     0.017 C 
ATOM      2  C   UNL     1     129.471 102.879 117.918  1.00  0.00     0.014 C 
ATOM      3  C   UNL     1     127.478 104.325 117.413  1.00  0.00     0.014 C 
ATOM      4  C   UNL     1     127.234 102.386 119.121  1.00  0.00     0.030 C 
ATOM      5  C   UNL     1     129.883 101.568 118.592  1.00  0.00     0.004 C 
ATOM      6  C   UNL     1     126.068 104.847 117.750  1.00  0.00     0.013 C 
ATOM      7  C   UNL     1     125.805 102.913 119.348  1.00  0.00    -0.063 C 
ATOM      8  C   UNL     1     127.348 101.045 118.338  1.00  0.00    -0.003 C 
ATOM      9  C   UNL     1     128.808 100.463 118.423  1.00  0.00    -0.011 C 
ATOM     10  C   UNL     1     125.079 103.746 118.243  1.00  0.00    -0.006 C 
ATOM     11  C   UNL     1     125.331 102.826 120.630  1.00  0.00    -0.027 C 
ATOM     12  C   UNL     1     126.277 100.017 118.766  1.00  0.00     0.008 C 
ATOM     13  C   UNL     1     129.013  99.405 119.528  1.00  0.00     0.008 C 
ATOM     14  C   UNL     1     124.751 102.836 117.013  1.00  0.00     0.017 C 
ATOM     15  C   UNL     1     123.718 104.394 118.818  1.00  0.00    -0.020 C 
ATOM     16  C   UNL     1     124.251 103.716 121.207  1.00  0.00     0.032 C 
ATOM     17  C   UNL     1     124.033 104.917 120.272  1.00  0.00     0.006 C 
ATOM     18  C   UNL     1     123.124 105.542 117.919  1.00  0.00     0.008 C 
ATOM     19  C   UNL     1     122.607 103.277 118.854  1.00  0.00     0.012 C 
ATOM     20  C   UNL     1     123.166 106.127 120.793  1.00  0.00    -0.025 C 
ATOM     21  C   UNL     1     123.436 107.000 118.309  1.00  0.00     0.005 C 
ATOM     22  C   UNL     1     123.508 107.329 119.832  1.00  0.00     0.003 C 
ATOM     23  C   UNL     1     123.621 106.530 122.230  1.00  0.00     0.010 C 
ATOM     24  C   UNL     1     121.661 105.750 120.851  1.00  0.00     0.012 C 
ATOM     25  C   UNL     1     122.935 108.738 120.245  1.00  0.00    -0.006 C 
ATOM     26  C   UNL     1     123.068 107.886 122.712  1.00  0.00     0.033 C 
ATOM     27  C   UNL     1     123.327 109.053 121.733  1.00  0.00     0.120 C 
ATOM     28  C   UNL     1     121.391 108.830 120.082  1.00  0.00     0.014 C 
ATOM     29  C   UNL     1     123.554 109.841 119.339  1.00  0.00     0.014 C 
ENDROOT
BRANCH   1  30
ATOM     30  C   UNL     1     128.602 104.438 119.685  1.00  0.00     0.048 C 
ATOM     31  O   UNL     1     128.700 103.993 120.859  1.00  0.00    -0.550 OA
ATOM     32  O   UNL     1     128.892 105.777 119.462  1.00  0.00    -0.550 OA
ENDBRANCH   1  30
BRANCH  27  33
ATOM     33  O   UNL     1     124.656 109.510 121.849  1.00  0.00    -0.393 OA
ATOM     34  H   UNL     1     124.647 110.499 121.877  1.00  0.00     0.210 HD
ENDBRANCH  27  33
TORSDOF 2
ENDMDL
MODEL 3
REMARK VINA RESULT:    -5.324      1.804      7.085
REMARK INTER + INTRA:          -5.647
REMARK INTER:                  -5.352
REMARK INTRA:                  -0.295
REMARK UNBOUND:                 0.144
REMARK SMILES C[C@@H]1[C@H](C)CC[C@@]2(C(=O)[O-])CC[C@@]3(C)C(=CC[C@@H]4[C@@]5(C)CC[C@@H](O)C(C)(C)[C@@H]5CC[C@]43C)[C@@H]12
REMARK SMILES IDX 7 1 6 2 11 3 33 4 5 5 12 6 15 7 2 8 3 9 13 10 16 11 1 12
REMARK SMILES IDX 4 13 14 14 31 15 17 16 18 17 30 18 32 19 19 20 29 21 28 22
REMARK SMILES IDX 21 23 20 24 25 25 22 26 23 27 26 28 27 29 8 30 9 31 10 32
REMARK SMILES IDX 24 33
REMARK H PARENT 24 34
REMARK Flexibility Score: inf
ROOT
ATOM      1  C   UNL     1     122.356 108.073 121.283  1.00  0.00     0.017 C 
ATOM      2  C   UNL     1     121.471 109.049 122.132  1.00  0.00     0.014 C 
ATOM      3  C   UNL     1     122.883 106.974 122.258  1.00  0.00     0.014 C 
ATOM      4  C   UNL     1     121.524 107.451 120.098  1.00  0.00     0.030 C 
ATOM      5  C   UNL     1     120.368 109.723 121.310  1.00  0.00     0.004 C 
ATOM      6  C   UNL     1     123.597 105.783 121.589  1.00  0.00     0.013 C 
ATOM      7  C   UNL     1     122.213 106.201 119.521  1.00  0.00    -0.063 C 
ATOM      8  C   UNL     1     120.013 107.296 120.443  1.00  0.00    -0.003 C 
ATOM      9  C   UNL     1     119.356 108.695 120.741  1.00  0.00    -0.011 C 
ATOM     10  C   UNL     1     122.764 105.086 120.469  1.00  0.00    -0.006 C 
ATOM     11  C   UNL     1     122.527 106.250 118.189  1.00  0.00    -0.027 C 
ATOM     12  C   UNL     1     119.240 106.496 119.372  1.00  0.00     0.008 C 
ATOM     13  C   UNL     1     118.633 109.333 119.536  1.00  0.00     0.008 C 
ATOM     14  C   UNL     1     121.580 104.342 121.169  1.00  0.00     0.017 C 
ATOM     15  C   UNL     1     123.660 104.028 119.644  1.00  0.00    -0.020 C 
ATOM     16  C   UNL     1     123.630 105.446 117.537  1.00  0.00     0.032 C 
ATOM     17  C   UNL     1     124.538 104.856 118.629  1.00  0.00     0.006 C 
ATOM     18  C   UNL     1     124.559 103.105 120.550  1.00  0.00     0.008 C 
ATOM     19  C   UNL     1     122.696 103.045 118.877  1.00  0.00     0.012 C 
ATOM     20  C   UNL     1     125.915 104.218 118.198  1.00  0.00    -0.025 C 
ATOM     21  C   UNL     1     126.036 103.501 120.743  1.00  0.00     0.005 C 
ATOM     22  C   UNL     1     126.768 104.136 119.521  1.00  0.00     0.003 C 
ATOM     23  C   UNL     1     126.660 105.172 117.216  1.00  0.00     0.010 C 
ATOM     24  C   UNL     1     125.698 102.859 117.480  1.00  0.00     0.012 C 
ATOM     25  C   UNL     1     128.280 103.724 119.352  1.00  0.00    -0.006 C 
ATOM     26  C   UNL     1     128.139 104.806 116.978  1.00  0.00     0.033 C 
ATOM     27  C   UNL     1     128.962 104.641 118.275  1.00  0.00     0.120 C 
ATOM     28  C   UNL     1     128.454 102.231 118.950  1.00  0.00     0.014 C 
ATOM     29  C   UNL     1     129.030 103.921 120.700  1.00  0.00     0.014 C 
ENDROOT
BRANCH   1  30
ATOM     30  C   UNL     1     123.527 108.872 120.702  1.00  0.00     0.048 C 
ATOM     31  O   UNL     1     124.558 109.076 121.395  1.00  0.00    -0.550 OA
ATOM     32  O   UNL     1     123.488 109.385 119.412  1.00  0.00    -0.550 OA
ENDBRANCH   1  30
BRANCH  27  33
ATOM     33  O   UNL     1     129.318 105.902 118.797  1.00  0.00    -0.393 OA
ATOM     34  H   UNL     1     130.256 105.858 119.111  1.00  0.00     0.210 HD
ENDBRANCH  27  33
TORSDOF 2
ENDMDL
MODEL 4
REMARK VINA RESULT:    -5.197     10.076     12.118
REMARK INTER + INTRA:          -5.509
REMARK INTER:                  -5.220
REMARK INTRA:                  -0.289
REMARK UNBOUND:                 0.144
REMARK SMILES C[C@@H]1[C@H](C)CC[C@@]2(C(=O)[O-])CC[C@@]3(C)C(=CC[C@@H]4[C@@]5(C)CC[C@@H](O)C(C)(C)[C@@H]5CC[C@]43C)[C@@H]12
REMARK SMILES IDX 7 1 6 2 11 3 33 4 5 5 12 6 15 7 2 8 3 9 13 10 16 11 1 12
REMARK SMILES IDX 4 13 14 14 31 15 17 16 18 17 30 18 32 19 19 20 29 21 28 22
REMARK SMILES IDX 21 23 20 24 25 25 22 26 23 27 26 28 27 29 8 30 9 31 10 32
REMARK SMILES IDX 24 33
REMARK H PARENT 24 34
REMARK Flexibility Score: inf
ROOT
ATOM      1  C   UNL     1     122.548 105.916 108.036  1.00  0.00     0.017 C 
ATOM      2  C   UNL     1     122.105 104.441 107.737  1.00  0.00     0.014 C 
ATOM      3  C   UNL     1     121.955 106.294 109.429  1.00  0.00     0.014 C 
ATOM      4  C   UNL     1     124.118 106.043 108.016  1.00  0.00     0.030 C 
ATOM      5  C   UNL     1     123.092 103.693 106.836  1.00  0.00     0.004 C 
ATOM      6  C   UNL     1     122.453 107.627 110.020  1.00  0.00     0.013 C 
ATOM      7  C   UNL     1     124.587 107.337 108.707  1.00  0.00    -0.063 C 
ATOM      8  C   UNL     1     124.832 104.734 108.466  1.00  0.00    -0.003 C 
ATOM      9  C   UNL     1     124.485 103.541 107.499  1.00  0.00    -0.011 C 
ATOM     10  C   UNL     1     124.006 107.752 110.097  1.00  0.00    -0.006 C 
ATOM     11  C   UNL     1     125.327 108.194 107.937  1.00  0.00    -0.027 C 
ATOM     12  C   UNL     1     126.354 104.922 108.650  1.00  0.00     0.008 C 
ATOM     13  C   UNL     1     125.531 103.289 106.392  1.00  0.00     0.008 C 
ATOM     14  C   UNL     1     124.495 106.760 111.203  1.00  0.00     0.017 C 
ATOM     15  C   UNL     1     124.456 109.255 110.477  1.00  0.00    -0.020 C 
ATOM     16  C   UNL     1     125.434 109.684 108.173  1.00  0.00     0.032 C 
ATOM     17  C   UNL     1     124.341 110.118 109.163  1.00  0.00     0.006 C 
ATOM     18  C   UNL     1     123.624 109.895 111.651  1.00  0.00     0.008 C 
ATOM     19  C   UNL     1     125.944 109.217 110.993  1.00  0.00     0.012 C 
ATOM     20  C   UNL     1     124.066 111.661 109.350  1.00  0.00    -0.025 C 
ATOM     21  C   UNL     1     122.458 110.833 111.283  1.00  0.00     0.005 C 
ATOM     22  C   UNL     1     122.650 111.751 110.037  1.00  0.00     0.003 C 
ATOM     23  C   UNL     1     123.960 112.356 107.958  1.00  0.00     0.010 C 
ATOM     24  C   UNL     1     125.216 112.339 110.142  1.00  0.00     0.012 C 
ATOM     25  C   UNL     1     122.025 113.193 110.158  1.00  0.00    -0.006 C 
ATOM     26  C   UNL     1     123.386 113.786 108.008  1.00  0.00     0.033 C 
ATOM     27  C   UNL     1     122.037 113.896 108.754  1.00  0.00     0.120 C 
ATOM     28  C   UNL     1     122.768 114.084 111.193  1.00  0.00     0.014 C 
ATOM     29  C   UNL     1     120.547 113.083 110.631  1.00  0.00     0.014 C 
ENDROOT
BRANCH   1  30
ATOM     30  C   UNL     1     121.961 106.820 106.947  1.00  0.00     0.048 C 
ATOM     31  O   UNL     1     122.595 107.011 105.876  1.00  0.00    -0.550 OA
ATOM     32  O   UNL     1     120.731 107.444 107.105  1.00  0.00    -0.550 OA
ENDBRANCH   1  30
BRANCH  27  33
ATOM     33  O   UNL     1     120.980 113.457 107.929  1.00  0.00    -0.393 OA
ATOM     34  H   UNL     1     120.215 114.075 108.046  1.00  0.00     0.210 HD
ENDBRANCH  27  33
TORSDOF 2
ENDMDL
MODEL 5
REMARK VINA RESULT:    -5.157     11.023     14.357
REMARK INTER + INTRA:          -5.465
REMARK INTER:                  -5.192
REMARK INTRA:                  -0.273
REMARK UNBOUND:                 0.144
REMARK SMILES C[C@@H]1[C@H](C)CC[C@@]2(C(=O)[O-])CC[C@@]3(C)C(=CC[C@@H]4[C@@]5(C)CC[C@@H](O)C(C)(C)[C@@H]5CC[C@]43C)[C@@H]12
REMARK SMILES IDX 7 1 6 2 11 3 33 4 5 5 12 6 15 7 2 8 3 9 13 10 16 11 1 12
REMARK SMILES IDX 4 13 14 14 31 15 17 16 18 17 30 18 32 19 19 20 29 21 28 22
REMARK SMILES IDX 21 23 20 24 25 25 22 26 23 27 26 28 27 29 8 30 9 31 10 32
REMARK SMILES IDX 24 33
REMARK H PARENT 24 34
REMARK Flexibility Score: inf
ROOT
ATOM      1  C   UNL     1     127.881 115.497 110.969  1.00  0.00     0.017 C 
ATOM      2  C   UNL     1     128.982 116.512 111.434  1.00  0.00     0.014 C 
ATOM      3  C   UNL     1     127.160 114.989 112.256  1.00  0.00     0.014 C 
ATOM      4  C   UNL     1     126.875 116.183 109.969  1.00  0.00     0.030 C 
ATOM      5  C   UNL     1     129.294 117.578 110.380  1.00  0.00     0.004 C 
ATOM      6  C   UNL     1     125.891 114.148 112.016  1.00  0.00     0.013 C 
ATOM      7  C   UNL     1     125.575 115.370 109.832  1.00  0.00    -0.063 C 
ATOM      8  C   UNL     1     126.699 117.706 110.245  1.00  0.00    -0.003 C 
ATOM      9  C   UNL     1     128.064 118.472 110.075  1.00  0.00    -0.011 C 
ATOM     10  C   UNL     1     124.832 114.835 111.099  1.00  0.00    -0.006 C 
ATOM     11  C   UNL     1     125.263 114.946 108.568  1.00  0.00    -0.027 C 
ATOM     12  C   UNL     1     125.562 118.332 109.409  1.00  0.00     0.008 C 
ATOM     13  C   UNL     1     128.262 119.125 108.691  1.00  0.00     0.008 C 
ATOM     14  C   UNL     1     124.225 116.028 111.909  1.00  0.00     0.017 C 
ATOM     15  C   UNL     1     123.661 113.807 110.683  1.00  0.00    -0.020 C 
ATOM     16  C   UNL     1     124.402 113.742 108.254  1.00  0.00     0.032 C 
ATOM     17  C   UNL     1     124.231 112.898 109.528  1.00  0.00     0.006 C 
ATOM     18  C   UNL     1     123.119 112.935 111.877  1.00  0.00     0.008 C 
ATOM     19  C   UNL     1     122.420 114.638 110.179  1.00  0.00     0.012 C 
ATOM     20  C   UNL     1     123.615 111.451 109.395  1.00  0.00    -0.025 C 
ATOM     21  C   UNL     1     123.677 111.508 112.040  1.00  0.00     0.005 C 
ATOM     22  C   UNL     1     123.992 110.713 110.736  1.00  0.00     0.003 C 
ATOM     23  C   UNL     1     124.305 110.684 108.225  1.00  0.00     0.010 C 
ATOM     24  C   UNL     1     122.093 111.520 109.097  1.00  0.00     0.012 C 
ATOM     25  C   UNL     1     123.678 109.169 110.794  1.00  0.00    -0.006 C 
ATOM     26  C   UNL     1     124.012 109.171 108.202  1.00  0.00     0.033 C 
ATOM     27  C   UNL     1     124.300 108.455 109.541  1.00  0.00     0.120 C 
ATOM     28  C   UNL     1     122.153 108.869 110.862  1.00  0.00     0.014 C 
ATOM     29  C   UNL     1     124.319 108.553 112.070  1.00  0.00     0.014 C 
ENDROOT
BRANCH   1  30
ATOM     30  C   UNL     1     128.575 114.332 110.256  1.00  0.00     0.048 C 
ATOM     31  O   UNL     1     128.868 114.424 109.035  1.00  0.00    -0.550 OA
ATOM     32  O   UNL     1     128.900 113.160 110.925  1.00  0.00    -0.550 OA
ENDBRANCH   1  30
BRANCH  27  33
ATOM     33  O   UNL     1     125.683 108.225 109.691  1.00  0.00    -0.393 OA
ATOM     34  H   UNL     1     126.173 108.924 109.190  1.00  0.00     0.210 HD
ENDBRANCH  27  33
TORSDOF 2
ENDMDL
MODEL 6
REMARK VINA RESULT:    -5.149      1.514      2.130
REMARK INTER + INTRA:          -5.456
REMARK INTER:                  -5.157
REMARK INTRA:                  -0.299
REMARK UNBOUND:                 0.144
REMARK SMILES C[C@@H]1[C@H](C)CC[C@@]2(C(=O)[O-])CC[C@@]3(C)C(=CC[C@@H]4[C@@]5(C)CC[C@@H](O)C(C)(C)[C@@H]5CC[C@]43C)[C@@H]12
REMARK SMILES IDX 7 1 6 2 11 3 33 4 5 5 12 6 15 7 2 8 3 9 13 10 16 11 1 12
REMARK SMILES IDX 4 13 14 14 31 15 17 16 18 17 30 18 32 19 19 20 29 21 28 22
REMARK SMILES IDX 21 23 20 24 25 25 22 26 23 27 26 28 27 29 8 30 9 31 10 32
REMARK SMILES IDX 24 33
REMARK H PARENT 24 34
REMARK Flexibility Score: inf
ROOT
ATOM      1  C   UNL     1     125.910 103.920 117.612  1.00  0.00     0.017 C 
ATOM      2  C   UNL     1     126.754 103.166 116.526  1.00  0.00     0.014 C 
ATOM      3  C   UNL     1     124.599 104.400 116.914  1.00  0.00     0.014 C 
ATOM      4  C   UNL     1     125.607 102.978 118.837  1.00  0.00     0.030 C 
ATOM      5  C   UNL     1     127.661 102.085 117.120  1.00  0.00     0.004 C 
ATOM      6  C   UNL     1     123.521 104.974 117.855  1.00  0.00     0.013 C 
ATOM      7  C   UNL     1     124.454 103.527 119.699  1.00  0.00    -0.063 C 
ATOM      8  C   UNL     1     125.496 101.479 118.429  1.00  0.00    -0.003 C 
ATOM      9  C   UNL     1     126.849 100.960 117.813  1.00  0.00    -0.011 C 
ATOM     10  C   UNL     1     123.131 104.028 119.033  1.00  0.00    -0.006 C 
ATOM     11  C   UNL     1     124.752 103.775 121.012  1.00  0.00    -0.027 C 
ATOM     12  C   UNL     1     124.992 100.586 119.584  1.00  0.00     0.008 C 
ATOM     13  C   UNL     1     127.771 100.234 118.815  1.00  0.00     0.008 C 
ATOM     14  C   UNL     1     122.349 102.822 118.417  1.00  0.00     0.017 C 
ATOM     15  C   UNL     1     122.202 104.787 120.111  1.00  0.00    -0.020 C 
ATOM     16  C   UNL     1     124.020 104.770 121.885  1.00  0.00     0.032 C 
ATOM     17  C   UNL     1     123.154 105.679 120.997  1.00  0.00     0.006 C 
ATOM     18  C   UNL     1     121.050 105.648 119.471  1.00  0.00     0.008 C 
ATOM     19  C   UNL     1     121.471 103.704 120.992  1.00  0.00     0.012 C 
ATOM     20  C   UNL     1     122.518 106.972 121.639  1.00  0.00    -0.025 C 
ATOM     21  C   UNL     1     121.288 107.162 119.303  1.00  0.00     0.005 C 
ATOM     22  C   UNL     1     122.104 107.882 120.420  1.00  0.00     0.003 C 
ATOM     23  C   UNL     1     123.596 107.745 122.459  1.00  0.00     0.010 C 
ATOM     24  C   UNL     1     121.355 106.603 122.598  1.00  0.00     0.012 C 
ATOM     25  C   UNL     1     121.625 109.342 120.771  1.00  0.00    -0.006 C 
ATOM     26  C   UNL     1     123.178 109.173 122.865  1.00  0.00     0.033 C 
ATOM     27  C   UNL     1     122.692 110.044 121.685  1.00  0.00     0.120 C 
ATOM     28  C   UNL     1     120.238 109.367 121.473  1.00  0.00     0.014 C 
ATOM     29  C   UNL     1     121.486 110.175 119.463  1.00  0.00     0.014 C 
ENDROOT
BRANCH   1  30
ATOM     30  C   UNL     1     126.723 105.124 118.098  1.00  0.00     0.048 C 
ATOM     31  O   UNL     1     126.679 106.212 117.468  1.00  0.00    -0.550 OA
ATOM     32  O   UNL     1     127.518 105.052 119.235  1.00  0.00    -0.550 OA
ENDBRANCH   1  30
BRANCH  27  33
ATOM     33  O   UNL     1     123.789 110.533 120.946  1.00  0.00    -0.393 OA
ATOM     34  H   UNL     1     124.337 111.105 121.540  1.00  0.00     0.210 HD
ENDBRANCH  27  33
TORSDOF 2
ENDMDL
MODEL 7
REMARK VINA RESULT:    -5.072      5.318      8.358
REMARK INTER + INTRA:          -5.372
REMARK INTER:                  -5.084
REMARK INTRA:                  -0.288
REMARK UNBOUND:                 0.144
REMARK SMILES C[C@@H]1[C@H](C)CC[C@@]2(C(=O)[O-])CC[C@@]3(C)C(=CC[C@@H]4[C@@]5(C)CC[C@@H](O)C(C)(C)[C@@H]5CC[C@]43C)[C@@H]12
REMARK SMILES IDX 7 1 6 2 11 3 33 4 5 5 12 6 15 7 2 8 3 9 13 10 16 11 1 12
REMARK SMILES IDX 4 13 14 14 31 15 17 16 18 17 30 18 32 19 19 20 29 21 28 22
REMARK SMILES IDX 21 23 20 24 25 25 22 26 23 27 26 28 27 29 8 30 9 31 10 32
REMARK SMILES IDX 24 33
REMARK H PARENT 24 34
REMARK Flexibility Score: inf
ROOT
ATOM      1  C   UNL     1     120.150 107.880 119.681  1.00  0.00     0.017 C 
ATOM      2  C   UNL     1     121.061 108.848 118.850  1.00  0.00     0.014 C 
ATOM      3  C   UNL     1     119.474 106.909 118.664  1.00  0.00     0.014 C 
ATOM      4  C   UNL     1     120.997 107.100 120.757  1.00  0.00     0.030 C 
ATOM      5  C   UNL     1     122.265 109.363 119.645  1.00  0.00     0.004 C 
ATOM      6  C   UNL     1     118.704 105.728 119.288  1.00  0.00     0.013 C 
ATOM      7  C   UNL     1     120.241 105.867 121.284  1.00  0.00    -0.063 C 
ATOM      8  C   UNL     1     122.466 106.854 120.301  1.00  0.00    -0.003 C 
ATOM      9  C   UNL     1     123.219 108.216 120.065  1.00  0.00    -0.011 C 
ATOM     10  C   UNL     1     119.541 104.879 120.294  1.00  0.00    -0.006 C 
ATOM     11  C   UNL     1     120.014 105.833 122.633  1.00  0.00    -0.027 C 
ATOM     12  C   UNL     1     123.232 105.912 121.255  1.00  0.00     0.008 C 
ATOM     13  C   UNL     1     124.065 108.695 121.264  1.00  0.00     0.008 C 
ATOM     14  C   UNL     1     120.614 104.102 119.461  1.00  0.00     0.017 C 
ATOM     15  C   UNL     1     118.610 103.833 121.095  1.00  0.00    -0.020 C 
ATOM     16  C   UNL     1     118.888 105.070 123.296  1.00  0.00     0.032 C 
ATOM     17  C   UNL     1     117.869 104.644 122.226  1.00  0.00     0.006 C 
ATOM     18  C   UNL     1     117.583 103.061 120.184  1.00  0.00     0.008 C 
ATOM     19  C   UNL     1     119.532 102.718 121.719  1.00  0.00     0.012 C 
ATOM     20  C   UNL     1     116.472 104.085 122.699  1.00  0.00    -0.025 C 
ATOM     21  C   UNL     1     116.136 103.587 120.121  1.00  0.00     0.005 C 
ATOM     22  C   UNL     1     115.536 104.178 121.434  1.00  0.00     0.003 C 
ATOM     23  C   UNL     1     115.871 105.013 123.798  1.00  0.00     0.010 C 
ATOM     24  C   UNL     1     116.616 102.659 123.296  1.00  0.00     0.012 C 
ATOM     25  C   UNL     1     114.008 103.875 121.673  1.00  0.00    -0.006 C 
ATOM     26  C   UNL     1     114.384 104.747 124.107  1.00  0.00     0.033 C 
ATOM     27  C   UNL     1     113.472 104.754 122.859  1.00  0.00     0.120 C 
ATOM     28  C   UNL     1     113.733 102.373 121.972  1.00  0.00     0.014 C 
ATOM     29  C   UNL     1     113.196 104.239 120.396  1.00  0.00     0.014 C 
ENDROOT
BRANCH   1  30
ATOM     30  C   UNL     1     119.088 108.721 120.398  1.00  0.00     0.048 C 
ATOM     31  O   UNL     1     119.334 109.219 121.528  1.00  0.00    -0.550 OA
ATOM     32  O   UNL     1     117.844 108.959 119.830  1.00  0.00    -0.550 OA
ENDBRANCH   1  30
BRANCH  27  33
ATOM     33  O   UNL     1     113.194 106.077 122.458  1.00  0.00    -0.393 OA
ATOM     34  H   UNL     1     112.274 106.305 122.746  1.00  0.00     0.210 HD
ENDBRANCH  27  33
TORSDOF 2
ENDMDL
MODEL 8
REMARK VINA RESULT:    -5.054     12.147     14.690
REMARK INTER + INTRA:          -5.353
REMARK INTER:                  -5.053
REMARK INTRA:                  -0.300
REMARK UNBOUND:                 0.144
REMARK SMILES C[C@@H]1[C@H](C)CC[C@@]2(C(=O)[O-])CC[C@@]3(C)C(=CC[C@@H]4[C@@]5(C)CC[C@@H](O)C(C)(C)[C@@H]5CC[C@]43C)[C@@H]12
REMARK SMILES IDX 7 1 6 2 11 3 33 4 5 5 12 6 15 7 2 8 3 9 13 10 16 11 1 12
REMARK SMILES IDX 4 13 14 14 31 15 17 16 18 17 30 18 32 19 19 20 29 21 28 22
REMARK SMILES IDX 21 23 20 24 25 25 22 26 23 27 26 28 27 29 8 30 9 31 10 32
REMARK SMILES IDX 24 33
REMARK H PARENT 24 34
REMARK Flexibility Score: inf
ROOT
ATOM      1  C   UNL     1     123.525 114.059 108.795  1.00  0.00     0.017 C 
ATOM      2  C   UNL     1     122.235 113.921 107.914  1.00  0.00     0.014 C 
ATOM      3  C   UNL     1     124.489 115.025 108.039  1.00  0.00     0.014 C 
ATOM      4  C   UNL     1     123.165 114.601 110.231  1.00  0.00     0.030 C 
ATOM      5  C   UNL     1     120.979 113.622 108.738  1.00  0.00     0.004 C 
ATOM      6  C   UNL     1     125.730 115.478 108.833  1.00  0.00     0.013 C 
ATOM      7  C   UNL     1     124.411 115.141 110.957  1.00  0.00    -0.063 C 
ATOM      8  C   UNL     1     121.921 115.538 110.225  1.00  0.00    -0.003 C 
ATOM      9  C   UNL     1     120.641 114.772 109.721  1.00  0.00    -0.011 C 
ATOM     10  C   UNL     1     125.405 116.101 110.226  1.00  0.00    -0.006 C 
ATOM     11  C   UNL     1     124.713 114.547 112.153  1.00  0.00    -0.027 C 
ATOM     12  C   UNL     1     121.697 116.233 111.585  1.00  0.00     0.008 C 
ATOM     13  C   UNL     1     119.748 114.210 110.847  1.00  0.00     0.008 C 
ATOM     14  C   UNL     1     124.723 117.484 109.965  1.00  0.00     0.017 C 
ATOM     15  C   UNL     1     126.744 116.311 111.102  1.00  0.00    -0.020 C 
ATOM     16  C   UNL     1     126.097 114.501 112.763  1.00  0.00     0.032 C 
ATOM     17  C   UNL     1     127.131 114.904 111.699  1.00  0.00     0.006 C 
ATOM     18  C   UNL     1     127.945 116.936 110.297  1.00  0.00     0.008 C 
ATOM     19  C   UNL     1     126.434 117.340 112.253  1.00  0.00     0.012 C 
ATOM     20  C   UNL     1     128.660 114.661 112.006  1.00  0.00    -0.025 C 
ATOM     21  C   UNL     1     129.016 115.979 109.739  1.00  0.00     0.005 C 
ATOM     22  C   UNL     1     129.384 114.737 110.608  1.00  0.00     0.003 C 
ATOM     23  C   UNL     1     128.868 113.220 112.566  1.00  0.00     0.010 C 
ATOM     24  C   UNL     1     129.182 115.670 113.064  1.00  0.00     0.012 C 
ATOM     25  C   UNL     1     130.904 114.324 110.586  1.00  0.00    -0.006 C 
ATOM     26  C   UNL     1     130.341 112.764 112.605  1.00  0.00     0.033 C 
ATOM     27  C   UNL     1     131.081 112.915 111.257  1.00  0.00     0.120 C 
ATOM     28  C   UNL     1     131.818 115.360 111.302  1.00  0.00     0.014 C 
ATOM     29  C   UNL     1     131.398 114.224 109.114  1.00  0.00     0.014 C 
ENDROOT
BRANCH   1  30
ATOM     30  C   UNL     1     124.162 112.673 108.931  1.00  0.00     0.048 C 
ATOM     31  O   UNL     1     124.963 112.257 108.053  1.00  0.00    -0.550 OA
ATOM     32  O   UNL     1     123.884 111.848 110.013  1.00  0.00    -0.550 OA
ENDBRANCH   1  30
BRANCH  27  33
ATOM     33  O   UNL     1     130.736 111.862 110.384  1.00  0.00    -0.393 OA
ATOM     34  H   UNL     1     130.440 112.253 109.524  1.00  0.00     0.210 HD
ENDBRANCH  27  33
TORSDOF 2
ENDMDL
MODEL 9
REMARK VINA RESULT:    -5.043      1.894      7.961
REMARK INTER + INTRA:          -5.341
REMARK INTER:                  -5.043
REMARK INTRA:                  -0.298
REMARK UNBOUND:                 0.144
REMARK SMILES C[C@@H]1[C@H](C)CC[C@@]2(C(=O)[O-])CC[C@@]3(C)C(=CC[C@@H]4[C@@]5(C)CC[C@@H](O)C(C)(C)[C@@H]5CC[C@]43C)[C@@H]12
REMARK SMILES IDX 7 1 6 2 11 3 33 4 5 5 12 6 15 7 2 8 3 9 13 10 16 11 1 12
REMARK SMILES IDX 4 13 14 14 31 15 17 16 18 17 30 18 32 19 19 20 29 21 28 22
REMARK SMILES IDX 21 23 20 24 25 25 22 26 23 27 26 28 27 29 8 30 9 31 10 32
REMARK SMILES IDX 24 33
REMARK H PARENT 24 34
REMARK Flexibility Score: inf
ROOT
ATOM      1  C   UNL     1     124.486 111.044 121.924  1.00  0.00     0.017 C 
ATOM      2  C   UNL     1     124.710 112.320 122.806  1.00  0.00     0.014 C 
ATOM      3  C   UNL     1     124.224 109.857 122.903  1.00  0.00     0.014 C 
ATOM      4  C   UNL     1     123.282 111.256 120.930  1.00  0.00     0.030 C 
ATOM      5  C   UNL     1     124.301 113.615 122.098  1.00  0.00     0.004 C 
ATOM      6  C   UNL     1     123.758 108.545 122.242  1.00  0.00     0.013 C 
ATOM      7  C   UNL     1     122.772 109.916 120.367  1.00  0.00    -0.063 C 
ATOM      8  C   UNL     1     122.193 112.212 121.501  1.00  0.00    -0.003 C 
ATOM      9  C   UNL     1     122.786 113.645 121.771  1.00  0.00    -0.011 C 
ATOM     10  C   UNL     1     122.511 108.702 121.317  1.00  0.00    -0.006 C 
ATOM     11  C   UNL     1     122.807 109.785 119.005  1.00  0.00    -0.027 C 
ATOM     12  C   UNL     1     120.922 112.253 120.624  1.00  0.00     0.008 C 
ATOM     13  C   UNL     1     122.549 114.660 120.632  1.00  0.00     0.008 C 
ATOM     14  C   UNL     1     121.284 108.997 122.242  1.00  0.00     0.017 C 
ATOM     15  C   UNL     1     122.239 107.359 120.465  1.00  0.00    -0.020 C 
ATOM     16  C   UNL     1     122.886 108.465 118.271  1.00  0.00     0.032 C 
ATOM     17  C   UNL     1     123.265 107.356 119.267  1.00  0.00     0.006 C 
ATOM     18  C   UNL     1     122.346 106.033 121.306  1.00  0.00     0.008 C 
ATOM     19  C   UNL     1     120.757 107.395 119.931  1.00  0.00     0.012 C 
ATOM     20  C   UNL     1     123.685 105.946 118.697  1.00  0.00    -0.025 C 
ATOM     21  C   UNL     1     123.670 105.246 121.250  1.00  0.00     0.005 C 
ATOM     22  C   UNL     1     124.425 105.220 119.885  1.00  0.00     0.003 C 
ATOM     23  C   UNL     1     124.715 106.124 117.540  1.00  0.00     0.010 C 
ATOM     24  C   UNL     1     122.455 105.183 118.136  1.00  0.00     0.012 C 
ATOM     25  C   UNL     1     125.140 103.860 119.535  1.00  0.00    -0.006 C 
ATOM     26  C   UNL     1     125.428 104.822 117.123  1.00  0.00     0.033 C 
ATOM     27  C   UNL     1     126.085 104.062 118.297  1.00  0.00     0.120 C 
ATOM     28  C   UNL     1     124.134 102.712 119.241  1.00  0.00     0.014 C 
ATOM     29  C   UNL     1     126.012 103.403 120.740  1.00  0.00     0.014 C 
ENDROOT
BRANCH   1  30
ATOM     30  C   UNL     1     125.761 110.792 121.114  1.00  0.00     0.048 C 
ATOM     31  O   UNL     1     126.711 110.138 121.620  1.00  0.00    -0.550 OA
ATOM     32  O   UNL     1     125.905 111.265 119.817  1.00  0.00    -0.550 OA
ENDBRANCH   1  30
BRANCH  27  33
ATOM     33  O   UNL     1     127.309 104.666 118.653  1.00  0.00    -0.393 OA
ATOM     34  H   UNL     1     127.172 105.645 118.704  1.00  0.00     0.210 HD
ENDBRANCH  27  33
TORSDOF 2
ENDMDL
