MODEL 1
REMARK VINA RESULT:    -5.616      0.000      0.000
REMARK INTER + INTRA:         -10.140
REMARK INTER:                  -8.898
REMARK INTRA:                  -1.241
REMARK UNBOUND:                -1.241
REMARK SMILES CCCCCCCCCCCC(=O)[O-]
REMARK SMILES IDX 7 1 8 2 9 3 10 4 11 5 12 6 13 7 14 8 6 9 5 10 4 11 3 12 2 13
REMARK SMILES IDX 1 14
REMARK H PARENT
REMARK Flexibility Score: inf
ROOT
ATOM      1  C   UNL     1     -23.439  37.543   7.599  1.00  0.00     0.000 C 
ENDROOT
BRANCH   1   2
ATOM      2  C   UNL     1     -22.527  38.651   7.048  1.00  0.00     0.000 C 
BRANCH   2   3
ATOM      3  C   UNL     1     -22.633  38.796   5.520  1.00  0.00     0.000 C 
BRANCH   3   4
ATOM      4  C   UNL     1     -21.260  38.775   4.822  1.00  0.00     0.006 C 
BRANCH   4   5
ATOM      5  C   UNL     1     -20.298  39.884   5.281  1.00  0.00     0.053 C 
BRANCH   5   6
ATOM      6  C   UNL     1     -20.424  41.118   4.444  1.00  0.00     0.041 C 
ATOM      7  O   UNL     1     -21.255  41.161   3.498  1.00  0.00    -0.550 OA
ATOM      8  O   UNL     1     -19.602  42.211   4.687  1.00  0.00    -0.550 OA
ENDBRANCH   5   6
ENDBRANCH   4   5
ENDBRANCH   3   4
ENDBRANCH   2   3
ENDBRANCH   1   2
BRANCH   1   9
ATOM      9  C   UNL     1     -23.315  37.382   9.125  1.00  0.00     0.000 C 
BRANCH   9  10
ATOM     10  C   UNL     1     -21.864  37.145   9.578  1.00  0.00    -0.000 C 
BRANCH  10  11
ATOM     11  C   UNL     1     -21.256  35.866   8.985  1.00  0.00    -0.000 C 
BRANCH  11  12
ATOM     12  C   UNL     1     -19.831  36.123   8.473  1.00  0.00    -0.000 C 
BRANCH  12  13
ATOM     13  C   UNL     1     -19.755  36.175   6.939  1.00  0.00    -0.003 C 
ATOM     14  C   UNL     1     -20.856  35.357   6.263  1.00  0.00     0.004 C 
ENDBRANCH  12  13
ENDBRANCH  11  12
ENDBRANCH  10  11
ENDBRANCH   9  10
ENDBRANCH   1   9
TORSDOF 10
ENDMDL
MODEL 2
REMARK VINA RESULT:    -5.496      1.488      2.636
REMARK INTER + INTRA:          -9.951
REMARK INTER:                  -8.979
REMARK INTRA:                  -0.972
REMARK UNBOUND:                -1.241
REMARK SMILES CCCCCCCCCCCC(=O)[O-]
REMARK SMILES IDX 7 1 8 2 9 3 10 4 11 5 12 6 13 7 14 8 6 9 5 10 4 11 3 12 2 13
REMARK SMILES IDX 1 14
REMARK H PARENT
REMARK Flexibility Score: inf
ROOT
ATOM      1  C   UNL     1     -22.427  38.799   5.434  1.00  0.00     0.000 C 
ENDROOT
BRANCH   1   2
ATOM      2  C   UNL     1     -21.194  39.025   4.545  1.00  0.00     0.000 C 
BRANCH   2   3
ATOM      3  C   UNL     1     -20.178  39.991   5.180  1.00  0.00     0.000 C 
BRANCH   3   4
ATOM      4  C   UNL     1     -20.229  41.400   4.560  1.00  0.00     0.006 C 
BRANCH   4   5
ATOM      5  C   UNL     1     -18.853  42.058   4.367  1.00  0.00     0.053 C 
BRANCH   5   6
ATOM      6  C   UNL     1     -18.959  43.540   4.182  1.00  0.00     0.041 C 
ATOM      7  O   UNL     1     -19.400  44.015   3.102  1.00  0.00    -0.550 OA
ATOM      8  O   UNL     1     -18.541  44.399   5.190  1.00  0.00    -0.550 OA
ENDBRANCH   5   6
ENDBRANCH   4   5
ENDBRANCH   3   4
ENDBRANCH   2   3
ENDBRANCH   1   2
BRANCH   1   9
ATOM      9  C   UNL     1     -22.158  39.135   6.913  1.00  0.00     0.000 C 
BRANCH   9  10
ATOM     10  C   UNL     1     -22.946  38.231   7.876  1.00  0.00    -0.000 C 
BRANCH  10  11
ATOM     11  C   UNL     1     -23.188  36.824   7.310  1.00  0.00    -0.000 C 
BRANCH  11  12
ATOM     12  C   UNL     1     -22.114  35.843   7.803  1.00  0.00    -0.000 C 
BRANCH  12  13
ATOM     13  C   UNL     1     -21.028  35.577   6.750  1.00  0.00    -0.003 C 
ATOM     14  C   UNL     1     -19.751  36.379   7.000  1.00  0.00     0.004 C 
ENDBRANCH  12  13
ENDBRANCH  11  12
ENDBRANCH  10  11
ENDBRANCH   9  10
ENDBRANCH   1   9
TORSDOF 10
ENDMDL
MODEL 3
REMARK VINA RESULT:    -5.480      2.679      5.491
REMARK INTER + INTRA:          -9.926
REMARK INTER:                  -9.039
REMARK INTRA:                  -0.887
REMARK UNBOUND:                -1.241
REMARK SMILES CCCCCCCCCCCC(=O)[O-]
REMARK SMILES IDX 7 1 8 2 9 3 10 4 11 5 12 6 13 7 14 8 6 9 5 10 4 11 3 12 2 13
REMARK SMILES IDX 1 14
REMARK H PARENT
REMARK Flexibility Score: inf
ROOT
ATOM      1  C   UNL     1     -22.113  39.310   6.939  1.00  0.00     0.000 C 
ENDROOT
BRANCH   1   2
ATOM      2  C   UNL     1     -22.860  38.346   7.876  1.00  0.00     0.000 C 
BRANCH   2   3
ATOM      3  C   UNL     1     -23.197  37.007   7.196  1.00  0.00     0.000 C 
BRANCH   3   4
ATOM      4  C   UNL     1     -22.271  35.861   7.644  1.00  0.00     0.006 C 
BRANCH   4   5
ATOM      5  C   UNL     1     -21.063  35.625   6.723  1.00  0.00     0.053 C 
BRANCH   5   6
ATOM      6  C   UNL     1     -19.820  36.273   7.248  1.00  0.00     0.041 C 
ATOM      7  O   UNL     1     -19.477  36.107   8.449  1.00  0.00    -0.550 OA
ATOM      8  O   UNL     1     -19.057  37.088   6.421  1.00  0.00    -0.550 OA
ENDBRANCH   5   6
ENDBRANCH   4   5
ENDBRANCH   3   4
ENDBRANCH   2   3
ENDBRANCH   1   2
BRANCH   1   9
ATOM      9  C   UNL     1     -22.346  38.985   5.452  1.00  0.00     0.000 C 
BRANCH   9  10
ATOM     10  C   UNL     1     -21.114  39.285   4.583  1.00  0.00    -0.000 C 
BRANCH  10  11
ATOM     11  C   UNL     1     -20.286  40.467   5.109  1.00  0.00    -0.000 C 
BRANCH  11  12
ATOM     12  C   UNL     1     -20.219  41.595   4.070  1.00  0.00    -0.000 C 
BRANCH  12  13
ATOM     13  C   UNL     1     -18.878  42.345   4.096  1.00  0.00    -0.003 C 
ATOM     14  C   UNL     1     -18.994  43.744   4.700  1.00  0.00     0.004 C 
ENDBRANCH  12  13
ENDBRANCH  11  12
ENDBRANCH  10  11
ENDBRANCH   9  10
ENDBRANCH   1   9
TORSDOF 10
ENDMDL
MODEL 4
REMARK VINA RESULT:    -5.321      1.592      3.124
REMARK INTER + INTRA:          -9.673
REMARK INTER:                  -8.841
REMARK INTRA:                  -0.832
REMARK UNBOUND:                -1.241
REMARK SMILES CCCCCCCCCCCC(=O)[O-]
REMARK SMILES IDX 7 1 8 2 9 3 10 4 11 5 12 6 13 7 14 8 6 9 5 10 4 11 3 12 2 13
REMARK SMILES IDX 1 14
REMARK H PARENT
REMARK Flexibility Score: inf
ROOT
ATOM      1  C   UNL     1     -21.143  38.370   5.324  1.00  0.00     0.000 C 
ENDROOT
BRANCH   1   2
ATOM      2  C   UNL     1     -21.591  39.768   5.782  1.00  0.00     0.000 C 
BRANCH   2   3
ATOM      3  C   UNL     1     -22.064  40.647   4.611  1.00  0.00     0.000 C 
BRANCH   3   4
ATOM      4  C   UNL     1     -20.896  41.206   3.775  1.00  0.00     0.006 C 
BRANCH   4   5
ATOM      5  C   UNL     1     -19.735  41.774   4.607  1.00  0.00     0.053 C 
BRANCH   5   6
ATOM      6  C   UNL     1     -19.326  43.137   4.144  1.00  0.00     0.041 C 
ATOM      7  O   UNL     1     -18.942  44.001   4.977  1.00  0.00    -0.550 OA
ATOM      8  O   UNL     1     -19.401  43.467   2.797  1.00  0.00    -0.550 OA
ENDBRANCH   5   6
ENDBRANCH   4   5
ENDBRANCH   3   4
ENDBRANCH   2   3
ENDBRANCH   1   2
BRANCH   1   9
ATOM      9  C   UNL     1     -19.774  37.971   5.903  1.00  0.00     0.000 C 
BRANCH   9  10
ATOM     10  C   UNL     1     -19.816  36.625   6.645  1.00  0.00    -0.000 C 
BRANCH  10  11
ATOM     11  C   UNL     1     -21.120  35.851   6.403  1.00  0.00    -0.000 C 
BRANCH  11  12
ATOM     12  C   UNL     1     -22.001  35.855   7.660  1.00  0.00    -0.000 C 
BRANCH  12  13
ATOM     13  C   UNL     1     -23.447  36.284   7.369  1.00  0.00    -0.003 C 
ATOM     14  C   UNL     1     -23.856  37.545   8.132  1.00  0.00     0.004 C 
ENDBRANCH  12  13
ENDBRANCH  11  12
ENDBRANCH  10  11
ENDBRANCH   9  10
ENDBRANCH   1   9
TORSDOF 10
ENDMDL
MODEL 5
REMARK VINA RESULT:    -5.320      1.070      2.690
REMARK INTER + INTRA:          -9.671
REMARK INTER:                  -8.652
REMARK INTRA:                  -1.018
REMARK UNBOUND:                -1.241
REMARK SMILES CCCCCCCCCCCC(=O)[O-]
REMARK SMILES IDX 7 1 8 2 9 3 10 4 11 5 12 6 13 7 14 8 6 9 5 10 4 11 3 12 2 13
REMARK SMILES IDX 1 14
REMARK H PARENT
REMARK Flexibility Score: inf
ROOT
ATOM      1  C   UNL     1     -20.617  35.973   6.277  1.00  0.00     0.000 C 
ENDROOT
BRANCH   1   2
ATOM      2  C   UNL     1     -21.093  37.240   5.549  1.00  0.00     0.000 C 
BRANCH   2   3
ATOM      3  C   UNL     1     -20.221  38.466   5.870  1.00  0.00     0.000 C 
BRANCH   3   4
ATOM      4  C   UNL     1     -21.010  39.788   5.824  1.00  0.00     0.006 C 
BRANCH   4   5
ATOM      5  C   UNL     1     -21.373  40.262   4.407  1.00  0.00     0.053 C 
BRANCH   5   6
ATOM      6  C   UNL     1     -20.528  41.416   3.967  1.00  0.00     0.041 C 
ATOM      7  O   UNL     1     -19.480  41.713   4.600  1.00  0.00    -0.550 OA
ATOM      8  O   UNL     1     -20.914  42.187   2.878  1.00  0.00    -0.550 OA
ENDBRANCH   5   6
ENDBRANCH   4   5
ENDBRANCH   3   4
ENDBRANCH   2   3
ENDBRANCH   1   2
BRANCH   1   9
ATOM      9  C   UNL     1     -19.505  36.263   7.301  1.00  0.00     0.000 C 
BRANCH   9  10
ATOM     10  C   UNL     1     -20.010  36.200   8.753  1.00  0.00    -0.000 C 
BRANCH  10  11
ATOM     11  C   UNL     1     -21.523  35.956   8.848  1.00  0.00    -0.000 C 
BRANCH  11  12
ATOM     12  C   UNL     1     -22.253  37.221   9.325  1.00  0.00    -0.000 C 
BRANCH  12  13
ATOM     13  C   UNL     1     -23.573  37.459   8.577  1.00  0.00    -0.003 C 
ATOM     14  C   UNL     1     -23.865  36.382   7.532  1.00  0.00     0.004 C 
ENDBRANCH  12  13
ENDBRANCH  11  12
ENDBRANCH  10  11
ENDBRANCH   9  10
ENDBRANCH   1   9
TORSDOF 10
ENDMDL
MODEL 6
REMARK VINA RESULT:    -5.264      3.154      6.195
REMARK INTER + INTRA:          -9.582
REMARK INTER:                  -8.970
REMARK INTRA:                  -0.612
REMARK UNBOUND:                -1.241
REMARK SMILES CCCCCCCCCCCC(=O)[O-]
REMARK SMILES IDX 7 1 8 2 9 3 10 4 11 5 12 6 13 7 14 8 6 9 5 10 4 11 3 12 2 13
REMARK SMILES IDX 1 14
REMARK H PARENT
REMARK Flexibility Score: inf
ROOT
ATOM      1  C   UNL     1     -20.867  38.150   5.602  1.00  0.00     0.000 C 
ENDROOT
BRANCH   1   2
ATOM      2  C   UNL     1     -22.388  38.042   5.793  1.00  0.00     0.000 C 
BRANCH   2   3
ATOM      3  C   UNL     1     -22.843  36.605   6.103  1.00  0.00     0.000 C 
BRANCH   3   4
ATOM      4  C   UNL     1     -21.701  35.722   6.643  1.00  0.00     0.006 C 
BRANCH   4   5
ATOM      5  C   UNL     1     -21.783  35.432   8.151  1.00  0.00     0.053 C 
BRANCH   5   6
ATOM      6  C   UNL     1     -20.890  36.334   8.946  1.00  0.00     0.041 C 
ATOM      7  O   UNL     1     -21.381  37.278   9.621  1.00  0.00    -0.550 OA
ATOM      8  O   UNL     1     -19.513  36.154   8.916  1.00  0.00    -0.550 OA
ENDBRANCH   5   6
ENDBRANCH   4   5
ENDBRANCH   3   4
ENDBRANCH   2   3
ENDBRANCH   1   2
BRANCH   1   9
ATOM      9  C   UNL     1     -20.418  39.577   5.241  1.00  0.00     0.000 C 
BRANCH   9  10
ATOM     10  C   UNL     1     -21.311  40.224   4.169  1.00  0.00    -0.000 C 
BRANCH  10  11
ATOM     11  C   UNL     1     -20.875  41.652   3.811  1.00  0.00    -0.000 C 
BRANCH  11  12
ATOM     12  C   UNL     1     -19.447  41.929   4.306  1.00  0.00    -0.000 C 
BRANCH  12  13
ATOM     13  C   UNL     1     -18.910  43.288   3.833  1.00  0.00    -0.003 C 
ATOM     14  C   UNL     1     -18.648  44.255   4.987  1.00  0.00     0.004 C 
ENDBRANCH  12  13
ENDBRANCH  11  12
ENDBRANCH  10  11
ENDBRANCH   9  10
ENDBRANCH   1   9
TORSDOF 10
ENDMDL
MODEL 7
REMARK VINA RESULT:    -5.259     12.067     13.644
REMARK INTER + INTRA:          -9.575
REMARK INTER:                  -8.237
REMARK INTRA:                  -1.338
REMARK UNBOUND:                -1.241
REMARK SMILES CCCCCCCCCCCC(=O)[O-]
REMARK SMILES IDX 7 1 8 2 9 3 10 4 11 5 12 6 13 7 14 8 6 9 5 10 4 11 3 12 2 13
REMARK SMILES IDX 1 14
REMARK H PARENT
REMARK Flexibility Score: inf
ROOT
ATOM      1  C   UNL     1     -18.301  41.977  -7.214  1.00  0.00     0.000 C 
ENDROOT
BRANCH   1   2
ATOM      2  C   UNL     1     -19.043  43.125  -6.512  1.00  0.00     0.000 C 
BRANCH   2   3
ATOM      3  C   UNL     1     -20.245  42.633  -5.687  1.00  0.00     0.000 C 
BRANCH   3   4
ATOM      4  C   UNL     1     -21.597  43.010  -6.321  1.00  0.00     0.006 C 
BRANCH   4   5
ATOM      5  C   UNL     1     -22.706  41.964  -6.118  1.00  0.00     0.053 C 
BRANCH   5   6
ATOM      6  C   UNL     1     -22.404  40.680  -6.826  1.00  0.00     0.041 C 
ATOM      7  O   UNL     1     -22.495  39.582  -6.215  1.00  0.00    -0.550 OA
ATOM      8  O   UNL     1     -21.990  40.696  -8.152  1.00  0.00    -0.550 OA
ENDBRANCH   5   6
ENDBRANCH   4   5
ENDBRANCH   3   4
ENDBRANCH   2   3
ENDBRANCH   1   2
BRANCH   1   9
ATOM      9  C   UNL     1     -18.611  40.605  -6.588  1.00  0.00     0.000 C 
BRANCH   9  10
ATOM     10  C   UNL     1     -17.366  39.940  -5.977  1.00  0.00    -0.000 C 
BRANCH  10  11
ATOM     11  C   UNL     1     -17.165  40.301  -4.497  1.00  0.00    -0.000 C 
BRANCH  11  12
ATOM     12  C   UNL     1     -15.896  41.144  -4.307  1.00  0.00    -0.000 C 
BRANCH  12  13
ATOM     13  C   UNL     1     -16.199  42.563  -3.802  1.00  0.00    -0.003 C 
ATOM     14  C   UNL     1     -17.591  42.686  -3.182  1.00  0.00     0.004 C 
ENDBRANCH  12  13
ENDBRANCH  11  12
ENDBRANCH  10  11
ENDBRANCH   9  10
ENDBRANCH   1   9
TORSDOF 10
ENDMDL
MODEL 8
REMARK VINA RESULT:    -5.080     11.820     13.637
REMARK INTER + INTRA:          -9.291
REMARK INTER:                  -8.111
REMARK INTRA:                  -1.180
REMARK UNBOUND:                -1.241
REMARK SMILES CCCCCCCCCCCC(=O)[O-]
REMARK SMILES IDX 7 1 8 2 9 3 10 4 11 5 12 6 13 7 14 8 6 9 5 10 4 11 3 12 2 13
REMARK SMILES IDX 1 14
REMARK H PARENT
REMARK Flexibility Score: inf
ROOT
ATOM      1  C   UNL     1     -19.025  41.166  -7.671  1.00  0.00     0.000 C 
ENDROOT
BRANCH   1   2
ATOM      2  C   UNL     1     -18.127  40.011  -7.200  1.00  0.00     0.000 C 
BRANCH   2   3
ATOM      3  C   UNL     1     -17.083  40.463  -6.163  1.00  0.00     0.000 C 
BRANCH   3   4
ATOM      4  C   UNL     1     -17.473  40.085  -4.721  1.00  0.00     0.006 C 
BRANCH   4   5
ATOM      5  C   UNL     1     -16.613  40.752  -3.636  1.00  0.00     0.053 C 
BRANCH   5   6
ATOM      6  C   UNL     1     -16.799  42.237  -3.604  1.00  0.00     0.041 C 
ATOM      7  O   UNL     1     -15.885  43.000  -4.014  1.00  0.00    -0.550 OA
ATOM      8  O   UNL     1     -17.970  42.781  -3.090  1.00  0.00    -0.550 OA
ENDBRANCH   5   6
ENDBRANCH   4   5
ENDBRANCH   3   4
ENDBRANCH   2   3
ENDBRANCH   1   2
BRANCH   1   9
ATOM      9  C   UNL     1     -18.614  42.519  -7.063  1.00  0.00     0.000 C 
BRANCH   9  10
ATOM     10  C   UNL     1     -19.743  43.165  -6.242  1.00  0.00    -0.000 C 
BRANCH  10  11
ATOM     11  C   UNL     1     -20.718  42.133  -5.656  1.00  0.00    -0.000 C 
BRANCH  11  12
ATOM     12  C   UNL     1     -22.174  42.542  -5.923  1.00  0.00    -0.000 C 
BRANCH  12  13
ATOM     13  C   UNL     1     -23.015  41.392  -6.496  1.00  0.00    -0.003 C 
ATOM     14  C   UNL     1     -22.330  40.032  -6.360  1.00  0.00     0.004 C 
ENDBRANCH  12  13
ENDBRANCH  11  12
ENDBRANCH  10  11
ENDBRANCH   9  10
ENDBRANCH   1   9
TORSDOF 10
ENDMDL
MODEL 9
REMARK VINA RESULT:    -5.013     12.312     13.445
REMARK INTER + INTRA:          -9.186
REMARK INTER:                  -8.230
REMARK INTRA:                  -0.955
REMARK UNBOUND:                -1.241
REMARK SMILES CCCCCCCCCCCC(=O)[O-]
REMARK SMILES IDX 7 1 8 2 9 3 10 4 11 5 12 6 13 7 14 8 6 9 5 10 4 11 3 12 2 13
REMARK SMILES IDX 1 14
REMARK H PARENT
REMARK Flexibility Score: inf
ROOT
ATOM      1  C   UNL     1     -19.482  40.862  -6.719  1.00  0.00     0.000 C 
ENDROOT
BRANCH   1   2
ATOM      2  C   UNL     1     -20.625  40.878  -5.692  1.00  0.00     0.000 C 
BRANCH   2   3
ATOM      3  C   UNL     1     -21.953  40.370  -6.281  1.00  0.00     0.000 C 
BRANCH   3   4
ATOM      4  C   UNL     1     -22.974  41.501  -6.510  1.00  0.00     0.006 C 
BRANCH   4   5
ATOM      5  C   UNL     1     -22.745  42.749  -5.642  1.00  0.00     0.053 C 
BRANCH   5   6
ATOM      6  C   UNL     1     -23.436  43.955  -6.196  1.00  0.00     0.041 C 
ATOM      7  O   UNL     1     -24.304  43.829  -7.102  1.00  0.00    -0.550 OA
ATOM      8  O   UNL     1     -23.100  45.223  -5.739  1.00  0.00    -0.550 OA
ENDBRANCH   5   6
ENDBRANCH   4   5
ENDBRANCH   3   4
ENDBRANCH   2   3
ENDBRANCH   1   2
BRANCH   1   9
ATOM      9  C   UNL     1     -18.704  42.190  -6.756  1.00  0.00     0.000 C 
BRANCH   9  10
ATOM     10  C   UNL     1     -18.709  42.915  -5.400  1.00  0.00    -0.000 C 
BRANCH  10  11
ATOM     11  C   UNL     1     -17.297  43.261  -4.905  1.00  0.00    -0.000 C 
BRANCH  11  12
ATOM     12  C   UNL     1     -16.981  42.526  -3.594  1.00  0.00    -0.000 C 
BRANCH  12  13
ATOM     13  C   UNL     1     -16.031  41.336  -3.797  1.00  0.00    -0.003 C 
ATOM     14  C   UNL     1     -16.770  40.039  -4.128  1.00  0.00     0.004 C 
ENDBRANCH  12  13
ENDBRANCH  11  12
ENDBRANCH  10  11
ENDBRANCH   9  10
ENDBRANCH   1   9
TORSDOF 10
ENDMDL
