MODEL 1
REMARK VINA RESULT:    -2.687      0.000      0.000
REMARK INTER + INTRA:         -11.629
REMARK INTER:                  -6.770
REMARK INTRA:                  -4.858
REMARK UNBOUND:                -4.858
REMARK SMILES CCCCCCCCCCCCCCCCCCCCCCCCCCCC(=O)[O-]
REMARK SMILES IDX 15 1 16 2 17 3 18 4 19 5 20 6 21 7 22 8 23 9 24 10 25 11
REMARK SMILES IDX 26 12 27 13 28 14 29 15 30 16 14 17 13 18 12 19 11 20 10 21
REMARK SMILES IDX 9 22 8 23 7 24 6 25 5 26 4 27 3 28 2 29 1 30
REMARK H PARENT
REMARK Flexibility Score: inf
ROOT
ATOM      1  C   UNL     1      30.547  17.037 -18.387  1.00  0.00     0.000 C 
ENDROOT
BRANCH   1   2
ATOM      2  C   UNL     1      29.471  18.029 -18.867  1.00  0.00     0.000 C 
BRANCH   2   3
ATOM      3  C   UNL     1      28.467  18.391 -17.760  1.00  0.00     0.000 C 
BRANCH   3   4
ATOM      4  C   UNL     1      27.069  17.807 -18.020  1.00  0.00     0.000 C 
BRANCH   4   5
ATOM      5  C   UNL     1      26.966  16.367 -17.495  1.00  0.00     0.000 C 
BRANCH   5   6
ATOM      6  C   UNL     1      27.929  16.083 -16.328  1.00  0.00     0.000 C 
BRANCH   6   7
ATOM      7  C   UNL     1      27.758  14.702 -15.667  1.00  0.00     0.000 C 
BRANCH   7   8
ATOM      8  C   UNL     1      26.397  14.057 -15.977  1.00  0.00     0.000 C 
BRANCH   8   9
ATOM      9  C   UNL     1      26.511  12.875 -16.955  1.00  0.00     0.000 C 
BRANCH   9  10
ATOM     10  C   UNL     1      25.644  13.061 -18.208  1.00  0.00     0.000 C 
BRANCH  10  11
ATOM     11  C   UNL     1      24.200  13.419 -17.834  1.00  0.00     0.000 C 
BRANCH  11  12
ATOM     12  C   UNL     1      23.657  14.525 -18.752  1.00  0.00     0.006 C 
BRANCH  12  13
ATOM     13  C   UNL     1      22.925  15.621 -17.968  1.00  0.00     0.053 C 
BRANCH  13  14
ATOM     14  C   UNL     1      23.431  16.989 -18.313  1.00  0.00     0.041 C 
ATOM     15  O   UNL     1      23.449  17.895 -17.438  1.00  0.00    -0.550 OA
ATOM     16  O   UNL     1      23.866  17.267 -19.603  1.00  0.00    -0.550 OA
ENDBRANCH  13  14
ENDBRANCH  12  13
ENDBRANCH  11  12
ENDBRANCH  10  11
ENDBRANCH   9  10
ENDBRANCH   8   9
ENDBRANCH   7   8
ENDBRANCH   6   7
ENDBRANCH   5   6
ENDBRANCH   4   5
ENDBRANCH   3   4
ENDBRANCH   2   3
ENDBRANCH   1   2
BRANCH   1  17
ATOM     17  C   UNL     1      30.746  15.861 -19.360  1.00  0.00     0.000 C 
BRANCH  17  18
ATOM     18  C   UNL     1      29.446  15.226 -19.884  1.00  0.00     0.000 C 
BRANCH  18  19
ATOM     19  C   UNL     1      29.203  13.816 -19.315  1.00  0.00     0.000 C 
BRANCH  19  20
ATOM     20  C   UNL     1      30.440  13.237 -18.610  1.00  0.00     0.000 C 
BRANCH  20  21
ATOM     21  C   UNL     1      30.283  13.014 -17.094  1.00  0.00     0.000 C 
BRANCH  21  22
ATOM     22  C   UNL     1      31.623  12.908 -16.329  1.00  0.00    -0.000 C 
BRANCH  22  23
ATOM     23  C   UNL     1      32.296  14.264 -16.024  1.00  0.00    -0.000 C 
BRANCH  23  24
ATOM     24  C   UNL     1      33.794  14.346 -16.377  1.00  0.00    -0.000 C 
BRANCH  24  25
ATOM     25  C   UNL     1      34.105  13.835 -17.796  1.00  0.00    -0.000 C 
BRANCH  25  26
ATOM     26  C   UNL     1      34.986  14.809 -18.595  1.00  0.00    -0.000 C 
BRANCH  26  27
ATOM     27  C   UNL     1      34.311  15.421 -19.837  1.00  0.00    -0.000 C 
BRANCH  27  28
ATOM     28  C   UNL     1      34.228  16.963 -19.799  1.00  0.00    -0.000 C 
BRANCH  28  29
ATOM     29  C   UNL     1      34.163  17.538 -18.372  1.00  0.00    -0.003 C 
ATOM     30  C   UNL     1      33.504  18.915 -18.326  1.00  0.00     0.004 C 
ENDBRANCH  28  29
ENDBRANCH  27  28
ENDBRANCH  26  27
ENDBRANCH  25  26
ENDBRANCH  24  25
ENDBRANCH  23  24
ENDBRANCH  22  23
ENDBRANCH  21  22
ENDBRANCH  20  21
ENDBRANCH  19  20
ENDBRANCH  18  19
ENDBRANCH  17  18
ENDBRANCH   1  17
TORSDOF 26
ENDMDL
MODEL 2
REMARK VINA RESULT:    -2.674      2.308      3.267
REMARK INTER + INTRA:         -11.596
REMARK INTER:                  -8.246
REMARK INTRA:                  -3.350
REMARK UNBOUND:                -4.858
REMARK SMILES CCCCCCCCCCCCCCCCCCCCCCCCCCCC(=O)[O-]
REMARK SMILES IDX 15 1 16 2 17 3 18 4 19 5 20 6 21 7 22 8 23 9 24 10 25 11
REMARK SMILES IDX 26 12 27 13 28 14 29 15 30 16 14 17 13 18 12 19 11 20 10 21
REMARK SMILES IDX 9 22 8 23 7 24 6 25 5 26 4 27 3 28 2 29 1 30
REMARK H PARENT
REMARK Flexibility Score: inf
ROOT
ATOM      1  C   UNL     1      28.361  16.517 -18.612  1.00  0.00     0.000 C 
ENDROOT
BRANCH   1   2
ATOM      2  C   UNL     1      28.621  17.411 -17.385  1.00  0.00     0.000 C 
BRANCH   2   3
ATOM      3  C   UNL     1      27.955  18.791 -17.508  1.00  0.00     0.000 C 
BRANCH   3   4
ATOM      4  C   UNL     1      27.677  19.182 -18.968  1.00  0.00     0.000 C 
BRANCH   4   5
ATOM      5  C   UNL     1      26.167  19.232 -19.249  1.00  0.00     0.000 C 
BRANCH   5   6
ATOM      6  C   UNL     1      25.318  18.798 -18.041  1.00  0.00     0.000 C 
BRANCH   6   7
ATOM      7  C   UNL     1      24.342  17.639 -18.317  1.00  0.00     0.000 C 
BRANCH   7   8
ATOM      8  C   UNL     1      24.868  16.657 -19.378  1.00  0.00     0.000 C 
BRANCH   8   9
ATOM      9  C   UNL     1      24.300  15.238 -19.205  1.00  0.00     0.000 C 
BRANCH   9  10
ATOM     10  C   UNL     1      24.388  14.740 -17.755  1.00  0.00     0.000 C 
BRANCH  10  11
ATOM     11  C   UNL     1      22.994  14.459 -17.181  1.00  0.00     0.000 C 
BRANCH  11  12
ATOM     12  C   UNL     1      23.043  13.303 -16.172  1.00  0.00     0.006 C 
BRANCH  12  13
ATOM     13  C   UNL     1      22.145  13.557 -14.955  1.00  0.00     0.053 C 
BRANCH  13  14
ATOM     14  C   UNL     1      22.933  13.628 -13.682  1.00  0.00     0.041 C 
ATOM     15  O   UNL     1      22.416  13.253 -12.597  1.00  0.00    -0.550 OA
ATOM     16  O   UNL     1      24.231  14.124 -13.693  1.00  0.00    -0.550 OA
ENDBRANCH  13  14
ENDBRANCH  12  13
ENDBRANCH  11  12
ENDBRANCH  10  11
ENDBRANCH   9  10
ENDBRANCH   8   9
ENDBRANCH   7   8
ENDBRANCH   6   7
ENDBRANCH   5   6
ENDBRANCH   4   5
ENDBRANCH   3   4
ENDBRANCH   2   3
ENDBRANCH   1   2
BRANCH   1  17
ATOM     17  C   UNL     1      28.924  15.094 -18.440  1.00  0.00     0.000 C 
BRANCH  17  18
ATOM     18  C   UNL     1      27.972  14.099 -17.752  1.00  0.00     0.000 C 
BRANCH  18  19
ATOM     19  C   UNL     1      28.689  13.210 -16.720  1.00  0.00     0.000 C 
BRANCH  19  20
ATOM     20  C   UNL     1      29.239  14.008 -15.527  1.00  0.00     0.000 C 
BRANCH  20  21
ATOM     21  C   UNL     1      30.693  14.494 -15.681  1.00  0.00     0.000 C 
BRANCH  21  22
ATOM     22  C   UNL     1      31.698  13.373 -16.033  1.00  0.00    -0.000 C 
BRANCH  22  23
ATOM     23  C   UNL     1      32.056  13.280 -17.532  1.00  0.00    -0.000 C 
BRANCH  23  24
ATOM     24  C   UNL     1      33.538  13.537 -17.869  1.00  0.00    -0.000 C 
BRANCH  24  25
ATOM     25  C   UNL     1      34.337  14.096 -16.678  1.00  0.00    -0.000 C 
BRANCH  25  26
ATOM     26  C   UNL     1      34.701  15.580 -16.853  1.00  0.00    -0.000 C 
BRANCH  26  27
ATOM     27  C   UNL     1      34.376  16.165 -18.240  1.00  0.00    -0.000 C 
BRANCH  27  28
ATOM     28  C   UNL     1      34.340  17.710 -18.266  1.00  0.00    -0.000 C 
BRANCH  28  29
ATOM     29  C   UNL     1      32.939  18.286 -18.534  1.00  0.00    -0.003 C 
ATOM     30  C   UNL     1      31.992  17.257 -19.150  1.00  0.00     0.004 C 
ENDBRANCH  28  29
ENDBRANCH  27  28
ENDBRANCH  26  27
ENDBRANCH  25  26
ENDBRANCH  24  25
ENDBRANCH  23  24
ENDBRANCH  22  23
ENDBRANCH  21  22
ENDBRANCH  20  21
ENDBRANCH  19  20
ENDBRANCH  18  19
ENDBRANCH  17  18
ENDBRANCH   1  17
TORSDOF 26
ENDMDL
MODEL 3
REMARK VINA RESULT:    -2.523      2.968      8.097
REMARK INTER + INTRA:         -11.215
REMARK INTER:                  -7.269
REMARK INTRA:                  -3.947
REMARK UNBOUND:                -4.858
REMARK SMILES CCCCCCCCCCCCCCCCCCCCCCCCCCCC(=O)[O-]
REMARK SMILES IDX 15 1 16 2 17 3 18 4 19 5 20 6 21 7 22 8 23 9 24 10 25 11
REMARK SMILES IDX 26 12 27 13 28 14 29 15 30 16 14 17 13 18 12 19 11 20 10 21
REMARK SMILES IDX 9 22 8 23 7 24 6 25 5 26 4 27 3 28 2 29 1 30
REMARK H PARENT
REMARK Flexibility Score: inf
ROOT
ATOM      1  C   UNL     1      28.642  16.441 -16.372  1.00  0.00     0.000 C 
ENDROOT
BRANCH   1   2
ATOM      2  C   UNL     1      29.206  16.435 -17.805  1.00  0.00     0.000 C 
BRANCH   2   3
ATOM      3  C   UNL     1      30.563  15.717 -17.902  1.00  0.00     0.000 C 
BRANCH   3   4
ATOM      4  C   UNL     1      30.414  14.209 -18.155  1.00  0.00     0.000 C 
BRANCH   4   5
ATOM      5  C   UNL     1      30.563  13.412 -16.850  1.00  0.00     0.000 C 
BRANCH   5   6
ATOM      6  C   UNL     1      31.656  13.976 -15.924  1.00  0.00     0.000 C 
BRANCH   6   7
ATOM      7  C   UNL     1      33.064  13.393 -16.153  1.00  0.00     0.000 C 
BRANCH   7   8
ATOM      8  C   UNL     1      34.130  14.480 -16.374  1.00  0.00     0.000 C 
BRANCH   8   9
ATOM      9  C   UNL     1      34.900  14.293 -17.692  1.00  0.00     0.000 C 
BRANCH   9  10
ATOM     10  C   UNL     1      34.015  13.744 -18.821  1.00  0.00     0.000 C 
BRANCH  10  11
ATOM     11  C   UNL     1      33.999  14.695 -20.024  1.00  0.00     0.000 C 
BRANCH  11  12
ATOM     12  C   UNL     1      34.629  16.047 -19.659  1.00  0.00     0.006 C 
BRANCH  12  13
ATOM     13  C   UNL     1      33.577  17.149 -19.484  1.00  0.00     0.053 C 
BRANCH  13  14
ATOM     14  C   UNL     1      33.949  18.111 -18.397  1.00  0.00     0.041 C 
ATOM     15  O   UNL     1      33.307  19.185 -18.256  1.00  0.00    -0.550 OA
ATOM     16  O   UNL     1      35.013  17.828 -17.549  1.00  0.00    -0.550 OA
ENDBRANCH  13  14
ENDBRANCH  12  13
ENDBRANCH  11  12
ENDBRANCH  10  11
ENDBRANCH   9  10
ENDBRANCH   8   9
ENDBRANCH   7   8
ENDBRANCH   6   7
ENDBRANCH   5   6
ENDBRANCH   4   5
ENDBRANCH   3   4
ENDBRANCH   2   3
ENDBRANCH   1   2
BRANCH   1  17
ATOM     17  C   UNL     1      27.532  15.394 -16.166  1.00  0.00     0.000 C 
BRANCH  17  18
ATOM     18  C   UNL     1      26.998  14.752 -17.459  1.00  0.00     0.000 C 
BRANCH  18  19
ATOM     19  C   UNL     1      26.690  13.253 -17.294  1.00  0.00     0.000 C 
BRANCH  19  20
ATOM     20  C   UNL     1      26.330  12.875 -15.848  1.00  0.00     0.000 C 
BRANCH  20  21
ATOM     21  C   UNL     1      24.897  13.238 -15.415  1.00  0.00     0.000 C 
BRANCH  21  22
ATOM     22  C   UNL     1      23.838  13.057 -16.527  1.00  0.00    -0.000 C 
BRANCH  22  23
ATOM     23  C   UNL     1      22.524  13.833 -16.293  1.00  0.00    -0.000 C 
BRANCH  23  24
ATOM     24  C   UNL     1      22.175  14.874 -17.376  1.00  0.00    -0.000 C 
BRANCH  24  25
ATOM     25  C   UNL     1      23.412  15.608 -17.923  1.00  0.00    -0.000 C 
BRANCH  25  26
ATOM     26  C   UNL     1      23.049  16.907 -18.664  1.00  0.00    -0.000 C 
BRANCH  26  27
ATOM     27  C   UNL     1      23.984  18.096 -18.379  1.00  0.00    -0.000 C 
BRANCH  27  28
ATOM     28  C   UNL     1      25.475  17.700 -18.276  1.00  0.00    -0.000 C 
BRANCH  28  29
ATOM     29  C   UNL     1      26.414  18.645 -19.046  1.00  0.00    -0.003 C 
ATOM     30  C   UNL     1      26.774  19.894 -18.242  1.00  0.00     0.004 C 
ENDBRANCH  28  29
ENDBRANCH  27  28
ENDBRANCH  26  27
ENDBRANCH  25  26
ENDBRANCH  24  25
ENDBRANCH  23  24
ENDBRANCH  22  23
ENDBRANCH  21  22
ENDBRANCH  20  21
ENDBRANCH  19  20
ENDBRANCH  18  19
ENDBRANCH  17  18
ENDBRANCH   1  17
TORSDOF 26
ENDMDL
MODEL 4
REMARK VINA RESULT:    -2.404      1.435      2.702
REMARK INTER + INTRA:         -10.917
REMARK INTER:                  -6.696
REMARK INTRA:                  -4.221
REMARK UNBOUND:                -4.858
REMARK SMILES CCCCCCCCCCCCCCCCCCCCCCCCCCCC(=O)[O-]
REMARK SMILES IDX 15 1 16 2 17 3 18 4 19 5 20 6 21 7 22 8 23 9 24 10 25 11
REMARK SMILES IDX 26 12 27 13 28 14 29 15 30 16 14 17 13 18 12 19 11 20 10 21
REMARK SMILES IDX 9 22 8 23 7 24 6 25 5 26 4 27 3 28 2 29 1 30
REMARK H PARENT
REMARK Flexibility Score: inf
ROOT
ATOM      1  C   UNL     1      28.305  17.426 -17.214  1.00  0.00     0.000 C 
ENDROOT
BRANCH   1   2
ATOM      2  C   UNL     1      29.281  17.324 -18.401  1.00  0.00     0.000 C 
BRANCH   2   3
ATOM      3  C   UNL     1      28.555  17.200 -19.752  1.00  0.00     0.000 C 
BRANCH   3   4
ATOM      4  C   UNL     1      27.634  15.972 -19.814  1.00  0.00     0.000 C 
BRANCH   4   5
ATOM      5  C   UNL     1      28.440  14.688 -20.062  1.00  0.00     0.000 C 
BRANCH   5   6
ATOM      6  C   UNL     1      27.890  13.476 -19.290  1.00  0.00     0.000 C 
BRANCH   6   7
ATOM      7  C   UNL     1      26.648  13.766 -18.426  1.00  0.00     0.000 C 
BRANCH   7   8
ATOM      8  C   UNL     1      25.386  13.051 -18.937  1.00  0.00     0.000 C 
BRANCH   8   9
ATOM      9  C   UNL     1      24.733  13.779 -20.125  1.00  0.00     0.000 C 
BRANCH   9  10
ATOM     10  C   UNL     1      23.382  14.411 -19.760  1.00  0.00     0.000 C 
BRANCH  10  11
ATOM     11  C   UNL     1      23.545  15.470 -18.663  1.00  0.00     0.000 C 
BRANCH  11  12
ATOM     12  C   UNL     1      23.215  16.870 -19.203  1.00  0.00     0.006 C 
BRANCH  12  13
ATOM     13  C   UNL     1      24.443  17.562 -19.806  1.00  0.00     0.053 C 
BRANCH  13  14
ATOM     14  C   UNL     1      25.098  18.491 -18.830  1.00  0.00     0.041 C 
ATOM     15  O   UNL     1      24.800  18.437 -17.607  1.00  0.00    -0.550 OA
ATOM     16  O   UNL     1      26.026  19.426 -19.272  1.00  0.00    -0.550 OA
ENDBRANCH  13  14
ENDBRANCH  12  13
ENDBRANCH  11  12
ENDBRANCH  10  11
ENDBRANCH   9  10
ENDBRANCH   8   9
ENDBRANCH   7   8
ENDBRANCH   6   7
ENDBRANCH   5   6
ENDBRANCH   4   5
ENDBRANCH   3   4
ENDBRANCH   2   3
ENDBRANCH   1   2
BRANCH   1  17
ATOM     17  C   UNL     1      28.527  16.320 -16.166  1.00  0.00     0.000 C 
BRANCH  17  18
ATOM     18  C   UNL     1      29.480  15.193 -16.606  1.00  0.00     0.000 C 
BRANCH  18  19
ATOM     19  C   UNL     1      29.414  13.966 -15.680  1.00  0.00     0.000 C 
BRANCH  19  20
ATOM     20  C   UNL     1      30.804  13.461 -15.259  1.00  0.00     0.000 C 
BRANCH  20  21
ATOM     21  C   UNL     1      31.867  13.472 -16.373  1.00  0.00     0.000 C 
BRANCH  21  22
ATOM     22  C   UNL     1      33.241  14.027 -15.930  1.00  0.00    -0.000 C 
BRANCH  22  23
ATOM     23  C   UNL     1      34.226  14.300 -17.086  1.00  0.00    -0.000 C 
BRANCH  23  24
ATOM     24  C   UNL     1      33.876  13.613 -18.422  1.00  0.00    -0.000 C 
BRANCH  24  25
ATOM     25  C   UNL     1      33.593  14.615 -19.556  1.00  0.00    -0.000 C 
BRANCH  25  26
ATOM     26  C   UNL     1      32.394  15.530 -19.251  1.00  0.00    -0.000 C 
BRANCH  26  27
ATOM     27  C   UNL     1      32.346  16.829 -20.077  1.00  0.00    -0.000 C 
BRANCH  27  28
ATOM     28  C   UNL     1      33.563  17.753 -19.847  1.00  0.00    -0.000 C 
BRANCH  28  29
ATOM     29  C   UNL     1      33.691  18.247 -18.395  1.00  0.00    -0.003 C 
ATOM     30  C   UNL     1      34.964  17.746 -17.717  1.00  0.00     0.004 C 
ENDBRANCH  28  29
ENDBRANCH  27  28
ENDBRANCH  26  27
ENDBRANCH  25  26
ENDBRANCH  24  25
ENDBRANCH  23  24
ENDBRANCH  22  23
ENDBRANCH  21  22
ENDBRANCH  20  21
ENDBRANCH  19  20
ENDBRANCH  18  19
ENDBRANCH  17  18
ENDBRANCH   1  17
TORSDOF 26
ENDMDL
MODEL 5
REMARK VINA RESULT:    -2.403      2.353      8.123
REMARK INTER + INTRA:         -10.915
REMARK INTER:                  -7.250
REMARK INTRA:                  -3.665
REMARK UNBOUND:                -4.858
REMARK SMILES CCCCCCCCCCCCCCCCCCCCCCCCCCCC(=O)[O-]
REMARK SMILES IDX 15 1 16 2 17 3 18 4 19 5 20 6 21 7 22 8 23 9 24 10 25 11
REMARK SMILES IDX 26 12 27 13 28 14 29 15 30 16 14 17 13 18 12 19 11 20 10 21
REMARK SMILES IDX 9 22 8 23 7 24 6 25 5 26 4 27 3 28 2 29 1 30
REMARK H PARENT
REMARK Flexibility Score: inf
ROOT
ATOM      1  C   UNL     1      28.148  15.186 -15.855  1.00  0.00     0.000 C 
ENDROOT
BRANCH   1   2
ATOM      2  C   UNL     1      29.314  14.197 -15.676  1.00  0.00     0.000 C 
BRANCH   2   3
ATOM      3  C   UNL     1      30.516  14.531 -16.576  1.00  0.00     0.000 C 
BRANCH   3   4
ATOM      4  C   UNL     1      31.861  14.332 -15.860  1.00  0.00     0.000 C 
BRANCH   4   5
ATOM      5  C   UNL     1      32.558  13.049 -16.340  1.00  0.00     0.000 C 
BRANCH   5   6
ATOM      6  C   UNL     1      33.983  12.895 -15.779  1.00  0.00     0.000 C 
BRANCH   6   7
ATOM      7  C   UNL     1      35.083  13.586 -16.606  1.00  0.00     0.000 C 
BRANCH   7   8
ATOM      8  C   UNL     1      35.005  13.246 -18.104  1.00  0.00     0.000 C 
BRANCH   8   9
ATOM      9  C   UNL     1      34.385  14.382 -18.937  1.00  0.00     0.000 C 
BRANCH   9  10
ATOM     10  C   UNL     1      35.048  15.741 -18.668  1.00  0.00     0.000 C 
BRANCH  10  11
ATOM     11  C   UNL     1      34.137  16.644 -17.828  1.00  0.00     0.000 C 
BRANCH  11  12
ATOM     12  C   UNL     1      33.939  18.005 -18.510  1.00  0.00     0.006 C 
BRANCH  12  13
ATOM     13  C   UNL     1      33.107  17.895 -19.793  1.00  0.00     0.053 C 
BRANCH  13  14
ATOM     14  C   UNL     1      31.783  17.237 -19.548  1.00  0.00     0.041 C 
ATOM     15  O   UNL     1      31.519  16.129 -20.086  1.00  0.00    -0.550 OA
ATOM     16  O   UNL     1      30.837  17.854 -18.740  1.00  0.00    -0.550 OA
ENDBRANCH  13  14
ENDBRANCH  12  13
ENDBRANCH  11  12
ENDBRANCH  10  11
ENDBRANCH   9  10
ENDBRANCH   8   9
ENDBRANCH   7   8
ENDBRANCH   6   7
ENDBRANCH   5   6
ENDBRANCH   4   5
ENDBRANCH   3   4
ENDBRANCH   2   3
ENDBRANCH   1   2
BRANCH   1  17
ATOM     17  C   UNL     1      28.623  16.604 -16.221  1.00  0.00     0.000 C 
BRANCH  17  18
ATOM     18  C   UNL     1      27.755  17.330 -17.265  1.00  0.00     0.000 C 
BRANCH  18  19
ATOM     19  C   UNL     1      27.879  18.861 -17.178  1.00  0.00     0.000 C 
BRANCH  19  20
ATOM     20  C   UNL     1      26.751  19.594 -17.924  1.00  0.00     0.000 C 
BRANCH  20  21
ATOM     21  C   UNL     1      26.815  19.497 -19.460  1.00  0.00     0.000 C 
BRANCH  21  22
ATOM     22  C   UNL     1      25.517  18.969 -20.114  1.00  0.00    -0.000 C 
BRANCH  22  23
ATOM     23  C   UNL     1      25.237  17.472 -19.865  1.00  0.00    -0.000 C 
BRANCH  23  24
ATOM     24  C   UNL     1      24.232  17.171 -18.735  1.00  0.00    -0.000 C 
BRANCH  24  25
ATOM     25  C   UNL     1      23.399  15.903 -18.995  1.00  0.00    -0.000 C 
BRANCH  25  26
ATOM     26  C   UNL     1      24.272  14.668 -19.276  1.00  0.00    -0.000 C 
BRANCH  26  27
ATOM     27  C   UNL     1      25.061  14.145 -18.062  1.00  0.00    -0.000 C 
BRANCH  27  28
ATOM     28  C   UNL     1      26.448  13.570 -18.428  1.00  0.00    -0.000 C 
BRANCH  28  29
ATOM     29  C   UNL     1      27.152  14.340 -19.559  1.00  0.00    -0.003 C 
ATOM     30  C   UNL     1      28.637  13.997 -19.664  1.00  0.00     0.004 C 
ENDBRANCH  28  29
ENDBRANCH  27  28
ENDBRANCH  26  27
ENDBRANCH  25  26
ENDBRANCH  24  25
ENDBRANCH  23  24
ENDBRANCH  22  23
ENDBRANCH  21  22
ENDBRANCH  20  21
ENDBRANCH  19  20
ENDBRANCH  18  19
ENDBRANCH  17  18
ENDBRANCH   1  17
TORSDOF 26
ENDMDL
MODEL 6
REMARK VINA RESULT:    -2.249      2.151      8.193
REMARK INTER + INTRA:         -10.525
REMARK INTER:                  -6.920
REMARK INTRA:                  -3.604
REMARK UNBOUND:                -4.858
REMARK SMILES CCCCCCCCCCCCCCCCCCCCCCCCCCCC(=O)[O-]
REMARK SMILES IDX 15 1 16 2 17 3 18 4 19 5 20 6 21 7 22 8 23 9 24 10 25 11
REMARK SMILES IDX 26 12 27 13 28 14 29 15 30 16 14 17 13 18 12 19 11 20 10 21
REMARK SMILES IDX 9 22 8 23 7 24 6 25 5 26 4 27 3 28 2 29 1 30
REMARK H PARENT
REMARK Flexibility Score: inf
ROOT
ATOM      1  C   UNL     1      28.793  14.304 -15.623  1.00  0.00     0.000 C 
ENDROOT
BRANCH   1   2
ATOM      2  C   UNL     1      30.117  13.565 -15.355  1.00  0.00     0.000 C 
BRANCH   2   3
ATOM      3  C   UNL     1      31.348  14.458 -15.582  1.00  0.00     0.000 C 
BRANCH   3   4
ATOM      4  C   UNL     1      32.468  13.734 -16.345  1.00  0.00     0.000 C 
BRANCH   4   5
ATOM      5  C   UNL     1      33.630  14.689 -16.661  1.00  0.00     0.000 C 
BRANCH   5   6
ATOM      6  C   UNL     1      34.166  14.528 -18.094  1.00  0.00     0.000 C 
BRANCH   6   7
ATOM      7  C   UNL     1      34.629  15.835 -18.765  1.00  0.00     0.000 C 
BRANCH   7   8
ATOM      8  C   UNL     1      34.383  17.074 -17.888  1.00  0.00     0.000 C 
BRANCH   8   9
ATOM      9  C   UNL     1      33.505  18.128 -18.584  1.00  0.00     0.000 C 
BRANCH   9  10
ATOM     10  C   UNL     1      32.640  17.529 -19.703  1.00  0.00     0.000 C 
BRANCH  10  11
ATOM     11  C   UNL     1      31.210  17.266 -19.216  1.00  0.00     0.000 C 
BRANCH  11  12
ATOM     12  C   UNL     1      30.922  15.759 -19.159  1.00  0.00     0.006 C 
BRANCH  12  13
ATOM     13  C   UNL     1      29.608  15.393 -19.861  1.00  0.00     0.053 C 
BRANCH  13  14
ATOM     14  C   UNL     1      29.176  13.993 -19.548  1.00  0.00     0.041 C 
ATOM     15  O   UNL     1      28.224  13.789 -18.749  1.00  0.00    -0.550 OA
ATOM     16  O   UNL     1      29.835  12.914 -20.125  1.00  0.00    -0.550 OA
ENDBRANCH  13  14
ENDBRANCH  12  13
ENDBRANCH  11  12
ENDBRANCH  10  11
ENDBRANCH   9  10
ENDBRANCH   8   9
ENDBRANCH   7   8
ENDBRANCH   6   7
ENDBRANCH   5   6
ENDBRANCH   4   5
ENDBRANCH   3   4
ENDBRANCH   2   3
ENDBRANCH   1   2
BRANCH   1  17
ATOM     17  C   UNL     1      28.995  15.809 -15.881  1.00  0.00     0.000 C 
BRANCH  17  18
ATOM     18  C   UNL     1      27.879  16.481 -16.701  1.00  0.00     0.000 C 
BRANCH  18  19
ATOM     19  C   UNL     1      28.243  17.911 -17.137  1.00  0.00     0.000 C 
BRANCH  19  20
ATOM     20  C   UNL     1      27.035  18.696 -17.675  1.00  0.00     0.000 C 
BRANCH  20  21
ATOM     21  C   UNL     1      26.164  17.936 -18.694  1.00  0.00     0.000 C 
BRANCH  21  22
ATOM     22  C   UNL     1      24.649  17.990 -18.392  1.00  0.00    -0.000 C 
BRANCH  22  23
ATOM     23  C   UNL     1      23.808  16.934 -19.141  1.00  0.00    -0.000 C 
BRANCH  23  24
ATOM     24  C   UNL     1      23.008  15.972 -18.240  1.00  0.00    -0.000 C 
BRANCH  24  25
ATOM     25  C   UNL     1      23.112  14.504 -18.689  1.00  0.00    -0.000 C 
BRANCH  25  26
ATOM     26  C   UNL     1      24.521  13.921 -18.483  1.00  0.00    -0.000 C 
BRANCH  26  27
ATOM     27  C   UNL     1      24.650  12.949 -17.295  1.00  0.00    -0.000 C 
BRANCH  27  28
ATOM     28  C   UNL     1      24.376  13.608 -15.924  1.00  0.00    -0.000 C 
BRANCH  28  29
ATOM     29  C   UNL     1      23.200  12.971 -15.163  1.00  0.00    -0.003 C 
ATOM     30  C   UNL     1      23.019  13.561 -13.766  1.00  0.00     0.004 C 
ENDBRANCH  28  29
ENDBRANCH  27  28
ENDBRANCH  26  27
ENDBRANCH  25  26
ENDBRANCH  24  25
ENDBRANCH  23  24
ENDBRANCH  22  23
ENDBRANCH  21  22
ENDBRANCH  20  21
ENDBRANCH  19  20
ENDBRANCH  18  19
ENDBRANCH  17  18
ENDBRANCH   1  17
TORSDOF 26
ENDMDL
MODEL 7
REMARK VINA RESULT:    -2.226      1.972      4.072
REMARK INTER + INTRA:         -10.467
REMARK INTER:                  -6.456
REMARK INTRA:                  -4.011
REMARK UNBOUND:                -4.858
REMARK SMILES CCCCCCCCCCCCCCCCCCCCCCCCCCCC(=O)[O-]
REMARK SMILES IDX 15 1 16 2 17 3 18 4 19 5 20 6 21 7 22 8 23 9 24 10 25 11
REMARK SMILES IDX 26 12 27 13 28 14 29 15 30 16 14 17 13 18 12 19 11 20 10 21
REMARK SMILES IDX 9 22 8 23 7 24 6 25 5 26 4 27 3 28 2 29 1 30
REMARK H PARENT
REMARK Flexibility Score: inf
ROOT
ATOM      1  C   UNL     1      29.040  14.661 -17.240  1.00  0.00     0.000 C 
ENDROOT
BRANCH   1   2
ATOM      2  C   UNL     1      27.914  13.652 -17.531  1.00  0.00     0.000 C 
BRANCH   2   3
ATOM      3  C   UNL     1      27.933  13.150 -18.985  1.00  0.00     0.000 C 
BRANCH   3   4
ATOM      4  C   UNL     1      27.721  14.282 -20.001  1.00  0.00     0.000 C 
BRANCH   4   5
ATOM      5  C   UNL     1      26.251  14.729 -20.032  1.00  0.00     0.000 C 
BRANCH   5   6
ATOM      6  C   UNL     1      26.079  16.241 -19.803  1.00  0.00     0.000 C 
BRANCH   6   7
ATOM      7  C   UNL     1      24.623  16.744 -19.853  1.00  0.00     0.000 C 
BRANCH   7   8
ATOM      8  C   UNL     1      24.075  17.121 -18.466  1.00  0.00     0.000 C 
BRANCH   8   9
ATOM      9  C   UNL     1      22.998  16.141 -17.969  1.00  0.00     0.000 C 
BRANCH   9  10
ATOM     10  C   UNL     1      22.744  14.993 -18.957  1.00  0.00     0.000 C 
BRANCH  10  11
ATOM     11  C   UNL     1      23.193  13.649 -18.371  1.00  0.00     0.000 C 
BRANCH  11  12
ATOM     12  C   UNL     1      24.161  13.863 -17.197  1.00  0.00     0.006 C 
BRANCH  12  13
ATOM     13  C   UNL     1      23.910  12.875 -16.052  1.00  0.00     0.053 C 
BRANCH  13  14
ATOM     14  C   UNL     1      23.470  13.570 -14.799  1.00  0.00     0.041 C 
ATOM     15  O   UNL     1      23.983  13.262 -13.691  1.00  0.00    -0.550 OA
ATOM     16  O   UNL     1      22.482  14.546 -14.854  1.00  0.00    -0.550 OA
ENDBRANCH  13  14
ENDBRANCH  12  13
ENDBRANCH  11  12
ENDBRANCH  10  11
ENDBRANCH   9  10
ENDBRANCH   8   9
ENDBRANCH   7   8
ENDBRANCH   6   7
ENDBRANCH   5   6
ENDBRANCH   4   5
ENDBRANCH   3   4
ENDBRANCH   2   3
ENDBRANCH   1   2
BRANCH   1  17
ATOM     17  C   UNL     1      29.250  14.898 -15.733  1.00  0.00     0.000 C 
BRANCH  17  18
ATOM     18  C   UNL     1      30.375  14.062 -15.096  1.00  0.00     0.000 C 
BRANCH  18  19
ATOM     19  C   UNL     1      31.358  13.499 -16.138  1.00  0.00     0.000 C 
BRANCH  19  20
ATOM     20  C   UNL     1      32.673  14.294 -16.207  1.00  0.00     0.000 C 
BRANCH  20  21
ATOM     21  C   UNL     1      33.643  13.855 -17.320  1.00  0.00     0.000 C 
BRANCH  21  22
ATOM     22  C   UNL     1      32.961  13.593 -18.683  1.00  0.00    -0.000 C 
BRANCH  22  23
ATOM     23  C   UNL     1      33.460  14.495 -19.833  1.00  0.00    -0.000 C 
BRANCH  23  24
ATOM     24  C   UNL     1      34.687  15.367 -19.498  1.00  0.00    -0.000 C 
BRANCH  24  25
ATOM     25  C   UNL     1      34.454  16.862 -19.779  1.00  0.00    -0.000 C 
BRANCH  25  26
ATOM     26  C   UNL     1      33.884  17.611 -18.562  1.00  0.00    -0.000 C 
BRANCH  26  27
ATOM     27  C   UNL     1      32.427  18.082 -18.718  1.00  0.00    -0.000 C 
BRANCH  27  28
ATOM     28  C   UNL     1      31.391  16.942 -18.593  1.00  0.00    -0.000 C 
BRANCH  28  29
ATOM     29  C   UNL     1      30.267  17.018 -19.641  1.00  0.00    -0.003 C 
ATOM     30  C   UNL     1      29.246  18.110 -19.325  1.00  0.00     0.004 C 
ENDBRANCH  28  29
ENDBRANCH  27  28
ENDBRANCH  26  27
ENDBRANCH  25  26
ENDBRANCH  24  25
ENDBRANCH  23  24
ENDBRANCH  22  23
ENDBRANCH  21  22
ENDBRANCH  20  21
ENDBRANCH  19  20
ENDBRANCH  18  19
ENDBRANCH  17  18
ENDBRANCH   1  17
TORSDOF 26
ENDMDL
MODEL 8
REMARK VINA RESULT:    -2.130      3.449      8.697
REMARK INTER + INTRA:         -10.227
REMARK INTER:                  -6.172
REMARK INTRA:                  -4.054
REMARK UNBOUND:                -4.858
REMARK SMILES CCCCCCCCCCCCCCCCCCCCCCCCCCCC(=O)[O-]
REMARK SMILES IDX 15 1 16 2 17 3 18 4 19 5 20 6 21 7 22 8 23 9 24 10 25 11
REMARK SMILES IDX 26 12 27 13 28 14 29 15 30 16 14 17 13 18 12 19 11 20 10 21
REMARK SMILES IDX 9 22 8 23 7 24 6 25 5 26 4 27 3 28 2 29 1 30
REMARK H PARENT
REMARK Flexibility Score: inf
ROOT
ATOM      1  C   UNL     1      28.561  17.460 -16.545  1.00  0.00     0.000 C 
ENDROOT
BRANCH   1   2
ATOM      2  C   UNL     1      28.583  16.375 -15.452  1.00  0.00     0.000 C 
BRANCH   2   3
ATOM      3  C   UNL     1      28.684  14.955 -16.032  1.00  0.00     0.000 C 
BRANCH   3   4
ATOM      4  C   UNL     1      30.135  14.455 -16.115  1.00  0.00     0.000 C 
BRANCH   4   5
ATOM      5  C   UNL     1      30.335  13.540 -17.333  1.00  0.00     0.000 C 
BRANCH   5   6
ATOM      6  C   UNL     1      31.130  14.214 -18.466  1.00  0.00     0.000 C 
BRANCH   6   7
ATOM      7  C   UNL     1      30.275  14.994 -19.483  1.00  0.00     0.000 C 
BRANCH   7   8
ATOM      8  C   UNL     1      31.035  16.167 -20.125  1.00  0.00     0.000 C 
BRANCH   8   9
ATOM      9  C   UNL     1      31.012  17.435 -19.255  1.00  0.00     0.000 C 
BRANCH   9  10
ATOM     10  C   UNL     1      32.365  17.716 -18.585  1.00  0.00     0.000 C 
BRANCH  10  11
ATOM     11  C   UNL     1      33.507  17.013 -19.329  1.00  0.00     0.000 C 
BRANCH  11  12
ATOM     12  C   UNL     1      34.562  16.492 -18.342  1.00  0.00     0.006 C 
BRANCH  12  13
ATOM     13  C   UNL     1      34.627  14.961 -18.317  1.00  0.00     0.053 C 
BRANCH  13  14
ATOM     14  C   UNL     1      34.600  14.422 -16.919  1.00  0.00     0.041 C 
ATOM     15  O   UNL     1      35.471  13.592 -16.544  1.00  0.00    -0.550 OA
ATOM     16  O   UNL     1      33.605  14.823 -16.036  1.00  0.00    -0.550 OA
ENDBRANCH  13  14
ENDBRANCH  12  13
ENDBRANCH  11  12
ENDBRANCH  10  11
ENDBRANCH   9  10
ENDBRANCH   8   9
ENDBRANCH   7   8
ENDBRANCH   6   7
ENDBRANCH   5   6
ENDBRANCH   4   5
ENDBRANCH   3   4
ENDBRANCH   2   3
ENDBRANCH   1   2
BRANCH   1  17
ATOM     17  C   UNL     1      27.598  17.121 -17.698  1.00  0.00     0.000 C 
BRANCH  17  18
ATOM     18  C   UNL     1      26.961  18.340 -18.390  1.00  0.00     0.000 C 
BRANCH  18  19
ATOM     19  C   UNL     1      25.427  18.356 -18.267  1.00  0.00     0.000 C 
BRANCH  19  20
ATOM     20  C   UNL     1      24.723  17.827 -19.527  1.00  0.00     0.000 C 
BRANCH  20  21
ATOM     21  C   UNL     1      23.356  17.162 -19.280  1.00  0.00     0.000 C 
BRANCH  21  22
ATOM     22  C   UNL     1      23.441  15.785 -18.581  1.00  0.00    -0.000 C 
BRANCH  22  23
ATOM     23  C   UNL     1      24.236  14.718 -19.363  1.00  0.00    -0.000 C 
BRANCH  23  24
ATOM     24  C   UNL     1      25.456  14.135 -18.621  1.00  0.00    -0.000 C 
BRANCH  24  25
ATOM     25  C   UNL     1      25.384  14.339 -17.097  1.00  0.00    -0.000 C 
BRANCH  25  26
ATOM     26  C   UNL     1      25.530  13.021 -16.316  1.00  0.00    -0.000 C 
BRANCH  26  27
ATOM     27  C   UNL     1      24.580  12.875 -15.113  1.00  0.00    -0.000 C 
BRANCH  27  28
ATOM     28  C   UNL     1      23.178  13.480 -15.355  1.00  0.00    -0.000 C 
BRANCH  28  29
ATOM     29  C   UNL     1      22.376  13.704 -14.061  1.00  0.00    -0.003 C 
ATOM     30  C   UNL     1      23.119  13.212 -12.820  1.00  0.00     0.004 C 
ENDBRANCH  28  29
ENDBRANCH  27  28
ENDBRANCH  26  27
ENDBRANCH  25  26
ENDBRANCH  24  25
ENDBRANCH  23  24
ENDBRANCH  22  23
ENDBRANCH  21  22
ENDBRANCH  20  21
ENDBRANCH  19  20
ENDBRANCH  18  19
ENDBRANCH  17  18
ENDBRANCH   1  17
TORSDOF 26
ENDMDL
MODEL 9
REMARK VINA RESULT:    -2.063      3.056      8.467
REMARK INTER + INTRA:         -10.057
REMARK INTER:                  -5.682
REMARK INTRA:                  -4.376
REMARK UNBOUND:                -4.858
REMARK SMILES CCCCCCCCCCCCCCCCCCCCCCCCCCCC(=O)[O-]
REMARK SMILES IDX 15 1 16 2 17 3 18 4 19 5 20 6 21 7 22 8 23 9 24 10 25 11
REMARK SMILES IDX 26 12 27 13 28 14 29 15 30 16 14 17 13 18 12 19 11 20 10 21
REMARK SMILES IDX 9 22 8 23 7 24 6 25 5 26 4 27 3 28 2 29 1 30
REMARK H PARENT
REMARK Flexibility Score: inf
ROOT
ATOM      1  C   UNL     1      28.808  17.401 -17.870  1.00  0.00     0.000 C 
ENDROOT
BRANCH   1   2
ATOM      2  C   UNL     1      29.980  16.608 -18.477  1.00  0.00     0.000 C 
BRANCH   2   3
ATOM      3  C   UNL     1      29.511  15.383 -19.279  1.00  0.00     0.000 C 
BRANCH   3   4
ATOM      4  C   UNL     1      30.585  14.287 -19.362  1.00  0.00     0.000 C 
BRANCH   4   5
ATOM      5  C   UNL     1      30.038  12.938 -18.869  1.00  0.00     0.000 C 
BRANCH   5   6
ATOM      6  C   UNL     1      29.137  13.074 -17.628  1.00  0.00     0.000 C 
BRANCH   6   7
ATOM      7  C   UNL     1      29.855  12.875 -16.280  1.00  0.00     0.000 C 
BRANCH   7   8
ATOM      8  C   UNL     1      30.259  14.204 -15.619  1.00  0.00     0.000 C 
BRANCH   8   9
ATOM      9  C   UNL     1      31.772  14.468 -15.697  1.00  0.00     0.000 C 
BRANCH   9  10
ATOM     10  C   UNL     1      32.572  13.213 -16.077  1.00  0.00     0.000 C 
BRANCH  10  11
ATOM     11  C   UNL     1      33.791  13.573 -16.936  1.00  0.00     0.000 C 
BRANCH  11  12
ATOM     12  C   UNL     1      33.921  15.096 -17.087  1.00  0.00     0.006 C 
BRANCH  12  13
ATOM     13  C   UNL     1      33.550  15.572 -18.496  1.00  0.00     0.053 C 
BRANCH  13  14
ATOM     14  C   UNL     1      34.299  16.811 -18.884  1.00  0.00     0.041 C 
ATOM     15  O   UNL     1      35.059  16.802 -19.888  1.00  0.00    -0.550 OA
ATOM     16  O   UNL     1      34.169  17.969 -18.128  1.00  0.00    -0.550 OA
ENDBRANCH  13  14
ENDBRANCH  12  13
ENDBRANCH  11  12
ENDBRANCH  10  11
ENDBRANCH   9  10
ENDBRANCH   8   9
ENDBRANCH   7   8
ENDBRANCH   6   7
ENDBRANCH   5   6
ENDBRANCH   4   5
ENDBRANCH   3   4
ENDBRANCH   2   3
ENDBRANCH   1   2
BRANCH   1  17
ATOM     17  C   UNL     1      27.757  16.492 -17.206  1.00  0.00     0.000 C 
BRANCH  17  18
ATOM     18  C   UNL     1      26.425  16.376 -17.970  1.00  0.00     0.000 C 
BRANCH  18  19
ATOM     19  C   UNL     1      26.340  17.344 -19.164  1.00  0.00     0.000 C 
BRANCH  19  20
ATOM     20  C   UNL     1      25.239  18.404 -18.994  1.00  0.00     0.000 C 
BRANCH  20  21
ATOM     21  C   UNL     1      24.008  17.943 -18.192  1.00  0.00     0.000 C 
BRANCH  21  22
ATOM     22  C   UNL     1      22.677  18.026 -18.975  1.00  0.00    -0.000 C 
BRANCH  22  23
ATOM     23  C   UNL     1      22.080  16.658 -19.371  1.00  0.00    -0.000 C 
BRANCH  23  24
ATOM     24  C   UNL     1      23.041  15.717 -20.125  1.00  0.00    -0.000 C 
BRANCH  24  25
ATOM     25  C   UNL     1      23.523  14.536 -19.263  1.00  0.00    -0.000 C 
BRANCH  25  26
ATOM     26  C   UNL     1      22.479  14.099 -18.221  1.00  0.00    -0.000 C 
BRANCH  26  27
ATOM     27  C   UNL     1      22.902  14.307 -16.755  1.00  0.00    -0.000 C 
BRANCH  27  28
ATOM     28  C   UNL     1      23.710  13.126 -16.172  1.00  0.00    -0.000 C 
BRANCH  28  29
ATOM     29  C   UNL     1      25.160  13.065 -16.683  1.00  0.00    -0.003 C 
ATOM     30  C   UNL     1      26.176  13.451 -15.609  1.00  0.00     0.004 C 
ENDBRANCH  28  29
ENDBRANCH  27  28
ENDBRANCH  26  27
ENDBRANCH  25  26
ENDBRANCH  24  25
ENDBRANCH  23  24
ENDBRANCH  22  23
ENDBRANCH  21  22
ENDBRANCH  20  21
ENDBRANCH  19  20
ENDBRANCH  18  19
ENDBRANCH  17  18
ENDBRANCH   1  17
TORSDOF 26
ENDMDL
