MODEL 1
REMARK VINA RESULT:    -7.167      0.000      0.000
REMARK INTER + INTRA:          -9.154
REMARK INTER:                  -8.843
REMARK INTRA:                  -0.311
REMARK UNBOUND:                -0.311
REMARK SMILES Oc1cc(O)c2cc(O)c(-c3cc(O)c(O)c(O)c3)[o+]c2c1
REMARK SMILES IDX 10 1 20 2 21 3 22 4 2 5 3 6 4 7 6 8 7 9 8 10 11 11 12 12
REMARK SMILES IDX 13 13 19 14 15 15 17 16 14 17 16 19 18 21 9 23 1 25 5 27
REMARK H PARENT 14 18 16 20 18 22 9 24 1 26 5 28
REMARK Flexibility Score: inf
ROOT
ATOM      1  C   UNL     1     -24.252 -20.222 -13.836  1.00  0.00     0.402 A 
ATOM      2  O   UNL     1     -24.411 -21.102 -14.821  1.00  0.00    -0.202 OA
ATOM      3  C   UNL     1     -24.446 -22.417 -14.627  1.00  0.00     0.368 A 
ATOM      4  C   UNL     1     -24.615 -23.263 -15.726  1.00  0.00     0.162 A 
ATOM      5  C   UNL     1     -24.652 -24.648 -15.551  1.00  0.00     0.128 A 
ATOM      6  C   UNL     1     -24.519 -25.191 -14.271  1.00  0.00     0.093 A 
ATOM      7  C   UNL     1     -24.348 -24.365 -13.153  1.00  0.00     0.136 A 
ATOM      8  C   UNL     1     -24.312 -22.957 -13.325  1.00  0.00     0.125 A 
ATOM      9  C   UNL     1     -24.158 -22.052 -12.262  1.00  0.00     0.078 A 
ATOM     10  C   UNL     1     -24.137 -20.677 -12.509  1.00  0.00     0.223 A 
ENDROOT
BRANCH   1  11
ATOM     11  C   UNL     1     -24.219 -18.783 -14.182  1.00  0.00     0.091 A 
ATOM     12  C   UNL     1     -25.385 -18.160 -14.656  1.00  0.00     0.068 A 
ATOM     13  C   UNL     1     -25.377 -16.804 -15.009  1.00  0.00     0.162 A 
ATOM     14  C   UNL     1     -23.032 -18.036 -14.099  1.00  0.00     0.068 A 
ATOM     15  C   UNL     1     -24.190 -16.061 -14.903  1.00  0.00     0.200 A 
ATOM     16  C   UNL     1     -23.017 -16.680 -14.453  1.00  0.00     0.162 A 
BRANCH  13  17
ATOM     17  O   UNL     1     -26.545 -16.193 -15.465  1.00  0.00    -0.504 OA
ATOM     18  H   UNL     1     -27.461 -16.517 -15.176  1.00  0.00     0.293 HD
ENDBRANCH  13  17
BRANCH  15  19
ATOM     19  O   UNL     1     -24.157 -14.708 -15.246  1.00  0.00    -0.502 OA
ATOM     20  H   UNL     1     -23.470 -14.333 -15.890  1.00  0.00     0.293 HD
ENDBRANCH  15  19
BRANCH  16  21
ATOM     21  O   UNL     1     -21.838 -15.942 -14.364  1.00  0.00    -0.504 OA
ATOM     22  H   UNL     1     -21.816 -15.027 -13.926  1.00  0.00     0.293 HD
ENDBRANCH  16  21
ENDBRANCH   1  11
BRANCH  10  23
ATOM     23  O   UNL     1     -24.034 -19.776 -11.449  1.00  0.00    -0.500 OA
ATOM     24  H   UNL     1     -24.831 -19.544 -10.868  1.00  0.00     0.294 HD
ENDBRANCH  10  23
BRANCH   5  25
ATOM     25  O   UNL     1     -24.821 -25.498 -16.642  1.00  0.00    -0.507 OA
ATOM     26  H   UNL     1     -25.011 -25.137 -17.571  1.00  0.00     0.293 HD
ENDBRANCH   5  25
BRANCH   7  27
ATOM     27  O   UNL     1     -24.218 -24.986 -11.907  1.00  0.00    -0.507 OA
ATOM     28  H   UNL     1     -23.421 -25.537 -11.625  1.00  0.00     0.293 HD
ENDBRANCH   7  27
TORSDOF 7
ENDMDL
MODEL 2
REMARK VINA RESULT:    -7.133      0.081      1.790
REMARK INTER + INTRA:          -9.111
REMARK INTER:                  -8.835
REMARK INTRA:                  -0.277
REMARK UNBOUND:                -0.311
REMARK SMILES Oc1cc(O)c2cc(O)c(-c3cc(O)c(O)c(O)c3)[o+]c2c1
REMARK SMILES IDX 10 1 20 2 21 3 22 4 2 5 3 6 4 7 6 8 7 9 8 10 11 11 12 12
REMARK SMILES IDX 13 13 19 14 15 15 17 16 14 17 16 19 18 21 9 23 1 25 5 27
REMARK H PARENT 14 18 16 20 18 22 9 24 1 26 5 28
REMARK Flexibility Score: inf
ROOT
ATOM      1  C   UNL     1     -24.294 -20.182 -13.905  1.00  0.00     0.402 A 
ATOM      2  O   UNL     1     -24.448 -21.084 -14.870  1.00  0.00    -0.202 OA
ATOM      3  C   UNL     1     -24.480 -22.394 -14.645  1.00  0.00     0.368 A 
ATOM      4  C   UNL     1     -24.643 -23.265 -15.726  1.00  0.00     0.162 A 
ATOM      5  C   UNL     1     -24.677 -24.647 -15.519  1.00  0.00     0.128 A 
ATOM      6  C   UNL     1     -24.548 -25.160 -14.226  1.00  0.00     0.093 A 
ATOM      7  C   UNL     1     -24.384 -24.308 -13.127  1.00  0.00     0.136 A 
ATOM      8  C   UNL     1     -24.351 -22.904 -13.331  1.00  0.00     0.125 A 
ATOM      9  C   UNL     1     -24.203 -21.975 -12.288  1.00  0.00     0.078 A 
ATOM     10  C   UNL     1     -24.184 -20.605 -12.567  1.00  0.00     0.223 A 
ENDROOT
BRANCH   1  11
ATOM     11  C   UNL     1     -24.263 -18.750 -14.283  1.00  0.00     0.091 A 
ATOM     12  C   UNL     1     -23.069 -18.026 -14.147  1.00  0.00     0.068 A 
ATOM     13  C   UNL     1     -23.017 -16.665 -14.480  1.00  0.00     0.162 A 
ATOM     14  C   UNL     1     -25.419 -18.084 -14.724  1.00  0.00     0.068 A 
ATOM     15  C   UNL     1     -24.173 -16.013 -14.939  1.00  0.00     0.200 A 
ATOM     16  C   UNL     1     -25.374 -16.724 -15.056  1.00  0.00     0.162 A 
BRANCH  13  17
ATOM     17  O   UNL     1     -21.821 -15.959 -14.354  1.00  0.00    -0.504 OA
ATOM     18  H   UNL     1     -21.009 -16.366 -13.903  1.00  0.00     0.293 HD
ENDBRANCH  13  17
BRANCH  15  19
ATOM     19  O   UNL     1     -24.147 -14.660 -15.279  1.00  0.00    -0.502 OA
ATOM     20  H   UNL     1     -23.514 -14.005 -14.834  1.00  0.00     0.293 HD
ENDBRANCH  15  19
BRANCH  16  21
ATOM     21  O   UNL     1     -26.522 -16.069 -15.500  1.00  0.00    -0.504 OA
ATOM     22  H   UNL     1     -27.004 -15.391 -14.919  1.00  0.00     0.293 HD
ENDBRANCH  16  21
ENDBRANCH   1  11
BRANCH  10  23
ATOM     23  O   UNL     1     -24.088 -19.681 -11.527  1.00  0.00    -0.500 OA
ATOM     24  H   UNL     1     -23.812 -19.958 -10.592  1.00  0.00     0.294 HD
ENDBRANCH  10  23
BRANCH   5  25
ATOM     25  O   UNL     1     -24.839 -25.522 -16.591  1.00  0.00    -0.507 OA
ATOM     26  H   UNL     1     -24.444 -25.321 -17.503  1.00  0.00     0.293 HD
ENDBRANCH   5  25
BRANCH   7  27
ATOM     27  O   UNL     1     -24.259 -24.900 -11.867  1.00  0.00    -0.507 OA
ATOM     28  H   UNL     1     -24.701 -24.555 -11.028  1.00  0.00     0.293 HD
ENDBRANCH   7  27
TORSDOF 7
ENDMDL
MODEL 3
REMARK VINA RESULT:    -6.701      1.815      7.189
REMARK INTER + INTRA:          -8.579
REMARK INTER:                  -8.247
REMARK INTRA:                  -0.332
REMARK UNBOUND:                -0.311
REMARK SMILES Oc1cc(O)c2cc(O)c(-c3cc(O)c(O)c(O)c3)[o+]c2c1
REMARK SMILES IDX 10 1 20 2 21 3 22 4 2 5 3 6 4 7 6 8 7 9 8 10 11 11 12 12
REMARK SMILES IDX 13 13 19 14 15 15 17 16 14 17 16 19 18 21 9 23 1 25 5 27
REMARK H PARENT 14 18 16 20 18 22 9 24 1 26 5 28
REMARK Flexibility Score: inf
ROOT
ATOM      1  C   UNL     1     -24.210 -19.452 -14.377  1.00  0.00     0.402 A 
ATOM      2  O   UNL     1     -25.023 -18.457 -14.722  1.00  0.00    -0.202 OA
ATOM      3  C   UNL     1     -24.659 -17.179 -14.710  1.00  0.00     0.368 A 
ATOM      4  C   UNL     1     -25.587 -16.204 -15.087  1.00  0.00     0.162 A 
ATOM      5  C   UNL     1     -25.232 -14.853 -15.080  1.00  0.00     0.128 A 
ATOM      6  C   UNL     1     -23.943 -14.474 -14.695  1.00  0.00     0.093 A 
ATOM      7  C   UNL     1     -22.995 -15.432 -14.312  1.00  0.00     0.136 A 
ATOM      8  C   UNL     1     -23.351 -16.806 -14.319  1.00  0.00     0.125 A 
ATOM      9  C   UNL     1     -22.463 -17.835 -13.964  1.00  0.00     0.078 A 
ATOM     10  C   UNL     1     -22.884 -19.167 -14.001  1.00  0.00     0.223 A 
ENDROOT
BRANCH   1  11
ATOM     11  C   UNL     1     -24.737 -20.835 -14.421  1.00  0.00     0.091 A 
ATOM     12  C   UNL     1     -24.416 -21.662 -15.509  1.00  0.00     0.068 A 
ATOM     13  C   UNL     1     -24.917 -22.968 -15.587  1.00  0.00     0.162 A 
ATOM     14  C   UNL     1     -25.599 -21.323 -13.425  1.00  0.00     0.068 A 
ATOM     15  C   UNL     1     -25.762 -23.454 -14.575  1.00  0.00     0.200 A 
ATOM     16  C   UNL     1     -26.105 -22.628 -13.498  1.00  0.00     0.162 A 
BRANCH  13  17
ATOM     17  O   UNL     1     -24.579 -23.784 -16.666  1.00  0.00    -0.504 OA
ATOM     18  H   UNL     1     -24.989 -23.649 -17.583  1.00  0.00     0.293 HD
ENDBRANCH  13  17
BRANCH  15  19
ATOM     19  O   UNL     1     -26.272 -24.752 -14.628  1.00  0.00    -0.502 OA
ATOM     20  H   UNL     1     -27.196 -24.953 -14.991  1.00  0.00     0.293 HD
ENDBRANCH  15  19
BRANCH  16  21
ATOM     21  O   UNL     1     -26.955 -23.110 -12.503  1.00  0.00    -0.504 OA
ATOM     22  H   UNL     1     -26.598 -23.444 -11.615  1.00  0.00     0.293 HD
ENDBRANCH  16  21
ENDBRANCH   1  11
BRANCH  10  23
ATOM     23  O   UNL     1     -21.988 -20.193 -13.696  1.00  0.00    -0.500 OA
ATOM     24  H   UNL     1     -20.990 -20.084 -13.829  1.00  0.00     0.294 HD
ENDBRANCH  10  23
BRANCH   5  25
ATOM     25  O   UNL     1     -26.150 -13.875 -15.455  1.00  0.00    -0.507 OA
ATOM     26  H   UNL     1     -26.434 -13.142 -14.815  1.00  0.00     0.293 HD
ENDBRANCH   5  25
BRANCH   7  27
ATOM     27  O   UNL     1     -21.731 -14.972 -13.936  1.00  0.00    -0.507 OA
ATOM     28  H   UNL     1     -20.926 -14.952 -14.546  1.00  0.00     0.293 HD
ENDBRANCH   7  27
TORSDOF 7
ENDMDL
MODEL 4
REMARK VINA RESULT:    -6.700      1.824      7.070
REMARK INTER + INTRA:          -8.578
REMARK INTER:                  -8.249
REMARK INTRA:                  -0.329
REMARK UNBOUND:                -0.311
REMARK SMILES Oc1cc(O)c2cc(O)c(-c3cc(O)c(O)c(O)c3)[o+]c2c1
REMARK SMILES IDX 10 1 20 2 21 3 22 4 2 5 3 6 4 7 6 8 7 9 8 10 11 11 12 12
REMARK SMILES IDX 13 13 19 14 15 15 17 16 14 17 16 19 18 21 9 23 1 25 5 27
REMARK H PARENT 14 18 16 20 18 22 9 24 1 26 5 28
REMARK Flexibility Score: inf
ROOT
ATOM      1  C   UNL     1     -24.476 -19.343 -14.053  1.00  0.00     0.402 A 
ATOM      2  O   UNL     1     -25.050 -18.387 -14.777  1.00  0.00    -0.202 OA
ATOM      3  C   UNL     1     -24.724 -17.102 -14.679  1.00  0.00     0.368 A 
ATOM      4  C   UNL     1     -25.386 -16.169 -15.481  1.00  0.00     0.162 A 
ATOM      5  C   UNL     1     -25.065 -14.811 -15.396  1.00  0.00     0.128 A 
ATOM      6  C   UNL     1     -24.078 -14.385 -14.504  1.00  0.00     0.093 A 
ATOM      7  C   UNL     1     -23.400 -15.300 -13.689  1.00  0.00     0.136 A 
ATOM      8  C   UNL     1     -23.721 -16.680 -13.774  1.00  0.00     0.125 A 
ATOM      9  C   UNL     1     -23.085 -17.669 -13.006  1.00  0.00     0.078 A 
ATOM     10  C   UNL     1     -23.451 -19.010 -13.148  1.00  0.00     0.223 A 
ENDROOT
BRANCH   1  11
ATOM     11  C   UNL     1     -24.934 -20.738 -14.246  1.00  0.00     0.091 A 
ATOM     12  C   UNL     1     -25.753 -21.337 -13.276  1.00  0.00     0.068 A 
ATOM     13  C   UNL     1     -26.186 -22.662 -13.425  1.00  0.00     0.162 A 
ATOM     14  C   UNL     1     -24.522 -21.497 -15.355  1.00  0.00     0.068 A 
ATOM     15  C   UNL     1     -25.784 -23.406 -14.547  1.00  0.00     0.200 A 
ATOM     16  C   UNL     1     -24.949 -22.823 -15.508  1.00  0.00     0.162 A 
BRANCH  13  17
ATOM     17  O   UNL     1     -27.010 -23.241 -12.461  1.00  0.00    -0.504 OA
ATOM     18  H   UNL     1     -26.805 -24.151 -12.064  1.00  0.00     0.293 HD
ENDBRANCH  13  17
BRANCH  15  19
ATOM     19  O   UNL     1     -26.203 -24.726 -14.719  1.00  0.00    -0.502 OA
ATOM     20  H   UNL     1     -26.533 -25.074 -15.612  1.00  0.00     0.293 HD
ENDBRANCH  15  19
BRANCH  16  21
ATOM     21  O   UNL     1     -24.543 -23.571 -16.612  1.00  0.00    -0.504 OA
ATOM     22  H   UNL     1     -24.864 -23.352 -17.549  1.00  0.00     0.293 HD
ENDBRANCH  16  21
ENDBRANCH   1  11
BRANCH  10  23
ATOM     23  O   UNL     1     -22.786 -19.999 -12.422  1.00  0.00    -0.500 OA
ATOM     24  H   UNL     1     -22.880 -20.981 -12.650  1.00  0.00     0.294 HD
ENDBRANCH  10  23
BRANCH   5  25
ATOM     25  O   UNL     1     -25.721 -13.875 -16.192  1.00  0.00    -0.507 OA
ATOM     26  H   UNL     1     -25.220 -13.317 -16.875  1.00  0.00     0.293 HD
ENDBRANCH   5  25
BRANCH   7  27
ATOM     27  O   UNL     1     -22.429 -14.793 -12.821  1.00  0.00    -0.507 OA
ATOM     28  H   UNL     1     -22.522 -14.762 -11.816  1.00  0.00     0.293 HD
ENDBRANCH   7  27
TORSDOF 7
ENDMDL
MODEL 5
REMARK VINA RESULT:    -6.378      1.500      7.216
REMARK INTER + INTRA:          -8.180
REMARK INTER:                  -8.372
REMARK INTRA:                   0.192
REMARK UNBOUND:                -0.311
REMARK SMILES Oc1cc(O)c2cc(O)c(-c3cc(O)c(O)c(O)c3)[o+]c2c1
REMARK SMILES IDX 10 1 20 2 21 3 22 4 2 5 3 6 4 7 6 8 7 9 8 10 11 11 12 12
REMARK SMILES IDX 13 13 19 14 15 15 17 16 14 17 16 19 18 21 9 23 1 25 5 27
REMARK H PARENT 14 18 16 20 18 22 9 24 1 26 5 28
REMARK Flexibility Score: inf
ROOT
ATOM      1  C   UNL     1     -23.931 -19.820 -14.243  1.00  0.00     0.402 A 
ATOM      2  O   UNL     1     -24.847 -18.920 -14.590  1.00  0.00    -0.202 OA
ATOM      3  C   UNL     1     -24.605 -17.614 -14.640  1.00  0.00     0.368 A 
ATOM      4  C   UNL     1     -25.633 -16.746 -15.014  1.00  0.00     0.162 A 
ATOM      5  C   UNL     1     -25.407 -15.368 -15.072  1.00  0.00     0.128 A 
ATOM      6  C   UNL     1     -24.147 -14.856 -14.753  1.00  0.00     0.093 A 
ATOM      7  C   UNL     1     -23.099 -15.706 -14.375  1.00  0.00     0.136 A 
ATOM      8  C   UNL     1     -23.324 -17.106 -14.318  1.00  0.00     0.125 A 
ATOM      9  C   UNL     1     -22.330 -18.033 -13.962  1.00  0.00     0.078 A 
ATOM     10  C   UNL     1     -22.625 -19.399 -13.932  1.00  0.00     0.223 A 
ENDROOT
BRANCH   1  11
ATOM     11  C   UNL     1     -24.327 -21.247 -14.215  1.00  0.00     0.091 A 
ATOM     12  C   UNL     1     -23.728 -22.112 -13.286  1.00  0.00     0.068 A 
ATOM     13  C   UNL     1     -24.069 -23.471 -13.250  1.00  0.00     0.162 A 
ATOM     14  C   UNL     1     -25.250 -21.769 -15.137  1.00  0.00     0.068 A 
ATOM     15  C   UNL     1     -25.009 -23.979 -14.163  1.00  0.00     0.200 A 
ATOM     16  C   UNL     1     -25.594 -23.127 -15.108  1.00  0.00     0.162 A 
BRANCH  13  17
ATOM     17  O   UNL     1     -23.478 -24.317 -12.313  1.00  0.00    -0.504 OA
ATOM     18  H   UNL     1     -23.496 -25.325 -12.422  1.00  0.00     0.293 HD
ENDBRANCH  13  17
BRANCH  15  19
ATOM     19  O   UNL     1     -25.368 -25.327 -14.147  1.00  0.00    -0.502 OA
ATOM     20  H   UNL     1     -26.045 -25.696 -13.490  1.00  0.00     0.293 HD
ENDBRANCH  15  19
BRANCH  16  21
ATOM     21  O   UNL     1     -26.515 -23.640 -16.021  1.00  0.00    -0.504 OA
ATOM     22  H   UNL     1     -26.438 -23.453 -17.014  1.00  0.00     0.293 HD
ENDBRANCH  16  21
ENDBRANCH   1  11
BRANCH  10  23
ATOM     23  O   UNL     1     -21.626 -20.324 -13.627  1.00  0.00    -0.500 OA
ATOM     24  H   UNL     1     -21.643 -20.863 -12.770  1.00  0.00     0.294 HD
ENDBRANCH  10  23
BRANCH   5  25
ATOM     25  O   UNL     1     -26.428 -14.495 -15.444  1.00  0.00    -0.507 OA
ATOM     26  H   UNL     1     -26.241 -13.523 -15.659  1.00  0.00     0.293 HD
ENDBRANCH   5  25
BRANCH   7  27
ATOM     27  O   UNL     1     -21.870 -15.115 -14.069  1.00  0.00    -0.507 OA
ATOM     28  H   UNL     1     -21.317 -15.338 -13.255  1.00  0.00     0.293 HD
ENDBRANCH   7  27
TORSDOF 7
ENDMDL
MODEL 6
REMARK VINA RESULT:    -6.280      1.663      7.298
REMARK INTER + INTRA:          -8.059
REMARK INTER:                  -8.128
REMARK INTRA:                   0.069
REMARK UNBOUND:                -0.311
REMARK SMILES Oc1cc(O)c2cc(O)c(-c3cc(O)c(O)c(O)c3)[o+]c2c1
REMARK SMILES IDX 10 1 20 2 21 3 22 4 2 5 3 6 4 7 6 8 7 9 8 10 11 11 12 12
REMARK SMILES IDX 13 13 19 14 15 15 17 16 14 17 16 19 18 21 9 23 1 25 5 27
REMARK H PARENT 14 18 16 20 18 22 9 24 1 26 5 28
REMARK Flexibility Score: inf
ROOT
ATOM      1  C   UNL     1     -24.442 -18.927 -14.411  1.00  0.00     0.402 A 
ATOM      2  O   UNL     1     -23.280 -18.298 -14.253  1.00  0.00    -0.202 OA
ATOM      3  C   UNL     1     -23.143 -16.981 -14.363  1.00  0.00     0.368 A 
ATOM      4  C   UNL     1     -21.879 -16.411 -14.184  1.00  0.00     0.162 A 
ATOM      5  C   UNL     1     -21.706 -15.030 -14.297  1.00  0.00     0.128 A 
ATOM      6  C   UNL     1     -22.800 -14.213 -14.591  1.00  0.00     0.093 A 
ATOM      7  C   UNL     1     -24.077 -14.759 -14.776  1.00  0.00     0.136 A 
ATOM      8  C   UNL     1     -24.258 -16.162 -14.660  1.00  0.00     0.125 A 
ATOM      9  C   UNL     1     -25.503 -16.795 -14.816  1.00  0.00     0.078 A 
ATOM     10  C   UNL     1     -25.605 -18.182 -14.682  1.00  0.00     0.223 A 
ENDROOT
BRANCH   1  11
ATOM     11  C   UNL     1     -24.464 -20.401 -14.273  1.00  0.00     0.091 A 
ATOM     12  C   UNL     1     -25.240 -21.166 -15.159  1.00  0.00     0.068 A 
ATOM     13  C   UNL     1     -25.295 -22.561 -15.040  1.00  0.00     0.162 A 
ATOM     14  C   UNL     1     -23.769 -21.051 -13.240  1.00  0.00     0.068 A 
ATOM     15  C   UNL     1     -24.579 -23.203 -14.015  1.00  0.00     0.200 A 
ATOM     16  C   UNL     1     -23.821 -22.446 -13.114  1.00  0.00     0.162 A 
BRANCH  13  17
ATOM     17  O   UNL     1     -26.058 -23.311 -15.934  1.00  0.00    -0.504 OA
ATOM     18  H   UNL     1     -26.153 -24.315 -15.838  1.00  0.00     0.293 HD
ENDBRANCH  13  17
BRANCH  15  19
ATOM     19  O   UNL     1     -24.615 -24.591 -13.877  1.00  0.00    -0.502 OA
ATOM     20  H   UNL     1     -24.619 -25.213 -14.677  1.00  0.00     0.293 HD
ENDBRANCH  15  19
BRANCH  16  21
ATOM     21  O   UNL     1     -23.124 -23.087 -12.091  1.00  0.00    -0.504 OA
ATOM     22  H   UNL     1     -22.956 -22.636 -11.199  1.00  0.00     0.293 HD
ENDBRANCH  16  21
ENDBRANCH   1  11
BRANCH  10  23
ATOM     23  O   UNL     1     -26.848 -18.806 -14.787  1.00  0.00    -0.500 OA
ATOM     24  H   UNL     1     -27.176 -19.195 -15.664  1.00  0.00     0.294 HD
ENDBRANCH  10  23
BRANCH   5  25
ATOM     25  O   UNL     1     -20.449 -14.454 -14.119  1.00  0.00    -0.507 OA
ATOM     26  H   UNL     1     -19.601 -14.941 -14.386  1.00  0.00     0.293 HD
ENDBRANCH   5  25
BRANCH   7  27
ATOM     27  O   UNL     1     -25.118 -13.875 -15.072  1.00  0.00    -0.507 OA
ATOM     28  H   UNL     1     -25.276 -12.999 -14.596  1.00  0.00     0.293 HD
ENDBRANCH   7  27
TORSDOF 7
ENDMDL
MODEL 7
REMARK VINA RESULT:    -6.239      1.492      7.026
REMARK INTER + INTRA:          -8.009
REMARK INTER:                  -8.127
REMARK INTRA:                   0.119
REMARK UNBOUND:                -0.311
REMARK SMILES Oc1cc(O)c2cc(O)c(-c3cc(O)c(O)c(O)c3)[o+]c2c1
REMARK SMILES IDX 10 1 20 2 21 3 22 4 2 5 3 6 4 7 6 8 7 9 8 10 11 11 12 12
REMARK SMILES IDX 13 13 19 14 15 15 17 16 14 17 16 19 18 21 9 23 1 25 5 27
REMARK H PARENT 14 18 16 20 18 22 9 24 1 26 5 28
REMARK Flexibility Score: inf
ROOT
ATOM      1  C   UNL     1     -23.893 -19.873 -14.246  1.00  0.00     0.402 A 
ATOM      2  O   UNL     1     -24.816 -18.986 -14.608  1.00  0.00    -0.202 OA
ATOM      3  C   UNL     1     -24.592 -17.677 -14.655  1.00  0.00     0.368 A 
ATOM      4  C   UNL     1     -25.626 -16.823 -15.046  1.00  0.00     0.162 A 
ATOM      5  C   UNL     1     -25.418 -15.442 -15.101  1.00  0.00     0.128 A 
ATOM      6  C   UNL     1     -24.171 -14.913 -14.763  1.00  0.00     0.093 A 
ATOM      7  C   UNL     1     -23.117 -15.748 -14.368  1.00  0.00     0.136 A 
ATOM      8  C   UNL     1     -23.323 -17.151 -14.313  1.00  0.00     0.125 A 
ATOM      9  C   UNL     1     -22.322 -18.064 -13.941  1.00  0.00     0.078 A 
ATOM     10  C   UNL     1     -22.598 -19.434 -13.915  1.00  0.00     0.223 A 
ENDROOT
BRANCH   1  11
ATOM     11  C   UNL     1     -24.270 -21.306 -14.223  1.00  0.00     0.091 A 
ATOM     12  C   UNL     1     -25.238 -21.779 -15.122  1.00  0.00     0.068 A 
ATOM     13  C   UNL     1     -25.627 -23.126 -15.110  1.00  0.00     0.162 A 
ATOM     14  C   UNL     1     -23.719 -22.193 -13.283  1.00  0.00     0.068 A 
ATOM     15  C   UNL     1     -25.055 -24.009 -14.179  1.00  0.00     0.200 A 
ATOM     16  C   UNL     1     -24.105 -23.540 -13.264  1.00  0.00     0.162 A 
BRANCH  13  17
ATOM     17  O   UNL     1     -26.579 -23.588 -16.017  1.00  0.00    -0.504 OA
ATOM     18  H   UNL     1     -26.670 -24.573 -16.236  1.00  0.00     0.293 HD
ENDBRANCH  13  17
BRANCH  15  19
ATOM     19  O   UNL     1     -25.423 -25.355 -14.148  1.00  0.00    -0.502 OA
ATOM     20  H   UNL     1     -26.324 -25.675 -14.486  1.00  0.00     0.293 HD
ENDBRANCH  15  19
BRANCH  16  21
ATOM     21  O   UNL     1     -23.551 -24.418 -12.334  1.00  0.00    -0.504 OA
ATOM     22  H   UNL     1     -22.588 -24.332 -12.030  1.00  0.00     0.293 HD
ENDBRANCH  16  21
ENDBRANCH   1  11
BRANCH  10  23
ATOM     23  O   UNL     1     -21.591 -20.345 -13.594  1.00  0.00    -0.500 OA
ATOM     24  H   UNL     1     -21.797 -21.227 -13.142  1.00  0.00     0.294 HD
ENDBRANCH  10  23
BRANCH   5  25
ATOM     25  O   UNL     1     -26.445 -14.584 -15.490  1.00  0.00    -0.507 OA
ATOM     26  H   UNL     1     -26.895 -14.673 -16.394  1.00  0.00     0.293 HD
ENDBRANCH   5  25
BRANCH   7  27
ATOM     27  O   UNL     1     -21.901 -15.140 -14.043  1.00  0.00    -0.507 OA
ATOM     28  H   UNL     1     -21.039 -15.639 -13.883  1.00  0.00     0.293 HD
ENDBRANCH   7  27
TORSDOF 7
ENDMDL
MODEL 8
REMARK VINA RESULT:    -4.801      2.451      3.952
REMARK INTER + INTRA:          -6.234
REMARK INTER:                  -6.037
REMARK INTRA:                  -0.197
REMARK UNBOUND:                -0.311
REMARK SMILES Oc1cc(O)c2cc(O)c(-c3cc(O)c(O)c(O)c3)[o+]c2c1
REMARK SMILES IDX 10 1 20 2 21 3 22 4 2 5 3 6 4 7 6 8 7 9 8 10 11 11 12 12
REMARK SMILES IDX 13 13 19 14 15 15 17 16 14 17 16 19 18 21 9 23 1 25 5 27
REMARK H PARENT 14 18 16 20 18 22 9 24 1 26 5 28
REMARK Flexibility Score: inf
ROOT
ATOM      1  C   UNL     1     -24.840 -18.576 -13.594  1.00  0.00     0.402 A 
ATOM      2  O   UNL     1     -25.766 -18.446 -12.646  1.00  0.00    -0.202 OA
ATOM      3  C   UNL     1     -26.410 -19.477 -12.109  1.00  0.00     0.368 A 
ATOM      4  C   UNL     1     -27.369 -19.239 -11.121  1.00  0.00     0.162 A 
ATOM      5  C   UNL     1     -28.064 -20.304 -10.542  1.00  0.00     0.128 A 
ATOM      6  C   UNL     1     -27.800 -21.613 -10.953  1.00  0.00     0.093 A 
ATOM      7  C   UNL     1     -26.843 -21.877 -11.942  1.00  0.00     0.136 A 
ATOM      8  C   UNL     1     -26.134 -20.799 -12.531  1.00  0.00     0.125 A 
ATOM      9  C   UNL     1     -25.150 -20.971 -13.519  1.00  0.00     0.078 A 
ATOM     10  C   UNL     1     -24.488 -19.860 -14.050  1.00  0.00     0.223 A 
ENDROOT
BRANCH   1  11
ATOM     11  C   UNL     1     -24.200 -17.349 -14.120  1.00  0.00     0.091 A 
ATOM     12  C   UNL     1     -24.973 -16.416 -14.829  1.00  0.00     0.068 A 
ATOM     13  C   UNL     1     -24.389 -15.256 -15.355  1.00  0.00     0.162 A 
ATOM     14  C   UNL     1     -22.821 -17.122 -13.974  1.00  0.00     0.068 A 
ATOM     15  C   UNL     1     -23.013 -15.028 -15.186  1.00  0.00     0.200 A 
ATOM     16  C   UNL     1     -22.230 -15.965 -14.499  1.00  0.00     0.162 A 
BRANCH  13  17
ATOM     17  O   UNL     1     -25.170 -14.330 -16.045  1.00  0.00    -0.504 OA
ATOM     18  H   UNL     1     -24.812 -13.830 -16.851  1.00  0.00     0.293 HD
ENDBRANCH  13  17
BRANCH  15  19
ATOM     19  O   UNL     1     -22.407 -13.880 -15.698  1.00  0.00    -0.502 OA
ATOM     20  H   UNL     1     -21.407 -13.820 -15.849  1.00  0.00     0.293 HD
ENDBRANCH  15  19
BRANCH  16  21
ATOM     21  O   UNL     1     -20.863 -15.741 -14.346  1.00  0.00    -0.504 OA
ATOM     22  H   UNL     1     -20.420 -15.762 -13.434  1.00  0.00     0.293 HD
ENDBRANCH  16  21
ENDBRANCH   1  11
BRANCH  10  23
ATOM     23  O   UNL     1     -23.476 -20.033 -14.995  1.00  0.00    -0.500 OA
ATOM     24  H   UNL     1     -23.087 -19.250 -15.507  1.00  0.00     0.294 HD
ENDBRANCH  10  23
BRANCH   5  25
ATOM     25  O   UNL     1     -29.021 -20.075  -9.556  1.00  0.00    -0.507 OA
ATOM     26  H   UNL     1     -30.010 -20.204  -9.737  1.00  0.00     0.293 HD
ENDBRANCH   5  25
BRANCH   7  27
ATOM     27  O   UNL     1     -26.640 -23.213 -12.300  1.00  0.00    -0.507 OA
ATOM     28  H   UNL     1     -25.746 -23.606 -12.554  1.00  0.00     0.293 HD
ENDBRANCH   7  27
TORSDOF 7
ENDMDL
MODEL 9
REMARK VINA RESULT:    -4.505      1.747      2.946
REMARK INTER + INTRA:          -5.869
REMARK INTER:                  -6.155
REMARK INTRA:                   0.286
REMARK UNBOUND:                -0.311
REMARK SMILES Oc1cc(O)c2cc(O)c(-c3cc(O)c(O)c(O)c3)[o+]c2c1
REMARK SMILES IDX 10 1 20 2 21 3 22 4 2 5 3 6 4 7 6 8 7 9 8 10 11 11 12 12
REMARK SMILES IDX 13 13 19 14 15 15 17 16 14 17 16 19 18 21 9 23 1 25 5 27
REMARK H PARENT 14 18 16 20 18 22 9 24 1 26 5 28
REMARK Flexibility Score: inf
ROOT
ATOM      1  C   UNL     1     -23.824 -19.404 -13.940  1.00  0.00     0.402 A 
ATOM      2  O   UNL     1     -25.008 -19.865 -13.545  1.00  0.00    -0.202 OA
ATOM      3  C   UNL     1     -25.223 -21.134 -13.213  1.00  0.00     0.368 A 
ATOM      4  C   UNL     1     -26.503 -21.525 -12.812  1.00  0.00     0.162 A 
ATOM      5  C   UNL     1     -26.758 -22.853 -12.461  1.00  0.00     0.128 A 
ATOM      6  C   UNL     1     -25.728 -23.796 -12.511  1.00  0.00     0.093 A 
ATOM      7  C   UNL     1     -24.436 -23.429 -12.910  1.00  0.00     0.136 A 
ATOM      8  C   UNL     1     -24.172 -22.081 -13.266  1.00  0.00     0.125 A 
ATOM      9  C   UNL     1     -22.906 -21.621 -13.664  1.00  0.00     0.078 A 
ATOM     10  C   UNL     1     -22.721 -20.276 -13.995  1.00  0.00     0.223 A 
ENDROOT
BRANCH   1  11
ATOM     11  C   UNL     1     -23.714 -17.970 -14.293  1.00  0.00     0.091 A 
ATOM     12  C   UNL     1     -22.487 -17.309 -14.123  1.00  0.00     0.068 A 
ATOM     13  C   UNL     1     -22.360 -15.948 -14.431  1.00  0.00     0.162 A 
ATOM     14  C   UNL     1     -24.826 -17.239 -14.744  1.00  0.00     0.068 A 
ATOM     15  C   UNL     1     -23.473 -15.231 -14.900  1.00  0.00     0.200 A 
ATOM     16  C   UNL     1     -24.706 -15.877 -15.051  1.00  0.00     0.162 A 
BRANCH  13  17
ATOM     17  O   UNL     1     -21.133 -15.306 -14.271  1.00  0.00    -0.504 OA
ATOM     18  H   UNL     1     -20.908 -14.457 -14.777  1.00  0.00     0.293 HD
ENDBRANCH  13  17
BRANCH  15  19
ATOM     19  O   UNL     1     -23.372 -13.875 -15.216  1.00  0.00    -0.502 OA
ATOM     20  H   UNL     1     -24.166 -13.338 -15.545  1.00  0.00     0.293 HD
ENDBRANCH  15  19
BRANCH  16  21
ATOM     21  O   UNL     1     -25.811 -15.157 -15.504  1.00  0.00    -0.504 OA
ATOM     22  H   UNL     1     -26.301 -14.504 -14.903  1.00  0.00     0.293 HD
ENDBRANCH  16  21
ENDBRANCH   1  11
BRANCH  10  23
ATOM     23  O   UNL     1     -21.453 -19.809 -14.343  1.00  0.00    -0.500 OA
ATOM     24  H   UNL     1     -20.722 -19.690 -13.652  1.00  0.00     0.294 HD
ENDBRANCH  10  23
BRANCH   5  25
ATOM     25  O   UNL     1     -28.031 -23.250 -12.060  1.00  0.00    -0.507 OA
ATOM     26  H   UNL     1     -28.584 -22.690 -11.420  1.00  0.00     0.293 HD
ENDBRANCH   5  25
BRANCH   7  27
ATOM     27  O   UNL     1     -23.462 -24.432 -12.938  1.00  0.00    -0.507 OA
ATOM     28  H   UNL     1     -23.355 -25.102 -13.685  1.00  0.00     0.293 HD
ENDBRANCH   7  27
TORSDOF 7
ENDMDL
