MODEL 1
REMARK VINA RESULT:    -4.469      0.000      0.000
REMARK INTER + INTRA:          -4.599
REMARK INTER:                  -4.599
REMARK INTRA:                   0.000
REMARK UNBOUND:                 0.000
REMARK SMILES CC1(C)[C@@H]2CC[C@@](C)(C2)[C@@H]1O
REMARK SMILES IDX 1 1 2 2 4 3 5 4 6 5 7 6 9 7 10 8 8 9 3 10 11 11
REMARK H PARENT 11 12
REMARK Flexibility Score: inf
ROOT
ATOM      1  C   UNL     1     105.512 108.224 101.959  1.00  0.00     0.014 C 
ATOM      2  C   UNL     1     106.001 107.474 103.226  1.00  0.00    -0.006 C 
ATOM      3  C   UNL     1     107.560 107.474 103.383  1.00  0.00    -0.002 C 
ATOM      4  C   UNL     1     108.253 107.046 102.072  1.00  0.00     0.005 C 
ATOM      5  C   UNL     1     107.866 105.564 101.951  1.00  0.00     0.010 C 
ATOM      6  C   UNL     1     107.096 105.304 103.269  1.00  0.00    -0.006 C 
ATOM      7  C   UNL     1     107.810 106.234 104.225  1.00  0.00     0.013 C 
ATOM      8  C   UNL     1     105.685 105.941 103.208  1.00  0.00     0.126 C 
ATOM      9  C   UNL     1     107.099 103.836 103.708  1.00  0.00     0.014 C 
ATOM     10  C   UNL     1     105.342 108.158 104.449  1.00  0.00     0.014 C 
ENDROOT
BRANCH   8  11
ATOM     11  O   UNL     1     104.984 105.520 102.063  1.00  0.00    -0.392 OA
ATOM     12  H   UNL     1     104.088 105.943 102.113  1.00  0.00     0.211 HD
ENDBRANCH   8  11
TORSDOF 1
ENDMDL
MODEL 2
REMARK VINA RESULT:    -4.416      1.352      2.685
REMARK INTER + INTRA:          -4.545
REMARK INTER:                  -4.545
REMARK INTRA:                   0.000
REMARK UNBOUND:                 0.000
REMARK SMILES CC1(C)[C@@H]2CC[C@@](C)(C2)[C@@H]1O
REMARK SMILES IDX 1 1 2 2 4 3 5 4 6 5 7 6 9 7 10 8 8 9 3 10 11 11
REMARK H PARENT 11 12
REMARK Flexibility Score: inf
ROOT
ATOM      1  C   UNL     1     103.761 105.473 101.908  1.00  0.00     0.014 C 
ATOM      2  C   UNL     1     104.512 105.954 103.177  1.00  0.00    -0.006 C 
ATOM      3  C   UNL     1     104.499 107.511 103.351  1.00  0.00    -0.002 C 
ATOM      4  C   UNL     1     104.915 108.223 102.047  1.00  0.00     0.005 C 
ATOM      5  C   UNL     1     106.400 107.850 101.915  1.00  0.00     0.010 C 
ATOM      6  C   UNL     1     106.673 107.068 103.223  1.00  0.00    -0.006 C 
ATOM      7  C   UNL     1     105.740 107.763 104.192  1.00  0.00     0.013 C 
ATOM      8  C   UNL     1     106.048 105.652 103.149  1.00  0.00     0.126 C 
ATOM      9  C   UNL     1     108.142 107.079 103.657  1.00  0.00     0.014 C 
ATOM     10  C   UNL     1     103.839 105.276 104.395  1.00  0.00     0.014 C 
ENDROOT
BRANCH   8  11
ATOM     11  O   UNL     1     106.471 104.969 101.995  1.00  0.00    -0.392 OA
ATOM     12  H   UNL     1     107.437 104.781 102.119  1.00  0.00     0.211 HD
ENDBRANCH   8  11
TORSDOF 1
ENDMDL
MODEL 3
REMARK VINA RESULT:    -4.409      1.337      2.651
REMARK INTER + INTRA:          -4.538
REMARK INTER:                  -4.538
REMARK INTRA:                   0.000
REMARK UNBOUND:                 0.000
REMARK SMILES CC1(C)[C@@H]2CC[C@@](C)(C2)[C@@H]1O
REMARK SMILES IDX 1 1 2 2 4 3 5 4 6 5 7 6 9 7 10 8 8 9 3 10 11 11
REMARK H PARENT 11 12
REMARK Flexibility Score: inf
ROOT
ATOM      1  C   UNL     1     108.219 106.513 101.915  1.00  0.00     0.014 C 
ATOM      2  C   UNL     1     107.435 106.049 103.171  1.00  0.00    -0.006 C 
ATOM      3  C   UNL     1     107.436 104.494 103.362  1.00  0.00    -0.002 C 
ATOM      4  C   UNL     1     107.048 103.770 102.055  1.00  0.00     0.005 C 
ATOM      5  C   UNL     1     105.568 104.148 101.884  1.00  0.00     0.010 C 
ATOM      6  C   UNL     1     105.268 104.945 103.177  1.00  0.00    -0.006 C 
ATOM      7  C   UNL     1     106.174 104.257 104.175  1.00  0.00     0.013 C 
ATOM      8  C   UNL     1     105.901 106.358 103.103  1.00  0.00     0.126 C 
ATOM      9  C   UNL     1     103.789 104.946 103.574  1.00  0.00     0.014 C 
ATOM     10  C   UNL     1     108.081 106.737 104.398  1.00  0.00     0.014 C 
ENDROOT
BRANCH   8  11
ATOM     11  O   UNL     1     105.510 107.031 101.931  1.00  0.00    -0.392 OA
ATOM     12  H   UNL     1     104.519 106.992 101.904  1.00  0.00     0.211 HD
ENDBRANCH   8  11
TORSDOF 1
ENDMDL
MODEL 4
REMARK VINA RESULT:    -4.399      1.668      3.773
REMARK INTER + INTRA:          -4.527
REMARK INTER:                  -4.527
REMARK INTRA:                   0.000
REMARK UNBOUND:                 0.000
REMARK SMILES CC1(C)[C@@H]2CC[C@@](C)(C2)[C@@H]1O
REMARK SMILES IDX 1 1 2 2 4 3 5 4 6 5 7 6 9 7 10 8 8 9 3 10 11 11
REMARK H PARENT 11 12
REMARK Flexibility Score: inf
ROOT
ATOM      1  C   UNL     1     106.528 103.762 101.922  1.00  0.00     0.014 C 
ATOM      2  C   UNL     1     106.036 104.524 103.181  1.00  0.00    -0.006 C 
ATOM      3  C   UNL     1     104.478 104.498 103.350  1.00  0.00    -0.002 C 
ATOM      4  C   UNL     1     103.767 104.892 102.038  1.00  0.00     0.005 C 
ATOM      5  C   UNL     1     104.126 106.379 101.889  1.00  0.00     0.010 C 
ATOM      6  C   UNL     1     104.901 106.675 103.196  1.00  0.00    -0.006 C 
ATOM      7  C   UNL     1     104.212 105.747 104.174  1.00  0.00     0.013 C 
ATOM      8  C   UNL     1     106.324 106.063 103.135  1.00  0.00     0.126 C 
ATOM      9  C   UNL     1     104.875 108.149 103.612  1.00  0.00     0.014 C 
ATOM     10  C   UNL     1     106.716 103.872 104.409  1.00  0.00     0.014 C 
ENDROOT
BRANCH   8  11
ATOM     11  O   UNL     1     107.007 106.477 101.977  1.00  0.00    -0.392 OA
ATOM     12  H   UNL     1     107.224 105.652 101.470  1.00  0.00     0.211 HD
ENDBRANCH   8  11
TORSDOF 1
ENDMDL
MODEL 5
REMARK VINA RESULT:    -4.221      1.508      3.131
REMARK INTER + INTRA:          -4.344
REMARK INTER:                  -4.344
REMARK INTRA:                   0.000
REMARK UNBOUND:                 0.000
REMARK SMILES CC1(C)[C@@H]2CC[C@@](C)(C2)[C@@H]1O
REMARK SMILES IDX 1 1 2 2 4 3 5 4 6 5 7 6 9 7 10 8 8 9 3 10 11 11
REMARK H PARENT 11 12
REMARK Flexibility Score: inf
ROOT
ATOM      1  C   UNL     1     103.987 105.131 104.363  1.00  0.00     0.014 C 
ATOM      2  C   UNL     1     104.852 105.163 103.075  1.00  0.00    -0.006 C 
ATOM      3  C   UNL     1     105.998 104.095 103.072  1.00  0.00    -0.002 C 
ATOM      4  C   UNL     1     106.801 104.133 104.389  1.00  0.00     0.005 C 
ATOM      5  C   UNL     1     107.521 105.489 104.309  1.00  0.00     0.010 C 
ATOM      6  C   UNL     1     107.128 106.001 102.902  1.00  0.00    -0.006 C 
ATOM      7  C   UNL     1     107.020 104.706 102.127  1.00  0.00     0.013 C 
ATOM      8  C   UNL     1     105.658 106.493 102.895  1.00  0.00     0.126 C 
ATOM      9  C   UNL     1     108.123 107.003 102.307  1.00  0.00     0.014 C 
ATOM     10  C   UNL     1     103.901 104.928 101.877  1.00  0.00     0.014 C 
ENDROOT
BRANCH   8  11
ATOM     11  O   UNL     1     105.431 107.436 103.914  1.00  0.00    -0.392 OA
ATOM     12  H   UNL     1     104.463 107.653 103.883  1.00  0.00     0.211 HD
ENDBRANCH   8  11
TORSDOF 1
ENDMDL
MODEL 6
REMARK VINA RESULT:    -4.220      1.296      3.126
REMARK INTER + INTRA:          -4.344
REMARK INTER:                  -4.344
REMARK INTRA:                   0.000
REMARK UNBOUND:                 0.000
REMARK SMILES CC1(C)[C@@H]2CC[C@@](C)(C2)[C@@H]1O
REMARK SMILES IDX 1 1 2 2 4 3 5 4 6 5 7 6 9 7 10 8 8 9 3 10 11 11
REMARK H PARENT 11 12
REMARK Flexibility Score: inf
ROOT
ATOM      1  C   UNL     1     108.022 106.852 104.360  1.00  0.00     0.014 C 
ATOM      2  C   UNL     1     107.154 106.866 103.073  1.00  0.00    -0.006 C 
ATOM      3  C   UNL     1     106.015 107.941 103.107  1.00  0.00    -0.002 C 
ATOM      4  C   UNL     1     105.215 107.867 104.424  1.00  0.00     0.005 C 
ATOM      5  C   UNL     1     104.486 106.519 104.303  1.00  0.00     0.010 C 
ATOM      6  C   UNL     1     104.872 106.048 102.880  1.00  0.00    -0.006 C 
ATOM      7  C   UNL     1     104.987 107.367 102.146  1.00  0.00     0.013 C 
ATOM      8  C   UNL     1     106.339 105.548 102.853  1.00  0.00     0.126 C 
ATOM      9  C   UNL     1     103.869 105.073 102.256  1.00  0.00     0.014 C 
ATOM     10  C   UNL     1     108.104 107.132 101.880  1.00  0.00     0.014 C 
ENDROOT
BRANCH   8  11
ATOM     11  O   UNL     1     106.562 104.571 103.841  1.00  0.00    -0.392 OA
ATOM     12  H   UNL     1     106.991 103.803 103.383  1.00  0.00     0.211 HD
ENDBRANCH   8  11
TORSDOF 1
ENDMDL
MODEL 7
REMARK VINA RESULT:    -4.215      1.785      2.634
REMARK INTER + INTRA:          -4.338
REMARK INTER:                  -4.338
REMARK INTRA:                   0.000
REMARK UNBOUND:                 0.000
REMARK SMILES CC1(C)[C@@H]2CC[C@@](C)(C2)[C@@H]1O
REMARK SMILES IDX 1 1 2 2 4 3 5 4 6 5 7 6 9 7 10 8 8 9 3 10 11 11
REMARK H PARENT 11 12
REMARK Flexibility Score: inf
ROOT
ATOM      1  C   UNL     1     105.656 106.422 105.020  1.00  0.00     0.014 C 
ATOM      2  C   UNL     1     106.891 106.000 104.180  1.00  0.00    -0.006 C 
ATOM      3  C   UNL     1     106.714 106.263 102.645  1.00  0.00    -0.002 C 
ATOM      4  C   UNL     1     105.367 105.709 102.135  1.00  0.00     0.005 C 
ATOM      5  C   UNL     1     105.555 104.188 102.260  1.00  0.00     0.010 C 
ATOM      6  C   UNL     1     107.030 104.064 102.716  1.00  0.00    -0.006 C 
ATOM      7  C   UNL     1     107.663 105.251 102.023  1.00  0.00     0.013 C 
ATOM      8  C   UNL     1     107.172 104.460 104.207  1.00  0.00     0.126 C 
ATOM      9  C   UNL     1     107.675 102.720 102.365  1.00  0.00     0.014 C 
ATOM     10  C   UNL     1     108.107 106.792 104.719  1.00  0.00     0.014 C 
ENDROOT
BRANCH   8  11
ATOM     11  O   UNL     1     106.276 103.736 105.015  1.00  0.00    -0.392 OA
ATOM     12  H   UNL     1     106.166 102.849 104.583  1.00  0.00     0.211 HD
ENDBRANCH   8  11
TORSDOF 1
ENDMDL
MODEL 8
REMARK VINA RESULT:    -4.199      1.045      3.287
REMARK INTER + INTRA:          -4.322
REMARK INTER:                  -4.322
REMARK INTRA:                   0.000
REMARK UNBOUND:                 0.000
REMARK SMILES CC1(C)[C@@H]2CC[C@@](C)(C2)[C@@H]1O
REMARK SMILES IDX 1 1 2 2 4 3 5 4 6 5 7 6 9 7 10 8 8 9 3 10 11 11
REMARK H PARENT 11 12
REMARK Flexibility Score: inf
ROOT
ATOM      1  C   UNL     1     106.787 103.974 104.349  1.00  0.00     0.014 C 
ATOM      2  C   UNL     1     106.819 104.882 103.091  1.00  0.00    -0.006 C 
ATOM      3  C   UNL     1     107.879 106.032 103.184  1.00  0.00    -0.002 C 
ATOM      4  C   UNL     1     107.765 106.790 104.524  1.00  0.00     0.005 C 
ATOM      5  C   UNL     1     106.412 107.506 104.395  1.00  0.00     0.010 C 
ATOM      6  C   UNL     1     105.978 107.159 102.949  1.00  0.00    -0.006 C 
ATOM      7  C   UNL     1     107.315 107.083 102.242  1.00  0.00     0.013 C 
ATOM      8  C   UNL     1     105.497 105.689 102.866  1.00  0.00     0.126 C 
ATOM      9  C   UNL     1     105.005 108.170 102.335  1.00  0.00     0.014 C 
ATOM     10  C   UNL     1     107.125 103.973 101.875  1.00  0.00     0.014 C 
ENDROOT
BRANCH   8  11
ATOM     11  O   UNL     1     104.501 105.423 103.823  1.00  0.00    -0.392 OA
ATOM     12  H   UNL     1     104.535 106.170 104.476  1.00  0.00     0.211 HD
ENDBRANCH   8  11
TORSDOF 1
ENDMDL
MODEL 9
REMARK VINA RESULT:    -4.190      1.638      2.958
REMARK INTER + INTRA:          -4.313
REMARK INTER:                  -4.313
REMARK INTRA:                   0.000
REMARK UNBOUND:                 0.000
REMARK SMILES CC1(C)[C@@H]2CC[C@@](C)(C2)[C@@H]1O
REMARK SMILES IDX 1 1 2 2 4 3 5 4 6 5 7 6 9 7 10 8 8 9 3 10 11 11
REMARK H PARENT 11 12
REMARK Flexibility Score: inf
ROOT
ATOM      1  C   UNL     1     105.089 108.029 104.373  1.00  0.00     0.014 C 
ATOM      2  C   UNL     1     105.182 107.137 103.107  1.00  0.00    -0.006 C 
ATOM      3  C   UNL     1     104.128 105.977 103.089  1.00  0.00    -0.002 C 
ATOM      4  C   UNL     1     104.125 105.204 104.425  1.00  0.00     0.005 C 
ATOM      5  C   UNL     1     105.491 104.500 104.413  1.00  0.00     0.010 C 
ATOM      6  C   UNL     1     106.052 104.868 103.018  1.00  0.00    -0.006 C 
ATOM      7  C   UNL     1     104.786 104.943 102.192  1.00  0.00     0.013 C 
ATOM      8  C   UNL     1     106.527 106.343 102.996  1.00  0.00     0.126 C 
ATOM      9  C   UNL     1     107.087 103.873 102.485  1.00  0.00     0.014 C 
ATOM     10  C   UNL     1     104.982 108.058 101.879  1.00  0.00     0.014 C 
ENDROOT
BRANCH   8  11
ATOM     11  O   UNL     1     107.427 106.605 104.045  1.00  0.00    -0.392 OA
ATOM     12  H   UNL     1     107.409 105.806 104.634  1.00  0.00     0.211 HD
ENDBRANCH   8  11
TORSDOF 1
ENDMDL
