MODEL 1
REMARK VINA RESULT:    -4.077      0.000      0.000
REMARK INTER + INTRA:         -14.637
REMARK INTER:                 -10.274
REMARK INTRA:                  -4.363
REMARK UNBOUND:                -4.363
REMARK SMILES CCCCCCCCCCCCCCCCCCCCCCCCCCCC(=O)[O-]
REMARK SMILES IDX 15 1 16 2 17 3 18 4 19 5 20 6 21 7 22 8 23 9 24 10 25 11
REMARK SMILES IDX 26 12 27 13 28 14 29 15 30 16 14 17 13 18 12 19 11 20 10 21
REMARK SMILES IDX 9 22 8 23 7 24 6 25 5 26 4 27 3 28 2 29 1 30
REMARK H PARENT
REMARK Flexibility Score: inf
ROOT
ATOM      1  C   UNL     1       5.276  -0.820  -4.449  1.00  0.00     0.000 C 
ENDROOT
BRANCH   1   2
ATOM      2  C   UNL     1       6.560  -1.622  -4.709  1.00  0.00     0.000 C 
BRANCH   2   3
ATOM      3  C   UNL     1       6.421  -3.055  -4.178  1.00  0.00     0.000 C 
BRANCH   3   4
ATOM      4  C   UNL     1       7.576  -3.464  -3.245  1.00  0.00     0.000 C 
BRANCH   4   5
ATOM      5  C   UNL     1       7.471  -2.929  -1.804  1.00  0.00     0.000 C 
BRANCH   5   6
ATOM      6  C   UNL     1       8.825  -2.914  -1.073  1.00  0.00     0.000 C 
BRANCH   6   7
ATOM      7  C   UNL     1       9.337  -1.491  -0.783  1.00  0.00     0.000 C 
BRANCH   7   8
ATOM      8  C   UNL     1       8.749  -0.383  -1.680  1.00  0.00     0.000 C 
BRANCH   8   9
ATOM      9  C   UNL     1       7.962   0.715  -0.938  1.00  0.00     0.000 C 
BRANCH   9  10
ATOM     10  C   UNL     1       6.477   0.826  -1.330  1.00  0.00     0.000 C 
BRANCH  10  11
ATOM     11  C   UNL     1       5.561  -0.026  -0.442  1.00  0.00     0.000 C 
BRANCH  11  12
ATOM     12  C   UNL     1       6.306  -0.506   0.813  1.00  0.00     0.006 C 
BRANCH  12  13
ATOM     13  C   UNL     1       5.671   0.023   2.105  1.00  0.00     0.053 C 
BRANCH  13  14
ATOM     14  C   UNL     1       6.705   0.359   3.135  1.00  0.00     0.041 C 
ATOM     15  O   UNL     1       7.875   0.665   2.782  1.00  0.00    -0.550 OA
ATOM     16  O   UNL     1       6.387   0.298   4.486  1.00  0.00    -0.550 OA
ENDBRANCH  13  14
ENDBRANCH  12  13
ENDBRANCH  11  12
ENDBRANCH  10  11
ENDBRANCH   9  10
ENDBRANCH   8   9
ENDBRANCH   7   8
ENDBRANCH   6   7
ENDBRANCH   5   6
ENDBRANCH   4   5
ENDBRANCH   3   4
ENDBRANCH   2   3
ENDBRANCH   1   2
BRANCH   1  17
ATOM     17  C   UNL     1       4.373  -1.467  -3.383  1.00  0.00     0.000 C 
BRANCH  17  18
ATOM     18  C   UNL     1       2.908  -1.690  -3.815  1.00  0.00     0.000 C 
BRANCH  18  19
ATOM     19  C   UNL     1       2.580  -1.273  -5.260  1.00  0.00     0.000 C 
BRANCH  19  20
ATOM     20  C   UNL     1       2.196  -2.462  -6.153  1.00  0.00     0.000 C 
BRANCH  20  21
ATOM     21  C   UNL     1       3.406  -2.951  -6.964  1.00  0.00     0.000 C 
BRANCH  21  22
ATOM     22  C   UNL     1       3.702  -4.443  -6.741  1.00  0.00    -0.000 C 
BRANCH  22  23
ATOM     23  C   UNL     1       3.759  -4.817  -5.250  1.00  0.00    -0.000 C 
BRANCH  23  24
ATOM     24  C   UNL     1       2.903  -6.059  -4.921  1.00  0.00    -0.000 C 
BRANCH  24  25
ATOM     25  C   UNL     1       1.473  -5.997  -5.492  1.00  0.00    -0.000 C 
BRANCH  25  26
ATOM     26  C   UNL     1       0.443  -5.283  -4.596  1.00  0.00    -0.000 C 
BRANCH  26  27
ATOM     27  C   UNL     1       0.973  -4.851  -3.215  1.00  0.00    -0.000 C 
BRANCH  27  28
ATOM     28  C   UNL     1       0.240  -5.541  -2.052  1.00  0.00    -0.000 C 
BRANCH  28  29
ATOM     29  C   UNL     1       1.201  -6.265  -1.097  1.00  0.00    -0.003 C 
ATOM     30  C   UNL     1       1.736  -7.574  -1.679  1.00  0.00     0.004 C 
ENDBRANCH  28  29
ENDBRANCH  27  28
ENDBRANCH  26  27
ENDBRANCH  25  26
ENDBRANCH  24  25
ENDBRANCH  23  24
ENDBRANCH  22  23
ENDBRANCH  21  22
ENDBRANCH  20  21
ENDBRANCH  19  20
ENDBRANCH  18  19
ENDBRANCH  17  18
ENDBRANCH   1  17
TORSDOF 26
ENDMDL
MODEL 2
REMARK VINA RESULT:    -4.056      2.245      4.449
REMARK INTER + INTRA:         -14.584
REMARK INTER:                 -11.293
REMARK INTRA:                  -3.291
REMARK UNBOUND:                -4.363
REMARK SMILES CCCCCCCCCCCCCCCCCCCCCCCCCCCC(=O)[O-]
REMARK SMILES IDX 15 1 16 2 17 3 18 4 19 5 20 6 21 7 22 8 23 9 24 10 25 11
REMARK SMILES IDX 26 12 27 13 28 14 29 15 30 16 14 17 13 18 12 19 11 20 10 21
REMARK SMILES IDX 9 22 8 23 7 24 6 25 5 26 4 27 3 28 2 29 1 30
REMARK H PARENT
REMARK Flexibility Score: inf
ROOT
ATOM      1  C   UNL     1       9.408  -1.833  -0.820  1.00  0.00     0.000 C 
ENDROOT
BRANCH   1   2
ATOM      2  C   UNL     1       9.608  -1.143   0.537  1.00  0.00     0.000 C 
BRANCH   2   3
ATOM      3  C   UNL     1       9.683   0.380   0.366  1.00  0.00     0.000 C 
BRANCH   3   4
ATOM      4  C   UNL     1       9.016   1.148   1.522  1.00  0.00     0.000 C 
BRANCH   4   5
ATOM      5  C   UNL     1       8.312   0.266   2.570  1.00  0.00     0.000 C 
BRANCH   5   6
ATOM      6  C   UNL     1       6.854   0.686   2.821  1.00  0.00     0.000 C 
BRANCH   6   7
ATOM      7  C   UNL     1       5.832  -0.279   2.191  1.00  0.00     0.000 C 
BRANCH   7   8
ATOM      8  C   UNL     1       6.044  -0.579   0.694  1.00  0.00     0.000 C 
BRANCH   8   9
ATOM      9  C   UNL     1       5.406   0.435  -0.277  1.00  0.00     0.000 C 
BRANCH   9  10
ATOM     10  C   UNL     1       6.410   1.281  -1.081  1.00  0.00     0.000 C 
BRANCH  10  11
ATOM     11  C   UNL     1       6.289   2.784  -0.791  1.00  0.00     0.000 C 
BRANCH  11  12
ATOM     12  C   UNL     1       5.587   3.027   0.553  1.00  0.00     0.006 C 
BRANCH  12  13
ATOM     13  C   UNL     1       4.592   4.193   0.486  1.00  0.00     0.053 C 
BRANCH  13  14
ATOM     14  C   UNL     1       3.434   3.988   1.414  1.00  0.00     0.041 C 
ATOM     15  O   UNL     1       2.254   4.112   0.992  1.00  0.00    -0.550 OA
ATOM     16  O   UNL     1       3.659   3.698   2.754  1.00  0.00    -0.550 OA
ENDBRANCH  13  14
ENDBRANCH  12  13
ENDBRANCH  11  12
ENDBRANCH  10  11
ENDBRANCH   9  10
ENDBRANCH   8   9
ENDBRANCH   7   8
ENDBRANCH   6   7
ENDBRANCH   5   6
ENDBRANCH   4   5
ENDBRANCH   3   4
ENDBRANCH   2   3
ENDBRANCH   1   2
BRANCH   1  17
ATOM     17  C   UNL     1       8.103  -2.647  -0.890  1.00  0.00     0.000 C 
BRANCH  17  18
ATOM     18  C   UNL     1       8.101  -3.793  -1.924  1.00  0.00     0.000 C 
BRANCH  18  19
ATOM     19  C   UNL     1       7.434  -3.461  -3.270  1.00  0.00     0.000 C 
BRANCH  19  20
ATOM     20  C   UNL     1       6.629  -2.153  -3.233  1.00  0.00     0.000 C 
BRANCH  20  21
ATOM     21  C   UNL     1       5.471  -2.193  -4.242  1.00  0.00     0.000 C 
BRANCH  21  22
ATOM     22  C   UNL     1       4.212  -1.479  -3.725  1.00  0.00    -0.000 C 
BRANCH  22  23
ATOM     23  C   UNL     1       3.255  -1.075  -4.859  1.00  0.00    -0.000 C 
BRANCH  23  24
ATOM     24  C   UNL     1       2.243  -2.190  -5.200  1.00  0.00    -0.000 C 
BRANCH  24  25
ATOM     25  C   UNL     1       1.913  -3.115  -4.013  1.00  0.00    -0.000 C 
BRANCH  25  26
ATOM     26  C   UNL     1       1.907  -4.620  -4.341  1.00  0.00    -0.000 C 
BRANCH  26  27
ATOM     27  C   UNL     1       0.957  -5.469  -3.474  1.00  0.00    -0.000 C 
BRANCH  27  28
ATOM     28  C   UNL     1       0.548  -4.764  -2.170  1.00  0.00    -0.000 C 
BRANCH  28  29
ATOM     29  C   UNL     1       0.893  -5.589  -0.921  1.00  0.00    -0.003 C 
ATOM     30  C   UNL     1       1.557  -6.923  -1.261  1.00  0.00     0.004 C 
ENDBRANCH  28  29
ENDBRANCH  27  28
ENDBRANCH  26  27
ENDBRANCH  25  26
ENDBRANCH  24  25
ENDBRANCH  23  24
ENDBRANCH  22  23
ENDBRANCH  21  22
ENDBRANCH  20  21
ENDBRANCH  19  20
ENDBRANCH  18  19
ENDBRANCH  17  18
ENDBRANCH   1  17
TORSDOF 26
ENDMDL
MODEL 3
REMARK VINA RESULT:    -4.010      3.518      8.687
REMARK INTER + INTRA:         -14.469
REMARK INTER:                 -10.053
REMARK INTRA:                  -4.416
REMARK UNBOUND:                -4.363
REMARK SMILES CCCCCCCCCCCCCCCCCCCCCCCCCCCC(=O)[O-]
REMARK SMILES IDX 15 1 16 2 17 3 18 4 19 5 20 6 21 7 22 8 23 9 24 10 25 11
REMARK SMILES IDX 26 12 27 13 28 14 29 15 30 16 14 17 13 18 12 19 11 20 10 21
REMARK SMILES IDX 9 22 8 23 7 24 6 25 5 26 4 27 3 28 2 29 1 30
REMARK H PARENT
REMARK Flexibility Score: inf
ROOT
ATOM      1  C   UNL     1       5.494   0.418   0.418  1.00  0.00     0.000 C 
ENDROOT
BRANCH   1   2
ATOM      2  C   UNL     1       5.714  -0.564  -0.742  1.00  0.00     0.000 C 
BRANCH   2   3
ATOM      3  C   UNL     1       6.740  -1.639  -0.355  1.00  0.00     0.000 C 
BRANCH   3   4
ATOM      4  C   UNL     1       7.251  -2.443  -1.566  1.00  0.00     0.000 C 
BRANCH   4   5
ATOM      5  C   UNL     1       7.096  -1.740  -2.927  1.00  0.00     0.000 C 
BRANCH   5   6
ATOM      6  C   UNL     1       6.189  -2.516  -3.899  1.00  0.00     0.000 C 
BRANCH   6   7
ATOM      7  C   UNL     1       5.112  -1.631  -4.553  1.00  0.00     0.000 C 
BRANCH   7   8
ATOM      8  C   UNL     1       3.834  -1.419  -3.715  1.00  0.00     0.000 C 
BRANCH   8   9
ATOM      9  C   UNL     1       2.509  -1.667  -4.463  1.00  0.00     0.000 C 
BRANCH   9  10
ATOM     10  C   UNL     1       2.624  -2.575  -5.701  1.00  0.00     0.000 C 
BRANCH  10  11
ATOM     11  C   UNL     1       2.360  -4.053  -5.382  1.00  0.00     0.000 C 
BRANCH  11  12
ATOM     12  C   UNL     1       1.264  -4.196  -4.315  1.00  0.00     0.006 C 
BRANCH  12  13
ATOM     13  C   UNL     1       1.479  -5.425  -3.422  1.00  0.00     0.053 C 
BRANCH  13  14
ATOM     14  C   UNL     1       0.702  -5.326  -2.145  1.00  0.00     0.041 C 
ATOM     15  O   UNL     1      -0.290  -4.555  -2.065  1.00  0.00    -0.550 OA
ATOM     16  O   UNL     1       1.098  -6.057  -1.032  1.00  0.00    -0.550 OA
ENDBRANCH  13  14
ENDBRANCH  12  13
ENDBRANCH  11  12
ENDBRANCH  10  11
ENDBRANCH   9  10
ENDBRANCH   8   9
ENDBRANCH   7   8
ENDBRANCH   6   7
ENDBRANCH   5   6
ENDBRANCH   4   5
ENDBRANCH   3   4
ENDBRANCH   2   3
ENDBRANCH   1   2
BRANCH   1  17
ATOM     17  C   UNL     1       6.049  -0.104   1.756  1.00  0.00     0.000 C 
BRANCH  17  18
ATOM     18  C   UNL     1       6.640   0.977   2.686  1.00  0.00     0.000 C 
BRANCH  18  19
ATOM     19  C   UNL     1       8.129   1.293   2.460  1.00  0.00     0.000 C 
BRANCH  19  20
ATOM     20  C   UNL     1       8.946   0.062   2.045  1.00  0.00     0.000 C 
BRANCH  20  21
ATOM     21  C   UNL     1       9.658   0.302   0.705  1.00  0.00     0.000 C 
BRANCH  21  22
ATOM     22  C   UNL     1       9.261   1.638   0.056  1.00  0.00    -0.000 C 
BRANCH  22  23
ATOM     23  C   UNL     1       8.751   1.466  -1.385  1.00  0.00    -0.000 C 
BRANCH  23  24
ATOM     24  C   UNL     1       7.612   2.450  -1.728  1.00  0.00    -0.000 C 
BRANCH  24  25
ATOM     25  C   UNL     1       7.350   3.503  -0.635  1.00  0.00    -0.000 C 
BRANCH  25  26
ATOM     26  C   UNL     1       5.872   3.894  -0.446  1.00  0.00    -0.000 C 
BRANCH  26  27
ATOM     27  C   UNL     1       5.427   4.064   1.019  1.00  0.00    -0.000 C 
BRANCH  27  28
ATOM     28  C   UNL     1       3.961   3.658   1.250  1.00  0.00    -0.000 C 
BRANCH  28  29
ATOM     29  C   UNL     1       3.027   4.872   1.369  1.00  0.00    -0.003 C 
ATOM     30  C   UNL     1       2.238   5.136   0.087  1.00  0.00     0.004 C 
ENDBRANCH  28  29
ENDBRANCH  27  28
ENDBRANCH  26  27
ENDBRANCH  25  26
ENDBRANCH  24  25
ENDBRANCH  23  24
ENDBRANCH  22  23
ENDBRANCH  21  22
ENDBRANCH  20  21
ENDBRANCH  19  20
ENDBRANCH  18  19
ENDBRANCH  17  18
ENDBRANCH   1  17
TORSDOF 26
ENDMDL
MODEL 4
REMARK VINA RESULT:    -3.968      2.244      2.884
REMARK INTER + INTRA:         -14.362
REMARK INTER:                 -10.928
REMARK INTRA:                  -3.434
REMARK UNBOUND:                -4.363
REMARK SMILES CCCCCCCCCCCCCCCCCCCCCCCCCCCC(=O)[O-]
REMARK SMILES IDX 15 1 16 2 17 3 18 4 19 5 20 6 21 7 22 8 23 9 24 10 25 11
REMARK SMILES IDX 26 12 27 13 28 14 29 15 30 16 14 17 13 18 12 19 11 20 10 21
REMARK SMILES IDX 9 22 8 23 7 24 6 25 5 26 4 27 3 28 2 29 1 30
REMARK H PARENT
REMARK Flexibility Score: inf
ROOT
ATOM      1  C   UNL     1       5.535  -0.779  -4.189  1.00  0.00     0.000 C 
ENDROOT
BRANCH   1   2
ATOM      2  C   UNL     1       6.920  -1.422  -4.032  1.00  0.00     0.000 C 
BRANCH   2   3
ATOM      3  C   UNL     1       6.792  -2.928  -3.761  1.00  0.00     0.000 C 
BRANCH   3   4
ATOM      4  C   UNL     1       7.771  -3.430  -2.684  1.00  0.00     0.000 C 
BRANCH   4   5
ATOM      5  C   UNL     1       7.419  -3.020  -1.241  1.00  0.00     0.000 C 
BRANCH   5   6
ATOM      6  C   UNL     1       8.434  -2.035  -0.635  1.00  0.00     0.000 C 
BRANCH   6   7
ATOM      7  C   UNL     1       7.802  -0.689  -0.238  1.00  0.00     0.000 C 
BRANCH   7   8
ATOM      8  C   UNL     1       6.427  -0.784   0.455  1.00  0.00     0.000 C 
BRANCH   8   9
ATOM      9  C   UNL     1       5.399   0.280   0.024  1.00  0.00     0.000 C 
BRANCH   9  10
ATOM     10  C   UNL     1       5.998   1.513  -0.678  1.00  0.00     0.000 C 
BRANCH  10  11
ATOM     11  C   UNL     1       6.143   2.720   0.258  1.00  0.00     0.000 C 
BRANCH  11  12
ATOM     12  C   UNL     1       5.167   2.617   1.440  1.00  0.00     0.006 C 
BRANCH  12  13
ATOM     13  C   UNL     1       4.538   3.971   1.795  1.00  0.00     0.053 C 
BRANCH  13  14
ATOM     14  C   UNL     1       3.046   3.882   1.886  1.00  0.00     0.041 C 
ATOM     15  O   UNL     1       2.335   4.095   0.868  1.00  0.00    -0.550 OA
ATOM     16  O   UNL     1       2.439   3.604   3.104  1.00  0.00    -0.550 OA
ENDBRANCH  13  14
ENDBRANCH  12  13
ENDBRANCH  11  12
ENDBRANCH  10  11
ENDBRANCH   9  10
ENDBRANCH   8   9
ENDBRANCH   7   8
ENDBRANCH   6   7
ENDBRANCH   5   6
ENDBRANCH   4   5
ENDBRANCH   3   4
ENDBRANCH   2   3
ENDBRANCH   1   2
BRANCH   1  17
ATOM     17  C   UNL     1       4.566  -1.162  -3.055  1.00  0.00     0.000 C 
BRANCH  17  18
ATOM     18  C   UNL     1       3.168  -1.623  -3.517  1.00  0.00     0.000 C 
BRANCH  18  19
ATOM     19  C   UNL     1       2.784  -1.215  -4.950  1.00  0.00     0.000 C 
BRANCH  19  20
ATOM     20  C   UNL     1       2.370  -2.410  -5.822  1.00  0.00     0.000 C 
BRANCH  20  21
ATOM     21  C   UNL     1       3.411  -3.537  -5.738  1.00  0.00     0.000 C 
BRANCH  21  22
ATOM     22  C   UNL     1       2.879  -4.779  -5.006  1.00  0.00    -0.000 C 
BRANCH  22  23
ATOM     23  C   UNL     1       1.373  -4.687  -4.705  1.00  0.00    -0.000 C 
BRANCH  23  24
ATOM     24  C   UNL     1       1.088  -4.289  -3.241  1.00  0.00    -0.000 C 
BRANCH  24  25
ATOM     25  C   UNL     1       0.023  -5.166  -2.555  1.00  0.00    -0.000 C 
BRANCH  25  26
ATOM     26  C   UNL     1       0.563  -6.117  -1.469  1.00  0.00    -0.000 C 
BRANCH  26  27
ATOM     27  C   UNL     1       0.870  -7.547  -1.953  1.00  0.00    -0.000 C 
BRANCH  27  28
ATOM     28  C   UNL     1       2.373  -7.797  -2.164  1.00  0.00    -0.000 C 
BRANCH  28  29
ATOM     29  C   UNL     1       2.708  -8.190  -3.611  1.00  0.00    -0.003 C 
ATOM     30  C   UNL     1       4.198  -8.066  -3.926  1.00  0.00     0.004 C 
ENDBRANCH  28  29
ENDBRANCH  27  28
ENDBRANCH  26  27
ENDBRANCH  25  26
ENDBRANCH  24  25
ENDBRANCH  23  24
ENDBRANCH  22  23
ENDBRANCH  21  22
ENDBRANCH  20  21
ENDBRANCH  19  20
ENDBRANCH  18  19
ENDBRANCH  17  18
ENDBRANCH   1  17
TORSDOF 26
ENDMDL
MODEL 5
REMARK VINA RESULT:    -3.952      2.331      2.820
REMARK INTER + INTRA:         -14.322
REMARK INTER:                 -10.275
REMARK INTRA:                  -4.047
REMARK UNBOUND:                -4.363
REMARK SMILES CCCCCCCCCCCCCCCCCCCCCCCCCCCC(=O)[O-]
REMARK SMILES IDX 15 1 16 2 17 3 18 4 19 5 20 6 21 7 22 8 23 9 24 10 25 11
REMARK SMILES IDX 26 12 27 13 28 14 29 15 30 16 14 17 13 18 12 19 11 20 10 21
REMARK SMILES IDX 9 22 8 23 7 24 6 25 5 26 4 27 3 28 2 29 1 30
REMARK H PARENT
REMARK Flexibility Score: inf
ROOT
ATOM      1  C   UNL     1       4.413  -1.534  -3.133  1.00  0.00     0.000 C 
ENDROOT
BRANCH   1   2
ATOM      2  C   UNL     1       5.412  -0.772  -4.016  1.00  0.00     0.000 C 
BRANCH   2   3
ATOM      3  C   UNL     1       6.801  -1.422  -3.950  1.00  0.00     0.000 C 
BRANCH   3   4
ATOM      4  C   UNL     1       6.787  -2.798  -3.257  1.00  0.00     0.000 C 
BRANCH   4   5
ATOM      5  C   UNL     1       7.932  -3.034  -2.255  1.00  0.00     0.000 C 
BRANCH   5   6
ATOM      6  C   UNL     1       7.488  -2.865  -0.791  1.00  0.00     0.000 C 
BRANCH   6   7
ATOM      7  C   UNL     1       7.516  -1.399  -0.320  1.00  0.00     0.000 C 
BRANCH   7   8
ATOM      8  C   UNL     1       6.190  -0.868   0.261  1.00  0.00     0.000 C 
BRANCH   8   9
ATOM      9  C   UNL     1       5.666   0.433  -0.379  1.00  0.00     0.000 C 
BRANCH   9  10
ATOM     10  C   UNL     1       5.911   1.708   0.449  1.00  0.00     0.000 C 
BRANCH  10  11
ATOM     11  C   UNL     1       5.832   2.989  -0.392  1.00  0.00     0.000 C 
BRANCH  11  12
ATOM     12  C   UNL     1       5.497   4.202   0.489  1.00  0.00     0.006 C 
BRANCH  12  13
ATOM     13  C   UNL     1       4.831   3.796   1.810  1.00  0.00     0.053 C 
BRANCH  13  14
ATOM     14  C   UNL     1       3.345   3.977   1.761  1.00  0.00     0.041 C 
ATOM     15  O   UNL     1       2.611   3.439   2.631  1.00  0.00    -0.550 OA
ATOM     16  O   UNL     1       2.768   4.709   0.731  1.00  0.00    -0.550 OA
ENDBRANCH  13  14
ENDBRANCH  12  13
ENDBRANCH  11  12
ENDBRANCH  10  11
ENDBRANCH   9  10
ENDBRANCH   8   9
ENDBRANCH   7   8
ENDBRANCH   6   7
ENDBRANCH   5   6
ENDBRANCH   4   5
ENDBRANCH   3   4
ENDBRANCH   2   3
ENDBRANCH   1   2
BRANCH   1  17
ATOM     17  C   UNL     1       3.002  -1.598  -3.746  1.00  0.00     0.000 C 
BRANCH  17  18
ATOM     18  C   UNL     1       2.916  -1.195  -5.233  1.00  0.00     0.000 C 
BRANCH  18  19
ATOM     19  C   UNL     1       2.115  -2.158  -6.128  1.00  0.00     0.000 C 
BRANCH  19  20
ATOM     20  C   UNL     1       2.985  -2.864  -7.178  1.00  0.00     0.000 C 
BRANCH  20  21
ATOM     21  C   UNL     1       4.476  -2.744  -6.825  1.00  0.00     0.000 C 
BRANCH  21  22
ATOM     22  C   UNL     1       5.121  -4.104  -6.517  1.00  0.00    -0.000 C 
BRANCH  22  23
ATOM     23  C   UNL     1       4.456  -4.818  -5.328  1.00  0.00    -0.000 C 
BRANCH  23  24
ATOM     24  C   UNL     1       3.652  -6.062  -5.762  1.00  0.00    -0.000 C 
BRANCH  24  25
ATOM     25  C   UNL     1       2.288  -6.198  -5.058  1.00  0.00    -0.000 C 
BRANCH  25  26
ATOM     26  C   UNL     1       2.091  -5.281  -3.836  1.00  0.00    -0.000 C 
BRANCH  26  27
ATOM     27  C   UNL     1       0.748  -4.528  -3.799  1.00  0.00    -0.000 C 
BRANCH  27  28
ATOM     28  C   UNL     1       0.002  -4.701  -2.465  1.00  0.00    -0.000 C 
BRANCH  28  29
ATOM     29  C   UNL     1      -1.486  -5.028  -2.660  1.00  0.00    -0.003 C 
ATOM     30  C   UNL     1      -1.711  -6.209  -3.605  1.00  0.00     0.004 C 
ENDBRANCH  28  29
ENDBRANCH  27  28
ENDBRANCH  26  27
ENDBRANCH  25  26
ENDBRANCH  24  25
ENDBRANCH  23  24
ENDBRANCH  22  23
ENDBRANCH  21  22
ENDBRANCH  20  21
ENDBRANCH  19  20
ENDBRANCH  18  19
ENDBRANCH  17  18
ENDBRANCH   1  17
TORSDOF 26
ENDMDL
MODEL 6
REMARK VINA RESULT:    -3.903      1.340      3.184
REMARK INTER + INTRA:         -14.199
REMARK INTER:                 -10.106
REMARK INTRA:                  -4.092
REMARK UNBOUND:                -4.363
REMARK SMILES CCCCCCCCCCCCCCCCCCCCCCCCCCCC(=O)[O-]
REMARK SMILES IDX 15 1 16 2 17 3 18 4 19 5 20 6 21 7 22 8 23 9 24 10 25 11
REMARK SMILES IDX 26 12 27 13 28 14 29 15 30 16 14 17 13 18 12 19 11 20 10 21
REMARK SMILES IDX 9 22 8 23 7 24 6 25 5 26 4 27 3 28 2 29 1 30
REMARK H PARENT
REMARK Flexibility Score: inf
ROOT
ATOM      1  C   UNL     1       4.037  -1.495  -3.887  1.00  0.00     0.000 C 
ENDROOT
BRANCH   1   2
ATOM      2  C   UNL     1       5.139  -0.776  -4.679  1.00  0.00     0.000 C 
BRANCH   2   3
ATOM      3  C   UNL     1       6.432  -1.604  -4.683  1.00  0.00     0.000 C 
BRANCH   3   4
ATOM      4  C   UNL     1       6.176  -3.116  -4.540  1.00  0.00     0.000 C 
BRANCH   4   5
ATOM      5  C   UNL     1       7.269  -3.893  -3.781  1.00  0.00     0.000 C 
BRANCH   5   6
ATOM      6  C   UNL     1       8.446  -3.001  -3.352  1.00  0.00     0.000 C 
BRANCH   6   7
ATOM      7  C   UNL     1       8.752  -3.091  -1.845  1.00  0.00     0.000 C 
BRANCH   7   8
ATOM      8  C   UNL     1       7.521  -3.039  -0.917  1.00  0.00     0.000 C 
BRANCH   8   9
ATOM      9  C   UNL     1       7.215  -1.657  -0.309  1.00  0.00     0.000 C 
BRANCH   9  10
ATOM     10  C   UNL     1       6.038  -0.907  -0.961  1.00  0.00     0.000 C 
BRANCH  10  11
ATOM     11  C   UNL     1       6.439   0.469  -1.508  1.00  0.00     0.000 C 
BRANCH  11  12
ATOM     12  C   UNL     1       6.591   1.489  -0.369  1.00  0.00     0.006 C 
BRANCH  12  13
ATOM     13  C   UNL     1       5.453   1.391   0.655  1.00  0.00     0.053 C 
BRANCH  13  14
ATOM     14  C   UNL     1       5.952   0.957   1.999  1.00  0.00     0.041 C 
ATOM     15  O   UNL     1       6.893   1.580   2.558  1.00  0.00    -0.550 OA
ATOM     16  O   UNL     1       5.402  -0.160   2.617  1.00  0.00    -0.550 OA
ENDBRANCH  13  14
ENDBRANCH  12  13
ENDBRANCH  11  12
ENDBRANCH  10  11
ENDBRANCH   9  10
ENDBRANCH   8   9
ENDBRANCH   7   8
ENDBRANCH   6   7
ENDBRANCH   5   6
ENDBRANCH   4   5
ENDBRANCH   3   4
ENDBRANCH   2   3
ENDBRANCH   1   2
BRANCH   1  17
ATOM     17  C   UNL     1       2.650  -1.371  -4.545  1.00  0.00     0.000 C 
BRANCH  17  18
ATOM     18  C   UNL     1       2.313  -2.473  -5.572  1.00  0.00     0.000 C 
BRANCH  18  19
ATOM     19  C   UNL     1       2.580  -3.913  -5.099  1.00  0.00     0.000 C 
BRANCH  19  20
ATOM     20  C   UNL     1       1.292  -4.724  -4.892  1.00  0.00     0.000 C 
BRANCH  20  21
ATOM     21  C   UNL     1       0.880  -4.730  -3.412  1.00  0.00     0.000 C 
BRANCH  21  22
ATOM     22  C   UNL     1      -0.383  -5.568  -3.154  1.00  0.00    -0.000 C 
BRANCH  22  23
ATOM     23  C   UNL     1      -0.240  -6.489  -1.930  1.00  0.00    -0.000 C 
BRANCH  23  24
ATOM     24  C   UNL     1       1.068  -6.234  -1.151  1.00  0.00    -0.000 C 
BRANCH  24  25
ATOM     25  C   UNL     1       2.003  -7.457  -1.087  1.00  0.00    -0.000 C 
BRANCH  25  26
ATOM     26  C   UNL     1       1.980  -8.361  -2.335  1.00  0.00    -0.000 C 
BRANCH  26  27
ATOM     27  C   UNL     1       2.841  -7.863  -3.512  1.00  0.00    -0.000 C 
BRANCH  27  28
ATOM     28  C   UNL     1       2.425  -8.480  -4.859  1.00  0.00    -0.000 C 
BRANCH  28  29
ATOM     29  C   UNL     1       0.911  -8.723  -4.953  1.00  0.00    -0.003 C 
ATOM     30  C   UNL     1       0.272  -8.005  -6.141  1.00  0.00     0.004 C 
ENDBRANCH  28  29
ENDBRANCH  27  28
ENDBRANCH  26  27
ENDBRANCH  25  26
ENDBRANCH  24  25
ENDBRANCH  23  24
ENDBRANCH  22  23
ENDBRANCH  21  22
ENDBRANCH  20  21
ENDBRANCH  19  20
ENDBRANCH  18  19
ENDBRANCH  17  18
ENDBRANCH   1  17
TORSDOF 26
ENDMDL
MODEL 7
REMARK VINA RESULT:    -3.835      4.026      8.603
REMARK INTER + INTRA:         -14.028
REMARK INTER:                 -10.053
REMARK INTRA:                  -3.975
REMARK UNBOUND:                -4.363
REMARK SMILES CCCCCCCCCCCCCCCCCCCCCCCCCCCC(=O)[O-]
REMARK SMILES IDX 15 1 16 2 17 3 18 4 19 5 20 6 21 7 22 8 23 9 24 10 25 11
REMARK SMILES IDX 26 12 27 13 28 14 29 15 30 16 14 17 13 18 12 19 11 20 10 21
REMARK SMILES IDX 9 22 8 23 7 24 6 25 5 26 4 27 3 28 2 29 1 30
REMARK H PARENT
REMARK Flexibility Score: inf
ROOT
ATOM      1  C   UNL     1       3.936  -1.505  -3.504  1.00  0.00     0.000 C 
ENDROOT
BRANCH   1   2
ATOM      2  C   UNL     1       2.539  -1.770  -4.083  1.00  0.00     0.000 C 
BRANCH   2   3
ATOM      3  C   UNL     1       2.484  -1.385  -5.568  1.00  0.00     0.000 C 
BRANCH   3   4
ATOM      4  C   UNL     1       2.356  -2.605  -6.499  1.00  0.00     0.000 C 
BRANCH   4   5
ATOM      5  C   UNL     1       3.690  -3.164  -7.029  1.00  0.00     0.000 C 
BRANCH   5   6
ATOM      6  C   UNL     1       4.110  -4.468  -6.330  1.00  0.00     0.000 C 
BRANCH   6   7
ATOM      7  C   UNL     1       2.919  -5.393  -6.015  1.00  0.00     0.000 C 
BRANCH   7   8
ATOM      8  C   UNL     1       2.706  -5.708  -4.521  1.00  0.00     0.000 C 
BRANCH   8   9
ATOM      9  C   UNL     1       1.240  -5.679  -4.045  1.00  0.00     0.000 C 
BRANCH   9  10
ATOM     10  C   UNL     1       0.847  -4.431  -3.234  1.00  0.00     0.000 C 
BRANCH  10  11
ATOM     11  C   UNL     1      -0.377  -4.665  -2.338  1.00  0.00     0.000 C 
BRANCH  11  12
ATOM     12  C   UNL     1      -1.057  -6.000  -2.676  1.00  0.00     0.006 C 
BRANCH  12  13
ATOM     13  C   UNL     1      -2.581  -5.864  -2.792  1.00  0.00     0.053 C 
BRANCH  13  14
ATOM     14  C   UNL     1      -3.015  -5.679  -4.214  1.00  0.00     0.041 C 
ATOM     15  O   UNL     1      -4.211  -5.383  -4.478  1.00  0.00    -0.550 OA
ATOM     16  O   UNL     1      -2.108  -5.871  -5.248  1.00  0.00    -0.550 OA
ENDBRANCH  13  14
ENDBRANCH  12  13
ENDBRANCH  11  12
ENDBRANCH  10  11
ENDBRANCH   9  10
ENDBRANCH   8   9
ENDBRANCH   7   8
ENDBRANCH   6   7
ENDBRANCH   5   6
ENDBRANCH   4   5
ENDBRANCH   3   4
ENDBRANCH   2   3
ENDBRANCH   1   2
BRANCH   1  17
ATOM     17  C   UNL     1       4.901  -0.887  -4.533  1.00  0.00     0.000 C 
BRANCH  17  18
ATOM     18  C   UNL     1       6.348  -1.420  -4.475  1.00  0.00     0.000 C 
BRANCH  18  19
ATOM     19  C   UNL     1       6.512  -2.801  -3.816  1.00  0.00     0.000 C 
BRANCH  19  20
ATOM     20  C   UNL     1       7.975  -3.144  -3.499  1.00  0.00     0.000 C 
BRANCH  20  21
ATOM     21  C   UNL     1       8.061  -4.227  -2.412  1.00  0.00     0.000 C 
BRANCH  21  22
ATOM     22  C   UNL     1       8.052  -3.640  -0.992  1.00  0.00    -0.000 C 
BRANCH  22  23
ATOM     23  C   UNL     1       8.879  -2.347  -0.882  1.00  0.00    -0.000 C 
BRANCH  23  24
ATOM     24  C   UNL     1       8.070  -1.179  -0.279  1.00  0.00    -0.000 C 
BRANCH  24  25
ATOM     25  C   UNL     1       6.556  -1.455  -0.187  1.00  0.00    -0.000 C 
BRANCH  25  26
ATOM     26  C   UNL     1       5.654  -0.317  -0.700  1.00  0.00    -0.000 C 
BRANCH  26  27
ATOM     27  C   UNL     1       6.398   0.837  -1.399  1.00  0.00    -0.000 C 
BRANCH  27  28
ATOM     28  C   UNL     1       6.268   2.173  -0.648  1.00  0.00    -0.000 C 
BRANCH  28  29
ATOM     29  C   UNL     1       5.641   2.008   0.744  1.00  0.00    -0.003 C 
ATOM     30  C   UNL     1       4.719   3.168   1.118  1.00  0.00     0.004 C 
ENDBRANCH  28  29
ENDBRANCH  27  28
ENDBRANCH  26  27
ENDBRANCH  25  26
ENDBRANCH  24  25
ENDBRANCH  23  24
ENDBRANCH  22  23
ENDBRANCH  21  22
ENDBRANCH  20  21
ENDBRANCH  19  20
ENDBRANCH  18  19
ENDBRANCH  17  18
ENDBRANCH   1  17
TORSDOF 26
ENDMDL
MODEL 8
REMARK VINA RESULT:    -3.806      2.564      4.650
REMARK INTER + INTRA:         -13.953
REMARK INTER:                  -9.470
REMARK INTRA:                  -4.483
REMARK UNBOUND:                -4.363
REMARK SMILES CCCCCCCCCCCCCCCCCCCCCCCCCCCC(=O)[O-]
REMARK SMILES IDX 15 1 16 2 17 3 18 4 19 5 20 6 21 7 22 8 23 9 24 10 25 11
REMARK SMILES IDX 26 12 27 13 28 14 29 15 30 16 14 17 13 18 12 19 11 20 10 21
REMARK SMILES IDX 9 22 8 23 7 24 6 25 5 26 4 27 3 28 2 29 1 30
REMARK H PARENT
REMARK Flexibility Score: inf
ROOT
ATOM      1  C   UNL     1       6.776  -0.299  -1.635  1.00  0.00     0.000 C 
ENDROOT
BRANCH   1   2
ATOM      2  C   UNL     1       5.778   0.077  -0.531  1.00  0.00     0.000 C 
BRANCH   2   3
ATOM      3  C   UNL     1       6.025  -0.759   0.732  1.00  0.00     0.000 C 
BRANCH   3   4
ATOM      4  C   UNL     1       5.735   0.015   2.032  1.00  0.00     0.000 C 
BRANCH   4   5
ATOM      5  C   UNL     1       6.930   0.804   2.600  1.00  0.00     0.000 C 
BRANCH   5   6
ATOM      6  C   UNL     1       8.286   0.271   2.106  1.00  0.00     0.000 C 
BRANCH   6   7
ATOM      7  C   UNL     1       8.980   1.221   1.113  1.00  0.00     0.000 C 
BRANCH   7   8
ATOM      8  C   UNL     1       8.510   2.689   1.165  1.00  0.00     0.000 C 
BRANCH   8   9
ATOM      9  C   UNL     1       7.738   3.176  -0.077  1.00  0.00     0.000 C 
BRANCH   9  10
ATOM     10  C   UNL     1       7.051   4.545   0.083  1.00  0.00     0.000 C 
BRANCH  10  11
ATOM     11  C   UNL     1       5.543   4.491  -0.198  1.00  0.00     0.000 C 
BRANCH  11  12
ATOM     12  C   UNL     1       4.891   3.309   0.536  1.00  0.00     0.006 C 
BRANCH  12  13
ATOM     13  C   UNL     1       4.516   3.657   1.982  1.00  0.00     0.053 C 
BRANCH  13  14
ATOM     14  C   UNL     1       3.046   3.902   2.130  1.00  0.00     0.041 C 
ATOM     15  O   UNL     1       2.512   3.887   3.271  1.00  0.00    -0.550 OA
ATOM     16  O   UNL     1       2.258   4.108   1.005  1.00  0.00    -0.550 OA
ENDBRANCH  13  14
ENDBRANCH  12  13
ENDBRANCH  11  12
ENDBRANCH  10  11
ENDBRANCH   9  10
ENDBRANCH   8   9
ENDBRANCH   7   8
ENDBRANCH   6   7
ENDBRANCH   5   6
ENDBRANCH   4   5
ENDBRANCH   3   4
ENDBRANCH   2   3
ENDBRANCH   1   2
BRANCH   1  17
ATOM     17  C   UNL     1       7.744  -1.418  -1.209  1.00  0.00     0.000 C 
BRANCH  17  18
ATOM     18  C   UNL     1       7.454  -2.803  -1.826  1.00  0.00     0.000 C 
BRANCH  18  19
ATOM     19  C   UNL     1       7.662  -2.900  -3.347  1.00  0.00     0.000 C 
BRANCH  19  20
ATOM     20  C   UNL     1       6.342  -2.919  -4.132  1.00  0.00     0.000 C 
BRANCH  20  21
ATOM     21  C   UNL     1       6.222  -1.682  -5.035  1.00  0.00     0.000 C 
BRANCH  21  22
ATOM     22  C   UNL     1       4.863  -0.977  -4.894  1.00  0.00    -0.000 C 
BRANCH  22  23
ATOM     23  C   UNL     1       4.013  -1.557  -3.751  1.00  0.00    -0.000 C 
BRANCH  23  24
ATOM     24  C   UNL     1       2.524  -1.694  -4.135  1.00  0.00    -0.000 C 
BRANCH  24  25
ATOM     25  C   UNL     1       1.913  -3.062  -3.776  1.00  0.00    -0.000 C 
BRANCH  25  26
ATOM     26  C   UNL     1       1.788  -4.050  -4.952  1.00  0.00    -0.000 C 
BRANCH  26  27
ATOM     27  C   UNL     1       2.535  -3.632  -6.233  1.00  0.00    -0.000 C 
BRANCH  27  28
ATOM     28  C   UNL     1       3.811  -4.455  -6.476  1.00  0.00    -0.000 C 
BRANCH  28  29
ATOM     29  C   UNL     1       4.097  -5.448  -5.339  1.00  0.00    -0.003 C 
ATOM     30  C   UNL     1       5.296  -6.350  -5.631  1.00  0.00     0.004 C 
ENDBRANCH  28  29
ENDBRANCH  27  28
ENDBRANCH  26  27
ENDBRANCH  25  26
ENDBRANCH  24  25
ENDBRANCH  23  24
ENDBRANCH  22  23
ENDBRANCH  21  22
ENDBRANCH  20  21
ENDBRANCH  19  20
ENDBRANCH  18  19
ENDBRANCH  17  18
ENDBRANCH   1  17
TORSDOF 26
ENDMDL
MODEL 9
REMARK VINA RESULT:    -3.786      1.494      2.411
REMARK INTER + INTRA:         -13.903
REMARK INTER:                  -9.211
REMARK INTRA:                  -4.692
REMARK UNBOUND:                -4.363
REMARK SMILES CCCCCCCCCCCCCCCCCCCCCCCCCCCC(=O)[O-]
REMARK SMILES IDX 15 1 16 2 17 3 18 4 19 5 20 6 21 7 22 8 23 9 24 10 25 11
REMARK SMILES IDX 26 12 27 13 28 14 29 15 30 16 14 17 13 18 12 19 11 20 10 21
REMARK SMILES IDX 9 22 8 23 7 24 6 25 5 26 4 27 3 28 2 29 1 30
REMARK H PARENT
REMARK Flexibility Score: inf
ROOT
ATOM      1  C   UNL     1       5.645  -0.525  -4.670  1.00  0.00     0.000 C 
ENDROOT
BRANCH   1   2
ATOM      2  C   UNL     1       6.744  -0.958  -5.650  1.00  0.00     0.000 C 
BRANCH   2   3
ATOM      3  C   UNL     1       7.360  -2.296  -5.218  1.00  0.00     0.000 C 
BRANCH   3   4
ATOM      4  C   UNL     1       8.716  -2.579  -5.892  1.00  0.00     0.000 C 
BRANCH   4   5
ATOM      5  C   UNL     1       9.941  -2.467  -4.965  1.00  0.00     0.000 C 
BRANCH   5   6
ATOM      6  C   UNL     1       9.556  -2.248  -3.492  1.00  0.00     0.000 C 
BRANCH   6   7
ATOM      7  C   UNL     1       9.988  -3.410  -2.577  1.00  0.00     0.000 C 
BRANCH   7   8
ATOM      8  C   UNL     1       8.945  -3.847  -1.528  1.00  0.00     0.000 C 
BRANCH   8   9
ATOM      9  C   UNL     1       7.571  -3.158  -1.641  1.00  0.00     0.000 C 
BRANCH   9  10
ATOM     10  C   UNL     1       7.210  -2.235  -0.463  1.00  0.00     0.000 C 
BRANCH  10  11
ATOM     11  C   UNL     1       6.959  -0.785  -0.899  1.00  0.00     0.000 C 
BRANCH  11  12
ATOM     12  C   UNL     1       5.599  -0.287  -0.388  1.00  0.00     0.006 C 
BRANCH  12  13
ATOM     13  C   UNL     1       5.699   1.086   0.290  1.00  0.00     0.053 C 
BRANCH  13  14
ATOM     14  C   UNL     1       5.568   0.980   1.778  1.00  0.00     0.041 C 
ATOM     15  O   UNL     1       5.341  -0.135   2.317  1.00  0.00    -0.550 OA
ATOM     16  O   UNL     1       5.659   2.120   2.567  1.00  0.00    -0.550 OA
ENDBRANCH  13  14
ENDBRANCH  12  13
ENDBRANCH  11  12
ENDBRANCH  10  11
ENDBRANCH   9  10
ENDBRANCH   8   9
ENDBRANCH   7   8
ENDBRANCH   6   7
ENDBRANCH   5   6
ENDBRANCH   4   5
ENDBRANCH   3   4
ENDBRANCH   2   3
ENDBRANCH   1   2
BRANCH   1  17
ATOM     17  C   UNL     1       5.079  -1.698  -3.850  1.00  0.00     0.000 C 
BRANCH  17  18
ATOM     18  C   UNL     1       3.612  -1.534  -3.398  1.00  0.00     0.000 C 
BRANCH  18  19
ATOM     19  C   UNL     1       2.582  -2.340  -4.210  1.00  0.00     0.000 C 
BRANCH  19  20
ATOM     20  C   UNL     1       2.258  -1.701  -5.568  1.00  0.00     0.000 C 
BRANCH  20  21
ATOM     21  C   UNL     1       2.489  -2.699  -6.713  1.00  0.00     0.000 C 
BRANCH  21  22
ATOM     22  C   UNL     1       3.927  -2.654  -7.254  1.00  0.00    -0.000 C 
BRANCH  22  23
ATOM     23  C   UNL     1       4.542  -4.055  -7.414  1.00  0.00    -0.000 C 
BRANCH  23  24
ATOM     24  C   UNL     1       4.725  -4.775  -6.061  1.00  0.00    -0.000 C 
BRANCH  24  25
ATOM     25  C   UNL     1       3.796  -5.990  -5.872  1.00  0.00    -0.000 C 
BRANCH  25  26
ATOM     26  C   UNL     1       2.962  -5.978  -4.576  1.00  0.00    -0.000 C 
BRANCH  26  27
ATOM     27  C   UNL     1       1.506  -6.454  -4.737  1.00  0.00    -0.000 C 
BRANCH  27  28
ATOM     28  C   UNL     1       0.489  -5.302  -4.654  1.00  0.00    -0.000 C 
BRANCH  28  29
ATOM     29  C   UNL     1      -0.325  -5.329  -3.351  1.00  0.00    -0.003 C 
ATOM     30  C   UNL     1       0.382  -4.613  -2.200  1.00  0.00     0.004 C 
ENDBRANCH  28  29
ENDBRANCH  27  28
ENDBRANCH  26  27
ENDBRANCH  25  26
ENDBRANCH  24  25
ENDBRANCH  23  24
ENDBRANCH  22  23
ENDBRANCH  21  22
ENDBRANCH  20  21
ENDBRANCH  19  20
ENDBRANCH  18  19
ENDBRANCH  17  18
ENDBRANCH   1  17
TORSDOF 26
ENDMDL
