MODEL 1
REMARK VINA RESULT:    -7.027      0.000      0.000
REMARK INTER + INTRA:          -7.232
REMARK INTER:                  -7.232
REMARK INTRA:                   0.000
REMARK UNBOUND:                 0.000
REMARK SMILES O=c1ccc2ccc(O)cc2o1
REMARK SMILES IDX 6 1 7 2 8 3 10 4 11 5 5 6 4 7 3 8 2 9 1 10 12 11 9 12
REMARK H PARENT 9 13
REMARK Flexibility Score: inf
ROOT
ATOM      1  C   UNL     1       9.368  68.036   1.420  1.00  0.00     0.016 A 
ATOM      2  C   UNL     1       9.530  68.803   2.578  1.00  0.00     0.047 A 
ATOM      3  C   UNL     1       9.863  70.163   2.485  1.00  0.00     0.119 A 
ATOM      4  C   UNL     1      10.034  70.755   1.229  1.00  0.00     0.094 A 
ATOM      5  C   UNL     1       9.874  69.996   0.065  1.00  0.00     0.142 A 
ATOM      6  C   UNL     1       9.538  68.627   0.161  1.00  0.00     0.018 A 
ATOM      7  C   UNL     1       9.385  67.894  -1.020  1.00  0.00     0.019 A 
ATOM      8  C   UNL     1       9.566  68.530  -2.248  1.00  0.00     0.094 A 
ATOM      9  C   UNL     1       9.898  69.889  -2.267  1.00  0.00     0.336 A 
ATOM     10  O   UNL     1      10.064  70.479  -3.365  1.00  0.00    -0.246 OA
ATOM     11  O   UNL     1      10.038  70.563  -1.129  1.00  0.00    -0.423 OA
ENDROOT
BRANCH   3  12
ATOM     12  O   UNL     1      10.026  70.933   3.635  1.00  0.00    -0.508 OA
ATOM     13  H   UNL     1       9.795  70.569   4.552  1.00  0.00     0.293 HD
ENDBRANCH   3  12
TORSDOF 1
ENDMDL
MODEL 2
REMARK VINA RESULT:    -7.015      0.790      4.231
REMARK INTER + INTRA:          -7.220
REMARK INTER:                  -7.220
REMARK INTRA:                   0.000
REMARK UNBOUND:                 0.000
REMARK SMILES O=c1ccc2ccc(O)cc2o1
REMARK SMILES IDX 6 1 7 2 8 3 10 4 11 5 5 6 4 7 3 8 2 9 1 10 12 11 9 12
REMARK H PARENT 9 13
REMARK Flexibility Score: inf
ROOT
ATOM      1  C   UNL     1       9.678  68.028  -0.878  1.00  0.00     0.016 A 
ATOM      2  C   UNL     1       9.719  68.732  -2.086  1.00  0.00     0.047 A 
ATOM      3  C   UNL     1       9.743  70.135  -2.088  1.00  0.00     0.119 A 
ATOM      4  C   UNL     1       9.726  70.834  -0.876  1.00  0.00     0.094 A 
ATOM      5  C   UNL     1       9.685  70.139   0.338  1.00  0.00     0.142 A 
ATOM      6  C   UNL     1       9.661  68.727   0.337  1.00  0.00     0.018 A 
ATOM      7  C   UNL     1       9.620  68.060   1.566  1.00  0.00     0.019 A 
ATOM      8  C   UNL     1       9.604  68.802   2.747  1.00  0.00     0.094 A 
ATOM      9  C   UNL     1       9.629  70.199   2.671  1.00  0.00     0.336 A 
ATOM     10  O   UNL     1       9.616  70.886   3.725  1.00  0.00    -0.246 OA
ATOM     11  O   UNL     1       9.668  70.809   1.489  1.00  0.00    -0.423 OA
ENDROOT
BRANCH   3  12
ATOM     12  O   UNL     1       9.784  70.841  -3.288  1.00  0.00    -0.508 OA
ATOM     13  H   UNL     1       9.252  71.693  -3.419  1.00  0.00     0.293 HD
ENDBRANCH   3  12
TORSDOF 1
ENDMDL
MODEL 3
REMARK VINA RESULT:    -6.855      1.516      2.396
REMARK INTER + INTRA:          -7.055
REMARK INTER:                  -7.055
REMARK INTRA:                   0.000
REMARK UNBOUND:                 0.000
REMARK SMILES O=c1ccc2ccc(O)cc2o1
REMARK SMILES IDX 6 1 7 2 8 3 10 4 11 5 5 6 4 7 3 8 2 9 1 10 12 11 9 12
REMARK H PARENT 9 13
REMARK Flexibility Score: inf
ROOT
ATOM      1  C   UNL     1      10.116  71.997   0.092  1.00  0.00     0.016 A 
ATOM      2  C   UNL     1      10.141  72.076   1.488  1.00  0.00     0.047 A 
ATOM      3  C   UNL     1       9.967  70.922   2.265  1.00  0.00     0.119 A 
ATOM      4  C   UNL     1       9.769  69.684   1.642  1.00  0.00     0.094 A 
ATOM      5  C   UNL     1       9.742  69.595   0.247  1.00  0.00     0.142 A 
ATOM      6  C   UNL     1       9.917  70.758  -0.534  1.00  0.00     0.018 A 
ATOM      7  C   UNL     1       9.886  70.638  -1.928  1.00  0.00     0.019 A 
ATOM      8  C   UNL     1       9.685  69.382  -2.501  1.00  0.00     0.094 A 
ATOM      9  C   UNL     1       9.519  68.273  -1.664  1.00  0.00     0.336 A 
ATOM     10  O   UNL     1       9.337  67.132  -2.163  1.00  0.00    -0.246 OA
ATOM     11  O   UNL     1       9.553  68.415  -0.342  1.00  0.00    -0.423 OA
ENDROOT
BRANCH   3  12
ATOM     12  O   UNL     1       9.991  70.994   3.656  1.00  0.00    -0.508 OA
ATOM     13  H   UNL     1      10.163  71.868   4.138  1.00  0.00     0.293 HD
ENDBRANCH   3  12
TORSDOF 1
ENDMDL
MODEL 4
REMARK VINA RESULT:    -6.821      1.743      4.542
REMARK INTER + INTRA:          -7.021
REMARK INTER:                  -7.021
REMARK INTRA:                   0.000
REMARK UNBOUND:                 0.000
REMARK SMILES O=c1ccc2ccc(O)cc2o1
REMARK SMILES IDX 6 1 7 2 8 3 10 4 11 5 5 6 4 7 3 8 2 9 1 10 12 11 9 12
REMARK H PARENT 9 13
REMARK Flexibility Score: inf
ROOT
ATOM      1  C   UNL     1      10.021  71.949   0.262  1.00  0.00     0.016 A 
ATOM      2  C   UNL     1       9.989  71.984  -1.136  1.00  0.00     0.047 A 
ATOM      3  C   UNL     1       9.787  70.805  -1.868  1.00  0.00     0.119 A 
ATOM      4  C   UNL     1       9.615  69.588  -1.199  1.00  0.00     0.094 A 
ATOM      5  C   UNL     1       9.645  69.544   0.199  1.00  0.00     0.142 A 
ATOM      6  C   UNL     1       9.849  70.732   0.935  1.00  0.00     0.018 A 
ATOM      7  C   UNL     1       9.874  70.656   2.331  1.00  0.00     0.019 A 
ATOM      8  C   UNL     1       9.697  69.419   2.952  1.00  0.00     0.094 A 
ATOM      9  C   UNL     1       9.500  68.283   2.159  1.00  0.00     0.336 A 
ATOM     10  O   UNL     1       9.339  67.160   2.701  1.00  0.00    -0.246 OA
ATOM     11  O   UNL     1       9.481  68.383   0.832  1.00  0.00    -0.423 OA
ENDROOT
BRANCH   3  12
ATOM     12  O   UNL     1       9.754  70.833  -3.261  1.00  0.00    -0.508 OA
ATOM     13  H   UNL     1       8.947  70.505  -3.778  1.00  0.00     0.293 HD
ENDBRANCH   3  12
TORSDOF 1
ENDMDL
MODEL 5
REMARK VINA RESULT:    -6.805      1.734      3.885
REMARK INTER + INTRA:          -7.004
REMARK INTER:                  -7.004
REMARK INTRA:                   0.000
REMARK UNBOUND:                 0.000
REMARK SMILES O=c1ccc2ccc(O)cc2o1
REMARK SMILES IDX 6 1 7 2 8 3 10 4 11 5 5 6 4 7 3 8 2 9 1 10 12 11 9 12
REMARK H PARENT 9 13
REMARK Flexibility Score: inf
ROOT
ATOM      1  C   UNL     1       9.983  69.391  -2.222  1.00  0.00     0.016 A 
ATOM      2  C   UNL     1      10.106  70.770  -2.418  1.00  0.00     0.047 A 
ATOM      3  C   UNL     1      10.062  71.646  -1.322  1.00  0.00     0.119 A 
ATOM      4  C   UNL     1       9.896  71.139  -0.029  1.00  0.00     0.094 A 
ATOM      5  C   UNL     1       9.773  69.761   0.176  1.00  0.00     0.142 A 
ATOM      6  C   UNL     1       9.817  68.880  -0.927  1.00  0.00     0.018 A 
ATOM      7  C   UNL     1       9.691  67.507  -0.691  1.00  0.00     0.019 A 
ATOM      8  C   UNL     1       9.528  67.051   0.616  1.00  0.00     0.094 A 
ATOM      9  C   UNL     1       9.493  67.981   1.661  1.00  0.00     0.336 A 
ATOM     10  O   UNL     1       9.347  67.588   2.847  1.00  0.00    -0.246 OA
ATOM     11  O   UNL     1       9.615  69.282   1.409  1.00  0.00    -0.423 OA
ENDROOT
BRANCH   3  12
ATOM     12  O   UNL     1      10.184  73.021  -1.510  1.00  0.00    -0.508 OA
ATOM     13  H   UNL     1      10.891  73.561  -1.025  1.00  0.00     0.293 HD
ENDBRANCH   3  12
TORSDOF 1
ENDMDL
MODEL 6
REMARK VINA RESULT:    -6.759      1.580      2.167
REMARK INTER + INTRA:          -6.956
REMARK INTER:                  -6.956
REMARK INTRA:                   0.000
REMARK UNBOUND:                 0.000
REMARK SMILES O=c1ccc2ccc(O)cc2o1
REMARK SMILES IDX 6 1 7 2 8 3 10 4 11 5 5 6 4 7 3 8 2 9 1 10 12 11 9 12
REMARK H PARENT 9 13
REMARK Flexibility Score: inf
ROOT
ATOM      1  C   UNL     1       9.468  69.650   2.645  1.00  0.00     0.016 A 
ATOM      2  C   UNL     1       9.761  71.016   2.724  1.00  0.00     0.047 A 
ATOM      3  C   UNL     1      10.031  71.750   1.559  1.00  0.00     0.119 A 
ATOM      4  C   UNL     1      10.006  71.114   0.312  1.00  0.00     0.094 A 
ATOM      5  C   UNL     1       9.713  69.749   0.224  1.00  0.00     0.142 A 
ATOM      6  C   UNL     1       9.442  69.012   1.398  1.00  0.00     0.018 A 
ATOM      7  C   UNL     1       9.152  67.649   1.278  1.00  0.00     0.019 A 
ATOM      8  C   UNL     1       9.139  67.061   0.013  1.00  0.00     0.094 A 
ATOM      9  C   UNL     1       9.418  67.853  -1.107  1.00  0.00     0.336 A 
ATOM     10  O   UNL     1       9.411  67.341  -2.256  1.00  0.00    -0.246 OA
ATOM     11  O   UNL     1       9.690  69.148  -0.964  1.00  0.00    -0.423 OA
ENDROOT
BRANCH   3  12
ATOM     12  O   UNL     1      10.324  73.110   1.630  1.00  0.00    -0.508 OA
ATOM     13  H   UNL     1      10.194  73.721   0.833  1.00  0.00     0.293 HD
ENDBRANCH   3  12
TORSDOF 1
ENDMDL
MODEL 7
REMARK VINA RESULT:    -6.556      1.682      2.331
REMARK INTER + INTRA:          -6.747
REMARK INTER:                  -6.747
REMARK INTRA:                   0.000
REMARK UNBOUND:                 0.000
REMARK SMILES O=c1ccc2ccc(O)cc2o1
REMARK SMILES IDX 6 1 7 2 8 3 10 4 11 5 5 6 4 7 3 8 2 9 1 10 12 11 9 12
REMARK H PARENT 9 13
REMARK Flexibility Score: inf
ROOT
ATOM      1  C   UNL     1       9.729  67.655  -0.679  1.00  0.00     0.016 A 
ATOM      2  C   UNL     1       9.583  67.090   0.592  1.00  0.00     0.047 A 
ATOM      3  C   UNL     1       9.520  67.912   1.728  1.00  0.00     0.119 A 
ATOM      4  C   UNL     1       9.602  69.302   1.589  1.00  0.00     0.094 A 
ATOM      5  C   UNL     1       9.748  69.875   0.321  1.00  0.00     0.142 A 
ATOM      6  C   UNL     1       9.811  69.047  -0.821  1.00  0.00     0.018 A 
ATOM      7  C   UNL     1       9.957  69.649  -2.075  1.00  0.00     0.019 A 
ATOM      8  C   UNL     1      10.034  71.039  -2.161  1.00  0.00     0.094 A 
ATOM      9  C   UNL     1       9.965  71.797  -0.987  1.00  0.00     0.336 A 
ATOM     10  O   UNL     1      10.032  73.052  -1.045  1.00  0.00    -0.246 OA
ATOM     11  O   UNL     1       9.826  71.199   0.193  1.00  0.00    -0.423 OA
ENDROOT
BRANCH   3  12
ATOM     12  O   UNL     1       9.375  67.356   2.997  1.00  0.00    -0.508 OA
ATOM     13  H   UNL     1       8.788  66.547   3.156  1.00  0.00     0.293 HD
ENDBRANCH   3  12
TORSDOF 1
ENDMDL
MODEL 8
REMARK VINA RESULT:    -6.547      1.951      3.164
REMARK INTER + INTRA:          -6.738
REMARK INTER:                  -6.738
REMARK INTRA:                   0.000
REMARK UNBOUND:                 0.000
REMARK SMILES O=c1ccc2ccc(O)cc2o1
REMARK SMILES IDX 6 1 7 2 8 3 10 4 11 5 5 6 4 7 3 8 2 9 1 10 12 11 9 12
REMARK H PARENT 9 13
REMARK Flexibility Score: inf
ROOT
ATOM      1  C   UNL     1       9.870  69.071   2.890  1.00  0.00     0.016 A 
ATOM      2  C   UNL     1       9.474  67.744   2.695  1.00  0.00     0.047 A 
ATOM      3  C   UNL     1       9.058  67.308   1.428  1.00  0.00     0.119 A 
ATOM      4  C   UNL     1       9.040  68.204   0.353  1.00  0.00     0.094 A 
ATOM      5  C   UNL     1       9.434  69.533   0.538  1.00  0.00     0.142 A 
ATOM      6  C   UNL     1       9.852  69.970   1.814  1.00  0.00     0.018 A 
ATOM      7  C   UNL     1      10.241  71.305   1.969  1.00  0.00     0.019 A 
ATOM      8  C   UNL     1      10.206  72.159   0.866  1.00  0.00     0.094 A 
ATOM      9  C   UNL     1       9.780  71.657  -0.368  1.00  0.00     0.336 A 
ATOM     10  O   UNL     1       9.742  72.412  -1.374  1.00  0.00    -0.246 OA
ATOM     11  O   UNL     1       9.416  70.383  -0.488  1.00  0.00    -0.423 OA
ENDROOT
BRANCH   3  12
ATOM     12  O   UNL     1       8.663  65.987   1.227  1.00  0.00    -0.508 OA
ATOM     13  H   UNL     1       9.272  65.315   0.776  1.00  0.00     0.293 HD
ENDBRANCH   3  12
TORSDOF 1
ENDMDL
MODEL 9
REMARK VINA RESULT:    -6.516      1.627      3.906
REMARK INTER + INTRA:          -6.706
REMARK INTER:                  -6.706
REMARK INTRA:                   0.000
REMARK UNBOUND:                 0.000
REMARK SMILES O=c1ccc2ccc(O)cc2o1
REMARK SMILES IDX 6 1 7 2 8 3 10 4 11 5 5 6 4 7 3 8 2 9 1 10 12 11 9 12
REMARK H PARENT 9 13
REMARK Flexibility Score: inf
ROOT
ATOM      1  C   UNL     1       9.016  67.846   1.181  1.00  0.00     0.016 A 
ATOM      2  C   UNL     1       9.010  67.190  -0.054  1.00  0.00     0.047 A 
ATOM      3  C   UNL     1       9.406  67.867  -1.217  1.00  0.00     0.119 A 
ATOM      4  C   UNL     1       9.810  69.205  -1.143  1.00  0.00     0.094 A 
ATOM      5  C   UNL     1       9.819  69.870   0.088  1.00  0.00     0.142 A 
ATOM      6  C   UNL     1       9.420  69.187   1.258  1.00  0.00     0.018 A 
ATOM      7  C   UNL     1       9.440  69.877   2.474  1.00  0.00     0.019 A 
ATOM      8  C   UNL     1       9.851  71.210   2.496  1.00  0.00     0.094 A 
ATOM      9  C   UNL     1      10.232  71.823   1.297  1.00  0.00     0.336 A 
ATOM     10  O   UNL     1      10.606  73.025   1.298  1.00  0.00    -0.246 OA
ATOM     11  O   UNL     1      10.204  71.143   0.154  1.00  0.00    -0.423 OA
ENDROOT
BRANCH   3  12
ATOM     12  O   UNL     1       9.403  67.219  -2.450  1.00  0.00    -0.508 OA
ATOM     13  H   UNL     1       8.778  66.444  -2.640  1.00  0.00     0.293 HD
ENDBRANCH   3  12
TORSDOF 1
ENDMDL
