MODEL 1
REMARK VINA RESULT:    -5.369      0.000      0.000
REMARK INTER + INTRA:          -6.530
REMARK INTER:                  -6.467
REMARK INTRA:                  -0.063
REMARK UNBOUND:                -0.063
REMARK SMILES O=c1c(O)c(-c2ccc(O)c(O)c2)oc2cc(O)cc(O)c12
REMARK SMILES IDX 5 1 3 2 2 3 1 4 22 5 20 6 19 7 17 8 16 9 15 10 14 11 6 12
REMARK SMILES IDX 7 13 8 14 9 15 13 16 11 17 10 18 12 20 4 22 21 24 18 26
REMARK H PARENT 10 19 12 21 4 23 21 25 18 27
REMARK Flexibility Score: inf
ROOT
ATOM      1  C   UNL     1     124.534 125.829 126.604  1.00  0.00     0.180 A 
ATOM      2  C   UNL     1     123.659 126.931 126.578  1.00  0.00     0.208 A 
ATOM      3  C   UNL     1     123.185 127.393 125.341  1.00  0.00     0.238 A 
ATOM      4  O   UNL     1     122.392 128.374 125.307  1.00  0.00    -0.285 OA
ATOM      5  C   UNL     1     123.607 126.762 124.154  1.00  0.00     0.111 A 
ATOM      6  C   UNL     1     123.180 127.168 122.866  1.00  0.00     0.134 A 
ATOM      7  C   UNL     1     123.653 126.493 121.731  1.00  0.00     0.093 A 
ATOM      8  C   UNL     1     124.542 125.424 121.857  1.00  0.00     0.123 A 
ATOM      9  C   UNL     1     124.968 125.018 123.125  1.00  0.00     0.094 A 
ATOM     10  C   UNL     1     124.507 125.677 124.269  1.00  0.00     0.146 A 
ATOM     11  O   UNL     1     124.923 125.268 125.463  1.00  0.00    -0.452 OA
ENDROOT
BRANCH   1  12
ATOM     12  C   UNL     1     125.061 125.271 127.871  1.00  0.00     0.025 A 
ATOM     13  C   UNL     1     124.164 124.858 128.868  1.00  0.00     0.016 A 
ATOM     14  C   UNL     1     124.639 124.348 130.080  1.00  0.00     0.051 A 
ATOM     15  C   UNL     1     126.017 124.259 130.317  1.00  0.00     0.157 A 
ATOM     16  C   UNL     1     126.443 125.200 128.120  1.00  0.00     0.062 A 
ATOM     17  C   UNL     1     126.920 124.690 129.337  1.00  0.00     0.158 A 
BRANCH  15  18
ATOM     18  O   UNL     1     126.494 123.750 131.523  1.00  0.00    -0.504 OA
ATOM     19  H   UNL     1     127.420 123.979 131.865  1.00  0.00     0.293 HD
ENDBRANCH  15  18
BRANCH  17  20
ATOM     20  O   UNL     1     128.290 124.614 129.581  1.00  0.00    -0.504 OA
ATOM     21  H   UNL     1     128.765 123.722 129.667  1.00  0.00     0.293 HD
ENDBRANCH  17  20
ENDBRANCH   1  12
BRANCH   2  22
ATOM     22  O   UNL     1     123.295 127.571 127.767  1.00  0.00    -0.502 OA
ATOM     23  H   UNL     1     123.980 127.931 128.421  1.00  0.00     0.293 HD
ENDBRANCH   2  22
BRANCH   6  24
ATOM     24  O   UNL     1     122.292 128.233 122.707  1.00  0.00    -0.507 OA
ATOM     25  H   UNL     1     121.794 128.633 123.493  1.00  0.00     0.293 HD
ENDBRANCH   6  24
BRANCH   8  26
ATOM     26  O   UNL     1     124.997 124.772 120.713  1.00  0.00    -0.508 OA
ATOM     27  H   UNL     1     124.980 125.221 119.805  1.00  0.00     0.293 HD
ENDBRANCH   8  26
TORSDOF 6
ENDMDL
MODEL 2
REMARK VINA RESULT:    -5.227      2.383      3.688
REMARK INTER + INTRA:          -6.359
REMARK INTER:                  -6.282
REMARK INTRA:                  -0.077
REMARK UNBOUND:                -0.063
REMARK SMILES O=c1c(O)c(-c2ccc(O)c(O)c2)oc2cc(O)cc(O)c12
REMARK SMILES IDX 5 1 3 2 2 3 1 4 22 5 20 6 19 7 17 8 16 9 15 10 14 11 6 12
REMARK SMILES IDX 7 13 8 14 9 15 13 16 11 17 10 18 12 20 4 22 21 24 18 26
REMARK H PARENT 10 19 12 21 4 23 21 25 18 27
REMARK Flexibility Score: inf
ROOT
ATOM      1  C   UNL     1     125.970 125.229 126.576  1.00  0.00     0.180 A 
ATOM      2  C   UNL     1     127.360 125.448 126.549  1.00  0.00     0.208 A 
ATOM      3  C   UNL     1     127.993 125.638 125.312  1.00  0.00     0.238 A 
ATOM      4  O   UNL     1     129.237 125.845 125.276  1.00  0.00    -0.285 OA
ATOM      5  C   UNL     1     127.234 125.587 124.125  1.00  0.00     0.111 A 
ATOM      6  C   UNL     1     127.795 125.765 122.837  1.00  0.00     0.134 A 
ATOM      7  C   UNL     1     126.973 125.691 121.703  1.00  0.00     0.093 A 
ATOM      8  C   UNL     1     125.605 125.442 121.831  1.00  0.00     0.123 A 
ATOM      9  C   UNL     1     125.044 125.266 123.099  1.00  0.00     0.094 A 
ATOM     10  C   UNL     1     125.847 125.338 124.242  1.00  0.00     0.146 A 
ATOM     11  O   UNL     1     125.288 125.172 125.436  1.00  0.00    -0.452 OA
ENDROOT
BRANCH   1  12
ATOM     12  C   UNL     1     125.227 125.039 127.843  1.00  0.00     0.025 A 
ATOM     13  C   UNL     1     125.295 126.028 128.837  1.00  0.00     0.016 A 
ATOM     14  C   UNL     1     124.619 125.861 130.049  1.00  0.00     0.051 A 
ATOM     15  C   UNL     1     123.880 124.696 130.290  1.00  0.00     0.157 A 
ATOM     16  C   UNL     1     124.501 123.862 128.098  1.00  0.00     0.062 A 
ATOM     17  C   UNL     1     123.824 123.693 129.315  1.00  0.00     0.158 A 
BRANCH  15  18
ATOM     18  O   UNL     1     123.204 124.526 131.497  1.00  0.00    -0.504 OA
ATOM     19  H   UNL     1     123.643 124.739 132.385  1.00  0.00     0.293 HD
ENDBRANCH  15  18
BRANCH  17  20
ATOM     20  O   UNL     1     123.100 122.529 129.563  1.00  0.00    -0.504 OA
ATOM     21  H   UNL     1     122.211 122.350 129.109  1.00  0.00     0.293 HD
ENDBRANCH  17  20
ENDBRANCH   1  12
BRANCH   2  22
ATOM     22  O   UNL     1     128.099 125.444 127.736  1.00  0.00    -0.502 OA
ATOM     23  H   UNL     1     127.821 124.901 128.546  1.00  0.00     0.293 HD
ENDBRANCH   2  22
BRANCH   6  24
ATOM     24  O   UNL     1     129.159 126.013 122.677  1.00  0.00    -0.507 OA
ATOM     25  H   UNL     1     129.658 125.731 121.841  1.00  0.00     0.293 HD
ENDBRANCH   6  24
BRANCH   8  26
ATOM     26  O   UNL     1     124.810 125.372 120.688  1.00  0.00    -0.508 OA
ATOM     27  H   UNL     1     124.034 126.008 120.543  1.00  0.00     0.293 HD
ENDBRANCH   8  26
TORSDOF 6
ENDMDL
MODEL 3
REMARK VINA RESULT:    -5.187      2.223      2.730
REMARK INTER + INTRA:          -6.312
REMARK INTER:                  -6.001
REMARK INTRA:                  -0.311
REMARK UNBOUND:                -0.063
REMARK SMILES O=c1c(O)c(-c2ccc(O)c(O)c2)oc2cc(O)cc(O)c12
REMARK SMILES IDX 5 1 3 2 2 3 1 4 22 5 20 6 19 7 17 8 16 9 15 10 14 11 6 12
REMARK SMILES IDX 7 13 8 14 9 15 13 16 11 17 10 18 12 20 4 22 21 24 18 26
REMARK H PARENT 10 19 12 21 4 23 21 25 18 27
REMARK Flexibility Score: inf
ROOT
ATOM      1  C   UNL     1     125.350 125.456 126.633  1.00  0.00     0.180 A 
ATOM      2  C   UNL     1     124.189 125.502 125.838  1.00  0.00     0.208 A 
ATOM      3  C   UNL     1     124.324 125.561 124.442  1.00  0.00     0.238 A 
ATOM      4  O   UNL     1     123.290 125.593 123.720  1.00  0.00    -0.285 OA
ATOM      5  C   UNL     1     125.610 125.593 123.867  1.00  0.00     0.111 A 
ATOM      6  C   UNL     1     125.834 125.658 122.470  1.00  0.00     0.134 A 
ATOM      7  C   UNL     1     127.146 125.695 121.977  1.00  0.00     0.093 A 
ATOM      8  C   UNL     1     128.236 125.672 122.849  1.00  0.00     0.123 A 
ATOM      9  C   UNL     1     128.023 125.608 124.229  1.00  0.00     0.094 A 
ATOM     10  C   UNL     1     126.722 125.568 124.741  1.00  0.00     0.146 A 
ATOM     11  O   UNL     1     126.547 125.503 126.056  1.00  0.00    -0.452 OA
ENDROOT
BRANCH   1  12
ATOM     12  C   UNL     1     125.289 125.373 128.110  1.00  0.00     0.025 A 
ATOM     13  C   UNL     1     125.095 124.125 128.723  1.00  0.00     0.016 A 
ATOM     14  C   UNL     1     125.014 124.025 130.115  1.00  0.00     0.051 A 
ATOM     15  C   UNL     1     125.110 125.173 130.912  1.00  0.00     0.157 A 
ATOM     16  C   UNL     1     125.365 126.525 128.912  1.00  0.00     0.062 A 
ATOM     17  C   UNL     1     125.282 126.426 130.309  1.00  0.00     0.158 A 
BRANCH  15  18
ATOM     18  O   UNL     1     125.032 125.078 132.300  1.00  0.00    -0.504 OA
ATOM     19  H   UNL     1     125.136 125.892 132.893  1.00  0.00     0.293 HD
ENDBRANCH  15  18
BRANCH  17  20
ATOM     20  O   UNL     1     125.363 127.568 131.104  1.00  0.00    -0.504 OA
ATOM     21  H   UNL     1     124.624 128.262 131.111  1.00  0.00     0.293 HD
ENDBRANCH  17  20
ENDBRANCH   1  12
BRANCH   2  22
ATOM     22  O   UNL     1     122.925 125.519 126.435  1.00  0.00    -0.502 OA
ATOM     23  H   UNL     1     122.078 125.308 125.919  1.00  0.00     0.293 HD
ENDBRANCH   2  22
BRANCH   6  24
ATOM     24  O   UNL     1     124.765 125.683 121.573  1.00  0.00    -0.507 OA
ATOM     25  H   UNL     1     124.910 125.661 120.571  1.00  0.00     0.293 HD
ENDBRANCH   6  24
BRANCH   8  26
ATOM     26  O   UNL     1     129.530 125.711 122.331  1.00  0.00    -0.508 OA
ATOM     27  H   UNL     1     129.727 126.135 121.432  1.00  0.00     0.293 HD
ENDBRANCH   8  26
TORSDOF 6
ENDMDL
MODEL 4
REMARK VINA RESULT:    -5.120      2.395      3.717
REMARK INTER + INTRA:          -6.231
REMARK INTER:                  -6.202
REMARK INTRA:                  -0.029
REMARK UNBOUND:                -0.063
REMARK SMILES O=c1c(O)c(-c2ccc(O)c(O)c2)oc2cc(O)cc(O)c12
REMARK SMILES IDX 5 1 3 2 2 3 1 4 22 5 20 6 19 7 17 8 16 9 15 10 14 11 6 12
REMARK SMILES IDX 7 13 8 14 9 15 13 16 11 17 10 18 12 20 4 22 21 24 18 26
REMARK H PARENT 10 19 12 21 4 23 21 25 18 27
REMARK Flexibility Score: inf
ROOT
ATOM      1  C   UNL     1     124.717 124.340 126.649  1.00  0.00     0.180 A 
ATOM      2  C   UNL     1     124.244 123.014 126.639  1.00  0.00     0.208 A 
ATOM      3  C   UNL     1     124.094 122.356 125.409  1.00  0.00     0.238 A 
ATOM      4  O   UNL     1     123.680 121.165 125.389  1.00  0.00    -0.285 OA
ATOM      5  C   UNL     1     124.398 123.037 124.213  1.00  0.00     0.111 A 
ATOM      6  C   UNL     1     124.270 122.449 122.931  1.00  0.00     0.134 A 
ATOM      7  C   UNL     1     124.585 123.196 121.787  1.00  0.00     0.093 A 
ATOM      8  C   UNL     1     125.022 124.518 121.898  1.00  0.00     0.123 A 
ATOM      9  C   UNL     1     125.151 125.105 123.160  1.00  0.00     0.094 A 
ATOM     10  C   UNL     1     124.844 124.376 124.313  1.00  0.00     0.146 A 
ATOM     11  O   UNL     1     124.980 124.956 125.500  1.00  0.00    -0.452 OA
ENDROOT
BRANCH   1  12
ATOM     12  C   UNL     1     124.921 125.094 127.908  1.00  0.00     0.025 A 
ATOM     13  C   UNL     1     125.707 124.534 128.927  1.00  0.00     0.016 A 
ATOM     14  C   UNL     1     125.897 125.218 130.131  1.00  0.00     0.051 A 
ATOM     15  C   UNL     1     125.289 126.463 130.339  1.00  0.00     0.157 A 
ATOM     16  C   UNL     1     124.296 126.334 128.128  1.00  0.00     0.062 A 
ATOM     17  C   UNL     1     124.484 127.020 129.337  1.00  0.00     0.158 A 
BRANCH  15  18
ATOM     18  O   UNL     1     125.476 127.149 131.537  1.00  0.00    -0.504 OA
ATOM     19  H   UNL     1     125.361 126.690 132.433  1.00  0.00     0.293 HD
ENDBRANCH  15  18
BRANCH  17  20
ATOM     20  O   UNL     1     123.869 128.252 129.552  1.00  0.00    -0.504 OA
ATOM     21  H   UNL     1     122.902 128.414 129.293  1.00  0.00     0.293 HD
ENDBRANCH  17  20
ENDBRANCH   1  12
BRANCH   2  22
ATOM     22  O   UNL     1     123.902 122.378 127.836  1.00  0.00    -0.502 OA
ATOM     23  H   UNL     1     123.938 121.371 127.944  1.00  0.00     0.293 HD
ENDBRANCH   2  22
BRANCH   6  24
ATOM     24  O   UNL     1     123.834 121.130 122.788  1.00  0.00    -0.507 OA
ATOM     25  H   UNL     1     123.782 120.497 123.577  1.00  0.00     0.293 HD
ENDBRANCH   6  24
BRANCH   8  26
ATOM     26  O   UNL     1     125.327 125.239 120.745  1.00  0.00    -0.508 OA
ATOM     27  H   UNL     1     125.854 126.104 120.786  1.00  0.00     0.293 HD
ENDBRANCH   8  26
TORSDOF 6
ENDMDL
MODEL 5
REMARK VINA RESULT:    -5.087      2.313      2.833
REMARK INTER + INTRA:          -6.191
REMARK INTER:                  -5.870
REMARK INTRA:                  -0.321
REMARK UNBOUND:                -0.063
REMARK SMILES O=c1c(O)c(-c2ccc(O)c(O)c2)oc2cc(O)cc(O)c12
REMARK SMILES IDX 5 1 3 2 2 3 1 4 22 5 20 6 19 7 17 8 16 9 15 10 14 11 6 12
REMARK SMILES IDX 7 13 8 14 9 15 13 16 11 17 10 18 12 20 4 22 21 24 18 26
REMARK H PARENT 10 19 12 21 4 23 21 25 18 27
REMARK Flexibility Score: inf
ROOT
ATOM      1  C   UNL     1     125.197 124.645 126.715  1.00  0.00     0.180 A 
ATOM      2  C   UNL     1     125.785 125.654 125.929  1.00  0.00     0.208 A 
ATOM      3  C   UNL     1     125.760 125.527 124.533  1.00  0.00     0.238 A 
ATOM      4  O   UNL     1     126.275 126.431 123.818  1.00  0.00    -0.285 OA
ATOM      5  C   UNL     1     125.169 124.390 123.946  1.00  0.00     0.111 A 
ATOM      6  C   UNL     1     125.107 124.182 122.546  1.00  0.00     0.134 A 
ATOM      7  C   UNL     1     124.510 123.018 122.041  1.00  0.00     0.093 A 
ATOM      8  C   UNL     1     123.977 122.059 122.904  1.00  0.00     0.123 A 
ATOM      9  C   UNL     1     124.035 122.257 124.287  1.00  0.00     0.094 A 
ATOM     10  C   UNL     1     124.625 123.412 124.811  1.00  0.00     0.146 A 
ATOM     11  O   UNL     1     124.662 123.578 126.128  1.00  0.00    -0.452 OA
ENDROOT
BRANCH   1  12
ATOM     12  C   UNL     1     125.166 124.716 128.194  1.00  0.00     0.025 A 
ATOM     13  C   UNL     1     124.134 125.425 128.829  1.00  0.00     0.016 A 
ATOM     14  C   UNL     1     124.095 125.524 130.222  1.00  0.00     0.051 A 
ATOM     15  C   UNL     1     125.096 124.928 131.000  1.00  0.00     0.157 A 
ATOM     16  C   UNL     1     126.180 124.137 128.977  1.00  0.00     0.062 A 
ATOM     17  C   UNL     1     126.143 124.237 130.376  1.00  0.00     0.158 A 
BRANCH  15  18
ATOM     18  O   UNL     1     125.061 125.023 132.389  1.00  0.00    -0.504 OA
ATOM     19  H   UNL     1     124.463 125.691 132.860  1.00  0.00     0.293 HD
ENDBRANCH  15  18
BRANCH  17  20
ATOM     20  O   UNL     1     127.145 123.658 131.152  1.00  0.00    -0.504 OA
ATOM     21  H   UNL     1     127.703 124.209 131.795  1.00  0.00     0.293 HD
ENDBRANCH  17  20
ENDBRANCH   1  12
BRANCH   2  22
ATOM     22  O   UNL     1     126.408 126.748 126.537  1.00  0.00    -0.502 OA
ATOM     23  H   UNL     1     127.415 126.828 126.609  1.00  0.00     0.293 HD
ENDBRANCH   2  22
BRANCH   6  24
ATOM     24  O   UNL     1     125.632 125.122 121.658  1.00  0.00    -0.507 OA
ATOM     25  H   UNL     1     126.555 125.519 121.786  1.00  0.00     0.293 HD
ENDBRANCH   6  24
BRANCH   8  26
ATOM     26  O   UNL     1     123.390 120.911 122.376  1.00  0.00    -0.508 OA
ATOM     27  H   UNL     1     123.239 120.804 121.379  1.00  0.00     0.293 HD
ENDBRANCH   8  26
TORSDOF 6
ENDMDL
MODEL 6
REMARK VINA RESULT:    -4.960      1.554      3.243
REMARK INTER + INTRA:          -6.038
REMARK INTER:                  -5.724
REMARK INTRA:                  -0.314
REMARK UNBOUND:                -0.063
REMARK SMILES O=c1c(O)c(-c2ccc(O)c(O)c2)oc2cc(O)cc(O)c12
REMARK SMILES IDX 5 1 3 2 2 3 1 4 22 5 20 6 19 7 17 8 16 9 15 10 14 11 6 12
REMARK SMILES IDX 7 13 8 14 9 15 13 16 11 17 10 18 12 20 4 22 21 24 18 26
REMARK H PARENT 10 19 12 21 4 23 21 25 18 27
REMARK Flexibility Score: inf
ROOT
ATOM      1  C   UNL     1     124.622 125.179 126.680  1.00  0.00     0.180 A 
ATOM      2  C   UNL     1     125.164 124.154 125.881  1.00  0.00     0.208 A 
ATOM      3  C   UNL     1     125.048 124.248 124.486  1.00  0.00     0.238 A 
ATOM      4  O   UNL     1     125.539 123.341 123.760  1.00  0.00    -0.285 OA
ATOM      5  C   UNL     1     124.375 125.347 123.915  1.00  0.00     0.111 A 
ATOM      6  C   UNL     1     124.209 125.515 122.518  1.00  0.00     0.134 A 
ATOM      7  C   UNL     1     123.520 126.634 122.029  1.00  0.00     0.093 A 
ATOM      8  C   UNL     1     122.992 127.584 122.904  1.00  0.00     0.123 A 
ATOM      9  C   UNL     1     123.152 127.426 124.284  1.00  0.00     0.094 A 
ATOM     10  C   UNL     1     123.838 126.318 124.792  1.00  0.00     0.146 A 
ATOM     11  O   UNL     1     123.981 126.193 126.107  1.00  0.00    -0.452 OA
ENDROOT
BRANCH   1  12
ATOM     12  C   UNL     1     124.722 125.161 128.157  1.00  0.00     0.025 A 
ATOM     13  C   UNL     1     125.893 125.629 128.774  1.00  0.00     0.016 A 
ATOM     14  C   UNL     1     126.018 125.604 130.166  1.00  0.00     0.051 A 
ATOM     15  C   UNL     1     124.981 125.095 130.959  1.00  0.00     0.157 A 
ATOM     16  C   UNL     1     123.692 124.632 128.955  1.00  0.00     0.062 A 
ATOM     17  C   UNL     1     123.818 124.605 130.352  1.00  0.00     0.158 A 
BRANCH  15  18
ATOM     18  O   UNL     1     125.102 125.068 132.347  1.00  0.00    -0.504 OA
ATOM     19  H   UNL     1     124.872 125.876 132.914  1.00  0.00     0.293 HD
ENDBRANCH  15  18
BRANCH  17  20
ATOM     20  O   UNL     1     122.794 124.086 131.143  1.00  0.00    -0.504 OA
ATOM     21  H   UNL     1     121.871 123.905 130.763  1.00  0.00     0.293 HD
ENDBRANCH  17  20
ENDBRANCH   1  12
BRANCH   2  22
ATOM     22  O   UNL     1     125.783 123.050 126.474  1.00  0.00    -0.502 OA
ATOM     23  H   UNL     1     126.530 123.145 127.151  1.00  0.00     0.293 HD
ENDBRANCH   2  22
BRANCH   6  24
ATOM     24  O   UNL     1     124.724 124.581 121.617  1.00  0.00    -0.507 OA
ATOM     25  H   UNL     1     125.719 124.407 121.541  1.00  0.00     0.293 HD
ENDBRANCH   6  24
BRANCH   8  26
ATOM     26  O   UNL     1     122.310 128.686 122.391  1.00  0.00    -0.508 OA
ATOM     27  H   UNL     1     122.779 129.378 121.817  1.00  0.00     0.293 HD
ENDBRANCH   8  26
TORSDOF 6
ENDMDL
MODEL 7
REMARK VINA RESULT:    -4.693      2.693      6.966
REMARK INTER + INTRA:          -5.716
REMARK INTER:                  -5.592
REMARK INTRA:                  -0.124
REMARK UNBOUND:                -0.063
REMARK SMILES O=c1c(O)c(-c2ccc(O)c(O)c2)oc2cc(O)cc(O)c12
REMARK SMILES IDX 5 1 3 2 2 3 1 4 22 5 20 6 19 7 17 8 16 9 15 10 14 11 6 12
REMARK SMILES IDX 7 13 8 14 9 15 13 16 11 17 10 18 12 20 4 22 21 24 18 26
REMARK H PARENT 10 19 12 21 4 23 21 25 18 27
REMARK Flexibility Score: inf
ROOT
ATOM      1  C   UNL     1     125.803 124.571 125.903  1.00  0.00     0.180 A 
ATOM      2  C   UNL     1     125.018 123.414 126.069  1.00  0.00     0.208 A 
ATOM      3  C   UNL     1     124.402 123.184 127.309  1.00  0.00     0.238 A 
ATOM      4  O   UNL     1     123.688 122.156 127.465  1.00  0.00    -0.285 OA
ATOM      5  C   UNL     1     124.597 124.098 128.364  1.00  0.00     0.111 A 
ATOM      6  C   UNL     1     124.017 123.937 129.646  1.00  0.00     0.134 A 
ATOM      7  C   UNL     1     124.266 124.888 130.647  1.00  0.00     0.093 A 
ATOM      8  C   UNL     1     125.084 125.991 130.394  1.00  0.00     0.123 A 
ATOM      9  C   UNL     1     125.660 126.156 129.130  1.00  0.00     0.094 A 
ATOM     10  C   UNL     1     125.422 125.220 128.119  1.00  0.00     0.146 A 
ATOM     11  O   UNL     1     125.977 125.403 126.926  1.00  0.00    -0.452 OA
ENDROOT
BRANCH   1  12
ATOM     12  C   UNL     1     126.468 124.893 124.620  1.00  0.00     0.025 A 
ATOM     13  C   UNL     1     127.856 125.106 124.597  1.00  0.00     0.016 A 
ATOM     14  C   UNL     1     128.502 125.431 123.401  1.00  0.00     0.051 A 
ATOM     15  C   UNL     1     127.768 125.564 122.216  1.00  0.00     0.157 A 
ATOM     16  C   UNL     1     125.732 125.048 123.432  1.00  0.00     0.062 A 
ATOM     17  C   UNL     1     126.381 125.376 122.232  1.00  0.00     0.158 A 
BRANCH  15  18
ATOM     18  O   UNL     1     128.409 125.887 121.021  1.00  0.00    -0.504 OA
ATOM     19  H   UNL     1     128.545 126.850 120.737  1.00  0.00     0.293 HD
ENDBRANCH  15  18
BRANCH  17  20
ATOM     20  O   UNL     1     125.651 125.523 121.053  1.00  0.00    -0.504 OA
ATOM     21  H   UNL     1     124.643 125.630 121.064  1.00  0.00     0.293 HD
ENDBRANCH  17  20
ENDBRANCH   1  12
BRANCH   2  22
ATOM     22  O   UNL     1     124.880 122.498 125.022  1.00  0.00    -0.502 OA
ATOM     23  H   UNL     1     123.992 122.324 124.567  1.00  0.00     0.293 HD
ENDBRANCH   2  22
BRANCH   6  24
ATOM     24  O   UNL     1     123.196 122.845 129.930  1.00  0.00    -0.507 OA
ATOM     25  H   UNL     1     122.554 122.850 130.714  1.00  0.00     0.293 HD
ENDBRANCH   6  24
BRANCH   8  26
ATOM     26  O   UNL     1     125.316 126.920 131.406  1.00  0.00    -0.508 OA
ATOM     27  H   UNL     1     124.585 127.191 132.054  1.00  0.00     0.293 HD
ENDBRANCH   8  26
TORSDOF 6
ENDMDL
MODEL 8
REMARK VINA RESULT:    -4.649      1.385      7.144
REMARK INTER + INTRA:          -5.663
REMARK INTER:                  -5.535
REMARK INTRA:                  -0.128
REMARK UNBOUND:                -0.063
REMARK SMILES O=c1c(O)c(-c2ccc(O)c(O)c2)oc2cc(O)cc(O)c12
REMARK SMILES IDX 5 1 3 2 2 3 1 4 22 5 20 6 19 7 17 8 16 9 15 10 14 11 6 12
REMARK SMILES IDX 7 13 8 14 9 15 13 16 11 17 10 18 12 20 4 22 21 24 18 26
REMARK H PARENT 10 19 12 21 4 23 21 25 18 27
REMARK Flexibility Score: inf
ROOT
ATOM      1  C   UNL     1     125.200 126.066 125.885  1.00  0.00     0.180 A 
ATOM      2  C   UNL     1     126.596 125.951 126.023  1.00  0.00     0.208 A 
ATOM      3  C   UNL     1     127.124 125.522 127.251  1.00  0.00     0.238 A 
ATOM      4  O   UNL     1     128.373 125.406 127.383  1.00  0.00    -0.285 OA
ATOM      5  C   UNL     1     126.253 125.235 128.321  1.00  0.00     0.111 A 
ATOM      6  C   UNL     1     126.703 124.801 129.592  1.00  0.00     0.134 A 
ATOM      7  C   UNL     1     125.773 124.544 130.609  1.00  0.00     0.093 A 
ATOM      8  C   UNL     1     124.405 124.713 130.383  1.00  0.00     0.123 A 
ATOM      9  C   UNL     1     123.954 125.140 129.131  1.00  0.00     0.094 A 
ATOM     10  C   UNL     1     124.865 125.400 128.103  1.00  0.00     0.146 A 
ATOM     11  O   UNL     1     124.410 125.801 126.921  1.00  0.00    -0.452 OA
ENDROOT
BRANCH   1  12
ATOM     12  C   UNL     1     124.567 126.493 124.616  1.00  0.00     0.025 A 
ATOM     13  C   UNL     1     123.705 127.601 124.614  1.00  0.00     0.016 A 
ATOM     14  C   UNL     1     123.081 128.011 123.433  1.00  0.00     0.051 A 
ATOM     15  C   UNL     1     123.297 127.308 122.241  1.00  0.00     0.157 A 
ATOM     16  C   UNL     1     124.764 125.778 123.422  1.00  0.00     0.062 A 
ATOM     17  C   UNL     1     124.137 126.187 122.236  1.00  0.00     0.158 A 
BRANCH  15  18
ATOM     18  O   UNL     1     122.677 127.713 121.060  1.00  0.00    -0.504 OA
ATOM     19  H   UNL     1     123.170 127.711 120.175  1.00  0.00     0.293 HD
ENDBRANCH  15  18
BRANCH  17  20
ATOM     20  O   UNL     1     124.338 125.481 121.051  1.00  0.00    -0.504 OA
ATOM     21  H   UNL     1     124.575 125.954 120.186  1.00  0.00     0.293 HD
ENDBRANCH  17  20
ENDBRANCH   1  12
BRANCH   2  22
ATOM     22  O   UNL     1     127.441 126.290 124.962  1.00  0.00    -0.502 OA
ATOM     23  H   UNL     1     127.885 125.591 124.378  1.00  0.00     0.293 HD
ENDBRANCH   2  22
BRANCH   6  24
ATOM     24  O   UNL     1     128.064 124.624 129.849  1.00  0.00    -0.507 OA
ATOM     25  H   UNL     1     128.765 125.241 129.456  1.00  0.00     0.293 HD
ENDBRANCH   6  24
BRANCH   8  26
ATOM     26  O   UNL     1     123.502 124.451 131.412  1.00  0.00    -0.508 OA
ATOM     27  H   UNL     1     122.881 123.651 131.380  1.00  0.00     0.293 HD
ENDBRANCH   8  26
TORSDOF 6
ENDMDL
MODEL 9
REMARK VINA RESULT:    -4.479      1.886      6.486
REMARK INTER + INTRA:          -5.459
REMARK INTER:                  -5.352
REMARK INTRA:                  -0.107
REMARK UNBOUND:                -0.063
REMARK SMILES O=c1c(O)c(-c2ccc(O)c(O)c2)oc2cc(O)cc(O)c12
REMARK SMILES IDX 5 1 3 2 2 3 1 4 22 5 20 6 19 7 17 8 16 9 15 10 14 11 6 12
REMARK SMILES IDX 7 13 8 14 9 15 13 16 11 17 10 18 12 20 4 22 21 24 18 26
REMARK H PARENT 10 19 12 21 4 23 21 25 18 27
REMARK Flexibility Score: inf
ROOT
ATOM      1  C   UNL     1     124.240 124.621 126.045  1.00  0.00     0.180 A 
ATOM      2  C   UNL     1     123.673 125.902 126.187  1.00  0.00     0.208 A 
ATOM      3  C   UNL     1     123.808 126.571 127.412  1.00  0.00     0.238 A 
ATOM      4  O   UNL     1     123.312 127.723 127.548  1.00  0.00    -0.285 OA
ATOM      5  C   UNL     1     124.486 125.945 128.478  1.00  0.00     0.111 A 
ATOM      6  C   UNL     1     124.661 126.549 129.747  1.00  0.00     0.134 A 
ATOM      7  C   UNL     1     125.341 125.856 130.759  1.00  0.00     0.093 A 
ATOM      8  C   UNL     1     125.846 124.575 130.530  1.00  0.00     0.123 A 
ATOM      9  C   UNL     1     125.676 123.973 129.280  1.00  0.00     0.094 A 
ATOM     10  C   UNL     1     125.003 124.647 128.257  1.00  0.00     0.146 A 
ATOM     11  O   UNL     1     124.859 124.055 127.076  1.00  0.00    -0.452 OA
ENDROOT
BRANCH   1  12
ATOM     12  C   UNL     1     124.157 123.859 124.777  1.00  0.00     0.025 A 
ATOM     13  C   UNL     1     123.631 122.558 124.788  1.00  0.00     0.016 A 
ATOM     14  C   UNL     1     123.561 121.813 123.607  1.00  0.00     0.051 A 
ATOM     15  C   UNL     1     124.032 122.353 122.404  1.00  0.00     0.157 A 
ATOM     16  C   UNL     1     124.647 124.390 123.571  1.00  0.00     0.062 A 
ATOM     17  C   UNL     1     124.579 123.642 122.386  1.00  0.00     0.158 A 
BRANCH  15  18
ATOM     18  O   UNL     1     123.963 121.614 121.224  1.00  0.00    -0.504 OA
ATOM     19  H   UNL     1     124.512 120.772 121.094  1.00  0.00     0.293 HD
ENDBRANCH  15  18
BRANCH  17  20
ATOM     20  O   UNL     1     125.059 124.171 121.189  1.00  0.00    -0.504 OA
ATOM     21  H   UNL     1     126.053 124.237 121.000  1.00  0.00     0.293 HD
ENDBRANCH  17  20
ENDBRANCH   1  12
BRANCH   2  22
ATOM     22  O   UNL     1     122.962 126.480 125.131  1.00  0.00    -0.502 OA
ATOM     23  H   UNL     1     122.912 127.483 124.996  1.00  0.00     0.293 HD
ENDBRANCH   2  22
BRANCH   6  24
ATOM     24  O   UNL     1     124.167 127.829 130.007  1.00  0.00    -0.507 OA
ATOM     25  H   UNL     1     124.779 128.593 130.268  1.00  0.00     0.293 HD
ENDBRANCH   6  24
BRANCH   8  26
ATOM     26  O   UNL     1     126.516 123.908 131.554  1.00  0.00    -0.508 OA
ATOM     27  H   UNL     1     126.199 123.959 132.515  1.00  0.00     0.293 HD
ENDBRANCH   8  26
TORSDOF 6
ENDMDL
