MODEL 1
REMARK VINA RESULT:     6.351      0.000      0.000
REMARK INTER + INTRA:          10.564
REMARK INTER:                  10.064
REMARK INTRA:                   0.500
REMARK UNBOUND:                 0.500
REMARK SMILES CCCCCCCCCCCC(=O)[O-]
REMARK SMILES IDX 7 1 8 2 9 3 10 4 11 5 12 6 13 7 14 8 6 9 5 10 4 11 3 12 2 13
REMARK SMILES IDX 1 14
REMARK H PARENT
REMARK Flexibility Score: inf
ROOT
ATOM      1  C   UNL     1       4.454  49.046   9.042  1.00  0.00     0.000 C 
ENDROOT
BRANCH   1   2
ATOM      2  C   UNL     1       5.528  50.143   9.011  1.00  0.00     0.000 C 
BRANCH   2   3
ATOM      3  C   UNL     1       6.769  49.719   9.807  1.00  0.00     0.000 C 
BRANCH   3   4
ATOM      4  C   UNL     1       7.860  49.172   8.875  1.00  0.00     0.006 C 
BRANCH   4   5
ATOM      5  C   UNL     1       8.454  47.854   9.388  1.00  0.00     0.053 C 
BRANCH   5   6
ATOM      6  C   UNL     1       7.998  47.546  10.783  1.00  0.00     0.041 C 
ATOM      7  O   UNL     1       8.696  47.896  11.770  1.00  0.00    -0.550 OA
ATOM      8  O   UNL     1       6.786  46.900  10.991  1.00  0.00    -0.550 OA
ENDBRANCH   5   6
ENDBRANCH   4   5
ENDBRANCH   3   4
ENDBRANCH   2   3
ENDBRANCH   1   2
BRANCH   1   9
ATOM      9  C   UNL     1       3.775  48.912  10.417  1.00  0.00     0.000 C 
BRANCH   9  10
ATOM     10  C   UNL     1       4.329  47.781  11.308  1.00  0.00    -0.000 C 
BRANCH  10  11
ATOM     11  C   UNL     1       3.485  47.456  12.557  1.00  0.00    -0.000 C 
BRANCH  11  12
ATOM     12  C   UNL     1       4.092  47.927  13.891  1.00  0.00    -0.000 C 
BRANCH  12  13
ATOM     13  C   UNL     1       3.086  47.886  15.050  1.00  0.00    -0.003 C 
ATOM     14  C   UNL     1       3.041  46.499  15.688  1.00  0.00     0.004 C 
ENDBRANCH  12  13
ENDBRANCH  11  12
ENDBRANCH  10  11
ENDBRANCH   9  10
ENDBRANCH   1   9
TORSDOF 10
ENDMDL
MODEL 2
REMARK VINA RESULT:     6.519      3.128      7.014
REMARK INTER + INTRA:          10.830
REMARK INTER:                   9.726
REMARK INTRA:                   1.104
REMARK UNBOUND:                 0.500
REMARK SMILES CCCCCCCCCCCC(=O)[O-]
REMARK SMILES IDX 7 1 8 2 9 3 10 4 11 5 12 6 13 7 14 8 6 9 5 10 4 11 3 12 2 13
REMARK SMILES IDX 1 14
REMARK H PARENT
REMARK Flexibility Score: inf
ROOT
ATOM      1  C   UNL     1       8.554  47.729  10.807  1.00  0.00     0.000 C 
ENDROOT
BRANCH   1   2
ATOM      2  C   UNL     1       8.026  49.050  11.385  1.00  0.00     0.000 C 
BRANCH   2   3
ATOM      3  C   UNL     1       7.671  50.036  10.266  1.00  0.00     0.000 C 
BRANCH   3   4
ATOM      4  C   UNL     1       6.891  49.337   9.143  1.00  0.00     0.006 C 
BRANCH   4   5
ATOM      5  C   UNL     1       5.413  49.744   9.122  1.00  0.00     0.053 C 
BRANCH   5   6
ATOM      6  C   UNL     1       4.585  48.878  10.023  1.00  0.00     0.041 C 
ATOM      7  O   UNL     1       3.329  48.919   9.963  1.00  0.00    -0.550 OA
ATOM      8  O   UNL     1       5.204  48.002  10.906  1.00  0.00    -0.550 OA
ENDBRANCH   5   6
ENDBRANCH   4   5
ENDBRANCH   3   4
ENDBRANCH   2   3
ENDBRANCH   1   2
BRANCH   1   9
ATOM      9  C   UNL     1       8.921  47.833   9.316  1.00  0.00     0.000 C 
BRANCH   9  10
ATOM     10  C   UNL     1      10.132  46.981   8.884  1.00  0.00    -0.000 C 
BRANCH  10  11
ATOM     11  C   UNL     1      11.486  47.721   8.875  1.00  0.00    -0.000 C 
BRANCH  11  12
ATOM     12  C   UNL     1      12.725  46.807   8.875  1.00  0.00    -0.000 C 
BRANCH  12  13
ATOM     13  C   UNL     1      13.928  47.436   9.591  1.00  0.00    -0.003 C 
ATOM     14  C   UNL     1      15.242  46.874   9.053  1.00  0.00     0.004 C 
ENDBRANCH  12  13
ENDBRANCH  11  12
ENDBRANCH  10  11
ENDBRANCH   9  10
ENDBRANCH   1   9
TORSDOF 10
ENDMDL
MODEL 3
REMARK VINA RESULT:     7.418      0.888      1.270
REMARK INTER + INTRA:          12.254
REMARK INTER:                  11.431
REMARK INTRA:                   0.823
REMARK UNBOUND:                 0.500
REMARK SMILES CCCCCCCCCCCC(=O)[O-]
REMARK SMILES IDX 7 1 8 2 9 3 10 4 11 5 12 6 13 7 14 8 6 9 5 10 4 11 3 12 2 13
REMARK SMILES IDX 1 14
REMARK H PARENT
REMARK Flexibility Score: inf
ROOT
ATOM      1  C   UNL     1       5.952  49.674  10.070  1.00  0.00     0.000 C 
ENDROOT
BRANCH   1   2
ATOM      2  C   UNL     1       6.911  49.782   8.875  1.00  0.00     0.000 C 
BRANCH   2   3
ATOM      3  C   UNL     1       8.312  49.280   9.248  1.00  0.00     0.000 C 
BRANCH   3   4
ATOM      4  C   UNL     1       8.416  47.758   9.071  1.00  0.00     0.006 C 
BRANCH   4   5
ATOM      5  C   UNL     1       7.602  46.995  10.124  1.00  0.00     0.053 C 
BRANCH   5   6
ATOM      6  C   UNL     1       7.880  47.495  11.509  1.00  0.00     0.041 C 
ATOM      7  O   UNL     1       9.064  47.689  11.888  1.00  0.00    -0.550 OA
ATOM      8  O   UNL     1       6.827  47.777  12.370  1.00  0.00    -0.550 OA
ENDBRANCH   5   6
ENDBRANCH   4   5
ENDBRANCH   3   4
ENDBRANCH   2   3
ENDBRANCH   1   2
BRANCH   1   9
ATOM      9  C   UNL     1       4.832  48.643   9.845  1.00  0.00     0.000 C 
BRANCH   9  10
ATOM     10  C   UNL     1       3.713  48.658  10.907  1.00  0.00    -0.000 C 
BRANCH  10  11
ATOM     11  C   UNL     1       3.789  47.531  11.956  1.00  0.00    -0.000 C 
BRANCH  11  12
ATOM     12  C   UNL     1       3.576  47.984  13.412  1.00  0.00    -0.000 C 
BRANCH  12  13
ATOM     13  C   UNL     1       3.124  46.841  14.332  1.00  0.00    -0.003 C 
ATOM     14  C   UNL     1       2.794  47.359  15.729  1.00  0.00     0.004 C 
ENDBRANCH  12  13
ENDBRANCH  11  12
ENDBRANCH  10  11
ENDBRANCH   9  10
ENDBRANCH   1   9
TORSDOF 10
ENDMDL
MODEL 4
REMARK VINA RESULT:     7.630      1.200      2.004
REMARK INTER + INTRA:          12.590
REMARK INTER:                  12.586
REMARK INTRA:                   0.004
REMARK UNBOUND:                 0.500
REMARK SMILES CCCCCCCCCCCC(=O)[O-]
REMARK SMILES IDX 7 1 8 2 9 3 10 4 11 5 12 6 13 7 14 8 6 9 5 10 4 11 3 12 2 13
REMARK SMILES IDX 1 14
REMARK H PARENT
REMARK Flexibility Score: inf
ROOT
ATOM      1  C   UNL     1       4.786  48.578  11.211  1.00  0.00     0.000 C 
ENDROOT
BRANCH   1   2
ATOM      2  C   UNL     1       4.281  48.805   9.778  1.00  0.00     0.000 C 
BRANCH   2   3
ATOM      3  C   UNL     1       5.044  49.950   9.101  1.00  0.00     0.000 C 
BRANCH   3   4
ATOM      4  C   UNL     1       6.517  49.575   8.882  1.00  0.00     0.006 C 
BRANCH   4   5
ATOM      5  C   UNL     1       6.753  48.063   8.984  1.00  0.00     0.053 C 
BRANCH   5   6
ATOM      6  C   UNL     1       8.066  47.748   9.635  1.00  0.00     0.041 C 
ATOM      7  O   UNL     1       9.129  47.774   8.962  1.00  0.00    -0.550 OA
ATOM      8  O   UNL     1       8.117  47.459  10.992  1.00  0.00    -0.550 OA
ENDBRANCH   5   6
ENDBRANCH   4   5
ENDBRANCH   3   4
ENDBRANCH   2   3
ENDBRANCH   1   2
BRANCH   1   9
ATOM      9  C   UNL     1       3.711  47.981  12.136  1.00  0.00     0.000 C 
BRANCH   9  10
ATOM     10  C   UNL     1       4.214  47.571  13.536  1.00  0.00    -0.000 C 
BRANCH  10  11
ATOM     11  C   UNL     1       3.466  48.221  14.718  1.00  0.00    -0.000 C 
BRANCH  11  12
ATOM     12  C   UNL     1       2.711  47.235  15.628  1.00  0.00    -0.000 C 
BRANCH  12  13
ATOM     13  C   UNL     1       3.019  45.767  15.301  1.00  0.00    -0.003 C 
ATOM     14  C   UNL     1       3.737  45.085  16.462  1.00  0.00     0.004 C 
ENDBRANCH  12  13
ENDBRANCH  11  12
ENDBRANCH  10  11
ENDBRANCH   9  10
ENDBRANCH   1   9
TORSDOF 10
ENDMDL
MODEL 5
REMARK VINA RESULT:     8.008      2.501      5.126
REMARK INTER + INTRA:          13.190
REMARK INTER:                  14.113
REMARK INTRA:                  -0.923
REMARK UNBOUND:                 0.500
REMARK SMILES CCCCCCCCCCCC(=O)[O-]
REMARK SMILES IDX 7 1 8 2 9 3 10 4 11 5 12 6 13 7 14 8 6 9 5 10 4 11 3 12 2 13
REMARK SMILES IDX 1 14
REMARK H PARENT
REMARK Flexibility Score: inf
ROOT
ATOM      1  C   UNL     1       4.626  48.773   8.902  1.00  0.00     0.000 C 
ENDROOT
BRANCH   1   2
ATOM      2  C   UNL     1       3.771  48.767  10.178  1.00  0.00     0.000 C 
BRANCH   2   3
ATOM      3  C   UNL     1       4.520  48.098  11.338  1.00  0.00     0.000 C 
BRANCH   3   4
ATOM      4  C   UNL     1       3.582  47.853  12.530  1.00  0.00     0.006 C 
BRANCH   4   5
ATOM      5  C   UNL     1       4.346  47.736  13.854  1.00  0.00     0.053 C 
BRANCH   5   6
ATOM      6  C   UNL     1       3.422  47.777  15.034  1.00  0.00     0.041 C 
ATOM      7  O   UNL     1       2.628  46.825  15.249  1.00  0.00    -0.550 OA
ATOM      8  O   UNL     1       3.462  48.852  15.912  1.00  0.00    -0.550 OA
ENDBRANCH   5   6
ENDBRANCH   4   5
ENDBRANCH   3   4
ENDBRANCH   2   3
ENDBRANCH   1   2
BRANCH   1   9
ATOM      9  C   UNL     1       5.709  49.866   8.913  1.00  0.00     0.000 C 
BRANCH   9  10
ATOM     10  C   UNL     1       7.159  49.345   8.990  1.00  0.00    -0.000 C 
BRANCH  10  11
ATOM     11  C   UNL     1       7.313  47.815   8.875  1.00  0.00    -0.000 C 
BRANCH  11  12
ATOM     12  C   UNL     1       7.672  47.098  10.189  1.00  0.00    -0.000 C 
BRANCH  12  13
ATOM     13  C   UNL     1       8.292  48.040  11.231  1.00  0.00    -0.003 C 
ATOM     14  C   UNL     1       7.722  47.773  12.621  1.00  0.00     0.004 C 
ENDBRANCH  12  13
ENDBRANCH  11  12
ENDBRANCH  10  11
ENDBRANCH   9  10
ENDBRANCH   1   9
TORSDOF 10
ENDMDL
MODEL 6
REMARK VINA RESULT:     8.704      8.929     10.282
REMARK INTER + INTRA:          14.292
REMARK INTER:                  14.363
REMARK INTRA:                  -0.071
REMARK UNBOUND:                 0.500
REMARK SMILES CCCCCCCCCCCC(=O)[O-]
REMARK SMILES IDX 7 1 8 2 9 3 10 4 11 5 12 6 13 7 14 8 6 9 5 10 4 11 3 12 2 13
REMARK SMILES IDX 1 14
REMARK H PARENT
REMARK Flexibility Score: inf
ROOT
ATOM      1  C   UNL     1      13.082  43.681   9.768  1.00  0.00     0.000 C 
ENDROOT
BRANCH   1   2
ATOM      2  C   UNL     1      12.853  44.910   8.875  1.00  0.00     0.000 C 
BRANCH   2   3
ATOM      3  C   UNL     1      13.662  46.112   9.379  1.00  0.00     0.000 C 
BRANCH   3   4
ATOM      4  C   UNL     1      15.169  45.816   9.343  1.00  0.00     0.006 C 
BRANCH   4   5
ATOM      5  C   UNL     1      16.013  47.092   9.448  1.00  0.00     0.053 C 
BRANCH   5   6
ATOM      6  C   UNL     1      15.303  48.166  10.215  1.00  0.00     0.041 C 
ATOM      7  O   UNL     1      15.129  49.302   9.702  1.00  0.00    -0.550 OA
ATOM      8  O   UNL     1      14.805  47.900  11.484  1.00  0.00    -0.550 OA
ENDBRANCH   5   6
ENDBRANCH   4   5
ENDBRANCH   3   4
ENDBRANCH   2   3
ENDBRANCH   1   2
BRANCH   1   9
ATOM      9  C   UNL     1      12.796  42.354   9.043  1.00  0.00     0.000 C 
BRANCH   9  10
ATOM     10  C   UNL     1      11.436  41.709   9.378  1.00  0.00    -0.000 C 
BRANCH  10  11
ATOM     11  C   UNL     1      11.275  40.244   8.926  1.00  0.00    -0.000 C 
BRANCH  11  12
ATOM     12  C   UNL     1      12.583  39.432   8.876  1.00  0.00    -0.000 C 
BRANCH  12  13
ATOM     13  C   UNL     1      12.374  37.947   9.205  1.00  0.00    -0.003 C 
ATOM     14  C   UNL     1      13.240  37.521  10.388  1.00  0.00     0.004 C 
ENDBRANCH  12  13
ENDBRANCH  11  12
ENDBRANCH  10  11
ENDBRANCH   9  10
ENDBRANCH   1   9
TORSDOF 10
ENDMDL
MODEL 7
REMARK VINA RESULT:     9.092      9.277     10.576
REMARK INTER + INTRA:          14.907
REMARK INTER:                  15.332
REMARK INTRA:                  -0.425
REMARK UNBOUND:                 0.500
REMARK SMILES CCCCCCCCCCCC(=O)[O-]
REMARK SMILES IDX 7 1 8 2 9 3 10 4 11 5 12 6 13 7 14 8 6 9 5 10 4 11 3 12 2 13
REMARK SMILES IDX 1 14
REMARK H PARENT
REMARK Flexibility Score: inf
ROOT
ATOM      1  C   UNL     1      14.863  49.523   8.875  1.00  0.00     0.000 C 
ENDROOT
BRANCH   1   2
ATOM      2  C   UNL     1      14.325  48.085   8.926  1.00  0.00     0.000 C 
BRANCH   2   3
ATOM      3  C   UNL     1      14.200  47.596  10.374  1.00  0.00     0.000 C 
BRANCH   3   4
ATOM      4  C   UNL     1      14.234  46.062  10.442  1.00  0.00     0.006 C 
BRANCH   4   5
ATOM      5  C   UNL     1      14.282  45.421   9.050  1.00  0.00     0.053 C 
BRANCH   5   6
ATOM      6  C   UNL     1      14.351  43.926   9.130  1.00  0.00     0.041 C 
ATOM      7  O   UNL     1      15.464  43.347   9.234  1.00  0.00    -0.550 OA
ATOM      8  O   UNL     1      13.183  43.175   9.120  1.00  0.00    -0.550 OA
ENDBRANCH   5   6
ENDBRANCH   4   5
ENDBRANCH   3   4
ENDBRANCH   2   3
ENDBRANCH   1   2
BRANCH   1   9
ATOM      9  C   UNL     1      15.227  50.074  10.265  1.00  0.00     0.000 C 
BRANCH   9  10
ATOM     10  C   UNL     1      15.054  51.598  10.425  1.00  0.00    -0.000 C 
BRANCH  10  11
ATOM     11  C   UNL     1      15.874  52.236  11.565  1.00  0.00    -0.000 C 
BRANCH  11  12
ATOM     12  C   UNL     1      15.105  52.438  12.883  1.00  0.00    -0.000 C 
BRANCH  12  13
ATOM     13  C   UNL     1      15.933  53.168  13.950  1.00  0.00    -0.003 C 
ATOM     14  C   UNL     1      17.091  53.936  13.315  1.00  0.00     0.004 C 
ENDBRANCH  12  13
ENDBRANCH  11  12
ENDBRANCH  10  11
ENDBRANCH   9  10
ENDBRANCH   1   9
TORSDOF 10
ENDMDL
