MODEL 1
REMARK VINA RESULT:    -7.546      0.000      0.000
REMARK INTER + INTRA:         -12.091
REMARK INTER:                 -11.075
REMARK INTRA:                  -1.016
REMARK UNBOUND:                -1.016
REMARK SMILES O=c1c(O[C@@H]2O[C@@H](CO)[C@H](O)[C@@H](O)[C@H]2O)c(-c2ccc(O)c(O)c2)oc2cc(O)cc(O)c12
REMARK SMILES IDX 4 1 3 2 16 3 25 4 2 5 26 6 1 7 33 8 27 9 31 10 28 11 30 12
REMARK SMILES IDX 17 13 18 14 19 15 20 16 24 17 22 18 21 19 23 21 32 23 29 25
REMARK SMILES IDX 5 27 14 28 6 29 12 30 7 31 10 32 15 33 13 35 8 37 9 38 11 40
REMARK H PARENT 21 20 23 22 32 24 29 26 15 34 13 36 9 39 11 41
REMARK Flexibility Score: inf
ROOT
ATOM      1  O   UNL     1     -15.271  36.055  -1.996  1.00  0.00    -0.454 OA
ENDROOT
BRANCH   1   2
ATOM      2  C   UNL     1     -14.549  36.937  -2.821  1.00  0.00     0.214 A 
ATOM      3  C   UNL     1     -15.184  38.116  -3.262  1.00  0.00     0.180 A 
ATOM      4  O   UNL     1     -14.510  39.010  -3.978  1.00  0.00    -0.452 OA
ATOM      5  C   UNL     1     -13.207  36.717  -3.196  1.00  0.00     0.239 A 
ATOM      6  C   UNL     1     -13.248  38.844  -4.350  1.00  0.00     0.146 A 
ATOM      7  O   UNL     1     -12.602  35.682  -2.809  1.00  0.00    -0.285 OA
ATOM      8  C   UNL     1     -12.537  37.677  -3.984  1.00  0.00     0.111 A 
ATOM      9  C   UNL     1     -12.628  39.835  -5.117  1.00  0.00     0.094 A 
ATOM     10  C   UNL     1     -11.194  37.526  -4.411  1.00  0.00     0.134 A 
ATOM     11  C   UNL     1     -11.304  39.679  -5.536  1.00  0.00     0.123 A 
ATOM     12  C   UNL     1     -10.594  38.530  -5.183  1.00  0.00     0.093 A 
BRANCH   3  13
ATOM     13  C   UNL     1     -16.604  38.392  -2.957  1.00  0.00     0.025 A 
ATOM     14  C   UNL     1     -17.636  37.699  -3.614  1.00  0.00     0.016 A 
ATOM     15  C   UNL     1     -18.973  37.989  -3.334  1.00  0.00     0.051 A 
ATOM     16  C   UNL     1     -19.300  38.985  -2.406  1.00  0.00     0.157 A 
ATOM     17  C   UNL     1     -16.937  39.407  -2.045  1.00  0.00     0.062 A 
ATOM     18  C   UNL     1     -18.277  39.701  -1.762  1.00  0.00     0.158 A 
BRANCH  16  19
ATOM     19  O   UNL     1     -20.636  39.271  -2.126  1.00  0.00    -0.504 OA
ATOM     20  H   UNL     1     -21.392  38.826  -2.635  1.00  0.00     0.293 HD
ENDBRANCH  16  19
BRANCH  18  21
ATOM     21  O   UNL     1     -18.569  40.706  -0.840  1.00  0.00    -0.504 OA
ATOM     22  H   UNL     1     -19.494  41.116  -0.768  1.00  0.00     0.293 HD
ENDBRANCH  18  21
ENDBRANCH   3  13
BRANCH  10  23
ATOM     23  O   UNL     1     -10.455  36.391  -4.075  1.00  0.00    -0.507 OA
ATOM     24  H   UNL     1     -10.633  35.871  -3.225  1.00  0.00     0.293 HD
ENDBRANCH  10  23
BRANCH  11  25
ATOM     25  O   UNL     1     -10.683  40.661  -6.305  1.00  0.00    -0.508 OA
ATOM     26  H   UNL     1     -11.219  41.367  -6.796  1.00  0.00     0.293 HD
ENDBRANCH  11  25
ENDBRANCH   1   2
BRANCH   1  27
ATOM     27  C   UNL     1     -15.232  36.019  -0.569  1.00  0.00     0.339 C 
ATOM     28  C   UNL     1     -16.664  35.728  -0.049  1.00  0.00     0.214 C 
ATOM     29  O   UNL     1     -14.226  35.093  -0.155  1.00  0.00    -0.332 OA
ATOM     30  C   UNL     1     -16.667  35.458   1.475  1.00  0.00     0.180 C 
ATOM     31  C   UNL     1     -14.681  34.057   0.700  1.00  0.00     0.179 C 
ATOM     32  C   UNL     1     -15.417  34.652   1.925  1.00  0.00     0.177 C 
BRANCH  28  33
ATOM     33  O   UNL     1     -17.568  36.749  -0.395  1.00  0.00    -0.384 OA
ATOM     34  H   UNL     1     -18.382  36.327  -0.774  1.00  0.00     0.211 HD
ENDBRANCH  28  33
BRANCH  30  35
ATOM     35  O   UNL     1     -16.776  36.647   2.219  1.00  0.00    -0.387 OA
ATOM     36  H   UNL     1     -17.729  36.927   2.205  1.00  0.00     0.211 HD
ENDBRANCH  30  35
BRANCH  31  37
ATOM     37  C   UNL     1     -13.456  33.224   1.118  1.00  0.00     0.191 C 
BRANCH  37  38
ATOM     38  O   UNL     1     -13.839  32.036   1.757  1.00  0.00    -0.394 OA
ATOM     39  H   UNL     1     -13.124  31.818   2.409  1.00  0.00     0.210 HD
ENDBRANCH  37  38
ENDBRANCH  31  37
BRANCH  32  40
ATOM     40  O   UNL     1     -15.801  33.631   2.810  1.00  0.00    -0.387 OA
ATOM     41  H   UNL     1     -15.058  32.971   2.814  1.00  0.00     0.211 HD
ENDBRANCH  32  40
ENDBRANCH   1  27
TORSDOF 12
ENDMDL
MODEL 2
REMARK VINA RESULT:    -7.113      2.275      5.240
REMARK INTER + INTRA:         -11.455
REMARK INTER:                 -10.123
REMARK INTRA:                  -1.332
REMARK UNBOUND:                -1.016
REMARK SMILES O=c1c(O[C@@H]2O[C@@H](CO)[C@H](O)[C@@H](O)[C@H]2O)c(-c2ccc(O)c(O)c2)oc2cc(O)cc(O)c12
REMARK SMILES IDX 4 1 3 2 16 3 25 4 2 5 26 6 1 7 33 8 27 9 31 10 28 11 30 12
REMARK SMILES IDX 17 13 18 14 19 15 20 16 24 17 22 18 21 19 23 21 32 23 29 25
REMARK SMILES IDX 5 27 14 28 6 29 12 30 7 31 10 32 15 33 13 35 8 37 9 38 11 40
REMARK H PARENT 21 20 23 22 32 24 29 26 15 34 13 36 9 39 11 41
REMARK Flexibility Score: inf
ROOT
ATOM      1  O   UNL     1     -15.602  38.224  -3.510  1.00  0.00    -0.454 OA
ENDROOT
BRANCH   1   2
ATOM      2  C   UNL     1     -14.414  37.571  -3.135  1.00  0.00     0.214 A 
ATOM      3  C   UNL     1     -13.196  38.268  -3.258  1.00  0.00     0.180 A 
ATOM      4  O   UNL     1     -12.062  37.712  -2.842  1.00  0.00    -0.452 OA
ATOM      5  C   UNL     1     -14.389  36.263  -2.605  1.00  0.00     0.239 A 
ATOM      6  C   UNL     1     -11.994  36.489  -2.335  1.00  0.00     0.146 A 
ATOM      7  O   UNL     1     -15.459  35.614  -2.466  1.00  0.00    -0.285 OA
ATOM      8  C   UNL     1     -13.159  35.698  -2.203  1.00  0.00     0.111 A 
ATOM      9  C   UNL     1     -10.752  35.984  -1.939  1.00  0.00     0.094 A 
ATOM     10  C   UNL     1     -13.047  34.389  -1.671  1.00  0.00     0.134 A 
ATOM     11  C   UNL     1     -10.648  34.692  -1.416  1.00  0.00     0.123 A 
ATOM     12  C   UNL     1     -11.791  33.902  -1.285  1.00  0.00     0.093 A 
BRANCH   3  13
ATOM     13  C   UNL     1     -13.133  39.620  -3.855  1.00  0.00     0.025 A 
ATOM     14  C   UNL     1     -12.567  39.826  -5.125  1.00  0.00     0.016 A 
ATOM     15  C   UNL     1     -12.491  41.112  -5.665  1.00  0.00     0.051 A 
ATOM     16  C   UNL     1     -12.965  42.212  -4.939  1.00  0.00     0.157 A 
ATOM     17  C   UNL     1     -13.584  40.728  -3.120  1.00  0.00     0.062 A 
ATOM     18  C   UNL     1     -13.510  42.019  -3.658  1.00  0.00     0.158 A 
BRANCH  16  19
ATOM     19  O   UNL     1     -12.890  43.495  -5.481  1.00  0.00    -0.504 OA
ATOM     20  H   UNL     1     -12.672  44.302  -4.908  1.00  0.00     0.293 HD
ENDBRANCH  16  19
BRANCH  18  21
ATOM     21  O   UNL     1     -13.981  43.094  -2.906  1.00  0.00    -0.504 OA
ATOM     22  H   UNL     1     -13.424  43.525  -2.177  1.00  0.00     0.293 HD
ENDBRANCH  18  21
ENDBRANCH   3  13
BRANCH  10  23
ATOM     23  O   UNL     1     -14.169  33.573  -1.525  1.00  0.00    -0.507 OA
ATOM     24  H   UNL     1     -14.890  33.774  -0.844  1.00  0.00     0.293 HD
ENDBRANCH  10  23
BRANCH  11  25
ATOM     25  O   UNL     1      -9.412  34.183  -1.025  1.00  0.00    -0.508 OA
ATOM     26  H   UNL     1      -8.547  34.523  -1.429  1.00  0.00     0.293 HD
ENDBRANCH  11  25
ENDBRANCH   1   2
BRANCH   1  27
ATOM     27  C   UNL     1     -16.483  38.931  -2.637  1.00  0.00     0.339 C 
ATOM     28  C   UNL     1     -17.897  38.306  -2.759  1.00  0.00     0.214 C 
ATOM     29  O   UNL     1     -15.925  38.941  -1.323  1.00  0.00    -0.332 OA
ATOM     30  C   UNL     1     -18.859  38.873  -1.688  1.00  0.00     0.180 C 
ATOM     31  C   UNL     1     -16.763  38.403  -0.312  1.00  0.00     0.179 C 
ATOM     32  C   UNL     1     -18.144  39.102  -0.328  1.00  0.00     0.177 C 
BRANCH  28  33
ATOM     33  O   UNL     1     -18.425  38.447  -4.056  1.00  0.00    -0.384 OA
ATOM     34  H   UNL     1     -17.728  38.855  -4.632  1.00  0.00     0.211 HD
ENDBRANCH  28  33
BRANCH  30  35
ATOM     35  O   UNL     1     -19.485  40.057  -2.118  1.00  0.00    -0.387 OA
ATOM     36  H   UNL     1     -19.098  40.811  -1.600  1.00  0.00     0.211 HD
ENDBRANCH  30  35
BRANCH  31  37
ATOM     37  C   UNL     1     -16.045  38.585   1.037  1.00  0.00     0.191 C 
BRANCH  37  38
ATOM     38  O   UNL     1     -16.513  37.672   1.993  1.00  0.00    -0.394 OA
ATOM     39  H   UNL     1     -17.250  37.163   1.566  1.00  0.00     0.210 HD
ENDBRANCH  37  38
ENDBRANCH  31  37
BRANCH  32  40
ATOM     40  O   UNL     1     -18.948  38.624   0.721  1.00  0.00    -0.387 OA
ATOM     41  H   UNL     1     -19.879  38.611   0.374  1.00  0.00     0.211 HD
ENDBRANCH  32  40
ENDBRANCH   1  27
TORSDOF 12
ENDMDL
MODEL 3
REMARK VINA RESULT:    -7.042      1.353      2.319
REMARK INTER + INTRA:         -11.351
REMARK INTER:                  -9.838
REMARK INTRA:                  -1.513
REMARK UNBOUND:                -1.016
REMARK SMILES O=c1c(O[C@@H]2O[C@@H](CO)[C@H](O)[C@@H](O)[C@H]2O)c(-c2ccc(O)c(O)c2)oc2cc(O)cc(O)c12
REMARK SMILES IDX 4 1 3 2 16 3 25 4 2 5 26 6 1 7 33 8 27 9 31 10 28 11 30 12
REMARK SMILES IDX 17 13 18 14 19 15 20 16 24 17 22 18 21 19 23 21 32 23 29 25
REMARK SMILES IDX 5 27 14 28 6 29 12 30 7 31 10 32 15 33 13 35 8 37 9 38 11 40
REMARK H PARENT 21 20 23 22 32 24 29 26 15 34 13 36 9 39 11 41
REMARK Flexibility Score: inf
ROOT
ATOM      1  O   UNL     1     -14.230  37.668  -0.550  1.00  0.00    -0.454 OA
ENDROOT
BRANCH   1   2
ATOM      2  C   UNL     1     -13.634  38.030  -1.772  1.00  0.00     0.214 A 
ATOM      3  C   UNL     1     -14.460  38.513  -2.806  1.00  0.00     0.180 A 
ATOM      4  O   UNL     1     -13.925  38.937  -3.946  1.00  0.00    -0.452 OA
ATOM      5  C   UNL     1     -12.242  37.968  -1.998  1.00  0.00     0.239 A 
ATOM      6  C   UNL     1     -12.624  38.900  -4.198  1.00  0.00     0.146 A 
ATOM      7  O   UNL     1     -11.471  37.555  -1.092  1.00  0.00    -0.285 OA
ATOM      8  C   UNL     1     -11.717  38.400  -3.235  1.00  0.00     0.111 A 
ATOM      9  C   UNL     1     -12.157  39.355  -5.436  1.00  0.00     0.094 A 
ATOM     10  C   UNL     1     -10.335  38.361  -3.544  1.00  0.00     0.134 A 
ATOM     11  C   UNL     1     -10.792  39.313  -5.735  1.00  0.00     0.123 A 
ATOM     12  C   UNL     1      -9.889  38.817  -4.793  1.00  0.00     0.093 A 
BRANCH   3  13
ATOM     13  C   UNL     1     -15.932  38.558  -2.666  1.00  0.00     0.025 A 
ATOM     14  C   UNL     1     -16.752  37.631  -3.334  1.00  0.00     0.016 A 
ATOM     15  C   UNL     1     -18.142  37.700  -3.213  1.00  0.00     0.051 A 
ATOM     16  C   UNL     1     -18.734  38.705  -2.437  1.00  0.00     0.157 A 
ATOM     17  C   UNL     1     -16.530  39.577  -1.908  1.00  0.00     0.062 A 
ATOM     18  C   UNL     1     -17.924  39.650  -1.785  1.00  0.00     0.158 A 
BRANCH  16  19
ATOM     19  O   UNL     1     -20.121  38.770  -2.315  1.00  0.00    -0.504 OA
ATOM     20  H   UNL     1     -20.593  38.502  -1.459  1.00  0.00     0.293 HD
ENDBRANCH  16  19
BRANCH  18  21
ATOM     21  O   UNL     1     -18.482  40.667  -1.012  1.00  0.00    -0.504 OA
ATOM     22  H   UNL     1     -18.737  40.526  -0.041  1.00  0.00     0.293 HD
ENDBRANCH  18  21
ENDBRANCH   3  13
BRANCH  10  23
ATOM     23  O   UNL     1      -9.405  37.873  -2.626  1.00  0.00    -0.507 OA
ATOM     24  H   UNL     1      -8.566  38.389  -2.391  1.00  0.00     0.293 HD
ENDBRANCH  10  23
BRANCH  11  25
ATOM     25  O   UNL     1     -10.322  39.759  -6.968  1.00  0.00    -0.508 OA
ATOM     26  H   UNL     1     -10.956  39.998  -7.721  1.00  0.00     0.293 HD
ENDBRANCH  11  25
ENDBRANCH   1   2
BRANCH   1  27
ATOM     27  C   UNL     1     -14.816  36.403  -0.244  1.00  0.00     0.339 C 
ATOM     28  C   UNL     1     -13.865  35.645   0.719  1.00  0.00     0.214 C 
ATOM     29  O   UNL     1     -16.144  36.611   0.239  1.00  0.00    -0.332 OA
ATOM     30  C   UNL     1     -14.527  34.358   1.269  1.00  0.00     0.180 C 
ATOM     31  C   UNL     1     -16.408  36.063   1.521  1.00  0.00     0.179 C 
ATOM     32  C   UNL     1     -16.042  34.560   1.552  1.00  0.00     0.177 C 
BRANCH  28  33
ATOM     33  O   UNL     1     -12.620  35.371   0.122  1.00  0.00    -0.384 OA
ATOM     34  H   UNL     1     -12.016  35.007   0.820  1.00  0.00     0.211 HD
ENDBRANCH  28  33
BRANCH  30  35
ATOM     35  O   UNL     1     -14.330  33.259   0.414  1.00  0.00    -0.387 OA
ATOM     36  H   UNL     1     -14.704  33.495  -0.475  1.00  0.00     0.211 HD
ENDBRANCH  30  35
BRANCH  31  37
ATOM     37  C   UNL     1     -17.897  36.296   1.831  1.00  0.00     0.191 C 
BRANCH  37  38
ATOM     38  O   UNL     1     -18.646  35.124   1.651  1.00  0.00    -0.394 OA
ATOM     39  H   UNL     1     -18.674  34.663   2.529  1.00  0.00     0.210 HD
ENDBRANCH  37  38
ENDBRANCH  31  37
BRANCH  32  40
ATOM     40  O   UNL     1     -16.373  33.999   2.797  1.00  0.00    -0.387 OA
ATOM     41  H   UNL     1     -16.177  33.028   2.726  1.00  0.00     0.211 HD
ENDBRANCH  32  40
ENDBRANCH   1  27
TORSDOF 12
ENDMDL
MODEL 4
REMARK VINA RESULT:    -6.945      2.168      3.711
REMARK INTER + INTRA:         -11.209
REMARK INTER:                  -9.959
REMARK INTRA:                  -1.250
REMARK UNBOUND:                -1.016
REMARK SMILES O=c1c(O[C@@H]2O[C@@H](CO)[C@H](O)[C@@H](O)[C@H]2O)c(-c2ccc(O)c(O)c2)oc2cc(O)cc(O)c12
REMARK SMILES IDX 4 1 3 2 16 3 25 4 2 5 26 6 1 7 33 8 27 9 31 10 28 11 30 12
REMARK SMILES IDX 17 13 18 14 19 15 20 16 24 17 22 18 21 19 23 21 32 23 29 25
REMARK SMILES IDX 5 27 14 28 6 29 12 30 7 31 10 32 15 33 13 35 8 37 9 38 11 40
REMARK H PARENT 21 20 23 22 32 24 29 26 15 34 13 36 9 39 11 41
REMARK Flexibility Score: inf
ROOT
ATOM      1  O   UNL     1     -14.717  37.574  -3.408  1.00  0.00    -0.454 OA
ENDROOT
BRANCH   1   2
ATOM      2  C   UNL     1     -14.357  38.925  -3.559  1.00  0.00     0.214 A 
ATOM      3  C   UNL     1     -14.966  39.881  -2.721  1.00  0.00     0.180 A 
ATOM      4  O   UNL     1     -14.595  41.156  -2.781  1.00  0.00    -0.452 OA
ATOM      5  C   UNL     1     -13.385  39.365  -4.483  1.00  0.00     0.239 A 
ATOM      6  C   UNL     1     -13.685  41.610  -3.631  1.00  0.00     0.146 A 
ATOM      7  O   UNL     1     -12.808  38.538  -5.238  1.00  0.00    -0.285 OA
ATOM      8  C   UNL     1     -13.042  40.733  -4.535  1.00  0.00     0.111 A 
ATOM      9  C   UNL     1     -13.373  42.974  -3.629  1.00  0.00     0.094 A 
ATOM     10  C   UNL     1     -12.085  41.257  -5.440  1.00  0.00     0.134 A 
ATOM     11  C   UNL     1     -12.429  43.483  -4.525  1.00  0.00     0.123 A 
ATOM     12  C   UNL     1     -11.791  42.627  -5.424  1.00  0.00     0.093 A 
BRANCH   3  13
ATOM     13  C   UNL     1     -16.032  39.507  -1.766  1.00  0.00     0.025 A 
ATOM     14  C   UNL     1     -15.720  39.092  -0.459  1.00  0.00     0.016 A 
ATOM     15  C   UNL     1     -16.735  38.717   0.425  1.00  0.00     0.051 A 
ATOM     16  C   UNL     1     -18.074  38.737   0.012  1.00  0.00     0.157 A 
ATOM     17  C   UNL     1     -17.373  39.502  -2.183  1.00  0.00     0.062 A 
ATOM     18  C   UNL     1     -18.393  39.126  -1.300  1.00  0.00     0.158 A 
BRANCH  16  19
ATOM     19  O   UNL     1     -19.085  38.365   0.897  1.00  0.00    -0.504 OA
ATOM     20  H   UNL     1     -19.773  37.662   0.651  1.00  0.00     0.293 HD
ENDBRANCH  16  19
BRANCH  18  21
ATOM     21  O   UNL     1     -19.714  39.147  -1.745  1.00  0.00    -0.504 OA
ATOM     22  H   UNL     1     -20.214  38.298  -1.985  1.00  0.00     0.293 HD
ENDBRANCH  18  21
ENDBRANCH   3  13
BRANCH  10  23
ATOM     23  O   UNL     1     -11.428  40.429  -6.350  1.00  0.00    -0.507 OA
ATOM     24  H   UNL     1     -10.847  39.657  -6.047  1.00  0.00     0.293 HD
ENDBRANCH  10  23
BRANCH  11  25
ATOM     25  O   UNL     1     -12.118  44.841  -4.531  1.00  0.00    -0.508 OA
ATOM     26  H   UNL     1     -11.159  45.165  -4.581  1.00  0.00     0.293 HD
ENDBRANCH  11  25
ENDBRANCH   1   2
BRANCH   1  27
ATOM     27  C   UNL     1     -14.127  36.644  -2.500  1.00  0.00     0.339 C 
ATOM     28  C   UNL     1     -14.977  35.346  -2.509  1.00  0.00     0.214 C 
ATOM     29  O   UNL     1     -12.748  36.479  -2.834  1.00  0.00    -0.332 OA
ATOM     30  C   UNL     1     -14.284  34.212  -1.716  1.00  0.00     0.180 C 
ATOM     31  C   UNL     1     -12.350  35.143  -3.095  1.00  0.00     0.179 C 
ATOM     32  C   UNL     1     -12.743  34.222  -1.915  1.00  0.00     0.177 C 
BRANCH  28  33
ATOM     33  O   UNL     1     -16.288  35.572  -2.050  1.00  0.00    -0.384 OA
ATOM     34  H   UNL     1     -16.265  35.618  -1.059  1.00  0.00     0.211 HD
ENDBRANCH  28  33
BRANCH  30  35
ATOM     35  O   UNL     1     -14.602  34.259  -0.346  1.00  0.00    -0.387 OA
ATOM     36  H   UNL     1     -14.064  33.562   0.114  1.00  0.00     0.211 HD
ENDBRANCH  30  35
BRANCH  31  37
ATOM     37  C   UNL     1     -10.830  35.147  -3.337  1.00  0.00     0.191 C 
BRANCH  37  38
ATOM     38  O   UNL     1     -10.382  33.898  -3.791  1.00  0.00    -0.394 OA
ATOM     39  H   UNL     1     -10.358  33.297  -3.002  1.00  0.00     0.210 HD
ENDBRANCH  37  38
ENDBRANCH  31  37
BRANCH  32  40
ATOM     40  O   UNL     1     -12.282  32.914  -2.139  1.00  0.00    -0.387 OA
ATOM     41  H   UNL     1     -11.541  32.988  -2.797  1.00  0.00     0.211 HD
ENDBRANCH  32  40
ENDBRANCH   1  27
TORSDOF 12
ENDMDL
MODEL 5
REMARK VINA RESULT:    -6.930      1.729      6.758
REMARK INTER + INTRA:         -11.188
REMARK INTER:                  -9.825
REMARK INTRA:                  -1.363
REMARK UNBOUND:                -1.016
REMARK SMILES O=c1c(O[C@@H]2O[C@@H](CO)[C@H](O)[C@@H](O)[C@H]2O)c(-c2ccc(O)c(O)c2)oc2cc(O)cc(O)c12
REMARK SMILES IDX 4 1 3 2 16 3 25 4 2 5 26 6 1 7 33 8 27 9 31 10 28 11 30 12
REMARK SMILES IDX 17 13 18 14 19 15 20 16 24 17 22 18 21 19 23 21 32 23 29 25
REMARK SMILES IDX 5 27 14 28 6 29 12 30 7 31 10 32 15 33 13 35 8 37 9 38 11 40
REMARK H PARENT 21 20 23 22 32 24 29 26 15 34 13 36 9 39 11 41
REMARK Flexibility Score: inf
ROOT
ATOM      1  O   UNL     1     -14.592  38.163  -3.472  1.00  0.00    -0.454 OA
ENDROOT
BRANCH   1   2
ATOM      2  C   UNL     1     -14.619  37.161  -2.485  1.00  0.00     0.214 A 
ATOM      3  C   UNL     1     -15.725  37.106  -1.614  1.00  0.00     0.180 A 
ATOM      4  O   UNL     1     -15.824  36.127  -0.720  1.00  0.00    -0.452 OA
ATOM      5  C   UNL     1     -13.610  36.184  -2.351  1.00  0.00     0.239 A 
ATOM      6  C   UNL     1     -14.901  35.188  -0.563  1.00  0.00     0.146 A 
ATOM      7  O   UNL     1     -12.613  36.193  -3.121  1.00  0.00    -0.285 OA
ATOM      8  C   UNL     1     -13.738  35.179  -1.368  1.00  0.00     0.111 A 
ATOM      9  C   UNL     1     -15.087  34.208   0.417  1.00  0.00     0.094 A 
ATOM     10  C   UNL     1     -12.765  34.170  -1.163  1.00  0.00     0.134 A 
ATOM     11  C   UNL     1     -14.123  33.215   0.615  1.00  0.00     0.123 A 
ATOM     12  C   UNL     1     -12.970  33.200  -0.172  1.00  0.00     0.093 A 
BRANCH   3  13
ATOM     13  C   UNL     1     -16.797  38.125  -1.656  1.00  0.00     0.025 A 
ATOM     14  C   UNL     1     -16.737  39.273  -0.846  1.00  0.00     0.016 A 
ATOM     15  C   UNL     1     -17.769  40.214  -0.876  1.00  0.00     0.051 A 
ATOM     16  C   UNL     1     -18.882  40.016  -1.704  1.00  0.00     0.157 A 
ATOM     17  C   UNL     1     -17.925  37.918  -2.465  1.00  0.00     0.062 A 
ATOM     18  C   UNL     1     -18.962  38.859  -2.498  1.00  0.00     0.158 A 
BRANCH  16  19
ATOM     19  O   UNL     1     -19.909  40.958  -1.734  1.00  0.00    -0.504 OA
ATOM     20  H   UNL     1     -20.707  40.894  -1.113  1.00  0.00     0.293 HD
ENDBRANCH  16  19
BRANCH  18  21
ATOM     21  O   UNL     1     -20.060  38.628  -3.325  1.00  0.00    -0.504 OA
ATOM     22  H   UNL     1     -20.448  37.700  -3.456  1.00  0.00     0.293 HD
ENDBRANCH  18  21
ENDBRANCH   3  13
BRANCH  10  23
ATOM     23  O   UNL     1     -11.602  34.124  -1.932  1.00  0.00    -0.507 OA
ATOM     24  H   UNL     1     -10.778  33.623  -1.623  1.00  0.00     0.293 HD
ENDBRANCH  10  23
BRANCH  11  25
ATOM     25  O   UNL     1     -14.301  32.239   1.593  1.00  0.00    -0.508 OA
ATOM     26  H   UNL     1     -13.520  31.880   2.130  1.00  0.00     0.293 HD
ENDBRANCH  11  25
ENDBRANCH   1   2
BRANCH   1  27
ATOM     27  C   UNL     1     -13.482  39.004  -3.784  1.00  0.00     0.339 C 
ATOM     28  C   UNL     1     -13.267  38.979  -5.321  1.00  0.00     0.214 C 
ATOM     29  O   UNL     1     -13.702  40.295  -3.215  1.00  0.00    -0.332 OA
ATOM     30  C   UNL     1     -12.221  40.032  -5.761  1.00  0.00     0.180 C 
ATOM     31  C   UNL     1     -13.660  41.373  -4.137  1.00  0.00     0.179 C 
ATOM     32  C   UNL     1     -12.337  41.345  -4.939  1.00  0.00     0.177 C 
BRANCH  28  33
ATOM     33  O   UNL     1     -12.933  37.693  -5.784  1.00  0.00    -0.384 OA
ATOM     34  H   UNL     1     -13.575  37.446  -6.500  1.00  0.00     0.211 HD
ENDBRANCH  28  33
BRANCH  30  35
ATOM     35  O   UNL     1     -10.909  39.528  -5.698  1.00  0.00    -0.387 OA
ATOM     36  H   UNL     1     -10.815  39.034  -4.842  1.00  0.00     0.211 HD
ENDBRANCH  30  35
BRANCH  31  37
ATOM     37  C   UNL     1     -13.818  42.678  -3.338  1.00  0.00     0.191 C 
BRANCH  37  38
ATOM     38  O   UNL     1     -14.302  43.717  -4.146  1.00  0.00    -0.394 OA
ATOM     39  H   UNL     1     -14.651  44.417  -3.536  1.00  0.00     0.210 HD
ENDBRANCH  37  38
ENDBRANCH  31  37
BRANCH  32  40
ATOM     40  O   UNL     1     -12.262  42.454  -5.799  1.00  0.00    -0.387 OA
ATOM     41  H   UNL     1     -12.155  43.252  -5.216  1.00  0.00     0.211 HD
ENDBRANCH  32  40
ENDBRANCH   1  27
TORSDOF 12
ENDMDL
MODEL 6
REMARK VINA RESULT:    -6.908      1.685      4.793
REMARK INTER + INTRA:         -11.154
REMARK INTER:                  -9.565
REMARK INTRA:                  -1.590
REMARK UNBOUND:                -1.016
REMARK SMILES O=c1c(O[C@@H]2O[C@@H](CO)[C@H](O)[C@@H](O)[C@H]2O)c(-c2ccc(O)c(O)c2)oc2cc(O)cc(O)c12
REMARK SMILES IDX 4 1 3 2 16 3 25 4 2 5 26 6 1 7 33 8 27 9 31 10 28 11 30 12
REMARK SMILES IDX 17 13 18 14 19 15 20 16 24 17 22 18 21 19 23 21 32 23 29 25
REMARK SMILES IDX 5 27 14 28 6 29 12 30 7 31 10 32 15 33 13 35 8 37 9 38 11 40
REMARK H PARENT 21 20 23 22 32 24 29 26 15 34 13 36 9 39 11 41
REMARK Flexibility Score: inf
ROOT
ATOM      1  O   UNL     1     -15.487  37.418  -2.126  1.00  0.00    -0.454 OA
ENDROOT
BRANCH   1   2
ATOM      2  C   UNL     1     -14.234  37.661  -2.717  1.00  0.00     0.214 A 
ATOM      3  C   UNL     1     -13.191  36.743  -2.481  1.00  0.00     0.180 A 
ATOM      4  O   UNL     1     -12.016  36.897  -3.084  1.00  0.00    -0.452 OA
ATOM      5  C   UNL     1     -13.982  38.760  -3.566  1.00  0.00     0.239 A 
ATOM      6  C   UNL     1     -11.739  37.912  -3.891  1.00  0.00     0.146 A 
ATOM      7  O   UNL     1     -14.894  39.593  -3.811  1.00  0.00    -0.285 OA
ATOM      8  C   UNL     1     -12.711  38.903  -4.162  1.00  0.00     0.111 A 
ATOM      9  C   UNL     1     -10.467  37.996  -4.466  1.00  0.00     0.094 A 
ATOM     10  C   UNL     1     -12.375  39.982  -5.017  1.00  0.00     0.134 A 
ATOM     11  C   UNL     1     -10.142  39.063  -5.309  1.00  0.00     0.123 A 
ATOM     12  C   UNL     1     -11.093  40.049  -5.580  1.00  0.00     0.093 A 
BRANCH   3  13
ATOM     13  C   UNL     1     -13.359  35.597  -1.561  1.00  0.00     0.025 A 
ATOM     14  C   UNL     1     -13.561  34.296  -2.054  1.00  0.00     0.016 A 
ATOM     15  C   UNL     1     -13.744  33.227  -1.174  1.00  0.00     0.051 A 
ATOM     16  C   UNL     1     -13.744  33.444   0.210  1.00  0.00     0.157 A 
ATOM     17  C   UNL     1     -13.384  35.814  -0.174  1.00  0.00     0.062 A 
ATOM     18  C   UNL     1     -13.567  34.744   0.711  1.00  0.00     0.158 A 
BRANCH  16  19
ATOM     19  O   UNL     1     -13.924  32.375   1.087  1.00  0.00    -0.504 OA
ATOM     20  H   UNL     1     -14.663  31.694   0.949  1.00  0.00     0.293 HD
ENDBRANCH  16  19
BRANCH  18  21
ATOM     21  O   UNL     1     -13.572  34.995   2.083  1.00  0.00    -0.504 OA
ATOM     22  H   UNL     1     -14.325  35.501   2.535  1.00  0.00     0.293 HD
ENDBRANCH  18  21
ENDBRANCH   3  13
BRANCH  10  23
ATOM     23  O   UNL     1     -13.301  40.983  -5.311  1.00  0.00    -0.507 OA
ATOM     24  H   UNL     1     -13.459  41.303  -6.258  1.00  0.00     0.293 HD
ENDBRANCH  10  23
BRANCH  11  25
ATOM     25  O   UNL     1      -8.875  39.155  -5.880  1.00  0.00    -0.508 OA
ATOM     26  H   UNL     1      -8.154  38.472  -5.682  1.00  0.00     0.293 HD
ENDBRANCH  11  25
ENDBRANCH   1   2
BRANCH   1  27
ATOM     27  C   UNL     1     -16.144  38.257  -1.177  1.00  0.00     0.339 C 
ATOM     28  C   UNL     1     -17.598  38.498  -1.662  1.00  0.00     0.214 C 
ATOM     29  O   UNL     1     -16.017  37.678   0.122  1.00  0.00    -0.332 OA
ATOM     30  C   UNL     1     -18.441  39.218  -0.582  1.00  0.00     0.180 C 
ATOM     31  C   UNL     1     -17.243  37.435   0.794  1.00  0.00     0.179 C 
ATOM     32  C   UNL     1     -18.092  38.728   0.851  1.00  0.00     0.177 C 
BRANCH  28  33
ATOM     33  O   UNL     1     -17.637  39.183  -2.891  1.00  0.00    -0.384 OA
ATOM     34  H   UNL     1     -16.808  38.966  -3.392  1.00  0.00     0.211 HD
ENDBRANCH  28  33
BRANCH  30  35
ATOM     35  O   UNL     1     -18.318  40.617  -0.666  1.00  0.00    -0.387 OA
ATOM     36  H   UNL     1     -18.312  40.977   0.259  1.00  0.00     0.211 HD
ENDBRANCH  30  35
BRANCH  31  37
ATOM     37  C   UNL     1     -16.909  36.908   2.201  1.00  0.00     0.191 C 
BRANCH  37  38
ATOM     38  O   UNL     1     -15.566  37.142   2.528  1.00  0.00    -0.394 OA
ATOM     39  H   UNL     1     -15.384  36.643   3.367  1.00  0.00     0.210 HD
ENDBRANCH  37  38
ENDBRANCH  31  37
BRANCH  32  40
ATOM     40  O   UNL     1     -19.272  38.509   1.581  1.00  0.00    -0.387 OA
ATOM     41  H   UNL     1     -19.603  37.611   1.312  1.00  0.00     0.211 HD
ENDBRANCH  32  40
ENDBRANCH   1  27
TORSDOF 12
ENDMDL
MODEL 7
REMARK VINA RESULT:    -6.777      2.349      4.626
REMARK INTER + INTRA:         -10.962
REMARK INTER:                  -9.705
REMARK INTRA:                  -1.258
REMARK UNBOUND:                -1.016
REMARK SMILES O=c1c(O[C@@H]2O[C@@H](CO)[C@H](O)[C@@H](O)[C@H]2O)c(-c2ccc(O)c(O)c2)oc2cc(O)cc(O)c12
REMARK SMILES IDX 4 1 3 2 16 3 25 4 2 5 26 6 1 7 33 8 27 9 31 10 28 11 30 12
REMARK SMILES IDX 17 13 18 14 19 15 20 16 24 17 22 18 21 19 23 21 32 23 29 25
REMARK SMILES IDX 5 27 14 28 6 29 12 30 7 31 10 32 15 33 13 35 8 37 9 38 11 40
REMARK H PARENT 21 20 23 22 32 24 29 26 15 34 13 36 9 39 11 41
REMARK Flexibility Score: inf
ROOT
ATOM      1  O   UNL     1     -13.443  37.103  -4.163  1.00  0.00    -0.454 OA
ENDROOT
BRANCH   1   2
ATOM      2  C   UNL     1     -13.519  38.507  -4.127  1.00  0.00     0.214 A 
ATOM      3  C   UNL     1     -14.401  39.109  -3.208  1.00  0.00     0.180 A 
ATOM      4  O   UNL     1     -14.443  40.433  -3.090  1.00  0.00    -0.452 OA
ATOM      5  C   UNL     1     -12.724  39.343  -4.941  1.00  0.00     0.239 A 
ATOM      6  C   UNL     1     -13.712  41.254  -3.831  1.00  0.00     0.146 A 
ATOM      7  O   UNL     1     -11.913  38.841  -5.764  1.00  0.00    -0.285 OA
ATOM      8  C   UNL     1     -12.822  40.745  -4.805  1.00  0.00     0.111 A 
ATOM      9  C   UNL     1     -13.838  42.634  -3.645  1.00  0.00     0.094 A 
ATOM     10  C   UNL     1     -12.067  41.652  -5.590  1.00  0.00     0.134 A 
ATOM     11  C   UNL     1     -13.092  43.523  -4.423  1.00  0.00     0.123 A 
ATOM     12  C   UNL     1     -12.213  43.031  -5.390  1.00  0.00     0.093 A 
BRANCH   3  13
ATOM     13  C   UNL     1     -15.305  38.303  -2.359  1.00  0.00     0.025 A 
ATOM     14  C   UNL     1     -16.545  37.852  -2.846  1.00  0.00     0.016 A 
ATOM     15  C   UNL     1     -17.400  37.113  -2.025  1.00  0.00     0.051 A 
ATOM     16  C   UNL     1     -17.038  36.828  -0.702  1.00  0.00     0.157 A 
ATOM     17  C   UNL     1     -14.957  38.036  -1.025  1.00  0.00     0.062 A 
ATOM     18  C   UNL     1     -15.812  37.296  -0.199  1.00  0.00     0.158 A 
BRANCH  16  19
ATOM     19  O   UNL     1     -17.892  36.088   0.115  1.00  0.00    -0.504 OA
ATOM     20  H   UNL     1     -18.874  35.974  -0.109  1.00  0.00     0.293 HD
ENDBRANCH  16  19
BRANCH  18  21
ATOM     21  O   UNL     1     -15.426  37.038   1.116  1.00  0.00    -0.504 OA
ATOM     22  H   UNL     1     -15.962  36.428   1.723  1.00  0.00     0.293 HD
ENDBRANCH  18  21
ENDBRANCH   3  13
BRANCH  10  23
ATOM     23  O   UNL     1     -11.179  41.195  -6.564  1.00  0.00    -0.507 OA
ATOM     24  H   UNL     1     -11.089  40.211  -6.785  1.00  0.00     0.293 HD
ENDBRANCH  10  23
BRANCH  11  25
ATOM     25  O   UNL     1     -13.217  44.899  -4.245  1.00  0.00    -0.508 OA
ATOM     26  H   UNL     1     -13.740  45.287  -3.469  1.00  0.00     0.293 HD
ENDBRANCH  11  25
ENDBRANCH   1   2
BRANCH   1  27
ATOM     27  C   UNL     1     -12.725  36.277  -3.247  1.00  0.00     0.339 C 
ATOM     28  C   UNL     1     -13.388  34.874  -3.232  1.00  0.00     0.214 C 
ATOM     29  O   UNL     1     -11.339  36.299  -3.590  1.00  0.00    -0.332 OA
ATOM     30  C   UNL     1     -12.541  33.858  -2.429  1.00  0.00     0.180 C 
ATOM     31  C   UNL     1     -10.762  35.026  -3.836  1.00  0.00     0.179 C 
ATOM     32  C   UNL     1     -11.017  34.078  -2.640  1.00  0.00     0.177 C 
BRANCH  28  33
ATOM     33  O   UNL     1     -14.715  34.924  -2.766  1.00  0.00    -0.384 OA
ATOM     34  H   UNL     1     -14.755  34.450  -1.895  1.00  0.00     0.211 HD
ENDBRANCH  28  33
BRANCH  30  35
ATOM     35  O   UNL     1     -12.854  33.881  -1.058  1.00  0.00    -0.387 OA
ATOM     36  H   UNL     1     -13.000  34.827  -0.795  1.00  0.00     0.211 HD
ENDBRANCH  30  35
BRANCH  31  37
ATOM     37  C   UNL     1      -9.259  35.236  -4.089  1.00  0.00     0.191 C 
BRANCH  37  38
ATOM     38  O   UNL     1      -9.038  36.194  -5.090  1.00  0.00    -0.394 OA
ATOM     39  H   UNL     1      -9.699  36.015  -5.808  1.00  0.00     0.210 HD
ENDBRANCH  37  38
ENDBRANCH  31  37
BRANCH  32  40
ATOM     40  O   UNL     1     -10.382  32.842  -2.849  1.00  0.00    -0.387 OA
ATOM     41  H   UNL     1      -9.453  32.945  -2.510  1.00  0.00     0.211 HD
ENDBRANCH  32  40
ENDBRANCH   1  27
TORSDOF 12
ENDMDL
MODEL 8
REMARK VINA RESULT:    -6.761      1.434      2.388
REMARK INTER + INTRA:         -10.939
REMARK INTER:                  -9.869
REMARK INTRA:                  -1.071
REMARK UNBOUND:                -1.016
REMARK SMILES O=c1c(O[C@@H]2O[C@@H](CO)[C@H](O)[C@@H](O)[C@H]2O)c(-c2ccc(O)c(O)c2)oc2cc(O)cc(O)c12
REMARK SMILES IDX 4 1 3 2 16 3 25 4 2 5 26 6 1 7 33 8 27 9 31 10 28 11 30 12
REMARK SMILES IDX 17 13 18 14 19 15 20 16 24 17 22 18 21 19 23 21 32 23 29 25
REMARK SMILES IDX 5 27 14 28 6 29 12 30 7 31 10 32 15 33 13 35 8 37 9 38 11 40
REMARK H PARENT 21 20 23 22 32 24 29 26 15 34 13 36 9 39 11 41
REMARK Flexibility Score: inf
ROOT
ATOM      1  O   UNL     1     -15.071  35.094  -2.020  1.00  0.00    -0.454 OA
ENDROOT
BRANCH   1   2
ATOM      2  C   UNL     1     -14.152  35.928  -2.682  1.00  0.00     0.214 A 
ATOM      3  C   UNL     1     -14.548  37.241  -3.006  1.00  0.00     0.180 A 
ATOM      4  O   UNL     1     -13.682  38.083  -3.561  1.00  0.00    -0.452 OA
ATOM      5  C   UNL     1     -12.837  35.526  -3.001  1.00  0.00     0.239 A 
ATOM      6  C   UNL     1     -12.438  37.747  -3.874  1.00  0.00     0.146 A 
ATOM      7  O   UNL     1     -12.442  34.365  -2.713  1.00  0.00    -0.285 OA
ATOM      8  C   UNL     1     -11.958  36.442  -3.619  1.00  0.00     0.111 A 
ATOM      9  C   UNL     1     -11.606  38.699  -4.471  1.00  0.00     0.094 A 
ATOM     10  C   UNL     1     -10.628  36.113  -3.980  1.00  0.00     0.134 A 
ATOM     11  C   UNL     1     -10.295  38.369  -4.826  1.00  0.00     0.123 A 
ATOM     12  C   UNL     1      -9.812  37.082  -4.581  1.00  0.00     0.093 A 
BRANCH   3  13
ATOM     13  C   UNL     1     -15.924  37.721  -2.753  1.00  0.00     0.025 A 
ATOM     14  C   UNL     1     -17.023  37.156  -3.425  1.00  0.00     0.016 A 
ATOM     15  C   UNL     1     -18.315  37.636  -3.195  1.00  0.00     0.051 A 
ATOM     16  C   UNL     1     -18.526  38.696  -2.305  1.00  0.00     0.157 A 
ATOM     17  C   UNL     1     -16.138  38.799  -1.880  1.00  0.00     0.062 A 
ATOM     18  C   UNL     1     -17.431  39.284  -1.648  1.00  0.00     0.158 A 
BRANCH  16  19
ATOM     19  O   UNL     1     -19.816  39.172  -2.075  1.00  0.00    -0.504 OA
ATOM     20  H   UNL     1     -20.396  38.798  -1.332  1.00  0.00     0.293 HD
ENDBRANCH  16  19
BRANCH  18  21
ATOM     21  O   UNL     1     -17.607  40.347  -0.763  1.00  0.00    -0.504 OA
ATOM     22  H   UNL     1     -17.368  40.273   0.220  1.00  0.00     0.293 HD
ENDBRANCH  18  21
ENDBRANCH   3  13
BRANCH  10  23
ATOM     23  O   UNL     1     -10.113  34.837  -3.749  1.00  0.00    -0.507 OA
ATOM     24  H   UNL     1     -10.559  34.190  -3.111  1.00  0.00     0.293 HD
ENDBRANCH  10  23
BRANCH  11  25
ATOM     25  O   UNL     1      -9.463  39.311  -5.426  1.00  0.00    -0.508 OA
ATOM     26  H   UNL     1      -9.592  40.305  -5.273  1.00  0.00     0.293 HD
ENDBRANCH  11  25
ENDBRANCH   1   2
BRANCH   1  27
ATOM     27  C   UNL     1     -15.189  34.929  -0.607  1.00  0.00     0.339 C 
ATOM     28  C   UNL     1     -13.918  34.203  -0.093  1.00  0.00     0.214 C 
ATOM     29  O   UNL     1     -15.456  36.199  -0.012  1.00  0.00    -0.332 OA
ATOM     30  C   UNL     1     -13.870  34.179   1.454  1.00  0.00     0.180 C 
ATOM     31  C   UNL     1     -14.534  36.598   0.990  1.00  0.00     0.179 C 
ATOM     32  C   UNL     1     -14.405  35.500   2.073  1.00  0.00     0.177 C 
BRANCH  28  33
ATOM     33  O   UNL     1     -13.795  32.910  -0.635  1.00  0.00    -0.384 OA
ATOM     34  H   UNL     1     -13.136  32.947  -1.376  1.00  0.00     0.211 HD
ENDBRANCH  28  33
BRANCH  30  35
ATOM     35  O   UNL     1     -14.560  33.074   1.984  1.00  0.00    -0.387 OA
ATOM     36  H   UNL     1     -15.520  33.176   1.751  1.00  0.00     0.211 HD
ENDBRANCH  30  35
BRANCH  31  37
ATOM     37  C   UNL     1     -15.031  37.929   1.581  1.00  0.00     0.191 C 
BRANCH  37  38
ATOM     38  O   UNL     1     -15.793  37.720   2.739  1.00  0.00    -0.394 OA
ATOM     39  H   UNL     1     -16.129  36.788   2.698  1.00  0.00     0.210 HD
ENDBRANCH  37  38
ENDBRANCH  31  37
BRANCH  32  40
ATOM     40  O   UNL     1     -13.550  35.925   3.103  1.00  0.00    -0.387 OA
ATOM     41  H   UNL     1     -13.904  36.798   3.418  1.00  0.00     0.211 HD
ENDBRANCH  32  40
ENDBRANCH   1  27
TORSDOF 12
ENDMDL
MODEL 9
REMARK VINA RESULT:    -6.693      2.741      5.730
REMARK INTER + INTRA:         -10.839
REMARK INTER:                  -9.669
REMARK INTRA:                  -1.170
REMARK UNBOUND:                -1.016
REMARK SMILES O=c1c(O[C@@H]2O[C@@H](CO)[C@H](O)[C@@H](O)[C@H]2O)c(-c2ccc(O)c(O)c2)oc2cc(O)cc(O)c12
REMARK SMILES IDX 4 1 3 2 16 3 25 4 2 5 26 6 1 7 33 8 27 9 31 10 28 11 30 12
REMARK SMILES IDX 17 13 18 14 19 15 20 16 24 17 22 18 21 19 23 21 32 23 29 25
REMARK SMILES IDX 5 27 14 28 6 29 12 30 7 31 10 32 15 33 13 35 8 37 9 38 11 40
REMARK H PARENT 21 20 23 22 32 24 29 26 15 34 13 36 9 39 11 41
REMARK Flexibility Score: inf
ROOT
ATOM      1  O   UNL     1     -15.442  35.394  -2.043  1.00  0.00    -0.454 OA
ENDROOT
BRANCH   1   2
ATOM      2  C   UNL     1     -14.302  35.283  -1.226  1.00  0.00     0.214 A 
ATOM      3  C   UNL     1     -14.415  35.632   0.135  1.00  0.00     0.180 A 
ATOM      4  O   UNL     1     -13.382  35.467   0.955  1.00  0.00    -0.452 OA
ATOM      5  C   UNL     1     -13.062  34.801  -1.695  1.00  0.00     0.239 A 
ATOM      6  C   UNL     1     -12.200  35.015   0.556  1.00  0.00     0.146 A 
ATOM      7  O   UNL     1     -12.928  34.465  -2.902  1.00  0.00    -0.285 OA
ATOM      8  C   UNL     1     -11.980  34.670  -0.797  1.00  0.00     0.111 A 
ATOM      9  C   UNL     1     -11.168  34.891   1.492  1.00  0.00     0.094 A 
ATOM     10  C   UNL     1     -10.701  34.204  -1.191  1.00  0.00     0.134 A 
ATOM     11  C   UNL     1      -9.908  34.432   1.097  1.00  0.00     0.123 A 
ATOM     12  C   UNL     1      -9.680  34.092  -0.237  1.00  0.00     0.093 A 
BRANCH   3  13
ATOM     13  C   UNL     1     -15.664  36.195   0.690  1.00  0.00     0.025 A 
ATOM     14  C   UNL     1     -15.782  37.569   0.964  1.00  0.00     0.016 A 
ATOM     15  C   UNL     1     -16.959  38.084   1.512  1.00  0.00     0.051 A 
ATOM     16  C   UNL     1     -18.030  37.231   1.810  1.00  0.00     0.157 A 
ATOM     17  C   UNL     1     -16.731  35.341   1.013  1.00  0.00     0.062 A 
ATOM     18  C   UNL     1     -17.913  35.853   1.564  1.00  0.00     0.158 A 
BRANCH  16  19
ATOM     19  O   UNL     1     -19.205  37.747   2.356  1.00  0.00    -0.504 OA
ATOM     20  H   UNL     1     -19.237  38.672   2.770  1.00  0.00     0.293 HD
ENDBRANCH  16  19
BRANCH  18  21
ATOM     21  O   UNL     1     -18.957  34.977   1.858  1.00  0.00    -0.504 OA
ATOM     22  H   UNL     1     -19.718  35.236   2.477  1.00  0.00     0.293 HD
ENDBRANCH  18  21
ENDBRANCH   3  13
BRANCH  10  23
ATOM     23  O   UNL     1     -10.438  33.855  -2.515  1.00  0.00    -0.507 OA
ATOM     24  H   UNL     1     -11.057  33.250  -3.041  1.00  0.00     0.293 HD
ENDBRANCH  10  23
BRANCH  11  25
ATOM     25  O   UNL     1      -8.875  34.311   2.023  1.00  0.00    -0.508 OA
ATOM     26  H   UNL     1      -9.055  34.058   2.988  1.00  0.00     0.293 HD
ENDBRANCH  11  25
ENDBRANCH   1   2
BRANCH   1  27
ATOM     27  C   UNL     1     -15.858  36.562  -2.750  1.00  0.00     0.339 C 
ATOM     28  C   UNL     1     -17.356  36.815  -2.436  1.00  0.00     0.214 C 
ATOM     29  O   UNL     1     -14.972  37.636  -2.433  1.00  0.00    -0.332 OA
ATOM     30  C   UNL     1     -17.825  38.182  -2.990  1.00  0.00     0.180 C 
ATOM     31  C   UNL     1     -15.599  38.795  -1.905  1.00  0.00     0.179 C 
ATOM     32  C   UNL     1     -16.728  39.274  -2.848  1.00  0.00     0.177 C 
BRANCH  28  33
ATOM     33  O   UNL     1     -18.174  35.764  -2.890  1.00  0.00    -0.384 OA
ATOM     34  H   UNL     1     -17.627  34.937  -2.921  1.00  0.00     0.211 HD
ENDBRANCH  28  33
BRANCH  30  35
ATOM     35  O   UNL     1     -18.253  38.088  -4.327  1.00  0.00    -0.387 OA
ATOM     36  H   UNL     1     -17.773  37.326  -4.746  1.00  0.00     0.211 HD
ENDBRANCH  30  35
BRANCH  31  37
ATOM     37  C   UNL     1     -14.514  39.870  -1.719  1.00  0.00     0.191 C 
BRANCH  37  38
ATOM     38  O   UNL     1     -14.642  40.894  -2.668  1.00  0.00    -0.394 OA
ATOM     39  H   UNL     1     -15.399  41.464  -2.374  1.00  0.00     0.210 HD
ENDBRANCH  37  38
ENDBRANCH  31  37
BRANCH  32  40
ATOM     40  O   UNL     1     -17.299  40.463  -2.364  1.00  0.00    -0.387 OA
ATOM     41  H   UNL     1     -16.570  41.137  -2.350  1.00  0.00     0.211 HD
ENDBRANCH  32  40
ENDBRANCH   1  27
TORSDOF 12
ENDMDL
