MODEL 1
REMARK VINA RESULT:    -1.319      0.000      0.000
REMARK INTER + INTRA:          -2.524
REMARK INTER:                  -2.243
REMARK INTRA:                  -0.280
REMARK UNBOUND:                -0.280
REMARK SMILES CCCCCCCCCCCCCC(=O)[O-]
REMARK SMILES IDX 8 1 9 2 10 3 11 4 12 5 13 6 14 7 15 8 16 9 7 10 6 11 5 12
REMARK SMILES IDX 4 13 3 14 2 15 1 16
REMARK H PARENT
REMARK Flexibility Score: inf
ROOT
ATOM      1  C   UNL     1       0.182 -30.773  -2.512  1.00  0.00     0.000 C 
ENDROOT
BRANCH   1   2
ATOM      2  C   UNL     1       1.306 -31.195  -3.484  1.00  0.00     0.000 C 
BRANCH   2   3
ATOM      3  C   UNL     1       0.837 -31.336  -4.942  1.00  0.00     0.000 C 
BRANCH   3   4
ATOM      4  C   UNL     1       1.823 -32.125  -5.815  1.00  0.00     0.000 C 
BRANCH   4   5
ATOM      5  C   UNL     1       1.391 -32.108  -7.285  1.00  0.00     0.006 C 
BRANCH   5   6
ATOM      6  C   UNL     1       2.261 -31.149  -8.102  1.00  0.00     0.053 C 
BRANCH   6   7
ATOM      7  C   UNL     1       3.627 -31.040  -7.502  1.00  0.00     0.041 C 
ATOM      8  O   UNL     1       3.835 -30.256  -6.539  1.00  0.00    -0.550 OA
ATOM      9  O   UNL     1       4.660 -31.841  -7.974  1.00  0.00    -0.550 OA
ENDBRANCH   6   7
ENDBRANCH   5   6
ENDBRANCH   4   5
ENDBRANCH   3   4
ENDBRANCH   2   3
ENDBRANCH   1   2
BRANCH   1  10
ATOM     10  C   UNL     1      -1.202 -30.787  -3.185  1.00  0.00     0.000 C 
BRANCH  10  11
ATOM     11  C   UNL     1      -2.015 -32.048  -2.849  1.00  0.00    -0.000 C 
BRANCH  11  12
ATOM     12  C   UNL     1      -3.341 -32.122  -3.626  1.00  0.00    -0.000 C 
BRANCH  12  13
ATOM     13  C   UNL     1      -3.601 -30.874  -4.489  1.00  0.00    -0.000 C 
BRANCH  13  14
ATOM     14  C   UNL     1      -3.422 -31.076  -6.005  1.00  0.00    -0.000 C 
BRANCH  14  15
ATOM     15  C   UNL     1      -4.755 -31.134  -6.764  1.00  0.00    -0.003 C 
ATOM     16  C   UNL     1      -4.647 -30.443  -8.120  1.00  0.00     0.004 C 
ENDBRANCH  14  15
ENDBRANCH  13  14
ENDBRANCH  12  13
ENDBRANCH  11  12
ENDBRANCH  10  11
ENDBRANCH   1  10
TORSDOF 12
ENDMDL
MODEL 2
REMARK VINA RESULT:     0.073      1.340      1.949
REMARK INTER + INTRA:          -0.156
REMARK INTER:                   0.134
REMARK INTRA:                  -0.290
REMARK UNBOUND:                -0.280
REMARK SMILES CCCCCCCCCCCCCC(=O)[O-]
REMARK SMILES IDX 8 1 9 2 10 3 11 4 12 5 13 6 14 7 15 8 16 9 7 10 6 11 5 12
REMARK SMILES IDX 4 13 3 14 2 15 1 16
REMARK H PARENT
REMARK Flexibility Score: inf
ROOT
ATOM      1  C   UNL     1      -0.831 -31.815  -4.278  1.00  0.00     0.000 C 
ENDROOT
BRANCH   1   2
ATOM      2  C   UNL     1      -1.383 -31.671  -5.714  1.00  0.00     0.000 C 
BRANCH   2   3
ATOM      3  C   UNL     1      -0.394 -32.125  -6.801  1.00  0.00     0.000 C 
BRANCH   3   4
ATOM      4  C   UNL     1       1.070 -32.055  -6.345  1.00  0.00     0.000 C 
BRANCH   4   5
ATOM      5  C   UNL     1       2.023 -32.115  -7.544  1.00  0.00     0.006 C 
BRANCH   5   6
ATOM      6  C   UNL     1       2.522 -30.716  -7.919  1.00  0.00     0.053 C 
BRANCH   6   7
ATOM      7  C   UNL     1       2.916 -29.954  -6.694  1.00  0.00     0.041 C 
ATOM      8  O   UNL     1       3.944 -30.284  -6.046  1.00  0.00    -0.550 OA
ATOM      9  O   UNL     1       2.175 -28.849  -6.294  1.00  0.00    -0.550 OA
ENDBRANCH   6   7
ENDBRANCH   5   6
ENDBRANCH   4   5
ENDBRANCH   3   4
ENDBRANCH   2   3
ENDBRANCH   1   2
BRANCH   1  10
ATOM     10  C   UNL     1      -1.856 -31.377  -3.217  1.00  0.00     0.000 C 
BRANCH  10  11
ATOM     11  C   UNL     1      -3.170 -30.869  -3.831  1.00  0.00    -0.000 C 
BRANCH  11  12
ATOM     12  C   UNL     1      -4.171 -32.004  -4.110  1.00  0.00    -0.000 C 
BRANCH  12  13
ATOM     13  C   UNL     1      -4.704 -31.992  -5.554  1.00  0.00    -0.000 C 
BRANCH  13  14
ATOM     14  C   UNL     1      -4.686 -30.617  -6.247  1.00  0.00    -0.000 C 
BRANCH  14  15
ATOM     15  C   UNL     1      -4.466 -30.711  -7.763  1.00  0.00    -0.003 C 
ATOM     16  C   UNL     1      -3.519 -31.855  -8.112  1.00  0.00     0.004 C 
ENDBRANCH  14  15
ENDBRANCH  13  14
ENDBRANCH  12  13
ENDBRANCH  11  12
ENDBRANCH  10  11
ENDBRANCH   1  10
TORSDOF 12
ENDMDL
MODEL 3
REMARK VINA RESULT:     0.216      1.384      2.074
REMARK INTER + INTRA:           0.088
REMARK INTER:                   0.028
REMARK INTRA:                   0.060
REMARK UNBOUND:                -0.280
REMARK SMILES CCCCCCCCCCCCCC(=O)[O-]
REMARK SMILES IDX 8 1 9 2 10 3 11 4 12 5 13 6 14 7 15 8 16 9 7 10 6 11 5 12
REMARK SMILES IDX 4 13 3 14 2 15 1 16
REMARK H PARENT
REMARK Flexibility Score: inf
ROOT
ATOM      1  C   UNL     1       1.582 -31.523  -3.890  1.00  0.00     0.000 C 
ENDROOT
BRANCH   1   2
ATOM      2  C   UNL     1       2.385 -31.935  -5.143  1.00  0.00     0.000 C 
BRANCH   2   3
ATOM      3  C   UNL     1       1.514 -32.125  -6.396  1.00  0.00     0.000 C 
BRANCH   3   4
ATOM      4  C   UNL     1       2.324 -32.086  -7.700  1.00  0.00     0.000 C 
BRANCH   4   5
ATOM      5  C   UNL     1       3.504 -31.115  -7.585  1.00  0.00     0.006 C 
BRANCH   5   6
ATOM      6  C   UNL     1       3.130 -29.730  -8.122  1.00  0.00     0.053 C 
BRANCH   6   7
ATOM      7  C   UNL     1       2.801 -28.803  -6.994  1.00  0.00     0.041 C 
ATOM      8  O   UNL     1       2.988 -29.163  -5.803  1.00  0.00    -0.550 OA
ATOM      9  O   UNL     1       2.335 -27.522  -7.261  1.00  0.00    -0.550 OA
ENDBRANCH   6   7
ENDBRANCH   5   6
ENDBRANCH   4   5
ENDBRANCH   3   4
ENDBRANCH   2   3
ENDBRANCH   1   2
BRANCH   1  10
ATOM     10  C   UNL     1       0.248 -30.846  -4.252  1.00  0.00     0.000 C 
BRANCH  10  11
ATOM     11  C   UNL     1      -0.878 -31.856  -4.522  1.00  0.00    -0.000 C 
BRANCH  11  12
ATOM     12  C   UNL     1      -2.022 -31.754  -3.499  1.00  0.00    -0.000 C 
BRANCH  12  13
ATOM     13  C   UNL     1      -3.313 -31.167  -4.099  1.00  0.00    -0.000 C 
BRANCH  13  14
ATOM     14  C   UNL     1      -3.492 -31.391  -5.612  1.00  0.00    -0.000 C 
BRANCH  14  15
ATOM     15  C   UNL     1      -4.341 -30.303  -6.284  1.00  0.00    -0.003 C 
ATOM     16  C   UNL     1      -5.084 -30.855  -7.497  1.00  0.00     0.004 C 
ENDBRANCH  14  15
ENDBRANCH  13  14
ENDBRANCH  12  13
ENDBRANCH  11  12
ENDBRANCH  10  11
ENDBRANCH   1  10
TORSDOF 12
ENDMDL
MODEL 4
REMARK VINA RESULT:     0.501     12.781     14.078
REMARK INTER + INTRA:           0.572
REMARK INTER:                   1.033
REMARK INTRA:                  -0.461
REMARK UNBOUND:                -0.280
REMARK SMILES CCCCCCCCCCCCCC(=O)[O-]
REMARK SMILES IDX 8 1 9 2 10 3 11 4 12 5 13 6 14 7 15 8 16 9 7 10 6 11 5 12
REMARK SMILES IDX 4 13 3 14 2 15 1 16
REMARK H PARENT
REMARK Flexibility Score: inf
ROOT
ATOM      1  C   UNL     1      -4.997 -18.941  -5.600  1.00  0.00     0.000 C 
ENDROOT
BRANCH   1   2
ATOM      2  C   UNL     1      -5.120 -19.867  -6.830  1.00  0.00     0.000 C 
BRANCH   2   3
ATOM      3  C   UNL     1      -4.033 -20.953  -6.892  1.00  0.00     0.000 C 
BRANCH   3   4
ATOM      4  C   UNL     1      -3.850 -21.696  -5.562  1.00  0.00     0.000 C 
BRANCH   4   5
ATOM      5  C   UNL     1      -2.570 -21.243  -4.850  1.00  0.00     0.006 C 
BRANCH   5   6
ATOM      6  C   UNL     1      -1.404 -21.131  -5.837  1.00  0.00     0.053 C 
BRANCH   6   7
ATOM      7  C   UNL     1      -0.852 -22.485  -6.152  1.00  0.00     0.041 C 
ATOM      8  O   UNL     1      -1.165 -23.477  -5.443  1.00  0.00    -0.550 OA
ATOM      9  O   UNL     1      -0.030 -22.661  -7.258  1.00  0.00    -0.550 OA
ENDBRANCH   6   7
ENDBRANCH   5   6
ENDBRANCH   4   5
ENDBRANCH   3   4
ENDBRANCH   2   3
ENDBRANCH   1   2
BRANCH   1  10
ATOM     10  C   UNL     1      -4.374 -17.579  -5.960  1.00  0.00     0.000 C 
BRANCH  10  11
ATOM     11  C   UNL     1      -5.122 -16.865  -7.096  1.00  0.00    -0.000 C 
BRANCH  11  12
ATOM     12  C   UNL     1      -5.098 -15.333  -6.949  1.00  0.00    -0.000 C 
BRANCH  12  13
ATOM     13  C   UNL     1      -4.393 -14.630  -8.123  1.00  0.00    -0.000 C 
BRANCH  13  14
ATOM     14  C   UNL     1      -2.958 -14.151  -7.833  1.00  0.00    -0.000 C 
BRANCH  14  15
ATOM     15  C   UNL     1      -2.794 -12.631  -7.963  1.00  0.00    -0.003 C 
ATOM     16  C   UNL     1      -1.326 -12.225  -7.868  1.00  0.00     0.004 C 
ENDBRANCH  14  15
ENDBRANCH  13  14
ENDBRANCH  12  13
ENDBRANCH  11  12
ENDBRANCH  10  11
ENDBRANCH   1  10
TORSDOF 12
ENDMDL
MODEL 5
REMARK VINA RESULT:     1.476      3.118      6.378
REMARK INTER + INTRA:           2.232
REMARK INTER:                   1.001
REMARK INTRA:                   1.231
REMARK UNBOUND:                -0.280
REMARK SMILES CCCCCCCCCCCCCC(=O)[O-]
REMARK SMILES IDX 8 1 9 2 10 3 11 4 12 5 13 6 14 7 15 8 16 9 7 10 6 11 5 12
REMARK SMILES IDX 4 13 3 14 2 15 1 16
REMARK H PARENT
REMARK Flexibility Score: inf
ROOT
ATOM      1  C   UNL     1      -0.931 -30.762  -3.547  1.00  0.00     0.000 C 
ENDROOT
BRANCH   1   2
ATOM      2  C   UNL     1      -1.610 -32.120  -3.829  1.00  0.00     0.000 C 
BRANCH   2   3
ATOM      3  C   UNL     1      -2.505 -32.112  -5.080  1.00  0.00     0.000 C 
BRANCH   3   4
ATOM      4  C   UNL     1      -3.921 -31.590  -4.800  1.00  0.00     0.000 C 
BRANCH   4   5
ATOM      5  C   UNL     1      -4.919 -32.125  -5.833  1.00  0.00     0.006 C 
BRANCH   5   6
ATOM      6  C   UNL     1      -4.793 -31.370  -7.160  1.00  0.00     0.053 C 
BRANCH   6   7
ATOM      7  C   UNL     1      -4.414 -29.943  -6.918  1.00  0.00     0.041 C 
ATOM      8  O   UNL     1      -3.899 -29.259  -7.840  1.00  0.00    -0.550 OA
ATOM      9  O   UNL     1      -4.675 -29.354  -5.687  1.00  0.00    -0.550 OA
ENDBRANCH   6   7
ENDBRANCH   5   6
ENDBRANCH   4   5
ENDBRANCH   3   4
ENDBRANCH   2   3
ENDBRANCH   1   2
BRANCH   1  10
ATOM     10  C   UNL     1       0.603 -30.877  -3.513  1.00  0.00     0.000 C 
BRANCH  10  11
ATOM     11  C   UNL     1       1.150 -31.863  -4.558  1.00  0.00    -0.000 C 
BRANCH  11  12
ATOM     12  C   UNL     1       0.489 -31.691  -5.936  1.00  0.00    -0.000 C 
BRANCH  12  13
ATOM     13  C   UNL     1       1.410 -32.106  -7.098  1.00  0.00    -0.000 C 
BRANCH  13  14
ATOM     14  C   UNL     1       2.457 -31.055  -7.512  1.00  0.00    -0.000 C 
BRANCH  14  15
ATOM     15  C   UNL     1       3.801 -31.231  -6.792  1.00  0.00    -0.003 C 
ATOM     16  C   UNL     1       4.956 -31.291  -7.788  1.00  0.00     0.004 C 
ENDBRANCH  14  15
ENDBRANCH  13  14
ENDBRANCH  12  13
ENDBRANCH  11  12
ENDBRANCH  10  11
ENDBRANCH   1  10
TORSDOF 12
ENDMDL
