MODEL 1
REMARK VINA RESULT:    -4.574      0.000      0.000
REMARK INTER + INTRA:         -14.840
REMARK INTER:                 -11.525
REMARK INTRA:                  -3.315
REMARK UNBOUND:                -3.315
REMARK SMILES CCCCCCCCCCCCCCCCCCCCCCCCCCCC(=O)[O-]
REMARK SMILES IDX 15 1 16 2 17 3 18 4 19 5 20 6 21 7 22 8 23 9 24 10 25 11
REMARK SMILES IDX 26 12 27 13 28 14 29 15 30 16 14 17 13 18 12 19 11 20 10 21
REMARK SMILES IDX 9 22 8 23 7 24 6 25 5 26 4 27 3 28 2 29 1 30
REMARK H PARENT
REMARK Flexibility Score: inf
ROOT
ATOM      1  C   UNL     1     164.290 176.153 186.787  1.00  0.00     0.000 C 
ENDROOT
BRANCH   1   2
ATOM      2  C   UNL     1     164.732 177.607 186.547  1.00  0.00     0.000 C 
BRANCH   2   3
ATOM      3  C   UNL     1     166.186 177.868 186.978  1.00  0.00     0.000 C 
BRANCH   3   4
ATOM      4  C   UNL     1     166.980 176.564 187.162  1.00  0.00     0.000 C 
BRANCH   4   5
ATOM      5  C   UNL     1     168.414 176.828 187.656  1.00  0.00     0.000 C 
BRANCH   5   6
ATOM      6  C   UNL     1     168.534 178.131 188.460  1.00  0.00     0.000 C 
BRANCH   6   7
ATOM      7  C   UNL     1     169.652 179.048 187.931  1.00  0.00     0.000 C 
BRANCH   7   8
ATOM      8  C   UNL     1     170.357 178.461 186.697  1.00  0.00     0.000 C 
BRANCH   8   9
ATOM      9  C   UNL     1     171.610 179.258 186.289  1.00  0.00     0.000 C 
BRANCH   9  10
ATOM     10  C   UNL     1     172.229 180.022 187.480  1.00  0.00     0.000 C 
BRANCH  10  11
ATOM     11  C   UNL     1     173.647 179.547 187.856  1.00  0.00     0.000 C 
BRANCH  11  12
ATOM     12  C   UNL     1     174.524 179.126 186.663  1.00  0.00     0.006 C 
BRANCH  12  13
ATOM     13  C   UNL     1     175.101 177.712 186.816  1.00  0.00     0.053 C 
BRANCH  13  14
ATOM     14  C   UNL     1     176.165 177.470 185.791  1.00  0.00     0.041 C 
ATOM     15  O   UNL     1     176.172 178.123 184.715  1.00  0.00    -0.550 OA
ATOM     16  O   UNL     1     177.178 176.554 186.045  1.00  0.00    -0.550 OA
ENDBRANCH  13  14
ENDBRANCH  12  13
ENDBRANCH  11  12
ENDBRANCH  10  11
ENDBRANCH   9  10
ENDBRANCH   8   9
ENDBRANCH   7   8
ENDBRANCH   6   7
ENDBRANCH   5   6
ENDBRANCH   4   5
ENDBRANCH   3   4
ENDBRANCH   2   3
ENDBRANCH   1   2
BRANCH   1  17
ATOM     17  C   UNL     1     163.217 175.975 187.877  1.00  0.00     0.000 C 
BRANCH  17  18
ATOM     18  C   UNL     1     162.511 177.294 188.247  1.00  0.00     0.000 C 
BRANCH  18  19
ATOM     19  C   UNL     1     161.071 177.369 187.703  1.00  0.00     0.000 C 
BRANCH  19  20
ATOM     20  C   UNL     1     160.915 178.263 186.455  1.00  0.00     0.000 C 
BRANCH  20  21
ATOM     21  C   UNL     1     161.192 177.540 185.122  1.00  0.00     0.000 C 
BRANCH  21  22
ATOM     22  C   UNL     1     160.607 176.116 185.083  1.00  0.00    -0.000 C 
BRANCH  22  23
ATOM     23  C   UNL     1     161.646 175.080 184.617  1.00  0.00    -0.000 C 
BRANCH  23  24
ATOM     24  C   UNL     1     161.343 173.672 185.159  1.00  0.00    -0.000 C 
BRANCH  24  25
ATOM     25  C   UNL     1     160.144 173.662 186.121  1.00  0.00    -0.000 C 
BRANCH  25  26
ATOM     26  C   UNL     1     160.559 173.251 187.546  1.00  0.00    -0.000 C 
BRANCH  26  27
ATOM     27  C   UNL     1     162.012 172.753 187.625  1.00  0.00    -0.000 C 
BRANCH  27  28
ATOM     28  C   UNL     1     162.103 171.240 187.883  1.00  0.00    -0.000 C 
BRANCH  28  29
ATOM     29  C   UNL     1     160.721 170.583 188.035  1.00  0.00    -0.003 C 
ATOM     30  C   UNL     1     160.558 169.333 187.169  1.00  0.00     0.004 C 
ENDBRANCH  28  29
ENDBRANCH  27  28
ENDBRANCH  26  27
ENDBRANCH  25  26
ENDBRANCH  24  25
ENDBRANCH  23  24
ENDBRANCH  22  23
ENDBRANCH  21  22
ENDBRANCH  20  21
ENDBRANCH  19  20
ENDBRANCH  18  19
ENDBRANCH  17  18
ENDBRANCH   1  17
TORSDOF 26
ENDMDL
MODEL 2
REMARK VINA RESULT:    -4.531      4.711     11.825
REMARK INTER + INTRA:         -14.733
REMARK INTER:                 -11.518
REMARK INTRA:                  -3.215
REMARK UNBOUND:                -3.315
REMARK SMILES CCCCCCCCCCCCCCCCCCCCCCCCCCCC(=O)[O-]
REMARK SMILES IDX 15 1 16 2 17 3 18 4 19 5 20 6 21 7 22 8 23 9 24 10 25 11
REMARK SMILES IDX 26 12 27 13 28 14 29 15 30 16 14 17 13 18 12 19 11 20 10 21
REMARK SMILES IDX 9 22 8 23 7 24 6 25 5 26 4 27 3 28 2 29 1 30
REMARK H PARENT
REMARK Flexibility Score: inf
ROOT
ATOM      1  C   UNL     1     164.435 175.808 187.085  1.00  0.00     0.000 C 
ENDROOT
BRANCH   1   2
ATOM      2  C   UNL     1     163.153 175.824 187.937  1.00  0.00     0.000 C 
BRANCH   2   3
ATOM      3  C   UNL     1     162.589 177.242 188.138  1.00  0.00     0.000 C 
BRANCH   3   4
ATOM      4  C   UNL     1     161.070 177.302 187.907  1.00  0.00     0.000 C 
BRANCH   4   5
ATOM      5  C   UNL     1     160.696 178.292 186.789  1.00  0.00     0.000 C 
BRANCH   5   6
ATOM      6  C   UNL     1     161.242 177.870 185.416  1.00  0.00     0.000 C 
BRANCH   6   7
ATOM      7  C   UNL     1     160.625 176.550 184.919  1.00  0.00     0.000 C 
BRANCH   7   8
ATOM      8  C   UNL     1     161.693 175.514 184.529  1.00  0.00     0.000 C 
BRANCH   8   9
ATOM      9  C   UNL     1     161.522 174.174 185.267  1.00  0.00     0.000 C 
BRANCH   9  10
ATOM     10  C   UNL     1     160.235 174.137 186.120  1.00  0.00     0.000 C 
BRANCH  10  11
ATOM     11  C   UNL     1     160.423 173.486 187.505  1.00  0.00     0.000 C 
BRANCH  11  12
ATOM     12  C   UNL     1     161.500 172.387 187.561  1.00  0.00     0.006 C 
BRANCH  12  13
ATOM     13  C   UNL     1     160.971 171.063 188.130  1.00  0.00     0.053 C 
BRANCH  13  14
ATOM     14  C   UNL     1     160.679 170.100 187.020  1.00  0.00     0.041 C 
ATOM     15  O   UNL     1     160.664 168.861 187.241  1.00  0.00    -0.550 OA
ATOM     16  O   UNL     1     160.376 170.576 185.751  1.00  0.00    -0.550 OA
ENDBRANCH  13  14
ENDBRANCH  12  13
ENDBRANCH  11  12
ENDBRANCH  10  11
ENDBRANCH   9  10
ENDBRANCH   8   9
ENDBRANCH   7   8
ENDBRANCH   6   7
ENDBRANCH   5   6
ENDBRANCH   4   5
ENDBRANCH   3   4
ENDBRANCH   2   3
ENDBRANCH   1   2
BRANCH   1  17
ATOM     17  C   UNL     1     164.678 177.085 186.259  1.00  0.00     0.000 C 
BRANCH  17  18
ATOM     18  C   UNL     1     165.671 178.054 186.929  1.00  0.00     0.000 C 
BRANCH  18  19
ATOM     19  C   UNL     1     166.981 177.362 187.354  1.00  0.00     0.000 C 
BRANCH  19  20
ATOM     20  C   UNL     1     167.901 176.981 186.175  1.00  0.00     0.000 C 
BRANCH  20  21
ATOM     21  C   UNL     1     168.175 178.133 185.189  1.00  0.00     0.000 C 
BRANCH  21  22
ATOM     22  C   UNL     1     169.677 178.351 184.928  1.00  0.00    -0.000 C 
BRANCH  22  23
ATOM     23  C   UNL     1     170.493 178.354 186.232  1.00  0.00    -0.000 C 
BRANCH  23  24
ATOM     24  C   UNL     1     170.880 179.778 186.671  1.00  0.00    -0.000 C 
BRANCH  24  25
ATOM     25  C   UNL     1     172.089 179.787 187.621  1.00  0.00    -0.000 C 
BRANCH  25  26
ATOM     26  C   UNL     1     173.421 179.753 186.849  1.00  0.00    -0.000 C 
BRANCH  26  27
ATOM     27  C   UNL     1     174.629 180.125 187.725  1.00  0.00    -0.000 C 
BRANCH  27  28
ATOM     28  C   UNL     1     175.395 178.889 188.228  1.00  0.00    -0.000 C 
BRANCH  28  29
ATOM     29  C   UNL     1     175.388 177.737 187.211  1.00  0.00    -0.003 C 
ATOM     30  C   UNL     1     176.786 177.389 186.696  1.00  0.00     0.004 C 
ENDBRANCH  28  29
ENDBRANCH  27  28
ENDBRANCH  26  27
ENDBRANCH  25  26
ENDBRANCH  24  25
ENDBRANCH  23  24
ENDBRANCH  22  23
ENDBRANCH  21  22
ENDBRANCH  20  21
ENDBRANCH  19  20
ENDBRANCH  18  19
ENDBRANCH  17  18
ENDBRANCH   1  17
TORSDOF 26
ENDMDL
MODEL 3
REMARK VINA RESULT:    -4.463      3.163      5.587
REMARK INTER + INTRA:         -14.562
REMARK INTER:                 -10.615
REMARK INTRA:                  -3.947
REMARK UNBOUND:                -3.315
REMARK SMILES CCCCCCCCCCCCCCCCCCCCCCCCCCCC(=O)[O-]
REMARK SMILES IDX 15 1 16 2 17 3 18 4 19 5 20 6 21 7 22 8 23 9 24 10 25 11
REMARK SMILES IDX 26 12 27 13 28 14 29 15 30 16 14 17 13 18 12 19 11 20 10 21
REMARK SMILES IDX 9 22 8 23 7 24 6 25 5 26 4 27 3 28 2 29 1 30
REMARK H PARENT
REMARK Flexibility Score: inf
ROOT
ATOM      1  C   UNL     1     160.081 177.874 184.566  1.00  0.00     0.000 C 
ENDROOT
BRANCH   1   2
ATOM      2  C   UNL     1     160.242 176.830 183.447  1.00  0.00     0.000 C 
BRANCH   2   3
ATOM      3  C   UNL     1     161.007 175.577 183.906  1.00  0.00     0.000 C 
BRANCH   3   4
ATOM      4  C   UNL     1     161.875 174.982 182.785  1.00  0.00     0.000 C 
BRANCH   4   5
ATOM      5  C   UNL     1     163.354 175.385 182.926  1.00  0.00     0.000 C 
BRANCH   5   6
ATOM      6  C   UNL     1     163.668 176.730 182.254  1.00  0.00     0.000 C 
BRANCH   6   7
ATOM      7  C   UNL     1     163.962 177.843 183.275  1.00  0.00     0.000 C 
BRANCH   7   8
ATOM      8  C   UNL     1     164.824 177.349 184.449  1.00  0.00     0.000 C 
BRANCH   8   9
ATOM      9  C   UNL     1     164.748 178.276 185.677  1.00  0.00     0.000 C 
BRANCH   9  10
ATOM     10  C   UNL     1     165.122 177.543 186.984  1.00  0.00     0.000 C 
BRANCH  10  11
ATOM     11  C   UNL     1     166.529 176.912 186.965  1.00  0.00     0.000 C 
BRANCH  11  12
ATOM     12  C   UNL     1     167.681 177.895 187.246  1.00  0.00     0.006 C 
BRANCH  12  13
ATOM     13  C   UNL     1     168.395 177.611 188.575  1.00  0.00     0.053 C 
BRANCH  13  14
ATOM     14  C   UNL     1     169.607 176.763 188.343  1.00  0.00     0.041 C 
ATOM     15  O   UNL     1     170.036 176.004 189.252  1.00  0.00    -0.550 OA
ATOM     16  O   UNL     1     170.237 176.776 187.105  1.00  0.00    -0.550 OA
ENDBRANCH  13  14
ENDBRANCH  12  13
ENDBRANCH  11  12
ENDBRANCH  10  11
ENDBRANCH   9  10
ENDBRANCH   8   9
ENDBRANCH   7   8
ENDBRANCH   6   7
ENDBRANCH   5   6
ENDBRANCH   4   5
ENDBRANCH   3   4
ENDBRANCH   2   3
ENDBRANCH   1   2
BRANCH   1  17
ATOM     17  C   UNL     1     161.207 177.875 185.616  1.00  0.00     0.000 C 
BRANCH  17  18
ATOM     18  C   UNL     1     160.728 178.320 187.012  1.00  0.00     0.000 C 
BRANCH  18  19
ATOM     19  C   UNL     1     161.055 177.287 188.108  1.00  0.00     0.000 C 
BRANCH  19  20
ATOM     20  C   UNL     1     161.334 175.868 187.573  1.00  0.00     0.000 C 
BRANCH  20  21
ATOM     21  C   UNL     1     160.088 174.962 187.506  1.00  0.00     0.000 C 
BRANCH  21  22
ATOM     22  C   UNL     1     160.440 173.463 187.507  1.00  0.00    -0.000 C 
BRANCH  22  23
ATOM     23  C   UNL     1     161.961 173.229 187.476  1.00  0.00    -0.000 C 
BRANCH  23  24
ATOM     24  C   UNL     1     162.365 171.945 188.223  1.00  0.00    -0.000 C 
BRANCH  24  25
ATOM     25  C   UNL     1     161.239 170.898 188.234  1.00  0.00    -0.000 C 
BRANCH  25  26
ATOM     26  C   UNL     1     161.578 169.686 187.345  1.00  0.00    -0.000 C 
BRANCH  26  27
ATOM     27  C   UNL     1     160.563 169.475 186.209  1.00  0.00    -0.000 C 
BRANCH  27  28
ATOM     28  C   UNL     1     161.233 169.391 184.828  1.00  0.00    -0.000 C 
BRANCH  28  29
ATOM     29  C   UNL     1     161.750 170.753 184.339  1.00  0.00    -0.003 C 
ATOM     30  C   UNL     1     160.662 171.827 184.308  1.00  0.00     0.004 C 
ENDBRANCH  28  29
ENDBRANCH  27  28
ENDBRANCH  26  27
ENDBRANCH  25  26
ENDBRANCH  24  25
ENDBRANCH  23  24
ENDBRANCH  22  23
ENDBRANCH  21  22
ENDBRANCH  20  21
ENDBRANCH  19  20
ENDBRANCH  18  19
ENDBRANCH  17  18
ENDBRANCH   1  17
TORSDOF 26
ENDMDL
MODEL 4
REMARK VINA RESULT:    -4.448      4.623     11.459
REMARK INTER + INTRA:         -14.523
REMARK INTER:                 -11.005
REMARK INTRA:                  -3.517
REMARK UNBOUND:                -3.315
REMARK SMILES CCCCCCCCCCCCCCCCCCCCCCCCCCCC(=O)[O-]
REMARK SMILES IDX 15 1 16 2 17 3 18 4 19 5 20 6 21 7 22 8 23 9 24 10 25 11
REMARK SMILES IDX 26 12 27 13 28 14 29 15 30 16 14 17 13 18 12 19 11 20 10 21
REMARK SMILES IDX 9 22 8 23 7 24 6 25 5 26 4 27 3 28 2 29 1 30
REMARK H PARENT
REMARK Flexibility Score: inf
ROOT
ATOM      1  C   UNL     1     165.688 175.523 185.391  1.00  0.00     0.000 C 
ENDROOT
BRANCH   1   2
ATOM      2  C   UNL     1     166.305 176.931 185.329  1.00  0.00     0.000 C 
BRANCH   2   3
ATOM      3  C   UNL     1     165.503 177.970 186.133  1.00  0.00     0.000 C 
BRANCH   3   4
ATOM      4  C   UNL     1     164.535 177.312 187.130  1.00  0.00     0.000 C 
BRANCH   4   5
ATOM      5  C   UNL     1     163.342 178.227 187.463  1.00  0.00     0.000 C 
BRANCH   5   6
ATOM      6  C   UNL     1     162.239 177.499 188.247  1.00  0.00     0.000 C 
BRANCH   6   7
ATOM      7  C   UNL     1     160.841 177.735 187.650  1.00  0.00     0.000 C 
BRANCH   7   8
ATOM      8  C   UNL     1     160.900 178.235 186.197  1.00  0.00     0.000 C 
BRANCH   8   9
ATOM      9  C   UNL     1     160.603 177.125 185.171  1.00  0.00     0.000 C 
BRANCH   9  10
ATOM     10  C   UNL     1     161.880 176.365 184.748  1.00  0.00     0.000 C 
BRANCH  10  11
ATOM     11  C   UNL     1     161.765 174.833 184.879  1.00  0.00     0.000 C 
BRANCH  11  12
ATOM     12  C   UNL     1     162.140 174.273 186.264  1.00  0.00     0.006 C 
BRANCH  12  13
ATOM     13  C   UNL     1     160.916 174.015 187.154  1.00  0.00     0.053 C 
BRANCH  13  14
ATOM     14  C   UNL     1     160.602 172.550 187.193  1.00  0.00     0.041 C 
ATOM     15  O   UNL     1     160.653 171.918 188.281  1.00  0.00    -0.550 OA
ATOM     16  O   UNL     1     160.208 171.894 186.035  1.00  0.00    -0.550 OA
ENDBRANCH  13  14
ENDBRANCH  12  13
ENDBRANCH  11  12
ENDBRANCH  10  11
ENDBRANCH   9  10
ENDBRANCH   8   9
ENDBRANCH   7   8
ENDBRANCH   6   7
ENDBRANCH   5   6
ENDBRANCH   4   5
ENDBRANCH   3   4
ENDBRANCH   2   3
ENDBRANCH   1   2
BRANCH   1  17
ATOM     17  C   UNL     1     166.577 174.456 186.057  1.00  0.00     0.000 C 
BRANCH  17  18
ATOM     18  C   UNL     1     167.927 175.018 186.544  1.00  0.00     0.000 C 
BRANCH  18  19
ATOM     19  C   UNL     1     168.090 174.924 188.074  1.00  0.00     0.000 C 
BRANCH  19  20
ATOM     20  C   UNL     1     169.087 175.943 188.664  1.00  0.00     0.000 C 
BRANCH  20  21
ATOM     21  C   UNL     1     168.466 177.314 188.996  1.00  0.00     0.000 C 
BRANCH  21  22
ATOM     22  C   UNL     1     168.766 178.380 187.926  1.00  0.00    -0.000 C 
BRANCH  22  23
ATOM     23  C   UNL     1     170.221 178.304 187.430  1.00  0.00    -0.000 C 
BRANCH  23  24
ATOM     24  C   UNL     1     170.793 179.694 187.097  1.00  0.00    -0.000 C 
BRANCH  24  25
ATOM     25  C   UNL     1     172.236 179.866 187.600  1.00  0.00    -0.000 C 
BRANCH  25  26
ATOM     26  C   UNL     1     173.252 179.827 186.442  1.00  0.00    -0.000 C 
BRANCH  26  27
ATOM     27  C   UNL     1     174.705 179.998 186.916  1.00  0.00    -0.000 C 
BRANCH  27  28
ATOM     28  C   UNL     1     175.133 178.907 187.910  1.00  0.00    -0.000 C 
BRANCH  28  29
ATOM     29  C   UNL     1     175.521 177.593 187.213  1.00  0.00    -0.003 C 
ATOM     30  C   UNL     1     177.035 177.409 187.088  1.00  0.00     0.004 C 
ENDBRANCH  28  29
ENDBRANCH  27  28
ENDBRANCH  26  27
ENDBRANCH  25  26
ENDBRANCH  24  25
ENDBRANCH  23  24
ENDBRANCH  22  23
ENDBRANCH  21  22
ENDBRANCH  20  21
ENDBRANCH  19  20
ENDBRANCH  18  19
ENDBRANCH  17  18
ENDBRANCH   1  17
TORSDOF 26
ENDMDL
MODEL 5
REMARK VINA RESULT:    -4.379      3.375      5.878
REMARK INTER + INTRA:         -14.351
REMARK INTER:                  -9.107
REMARK INTRA:                  -5.243
REMARK UNBOUND:                -3.315
REMARK SMILES CCCCCCCCCCCCCCCCCCCCCCCCCCCC(=O)[O-]
REMARK SMILES IDX 15 1 16 2 17 3 18 4 19 5 20 6 21 7 22 8 23 9 24 10 25 11
REMARK SMILES IDX 26 12 27 13 28 14 29 15 30 16 14 17 13 18 12 19 11 20 10 21
REMARK SMILES IDX 9 22 8 23 7 24 6 25 5 26 4 27 3 28 2 29 1 30
REMARK H PARENT
REMARK Flexibility Score: inf
ROOT
ATOM      1  C   UNL     1     160.621 177.943 187.117  1.00  0.00     0.000 C 
ENDROOT
BRANCH   1   2
ATOM      2  C   UNL     1     161.177 177.932 185.682  1.00  0.00     0.000 C 
BRANCH   2   3
ATOM      3  C   UNL     1     160.240 177.230 184.684  1.00  0.00     0.000 C 
BRANCH   3   4
ATOM      4  C   UNL     1     160.736 177.353 183.235  1.00  0.00     0.000 C 
BRANCH   4   5
ATOM      5  C   UNL     1     161.162 175.993 182.654  1.00  0.00     0.000 C 
BRANCH   5   6
ATOM      6  C   UNL     1     162.670 175.734 182.796  1.00  0.00     0.000 C 
BRANCH   6   7
ATOM      7  C   UNL     1     163.519 176.791 182.068  1.00  0.00     0.000 C 
BRANCH   7   8
ATOM      8  C   UNL     1     164.009 177.901 183.013  1.00  0.00     0.000 C 
BRANCH   8   9
ATOM      9  C   UNL     1     164.494 177.359 184.370  1.00  0.00     0.000 C 
BRANCH   9  10
ATOM     10  C   UNL     1     165.998 177.007 184.354  1.00  0.00     0.000 C 
BRANCH  10  11
ATOM     11  C   UNL     1     166.351 175.743 185.164  1.00  0.00     0.000 C 
BRANCH  11  12
ATOM     12  C   UNL     1     167.099 176.009 186.483  1.00  0.00     0.006 C 
BRANCH  12  13
ATOM     13  C   UNL     1     167.151 177.498 186.849  1.00  0.00     0.053 C 
BRANCH  13  14
ATOM     14  C   UNL     1     168.563 177.918 187.121  1.00  0.00     0.041 C 
ATOM     15  O   UNL     1     169.483 177.613 186.319  1.00  0.00    -0.550 OA
ATOM     16  O   UNL     1     168.854 178.688 188.240  1.00  0.00    -0.550 OA
ENDBRANCH  13  14
ENDBRANCH  12  13
ENDBRANCH  11  12
ENDBRANCH  10  11
ENDBRANCH   9  10
ENDBRANCH   8   9
ENDBRANCH   7   8
ENDBRANCH   6   7
ENDBRANCH   5   6
ENDBRANCH   4   5
ENDBRANCH   3   4
ENDBRANCH   2   3
ENDBRANCH   1   2
BRANCH   1  17
ATOM     17  C   UNL     1     161.639 177.561 188.208  1.00  0.00     0.000 C 
BRANCH  17  18
ATOM     18  C   UNL     1     163.099 177.630 187.719  1.00  0.00     0.000 C 
BRANCH  18  19
ATOM     19  C   UNL     1     163.846 176.293 187.892  1.00  0.00     0.000 C 
BRANCH  19  20
ATOM     20  C   UNL     1     162.956 175.047 187.707  1.00  0.00     0.000 C 
BRANCH  20  21
ATOM     21  C   UNL     1     162.917 174.507 186.264  1.00  0.00     0.000 C 
BRANCH  21  22
ATOM     22  C   UNL     1     161.512 174.041 185.839  1.00  0.00    -0.000 C 
BRANCH  22  23
ATOM     23  C   UNL     1     160.493 174.166 186.986  1.00  0.00    -0.000 C 
BRANCH  23  24
ATOM     24  C   UNL     1     160.081 172.794 187.547  1.00  0.00    -0.000 C 
BRANCH  24  25
ATOM     25  C   UNL     1     160.621 171.631 186.699  1.00  0.00    -0.000 C 
BRANCH  25  26
ATOM     26  C   UNL     1     161.490 170.671 187.534  1.00  0.00    -0.000 C 
BRANCH  26  27
ATOM     27  C   UNL     1     161.628 171.113 189.001  1.00  0.00    -0.000 C 
BRANCH  27  28
ATOM     28  C   UNL     1     163.093 171.332 189.415  1.00  0.00    -0.000 C 
BRANCH  28  29
ATOM     29  C   UNL     1     164.036 171.452 188.207  1.00  0.00    -0.003 C 
ATOM     30  C   UNL     1     165.310 170.619 188.360  1.00  0.00     0.004 C 
ENDBRANCH  28  29
ENDBRANCH  27  28
ENDBRANCH  26  27
ENDBRANCH  25  26
ENDBRANCH  24  25
ENDBRANCH  23  24
ENDBRANCH  22  23
ENDBRANCH  21  22
ENDBRANCH  20  21
ENDBRANCH  19  20
ENDBRANCH  18  19
ENDBRANCH  17  18
ENDBRANCH   1  17
TORSDOF 26
ENDMDL
MODEL 6
REMARK VINA RESULT:    -4.376      5.410     11.090
REMARK INTER + INTRA:         -14.343
REMARK INTER:                  -8.723
REMARK INTRA:                  -5.620
REMARK UNBOUND:                -3.315
REMARK SMILES CCCCCCCCCCCCCCCCCCCCCCCCCCCC(=O)[O-]
REMARK SMILES IDX 15 1 16 2 17 3 18 4 19 5 20 6 21 7 22 8 23 9 24 10 25 11
REMARK SMILES IDX 26 12 27 13 28 14 29 15 30 16 14 17 13 18 12 19 11 20 10 21
REMARK SMILES IDX 9 22 8 23 7 24 6 25 5 26 4 27 3 28 2 29 1 30
REMARK H PARENT
REMARK Flexibility Score: inf
ROOT
ATOM      1  C   UNL     1     173.058 175.540 184.122  1.00  0.00     0.000 C 
ENDROOT
BRANCH   1   2
ATOM      2  C   UNL     1     173.950 175.980 182.948  1.00  0.00     0.000 C 
BRANCH   2   3
ATOM      3  C   UNL     1     175.429 176.127 183.346  1.00  0.00     0.000 C 
BRANCH   3   4
ATOM      4  C   UNL     1     176.005 177.496 182.951  1.00  0.00     0.000 C 
BRANCH   4   5
ATOM      5  C   UNL     1     175.164 178.182 181.859  1.00  0.00     0.000 C 
BRANCH   5   6
ATOM      6  C   UNL     1     174.639 179.559 182.292  1.00  0.00     0.000 C 
BRANCH   6   7
ATOM      7  C   UNL     1     173.237 179.857 181.732  1.00  0.00     0.000 C 
BRANCH   7   8
ATOM      8  C   UNL     1     172.135 179.692 182.791  1.00  0.00     0.000 C 
BRANCH   8   9
ATOM      9  C   UNL     1     171.154 178.552 182.458  1.00  0.00     0.000 C 
BRANCH   9  10
ATOM     10  C   UNL     1     169.748 178.802 183.048  1.00  0.00     0.000 C 
BRANCH  10  11
ATOM     11  C   UNL     1     169.321 177.762 184.104  1.00  0.00     0.000 C 
BRANCH  11  12
ATOM     12  C   UNL     1     168.371 178.298 185.190  1.00  0.00     0.006 C 
BRANCH  12  13
ATOM     13  C   UNL     1     167.088 177.466 185.324  1.00  0.00     0.053 C 
BRANCH  13  14
ATOM     14  C   UNL     1     166.583 177.512 186.733  1.00  0.00     0.041 C 
ATOM     15  O   UNL     1     165.495 176.955 187.038  1.00  0.00    -0.550 OA
ATOM     16  O   UNL     1     167.338 178.131 187.721  1.00  0.00    -0.550 OA
ENDBRANCH  13  14
ENDBRANCH  12  13
ENDBRANCH  11  12
ENDBRANCH  10  11
ENDBRANCH   9  10
ENDBRANCH   8   9
ENDBRANCH   7   8
ENDBRANCH   6   7
ENDBRANCH   5   6
ENDBRANCH   4   5
ENDBRANCH   3   4
ENDBRANCH   2   3
ENDBRANCH   1   2
BRANCH   1  17
ATOM     17  C   UNL     1     172.746 176.646 185.147  1.00  0.00     0.000 C 
BRANCH  17  18
ATOM     18  C   UNL     1     172.279 176.091 186.507  1.00  0.00     0.000 C 
BRANCH  18  19
ATOM     19  C   UNL     1     172.319 177.151 187.625  1.00  0.00     0.000 C 
BRANCH  19  20
ATOM     20  C   UNL     1     171.227 178.235 187.503  1.00  0.00     0.000 C 
BRANCH  20  21
ATOM     21  C   UNL     1     171.769 179.648 187.214  1.00  0.00     0.000 C 
BRANCH  21  22
ATOM     22  C   UNL     1     173.295 179.752 187.402  1.00  0.00    -0.000 C 
BRANCH  22  23
ATOM     23  C   UNL     1     174.012 180.118 186.090  1.00  0.00    -0.000 C 
BRANCH  23  24
ATOM     24  C   UNL     1     175.272 179.264 185.861  1.00  0.00    -0.000 C 
BRANCH  24  25
ATOM     25  C   UNL     1     175.850 178.713 187.175  1.00  0.00    -0.000 C 
BRANCH  25  26
ATOM     26  C   UNL     1     176.688 177.442 186.941  1.00  0.00    -0.000 C 
BRANCH  26  27
ATOM     27  C   UNL     1     175.871 176.149 187.102  1.00  0.00    -0.000 C 
BRANCH  27  28
ATOM     28  C   UNL     1     176.573 174.928 186.487  1.00  0.00    -0.000 C 
BRANCH  28  29
ATOM     29  C   UNL     1     175.605 173.764 186.217  1.00  0.00    -0.003 C 
ATOM     30  C   UNL     1     174.708 173.446 187.414  1.00  0.00     0.004 C 
ENDBRANCH  28  29
ENDBRANCH  27  28
ENDBRANCH  26  27
ENDBRANCH  25  26
ENDBRANCH  24  25
ENDBRANCH  23  24
ENDBRANCH  22  23
ENDBRANCH  21  22
ENDBRANCH  20  21
ENDBRANCH  19  20
ENDBRANCH  18  19
ENDBRANCH  17  18
ENDBRANCH   1  17
TORSDOF 26
ENDMDL
MODEL 7
REMARK VINA RESULT:    -4.375      4.892      8.797
REMARK INTER + INTRA:         -14.340
REMARK INTER:                  -9.130
REMARK INTRA:                  -5.209
REMARK UNBOUND:                -3.315
REMARK SMILES CCCCCCCCCCCCCCCCCCCCCCCCCCCC(=O)[O-]
REMARK SMILES IDX 15 1 16 2 17 3 18 4 19 5 20 6 21 7 22 8 23 9 24 10 25 11
REMARK SMILES IDX 26 12 27 13 28 14 29 15 30 16 14 17 13 18 12 19 11 20 10 21
REMARK SMILES IDX 9 22 8 23 7 24 6 25 5 26 4 27 3 28 2 29 1 30
REMARK H PARENT
REMARK Flexibility Score: inf
ROOT
ATOM      1  C   UNL     1     167.502 176.519 186.712  1.00  0.00     0.000 C 
ENDROOT
BRANCH   1   2
ATOM      2  C   UNL     1     166.851 177.869 187.059  1.00  0.00     0.000 C 
BRANCH   2   3
ATOM      3  C   UNL     1     165.593 178.158 186.222  1.00  0.00     0.000 C 
BRANCH   3   4
ATOM      4  C   UNL     1     164.485 178.829 187.050  1.00  0.00     0.000 C 
BRANCH   4   5
ATOM      5  C   UNL     1     163.096 178.245 186.734  1.00  0.00     0.000 C 
BRANCH   5   6
ATOM      6  C   UNL     1     162.489 177.486 187.923  1.00  0.00     0.000 C 
BRANCH   6   7
ATOM      7  C   UNL     1     160.959 177.360 187.821  1.00  0.00     0.000 C 
BRANCH   7   8
ATOM      8  C   UNL     1     160.524 176.160 186.964  1.00  0.00     0.000 C 
BRANCH   8   9
ATOM      9  C   UNL     1     160.417 174.855 187.775  1.00  0.00     0.000 C 
BRANCH   9  10
ATOM     10  C   UNL     1     160.978 173.641 187.002  1.00  0.00     0.000 C 
BRANCH  10  11
ATOM     11  C   UNL     1     160.584 172.279 187.609  1.00  0.00     0.000 C 
BRANCH  11  12
ATOM     12  C   UNL     1     161.728 171.252 187.688  1.00  0.00     0.006 C 
BRANCH  12  13
ATOM     13  C   UNL     1     162.604 171.429 188.936  1.00  0.00     0.053 C 
BRANCH  13  14
ATOM     14  C   UNL     1     163.963 170.844 188.705  1.00  0.00     0.041 C 
ATOM     15  O   UNL     1     164.122 169.596 188.678  1.00  0.00    -0.550 OA
ATOM     16  O   UNL     1     165.048 171.680 188.473  1.00  0.00    -0.550 OA
ENDBRANCH  13  14
ENDBRANCH  12  13
ENDBRANCH  11  12
ENDBRANCH  10  11
ENDBRANCH   9  10
ENDBRANCH   8   9
ENDBRANCH   7   8
ENDBRANCH   6   7
ENDBRANCH   5   6
ENDBRANCH   4   5
ENDBRANCH   3   4
ENDBRANCH   2   3
ENDBRANCH   1   2
BRANCH   1  17
ATOM     17  C   UNL     1     166.873 175.299 187.411  1.00  0.00     0.000 C 
BRANCH  17  18
ATOM     18  C   UNL     1     166.046 174.418 186.454  1.00  0.00     0.000 C 
BRANCH  18  19
ATOM     19  C   UNL     1     164.528 174.637 186.607  1.00  0.00     0.000 C 
BRANCH  19  20
ATOM     20  C   UNL     1     163.812 175.018 185.295  1.00  0.00     0.000 C 
BRANCH  20  21
ATOM     21  C   UNL     1     164.598 174.658 184.019  1.00  0.00     0.000 C 
BRANCH  21  22
ATOM     22  C   UNL     1     163.774 173.811 183.030  1.00  0.00    -0.000 C 
BRANCH  22  23
ATOM     23  C   UNL     1     162.561 173.151 183.709  1.00  0.00    -0.000 C 
BRANCH  23  24
ATOM     24  C   UNL     1     161.364 173.015 182.751  1.00  0.00    -0.000 C 
BRANCH  24  25
ATOM     25  C   UNL     1     160.813 174.380 182.308  1.00  0.00    -0.000 C 
BRANCH  25  26
ATOM     26  C   UNL     1     160.582 175.319 183.507  1.00  0.00    -0.000 C 
BRANCH  26  27
ATOM     27  C   UNL     1     161.160 176.726 183.284  1.00  0.00    -0.000 C 
BRANCH  27  28
ATOM     28  C   UNL     1     161.566 176.972 181.821  1.00  0.00    -0.000 C 
BRANCH  28  29
ATOM     29  C   UNL     1     162.939 177.651 181.695  1.00  0.00    -0.003 C 
ATOM     30  C   UNL     1     163.559 177.996 183.050  1.00  0.00     0.004 C 
ENDBRANCH  28  29
ENDBRANCH  27  28
ENDBRANCH  26  27
ENDBRANCH  25  26
ENDBRANCH  24  25
ENDBRANCH  23  24
ENDBRANCH  22  23
ENDBRANCH  21  22
ENDBRANCH  20  21
ENDBRANCH  19  20
ENDBRANCH  18  19
ENDBRANCH  17  18
ENDBRANCH   1  17
TORSDOF 26
ENDMDL
MODEL 8
REMARK VINA RESULT:    -4.350      4.702     10.134
REMARK INTER + INTRA:         -14.277
REMARK INTER:                  -9.233
REMARK INTRA:                  -5.044
REMARK UNBOUND:                -3.315
REMARK SMILES CCCCCCCCCCCCCCCCCCCCCCCCCCCC(=O)[O-]
REMARK SMILES IDX 15 1 16 2 17 3 18 4 19 5 20 6 21 7 22 8 23 9 24 10 25 11
REMARK SMILES IDX 26 12 27 13 28 14 29 15 30 16 14 17 13 18 12 19 11 20 10 21
REMARK SMILES IDX 9 22 8 23 7 24 6 25 5 26 4 27 3 28 2 29 1 30
REMARK H PARENT
REMARK Flexibility Score: inf
ROOT
ATOM      1  C   UNL     1     168.469 176.900 183.967  1.00  0.00     0.000 C 
ENDROOT
BRANCH   1   2
ATOM      2  C   UNL     1     167.246 177.419 184.743  1.00  0.00     0.000 C 
BRANCH   2   3
ATOM      3  C   UNL     1     166.428 176.289 185.392  1.00  0.00     0.000 C 
BRANCH   3   4
ATOM      4  C   UNL     1     165.624 176.778 186.607  1.00  0.00     0.000 C 
BRANCH   4   5
ATOM      5  C   UNL     1     165.199 178.250 186.463  1.00  0.00     0.000 C 
BRANCH   5   6
ATOM      6  C   UNL     1     163.869 178.555 187.168  1.00  0.00     0.000 C 
BRANCH   6   7
ATOM      7  C   UNL     1     163.209 177.292 187.750  1.00  0.00     0.000 C 
BRANCH   7   8
ATOM      8  C   UNL     1     161.790 177.562 188.279  1.00  0.00     0.000 C 
BRANCH   8   9
ATOM      9  C   UNL     1     160.692 177.136 187.286  1.00  0.00     0.000 C 
BRANCH   9  10
ATOM     10  C   UNL     1     160.371 178.245 186.260  1.00  0.00     0.000 C 
BRANCH  10  11
ATOM     11  C   UNL     1     160.488 177.789 184.792  1.00  0.00     0.000 C 
BRANCH  11  12
ATOM     12  C   UNL     1     161.538 176.692 184.538  1.00  0.00     0.006 C 
BRANCH  12  13
ATOM     13  C   UNL     1     162.763 177.206 183.770  1.00  0.00     0.053 C 
BRANCH  13  14
ATOM     14  C   UNL     1     162.364 177.664 182.401  1.00  0.00     0.041 C 
ATOM     15  O   UNL     1     162.784 178.763 181.951  1.00  0.00    -0.550 OA
ATOM     16  O   UNL     1     161.566 176.855 181.603  1.00  0.00    -0.550 OA
ENDBRANCH  13  14
ENDBRANCH  12  13
ENDBRANCH  11  12
ENDBRANCH  10  11
ENDBRANCH   9  10
ENDBRANCH   8   9
ENDBRANCH   7   8
ENDBRANCH   6   7
ENDBRANCH   5   6
ENDBRANCH   4   5
ENDBRANCH   3   4
ENDBRANCH   2   3
ENDBRANCH   1   2
BRANCH   1  17
ATOM     17  C   UNL     1     169.687 177.843 183.975  1.00  0.00     0.000 C 
BRANCH  17  18
ATOM     18  C   UNL     1     171.000 177.125 184.346  1.00  0.00     0.000 C 
BRANCH  18  19
ATOM     19  C   UNL     1     172.058 178.086 184.923  1.00  0.00     0.000 C 
BRANCH  19  20
ATOM     20  C   UNL     1     172.732 177.577 186.214  1.00  0.00     0.000 C 
BRANCH  20  21
ATOM     21  C   UNL     1     172.354 178.372 187.480  1.00  0.00     0.000 C 
BRANCH  21  22
ATOM     22  C   UNL     1     171.751 179.752 187.159  1.00  0.00    -0.000 C 
BRANCH  22  23
ATOM     23  C   UNL     1     170.387 179.956 187.843  1.00  0.00    -0.000 C 
BRANCH  23  24
ATOM     24  C   UNL     1     169.344 178.926 187.374  1.00  0.00    -0.000 C 
BRANCH  24  25
ATOM     25  C   UNL     1     168.520 178.358 188.541  1.00  0.00    -0.000 C 
BRANCH  25  26
ATOM     26  C   UNL     1     168.806 176.862 188.767  1.00  0.00    -0.000 C 
BRANCH  26  27
ATOM     27  C   UNL     1     169.350 176.161 187.511  1.00  0.00    -0.000 C 
BRANCH  27  28
ATOM     28  C   UNL     1     170.445 175.132 187.837  1.00  0.00    -0.000 C 
BRANCH  28  29
ATOM     29  C   UNL     1     170.214 173.782 187.139  1.00  0.00    -0.003 C 
ATOM     30  C   UNL     1     169.432 173.914 185.831  1.00  0.00     0.004 C 
ENDBRANCH  28  29
ENDBRANCH  27  28
ENDBRANCH  26  27
ENDBRANCH  25  26
ENDBRANCH  24  25
ENDBRANCH  23  24
ENDBRANCH  22  23
ENDBRANCH  21  22
ENDBRANCH  20  21
ENDBRANCH  19  20
ENDBRANCH  18  19
ENDBRANCH  17  18
ENDBRANCH   1  17
TORSDOF 26
ENDMDL
MODEL 9
REMARK VINA RESULT:    -4.337      5.754     10.007
REMARK INTER + INTRA:         -14.243
REMARK INTER:                  -8.711
REMARK INTRA:                  -5.533
REMARK UNBOUND:                -3.315
REMARK SMILES CCCCCCCCCCCCCCCCCCCCCCCCCCCC(=O)[O-]
REMARK SMILES IDX 15 1 16 2 17 3 18 4 19 5 20 6 21 7 22 8 23 9 24 10 25 11
REMARK SMILES IDX 26 12 27 13 28 14 29 15 30 16 14 17 13 18 12 19 11 20 10 21
REMARK SMILES IDX 9 22 8 23 7 24 6 25 5 26 4 27 3 28 2 29 1 30
REMARK H PARENT
REMARK Flexibility Score: inf
ROOT
ATOM      1  C   UNL     1     160.627 176.889 184.943  1.00  0.00     0.000 C 
ENDROOT
BRANCH   1   2
ATOM      2  C   UNL     1     161.119 177.517 183.627  1.00  0.00     0.000 C 
BRANCH   2   3
ATOM      3  C   UNL     1     162.647 177.433 183.461  1.00  0.00     0.000 C 
BRANCH   3   4
ATOM      4  C   UNL     1     163.128 178.103 182.164  1.00  0.00     0.000 C 
BRANCH   4   5
ATOM      5  C   UNL     1     162.010 178.185 181.108  1.00  0.00     0.000 C 
BRANCH   5   6
ATOM      6  C   UNL     1     162.115 177.080 180.047  1.00  0.00     0.000 C 
BRANCH   6   7
ATOM      7  C   UNL     1     160.739 176.533 179.629  1.00  0.00     0.000 C 
BRANCH   7   8
ATOM      8  C   UNL     1     160.190 175.502 180.629  1.00  0.00     0.000 C 
BRANCH   8   9
ATOM      9  C   UNL     1     161.094 174.263 180.766  1.00  0.00     0.000 C 
BRANCH   9  10
ATOM     10  C   UNL     1     161.670 174.115 182.191  1.00  0.00     0.000 C 
BRANCH  10  11
ATOM     11  C   UNL     1     160.615 173.748 183.255  1.00  0.00     0.000 C 
BRANCH  11  12
ATOM     12  C   UNL     1     160.870 172.417 183.985  1.00  0.00     0.006 C 
BRANCH  12  13
ATOM     13  C   UNL     1     160.243 172.374 185.385  1.00  0.00     0.053 C 
BRANCH  13  14
ATOM     14  C   UNL     1     160.656 171.126 186.102  1.00  0.00     0.041 C 
ATOM     15  O   UNL     1     161.364 171.193 187.141  1.00  0.00    -0.550 OA
ATOM     16  O   UNL     1     160.218 169.888 185.648  1.00  0.00    -0.550 OA
ENDBRANCH  13  14
ENDBRANCH  12  13
ENDBRANCH  11  12
ENDBRANCH  10  11
ENDBRANCH   9  10
ENDBRANCH   8   9
ENDBRANCH   7   8
ENDBRANCH   6   7
ENDBRANCH   5   6
ENDBRANCH   4   5
ENDBRANCH   3   4
ENDBRANCH   2   3
ENDBRANCH   1   2
BRANCH   1  17
ATOM     17  C   UNL     1     160.624 177.843 186.152  1.00  0.00     0.000 C 
BRANCH  17  18
ATOM     18  C   UNL     1     160.745 177.104 187.500  1.00  0.00     0.000 C 
BRANCH  18  19
ATOM     19  C   UNL     1     160.306 175.630 187.410  1.00  0.00     0.000 C 
BRANCH  19  20
ATOM     20  C   UNL     1     161.392 174.622 187.839  1.00  0.00     0.000 C 
BRANCH  20  21
ATOM     21  C   UNL     1     162.823 175.023 187.429  1.00  0.00     0.000 C 
BRANCH  21  22
ATOM     22  C   UNL     1     163.422 174.085 186.364  1.00  0.00    -0.000 C 
BRANCH  22  23
ATOM     23  C   UNL     1     163.832 174.847 185.092  1.00  0.00    -0.000 C 
BRANCH  23  24
ATOM     24  C   UNL     1     164.790 174.027 184.208  1.00  0.00    -0.000 C 
BRANCH  24  25
ATOM     25  C   UNL     1     166.152 174.717 184.029  1.00  0.00    -0.000 C 
BRANCH  25  26
ATOM     26  C   UNL     1     166.113 176.186 184.489  1.00  0.00    -0.000 C 
BRANCH  26  27
ATOM     27  C   UNL     1     166.956 176.440 185.750  1.00  0.00    -0.000 C 
BRANCH  27  28
ATOM     28  C   UNL     1     166.333 177.503 186.670  1.00  0.00    -0.000 C 
BRANCH  28  29
ATOM     29  C   UNL     1     165.198 178.283 185.988  1.00  0.00    -0.003 C 
ATOM     30  C   UNL     1     164.052 178.623 186.941  1.00  0.00     0.004 C 
ENDBRANCH  28  29
ENDBRANCH  27  28
ENDBRANCH  26  27
ENDBRANCH  25  26
ENDBRANCH  24  25
ENDBRANCH  23  24
ENDBRANCH  22  23
ENDBRANCH  21  22
ENDBRANCH  20  21
ENDBRANCH  19  20
ENDBRANCH  18  19
ENDBRANCH  17  18
ENDBRANCH   1  17
TORSDOF 26
ENDMDL
