MODEL 1
REMARK VINA RESULT:     0.516      0.000      0.000
REMARK INTER + INTRA:          -0.181
REMARK INTER:                   1.180
REMARK INTRA:                  -1.361
REMARK UNBOUND:                -1.361
REMARK SMILES CCCCCCCCCCCCCCCCCCCCCCCC(=O)[O-]
REMARK SMILES IDX 13 1 14 2 15 3 16 4 17 5 18 6 19 7 20 8 21 9 22 10 23 11
REMARK SMILES IDX 24 12 25 13 26 14 12 15 11 16 10 17 9 18 8 19 7 20 6 21 5 22
REMARK SMILES IDX 4 23 3 24 2 25 1 26
REMARK H PARENT
REMARK Flexibility Score: inf
ROOT
ATOM      1  C   UNL     1      29.080  23.706  64.567  1.00  0.00     0.000 C 
ENDROOT
BRANCH   1   2
ATOM      2  C   UNL     1      30.061  22.913  65.447  1.00  0.00     0.000 C 
BRANCH   2   3
ATOM      3  C   UNL     1      30.142  23.457  66.883  1.00  0.00     0.000 C 
BRANCH   3   4
ATOM      4  C   UNL     1      31.397  24.316  67.125  1.00  0.00     0.000 C 
BRANCH   4   5
ATOM      5  C   UNL     1      32.114  24.797  65.850  1.00  0.00     0.000 C 
BRANCH   5   6
ATOM      6  C   UNL     1      33.632  24.548  65.889  1.00  0.00     0.000 C 
BRANCH   6   7
ATOM      7  C   UNL     1      34.356  25.090  64.647  1.00  0.00     0.000 C 
BRANCH   7   8
ATOM      8  C   UNL     1      35.217  26.327  64.951  1.00  0.00     0.000 C 
BRANCH   8   9
ATOM      9  C   UNL     1      36.389  25.971  65.874  1.00  0.00     0.000 C 
BRANCH   9  10
ATOM     10  C   UNL     1      36.906  27.212  66.611  1.00  0.00     0.006 C 
BRANCH  10  11
ATOM     11  C   UNL     1      37.329  28.303  65.624  1.00  0.00     0.053 C 
BRANCH  11  12
ATOM     12  C   UNL     1      38.625  28.920  66.046  1.00  0.00     0.041 C 
ATOM     13  O   UNL     1      38.665  30.128  66.398  1.00  0.00    -0.550 OA
ATOM     14  O   UNL     1      39.779  28.148  66.098  1.00  0.00    -0.550 OA
ENDBRANCH  11  12
ENDBRANCH  10  11
ENDBRANCH   9  10
ENDBRANCH   8   9
ENDBRANCH   7   8
ENDBRANCH   6   7
ENDBRANCH   5   6
ENDBRANCH   4   5
ENDBRANCH   3   4
ENDBRANCH   2   3
ENDBRANCH   1   2
BRANCH   1  15
ATOM     15  C   UNL     1      29.364  23.579  63.054  1.00  0.00     0.000 C 
BRANCH  15  16
ATOM     16  C   UNL     1      30.713  22.892  62.776  1.00  0.00     0.000 C 
BRANCH  16  17
ATOM     17  C   UNL     1      31.799  23.890  62.322  1.00  0.00     0.000 C 
BRANCH  17  18
ATOM     18  C   UNL     1      31.700  24.283  60.837  1.00  0.00    -0.000 C 
BRANCH  18  19
ATOM     19  C   UNL     1      32.526  23.365  59.923  1.00  0.00    -0.000 C 
BRANCH  19  20
ATOM     20  C   UNL     1      32.564  23.847  58.461  1.00  0.00    -0.000 C 
BRANCH  20  21
ATOM     21  C   UNL     1      33.885  23.573  57.716  1.00  0.00    -0.000 C 
BRANCH  21  22
ATOM     22  C   UNL     1      34.046  24.317  56.376  1.00  0.00    -0.000 C 
BRANCH  22  23
ATOM     23  C   UNL     1      35.177  23.755  55.487  1.00  0.00    -0.000 C 
BRANCH  23  24
ATOM     24  C   UNL     1      36.571  24.043  56.064  1.00  0.00    -0.000 C 
BRANCH  24  25
ATOM     25  C   UNL     1      37.627  24.092  54.956  1.00  0.00    -0.003 C 
ATOM     26  C   UNL     1      38.938  23.456  55.412  1.00  0.00     0.004 C 
ENDBRANCH  24  25
ENDBRANCH  23  24
ENDBRANCH  22  23
ENDBRANCH  21  22
ENDBRANCH  20  21
ENDBRANCH  19  20
ENDBRANCH  18  19
ENDBRANCH  17  18
ENDBRANCH  16  17
ENDBRANCH  15  16
ENDBRANCH   1  15
TORSDOF 22
ENDMDL
MODEL 2
REMARK VINA RESULT:     0.837      4.259      9.569
REMARK INTER + INTRA:           0.553
REMARK INTER:                   1.542
REMARK INTRA:                  -0.989
REMARK UNBOUND:                -1.361
REMARK SMILES CCCCCCCCCCCCCCCCCCCCCCCC(=O)[O-]
REMARK SMILES IDX 13 1 14 2 15 3 16 4 17 5 18 6 19 7 20 8 21 9 22 10 23 11
REMARK SMILES IDX 24 12 25 13 26 14 12 15 11 16 10 17 9 18 8 19 7 20 6 21 5 22
REMARK SMILES IDX 4 23 3 24 2 25 1 26
REMARK H PARENT
REMARK Flexibility Score: inf
ROOT
ATOM      1  C   UNL     1      31.808  23.810  62.349  1.00  0.00     0.000 C 
ENDROOT
BRANCH   1   2
ATOM      2  C   UNL     1      32.155  24.406  60.974  1.00  0.00     0.000 C 
BRANCH   2   3
ATOM      3  C   UNL     1      31.987  23.394  59.828  1.00  0.00     0.000 C 
BRANCH   3   4
ATOM      4  C   UNL     1      33.162  23.418  58.834  1.00  0.00     0.000 C 
BRANCH   4   5
ATOM      5  C   UNL     1      32.964  24.336  57.613  1.00  0.00     0.000 C 
BRANCH   5   6
ATOM      6  C   UNL     1      33.770  23.877  56.385  1.00  0.00     0.000 C 
BRANCH   6   7
ATOM      7  C   UNL     1      35.237  23.564  56.719  1.00  0.00     0.000 C 
BRANCH   7   8
ATOM      8  C   UNL     1      36.076  23.237  55.473  1.00  0.00     0.000 C 
BRANCH   8   9
ATOM      9  C   UNL     1      37.067  24.365  55.163  1.00  0.00     0.000 C 
BRANCH   9  10
ATOM     10  C   UNL     1      38.472  23.809  54.906  1.00  0.00     0.006 C 
BRANCH  10  11
ATOM     11  C   UNL     1      38.522  23.021  53.595  1.00  0.00     0.053 C 
BRANCH  11  12
ATOM     12  C   UNL     1      37.799  23.757  52.511  1.00  0.00     0.041 C 
ATOM     13  O   UNL     1      37.906  25.008  52.416  1.00  0.00    -0.550 OA
ATOM     14  O   UNL     1      37.049  23.056  51.575  1.00  0.00    -0.550 OA
ENDBRANCH  11  12
ENDBRANCH  10  11
ENDBRANCH   9  10
ENDBRANCH   8   9
ENDBRANCH   7   8
ENDBRANCH   6   7
ENDBRANCH   5   6
ENDBRANCH   4   5
ENDBRANCH   3   4
ENDBRANCH   2   3
ENDBRANCH   1   2
BRANCH   1  15
ATOM     15  C   UNL     1      30.302  23.520  62.535  1.00  0.00     0.000 C 
BRANCH  15  16
ATOM     16  C   UNL     1      30.004  22.875  63.901  1.00  0.00     0.000 C 
BRANCH  16  17
ATOM     17  C   UNL     1      29.019  23.713  64.744  1.00  0.00     0.000 C 
BRANCH  17  18
ATOM     18  C   UNL     1      29.194  23.536  66.262  1.00  0.00    -0.000 C 
BRANCH  18  19
ATOM     19  C   UNL     1      30.532  24.091  66.774  1.00  0.00    -0.000 C 
BRANCH  19  20
ATOM     20  C   UNL     1      31.602  22.999  66.968  1.00  0.00    -0.000 C 
BRANCH  20  21
ATOM     21  C   UNL     1      32.933  23.250  66.233  1.00  0.00    -0.000 C 
BRANCH  21  22
ATOM     22  C   UNL     1      33.396  24.720  66.203  1.00  0.00    -0.000 C 
BRANCH  22  23
ATOM     23  C   UNL     1      34.024  25.145  64.857  1.00  0.00    -0.000 C 
BRANCH  23  24
ATOM     24  C   UNL     1      35.538  25.378  64.967  1.00  0.00    -0.000 C 
BRANCH  24  25
ATOM     25  C   UNL     1      35.849  26.850  65.256  1.00  0.00    -0.003 C 
ATOM     26  C   UNL     1      37.075  26.990  66.155  1.00  0.00     0.004 C 
ENDBRANCH  24  25
ENDBRANCH  23  24
ENDBRANCH  22  23
ENDBRANCH  21  22
ENDBRANCH  20  21
ENDBRANCH  19  20
ENDBRANCH  18  19
ENDBRANCH  17  18
ENDBRANCH  16  17
ENDBRANCH  15  16
ENDBRANCH   1  15
TORSDOF 22
ENDMDL
MODEL 3
REMARK VINA RESULT:     1.296      4.436      9.761
REMARK INTER + INTRA:           1.601
REMARK INTER:                   2.616
REMARK INTRA:                  -1.015
REMARK UNBOUND:                -1.361
REMARK SMILES CCCCCCCCCCCCCCCCCCCCCCCC(=O)[O-]
REMARK SMILES IDX 13 1 14 2 15 3 16 4 17 5 18 6 19 7 20 8 21 9 22 10 23 11
REMARK SMILES IDX 24 12 25 13 26 14 12 15 11 16 10 17 9 18 8 19 7 20 6 21 5 22
REMARK SMILES IDX 4 23 3 24 2 25 1 26
REMARK H PARENT
REMARK Flexibility Score: inf
ROOT
ATOM      1  C   UNL     1      30.857  22.922  61.762  1.00  0.00     0.000 C 
ENDROOT
BRANCH   1   2
ATOM      2  C   UNL     1      31.905  23.625  60.883  1.00  0.00     0.000 C 
BRANCH   2   3
ATOM      3  C   UNL     1      31.883  23.134  59.426  1.00  0.00     0.000 C 
BRANCH   3   4
ATOM      4  C   UNL     1      33.171  23.485  58.659  1.00  0.00     0.000 C 
BRANCH   4   5
ATOM      5  C   UNL     1      33.037  24.643  57.653  1.00  0.00     0.000 C 
BRANCH   5   6
ATOM      6  C   UNL     1      33.391  24.229  56.215  1.00  0.00     0.000 C 
BRANCH   6   7
ATOM      7  C   UNL     1      34.783  23.587  56.105  1.00  0.00     0.000 C 
BRANCH   7   8
ATOM      8  C   UNL     1      35.899  24.618  55.877  1.00  0.00     0.000 C 
BRANCH   8   9
ATOM      9  C   UNL     1      37.282  23.993  56.093  1.00  0.00     0.000 C 
BRANCH   9  10
ATOM     10  C   UNL     1      38.025  23.824  54.763  1.00  0.00     0.006 C 
BRANCH  10  11
ATOM     11  C   UNL     1      37.350  24.628  53.649  1.00  0.00     0.053 C 
BRANCH  11  12
ATOM     12  C   UNL     1      37.332  23.846  52.373  1.00  0.00     0.041 C 
ATOM     13  O   UNL     1      38.393  23.331  51.932  1.00  0.00    -0.550 OA
ATOM     14  O   UNL     1      36.135  23.644  51.697  1.00  0.00    -0.550 OA
ENDBRANCH  11  12
ENDBRANCH  10  11
ENDBRANCH   9  10
ENDBRANCH   8   9
ENDBRANCH   7   8
ENDBRANCH   6   7
ENDBRANCH   5   6
ENDBRANCH   4   5
ENDBRANCH   3   4
ENDBRANCH   2   3
ENDBRANCH   1   2
BRANCH   1  15
ATOM     15  C   UNL     1      30.282  23.821  62.879  1.00  0.00     0.000 C 
BRANCH  15  16
ATOM     16  C   UNL     1      30.465  23.197  64.274  1.00  0.00     0.000 C 
BRANCH  16  17
ATOM     17  C   UNL     1      31.376  24.047  65.184  1.00  0.00     0.000 C 
BRANCH  17  18
ATOM     18  C   UNL     1      32.703  23.361  65.550  1.00  0.00    -0.000 C 
BRANCH  18  19
ATOM     19  C   UNL     1      33.734  24.336  66.139  1.00  0.00    -0.000 C 
BRANCH  19  20
ATOM     20  C   UNL     1      34.568  25.054  65.060  1.00  0.00    -0.000 C 
BRANCH  20  21
ATOM     21  C   UNL     1      35.261  26.349  65.524  1.00  0.00    -0.000 C 
BRANCH  21  22
ATOM     22  C   UNL     1      36.797  26.352  65.394  1.00  0.00    -0.000 C 
BRANCH  22  23
ATOM     23  C   UNL     1      37.531  26.680  66.712  1.00  0.00    -0.000 C 
BRANCH  23  24
ATOM     24  C   UNL     1      38.996  27.077  66.482  1.00  0.00    -0.000 C 
BRANCH  24  25
ATOM     25  C   UNL     1      39.243  28.533  66.886  1.00  0.00    -0.003 C 
ATOM     26  C   UNL     1      38.776  29.496  65.798  1.00  0.00     0.004 C 
ENDBRANCH  24  25
ENDBRANCH  23  24
ENDBRANCH  22  23
ENDBRANCH  21  22
ENDBRANCH  20  21
ENDBRANCH  19  20
ENDBRANCH  18  19
ENDBRANCH  17  18
ENDBRANCH  16  17
ENDBRANCH  15  16
ENDBRANCH   1  15
TORSDOF 22
ENDMDL
MODEL 4
REMARK VINA RESULT:     1.610      3.832      8.799
REMARK INTER + INTRA:           2.318
REMARK INTER:                   3.020
REMARK INTRA:                  -0.702
REMARK UNBOUND:                -1.361
REMARK SMILES CCCCCCCCCCCCCCCCCCCCCCCC(=O)[O-]
REMARK SMILES IDX 13 1 14 2 15 3 16 4 17 5 18 6 19 7 20 8 21 9 22 10 23 11
REMARK SMILES IDX 24 12 25 13 26 14 12 15 11 16 10 17 9 18 8 19 7 20 6 21 5 22
REMARK SMILES IDX 4 23 3 24 2 25 1 26
REMARK H PARENT
REMARK Flexibility Score: inf
ROOT
ATOM      1  C   UNL     1      29.978  22.876  63.981  1.00  0.00     0.000 C 
ENDROOT
BRANCH   1   2
ATOM      2  C   UNL     1      29.080  23.618  62.977  1.00  0.00     0.000 C 
BRANCH   2   3
ATOM      3  C   UNL     1      29.634  23.577  61.542  1.00  0.00     0.000 C 
BRANCH   3   4
ATOM      4  C   UNL     1      31.094  23.093  61.480  1.00  0.00     0.000 C 
BRANCH   4   5
ATOM      5  C   UNL     1      32.008  23.895  60.535  1.00  0.00     0.000 C 
BRANCH   5   6
ATOM      6  C   UNL     1      32.127  23.260  59.139  1.00  0.00     0.000 C 
BRANCH   6   7
ATOM      7  C   UNL     1      33.436  23.632  58.426  1.00  0.00     0.000 C 
BRANCH   7   8
ATOM      8  C   UNL     1      33.205  24.412  57.121  1.00  0.00     0.000 C 
BRANCH   8   9
ATOM      9  C   UNL     1      33.943  23.757  55.948  1.00  0.00     0.000 C 
BRANCH   9  10
ATOM     10  C   UNL     1      35.450  23.679  56.219  1.00  0.00     0.006 C 
BRANCH  10  11
ATOM     11  C   UNL     1      36.200  24.794  55.486  1.00  0.00     0.053 C 
BRANCH  11  12
ATOM     12  C   UNL     1      36.916  24.249  54.291  1.00  0.00     0.041 C 
ATOM     13  O   UNL     1      37.935  23.524  54.439  1.00  0.00    -0.550 OA
ATOM     14  O   UNL     1      36.428  24.499  53.014  1.00  0.00    -0.550 OA
ENDBRANCH  11  12
ENDBRANCH  10  11
ENDBRANCH   9  10
ENDBRANCH   8   9
ENDBRANCH   7   8
ENDBRANCH   6   7
ENDBRANCH   5   6
ENDBRANCH   4   5
ENDBRANCH   3   4
ENDBRANCH   2   3
ENDBRANCH   1   2
BRANCH   1  15
ATOM     15  C   UNL     1      29.463  22.938  65.435  1.00  0.00     0.000 C 
BRANCH  15  16
ATOM     16  C   UNL     1      29.713  24.314  66.078  1.00  0.00     0.000 C 
BRANCH  16  17
ATOM     17  C   UNL     1      31.184  24.504  66.508  1.00  0.00     0.000 C 
BRANCH  17  18
ATOM     18  C   UNL     1      32.180  24.493  65.336  1.00  0.00    -0.000 C 
BRANCH  18  19
ATOM     19  C   UNL     1      33.637  24.666  65.793  1.00  0.00    -0.000 C 
BRANCH  19  20
ATOM     20  C   UNL     1      34.441  25.621  64.891  1.00  0.00    -0.000 C 
BRANCH  20  21
ATOM     21  C   UNL     1      35.973  25.515  65.028  1.00  0.00    -0.000 C 
BRANCH  21  22
ATOM     22  C   UNL     1      36.592  26.389  66.136  1.00  0.00    -0.000 C 
BRANCH  22  23
ATOM     23  C   UNL     1      37.033  27.787  65.650  1.00  0.00    -0.000 C 
BRANCH  23  24
ATOM     24  C   UNL     1      38.047  28.443  66.598  1.00  0.00    -0.000 C 
BRANCH  24  25
ATOM     25  C   UNL     1      39.479  28.258  66.086  1.00  0.00    -0.003 C 
ATOM     26  C   UNL     1      40.195  27.139  66.836  1.00  0.00     0.004 C 
ENDBRANCH  24  25
ENDBRANCH  23  24
ENDBRANCH  22  23
ENDBRANCH  21  22
ENDBRANCH  20  21
ENDBRANCH  19  20
ENDBRANCH  18  19
ENDBRANCH  17  18
ENDBRANCH  16  17
ENDBRANCH  15  16
ENDBRANCH   1  15
TORSDOF 22
ENDMDL
MODEL 5
REMARK VINA RESULT:     1.668      3.184      8.795
REMARK INTER + INTRA:           2.453
REMARK INTER:                   3.636
REMARK INTRA:                  -1.183
REMARK UNBOUND:                -1.361
REMARK SMILES CCCCCCCCCCCCCCCCCCCCCCCC(=O)[O-]
REMARK SMILES IDX 13 1 14 2 15 3 16 4 17 5 18 6 19 7 20 8 21 9 22 10 23 11
REMARK SMILES IDX 24 12 25 13 26 14 12 15 11 16 10 17 9 18 8 19 7 20 6 21 5 22
REMARK SMILES IDX 4 23 3 24 2 25 1 26
REMARK H PARENT
REMARK Flexibility Score: inf
ROOT
ATOM      1  C   UNL     1      31.780  23.801  62.070  1.00  0.00     0.000 C 
ENDROOT
BRANCH   1   2
ATOM      2  C   UNL     1      32.083  24.318  60.654  1.00  0.00     0.000 C 
BRANCH   2   3
ATOM      3  C   UNL     1      32.137  23.191  59.609  1.00  0.00     0.000 C 
BRANCH   3   4
ATOM      4  C   UNL     1      33.188  23.444  58.513  1.00  0.00     0.000 C 
BRANCH   4   5
ATOM      5  C   UNL     1      32.888  24.633  57.583  1.00  0.00     0.000 C 
BRANCH   5   6
ATOM      6  C   UNL     1      33.483  24.456  56.175  1.00  0.00     0.000 C 
BRANCH   6   7
ATOM      7  C   UNL     1      34.803  23.669  56.183  1.00  0.00     0.000 C 
BRANCH   7   8
ATOM      8  C   UNL     1      35.319  23.355  54.769  1.00  0.00     0.000 C 
BRANCH   8   9
ATOM      9  C   UNL     1      36.630  24.098  54.482  1.00  0.00     0.000 C 
BRANCH   9  10
ATOM     10  C   UNL     1      37.389  24.399  55.779  1.00  0.00     0.006 C 
BRANCH  10  11
ATOM     11  C   UNL     1      38.252  23.207  56.201  1.00  0.00     0.053 C 
BRANCH  11  12
ATOM     12  C   UNL     1      39.654  23.647  56.483  1.00  0.00     0.041 C 
ATOM     13  O   UNL     1      40.080  24.738  56.020  1.00  0.00    -0.550 OA
ATOM     14  O   UNL     1      40.475  22.877  57.297  1.00  0.00    -0.550 OA
ENDBRANCH  11  12
ENDBRANCH  10  11
ENDBRANCH   9  10
ENDBRANCH   8   9
ENDBRANCH   7   8
ENDBRANCH   6   7
ENDBRANCH   5   6
ENDBRANCH   4   5
ENDBRANCH   3   4
ENDBRANCH   2   3
ENDBRANCH   1   2
BRANCH   1  15
ATOM     15  C   UNL     1      30.270  23.697  62.381  1.00  0.00     0.000 C 
BRANCH  15  16
ATOM     16  C   UNL     1      29.998  22.876  63.655  1.00  0.00     0.000 C 
BRANCH  16  17
ATOM     17  C   UNL     1      29.052  23.605  64.633  1.00  0.00     0.000 C 
BRANCH  17  18
ATOM     18  C   UNL     1      29.630  23.773  66.048  1.00  0.00    -0.000 C 
BRANCH  18  19
ATOM     19  C   UNL     1      31.010  24.448  66.050  1.00  0.00    -0.000 C 
BRANCH  19  20
ATOM     20  C   UNL     1      32.173  23.442  66.145  1.00  0.00    -0.000 C 
BRANCH  20  21
ATOM     21  C   UNL     1      33.455  23.852  65.394  1.00  0.00    -0.000 C 
BRANCH  21  22
ATOM     22  C   UNL     1      34.128  25.141  65.904  1.00  0.00    -0.000 C 
BRANCH  22  23
ATOM     23  C   UNL     1      35.216  25.689  64.956  1.00  0.00    -0.000 C 
BRANCH  23  24
ATOM     24  C   UNL     1      36.442  26.216  65.717  1.00  0.00    -0.000 C 
BRANCH  24  25
ATOM     25  C   UNL     1      36.774  27.653  65.301  1.00  0.00    -0.003 C 
ATOM     26  C   UNL     1      38.053  28.142  65.975  1.00  0.00     0.004 C 
ENDBRANCH  24  25
ENDBRANCH  23  24
ENDBRANCH  22  23
ENDBRANCH  21  22
ENDBRANCH  20  21
ENDBRANCH  19  20
ENDBRANCH  18  19
ENDBRANCH  17  18
ENDBRANCH  16  17
ENDBRANCH  15  16
ENDBRANCH   1  15
TORSDOF 22
ENDMDL
MODEL 6
REMARK VINA RESULT:     2.080      2.624      6.384
REMARK INTER + INTRA:           3.394
REMARK INTER:                   3.530
REMARK INTRA:                  -0.135
REMARK UNBOUND:                -1.361
REMARK SMILES CCCCCCCCCCCCCCCCCCCCCCCC(=O)[O-]
REMARK SMILES IDX 13 1 14 2 15 3 16 4 17 5 18 6 19 7 20 8 21 9 22 10 23 11
REMARK SMILES IDX 24 12 25 13 26 14 12 15 11 16 10 17 9 18 8 19 7 20 6 21 5 22
REMARK SMILES IDX 4 23 3 24 2 25 1 26
REMARK H PARENT
REMARK Flexibility Score: inf
ROOT
ATOM      1  C   UNL     1      33.017  24.127  57.674  1.00  0.00     0.000 C 
ENDROOT
BRANCH   1   2
ATOM      2  C   UNL     1      32.636  23.275  58.897  1.00  0.00     0.000 C 
BRANCH   2   3
ATOM      3  C   UNL     1      32.122  24.121  60.074  1.00  0.00     0.000 C 
BRANCH   3   4
ATOM      4  C   UNL     1      31.836  23.281  61.332  1.00  0.00     0.000 C 
BRANCH   4   5
ATOM      5  C   UNL     1      30.436  23.476  61.942  1.00  0.00     0.000 C 
BRANCH   5   6
ATOM      6  C   UNL     1      30.347  22.989  63.399  1.00  0.00     0.000 C 
BRANCH   6   7
ATOM      7  C   UNL     1      29.216  23.670  64.186  1.00  0.00     0.000 C 
BRANCH   7   8
ATOM      8  C   UNL     1      29.710  24.346  65.475  1.00  0.00     0.000 C 
BRANCH   8   9
ATOM      9  C   UNL     1      30.895  23.585  66.080  1.00  0.00     0.000 C 
BRANCH   9  10
ATOM     10  C   UNL     1      31.921  24.551  66.684  1.00  0.00     0.006 C 
BRANCH  10  11
ATOM     11  C   UNL     1      33.348  24.144  66.310  1.00  0.00     0.053 C 
BRANCH  11  12
ATOM     12  C   UNL     1      33.817  24.911  65.114  1.00  0.00     0.041 C 
ATOM     13  O   UNL     1      33.028  25.138  64.159  1.00  0.00    -0.550 OA
ATOM     14  O   UNL     1      35.109  25.420  65.076  1.00  0.00    -0.550 OA
ENDBRANCH  11  12
ENDBRANCH  10  11
ENDBRANCH   9  10
ENDBRANCH   8   9
ENDBRANCH   7   8
ENDBRANCH   6   7
ENDBRANCH   5   6
ENDBRANCH   4   5
ENDBRANCH   3   4
ENDBRANCH   2   3
ENDBRANCH   1   2
BRANCH   1  15
ATOM     15  C   UNL     1      34.285  23.632  56.946  1.00  0.00     0.000 C 
BRANCH  15  16
ATOM     16  C   UNL     1      34.725  24.600  55.832  1.00  0.00     0.000 C 
BRANCH  16  17
ATOM     17  C   UNL     1      35.498  23.884  54.703  1.00  0.00     0.000 C 
BRANCH  17  18
ATOM     18  C   UNL     1      35.662  24.731  53.429  1.00  0.00    -0.000 C 
BRANCH  18  19
ATOM     19  C   UNL     1      35.859  23.875  52.168  1.00  0.00    -0.000 C 
BRANCH  19  20
ATOM     20  C   UNL     1      37.147  23.031  52.209  1.00  0.00    -0.000 C 
BRANCH  20  21
ATOM     21  C   UNL     1      38.238  23.550  53.166  1.00  0.00    -0.000 C 
BRANCH  21  22
ATOM     22  C   UNL     1      38.261  22.881  54.554  1.00  0.00    -0.000 C 
BRANCH  22  23
ATOM     23  C   UNL     1      39.618  23.006  55.280  1.00  0.00    -0.000 C 
BRANCH  23  24
ATOM     24  C   UNL     1      39.493  23.722  56.633  1.00  0.00    -0.000 C 
BRANCH  24  25
ATOM     25  C   UNL     1      40.815  24.385  57.031  1.00  0.00    -0.003 C 
ATOM     26  C   UNL     1      40.938  24.507  58.548  1.00  0.00     0.004 C 
ENDBRANCH  24  25
ENDBRANCH  23  24
ENDBRANCH  22  23
ENDBRANCH  21  22
ENDBRANCH  20  21
ENDBRANCH  19  20
ENDBRANCH  18  19
ENDBRANCH  17  18
ENDBRANCH  16  17
ENDBRANCH  15  16
ENDBRANCH   1  15
TORSDOF 22
ENDMDL
MODEL 7
REMARK VINA RESULT:     2.890      4.682     10.476
REMARK INTER + INTRA:           5.246
REMARK INTER:                   4.672
REMARK INTRA:                   0.574
REMARK UNBOUND:                -1.361
REMARK SMILES CCCCCCCCCCCCCCCCCCCCCCCC(=O)[O-]
REMARK SMILES IDX 13 1 14 2 15 3 16 4 17 5 18 6 19 7 20 8 21 9 22 10 23 11
REMARK SMILES IDX 24 12 25 13 26 14 12 15 11 16 10 17 9 18 8 19 7 20 6 21 5 22
REMARK SMILES IDX 4 23 3 24 2 25 1 26
REMARK H PARENT
REMARK Flexibility Score: inf
ROOT
ATOM      1  C   UNL     1      33.194  23.190  58.920  1.00  0.00     0.000 C 
ENDROOT
BRANCH   1   2
ATOM      2  C   UNL     1      33.508  24.480  58.145  1.00  0.00     0.000 C 
BRANCH   2   3
ATOM      3  C   UNL     1      33.110  24.394  56.662  1.00  0.00     0.000 C 
BRANCH   3   4
ATOM      4  C   UNL     1      34.303  24.079  55.741  1.00  0.00     0.000 C 
BRANCH   4   5
ATOM      5  C   UNL     1      35.682  24.111  56.426  1.00  0.00     0.000 C 
BRANCH   5   6
ATOM      6  C   UNL     1      36.596  22.956  55.980  1.00  0.00     0.000 C 
BRANCH   6   7
ATOM      7  C   UNL     1      37.895  22.876  56.798  1.00  0.00     0.000 C 
BRANCH   7   8
ATOM      8  C   UNL     1      39.076  23.582  56.113  1.00  0.00     0.000 C 
BRANCH   8   9
ATOM      9  C   UNL     1      38.975  23.473  54.586  1.00  0.00     0.000 C 
BRANCH   9  10
ATOM     10  C   UNL     1      37.676  24.103  54.073  1.00  0.00     0.006 C 
BRANCH  10  11
ATOM     11  C   UNL     1      37.678  24.205  52.546  1.00  0.00     0.053 C 
BRANCH  11  12
ATOM     12  C   UNL     1      36.640  23.303  51.957  1.00  0.00     0.041 C 
ATOM     13  O   UNL     1      36.763  22.883  50.776  1.00  0.00    -0.550 OA
ATOM     14  O   UNL     1      35.563  22.885  52.729  1.00  0.00    -0.550 OA
ENDBRANCH  11  12
ENDBRANCH  10  11
ENDBRANCH   9  10
ENDBRANCH   8   9
ENDBRANCH   7   8
ENDBRANCH   6   7
ENDBRANCH   5   6
ENDBRANCH   4   5
ENDBRANCH   3   4
ENDBRANCH   2   3
ENDBRANCH   1   2
BRANCH   1  15
ATOM     15  C   UNL     1      31.819  23.210  59.624  1.00  0.00     0.000 C 
BRANCH  15  16
ATOM     16  C   UNL     1      31.956  23.342  61.152  1.00  0.00     0.000 C 
BRANCH  16  17
ATOM     17  C   UNL     1      30.749  24.063  61.791  1.00  0.00     0.000 C 
BRANCH  17  18
ATOM     18  C   UNL     1      29.960  23.193  62.784  1.00  0.00    -0.000 C 
BRANCH  18  19
ATOM     19  C   UNL     1      30.390  23.417  64.242  1.00  0.00    -0.000 C 
BRANCH  19  20
ATOM     20  C   UNL     1      29.260  23.984  65.122  1.00  0.00    -0.000 C 
BRANCH  20  21
ATOM     21  C   UNL     1      29.498  23.876  66.641  1.00  0.00    -0.000 C 
BRANCH  21  22
ATOM     22  C   UNL     1      30.956  23.598  67.056  1.00  0.00    -0.000 C 
BRANCH  22  23
ATOM     23  C   UNL     1      31.952  24.681  66.588  1.00  0.00    -0.000 C 
BRANCH  23  24
ATOM     24  C   UNL     1      33.410  24.303  66.889  1.00  0.00    -0.000 C 
BRANCH  24  25
ATOM     25  C   UNL     1      34.337  24.727  65.746  1.00  0.00    -0.003 C 
ATOM     26  C   UNL     1      33.544  25.308  64.578  1.00  0.00     0.004 C 
ENDBRANCH  24  25
ENDBRANCH  23  24
ENDBRANCH  22  23
ENDBRANCH  21  22
ENDBRANCH  20  21
ENDBRANCH  19  20
ENDBRANCH  18  19
ENDBRANCH  17  18
ENDBRANCH  16  17
ENDBRANCH  15  16
ENDBRANCH   1  15
TORSDOF 22
ENDMDL
MODEL 8
REMARK VINA RESULT:     2.937      1.206      2.030
REMARK INTER + INTRA:           5.353
REMARK INTER:                   5.984
REMARK INTRA:                  -0.631
REMARK UNBOUND:                -1.361
REMARK SMILES CCCCCCCCCCCCCCCCCCCCCCCC(=O)[O-]
REMARK SMILES IDX 13 1 14 2 15 3 16 4 17 5 18 6 19 7 20 8 21 9 22 10 23 11
REMARK SMILES IDX 24 12 25 13 26 14 12 15 11 16 10 17 9 18 8 19 7 20 6 21 5 22
REMARK SMILES IDX 4 23 3 24 2 25 1 26
REMARK H PARENT
REMARK Flexibility Score: inf
ROOT
ATOM      1  C   UNL     1      30.402  24.057  65.238  1.00  0.00     0.000 C 
ENDROOT
BRANCH   1   2
ATOM      2  C   UNL     1      31.865  23.621  65.427  1.00  0.00     0.000 C 
BRANCH   2   3
ATOM      3  C   UNL     1      32.594  24.438  66.506  1.00  0.00     0.000 C 
BRANCH   3   4
ATOM      4  C   UNL     1      34.096  24.608  66.214  1.00  0.00     0.000 C 
BRANCH   4   5
ATOM      5  C   UNL     1      34.436  25.647  65.130  1.00  0.00     0.000 C 
BRANCH   5   6
ATOM      6  C   UNL     1      35.949  25.894  64.995  1.00  0.00     0.000 C 
BRANCH   6   7
ATOM      7  C   UNL     1      36.538  26.653  66.195  1.00  0.00     0.000 C 
BRANCH   7   8
ATOM      8  C   UNL     1      37.746  25.937  66.818  1.00  0.00     0.000 C 
BRANCH   8   9
ATOM      9  C   UNL     1      38.957  26.875  66.910  1.00  0.00     0.000 C 
BRANCH   9  10
ATOM     10  C   UNL     1      38.513  28.335  67.056  1.00  0.00     0.006 C 
BRANCH  10  11
ATOM     11  C   UNL     1      38.633  29.082  65.725  1.00  0.00     0.053 C 
BRANCH  11  12
ATOM     12  C   UNL     1      38.953  30.525  65.959  1.00  0.00     0.041 C 
ATOM     13  O   UNL     1      38.661  31.067  67.058  1.00  0.00    -0.550 OA
ATOM     14  O   UNL     1      39.619  31.257  64.985  1.00  0.00    -0.550 OA
ENDBRANCH  11  12
ENDBRANCH  10  11
ENDBRANCH   9  10
ENDBRANCH   8   9
ENDBRANCH   7   8
ENDBRANCH   6   7
ENDBRANCH   5   6
ENDBRANCH   4   5
ENDBRANCH   3   4
ENDBRANCH   2   3
ENDBRANCH   1   2
BRANCH   1  15
ATOM     15  C   UNL     1      29.935  24.035  63.766  1.00  0.00     0.000 C 
BRANCH  15  16
ATOM     16  C   UNL     1      30.793  23.093  62.902  1.00  0.00     0.000 C 
BRANCH  16  17
ATOM     17  C   UNL     1      31.809  23.859  62.028  1.00  0.00     0.000 C 
BRANCH  17  18
ATOM     18  C   UNL     1      31.508  23.791  60.521  1.00  0.00    -0.000 C 
BRANCH  18  19
ATOM     19  C   UNL     1      32.666  23.189  59.710  1.00  0.00    -0.000 C 
BRANCH  19  20
ATOM     20  C   UNL     1      32.870  23.879  58.349  1.00  0.00    -0.000 C 
BRANCH  20  21
ATOM     21  C   UNL     1      34.268  23.697  57.726  1.00  0.00    -0.000 C 
BRANCH  21  22
ATOM     22  C   UNL     1      34.404  24.184  56.270  1.00  0.00    -0.000 C 
BRANCH  22  23
ATOM     23  C   UNL     1      35.553  23.504  55.494  1.00  0.00    -0.000 C 
BRANCH  23  24
ATOM     24  C   UNL     1      35.787  24.145  54.118  1.00  0.00    -0.000 C 
BRANCH  24  25
ATOM     25  C   UNL     1      37.251  24.008  53.688  1.00  0.00    -0.003 C 
ATOM     26  C   UNL     1      37.378  23.957  52.167  1.00  0.00     0.004 C 
ENDBRANCH  24  25
ENDBRANCH  23  24
ENDBRANCH  22  23
ENDBRANCH  21  22
ENDBRANCH  20  21
ENDBRANCH  19  20
ENDBRANCH  18  19
ENDBRANCH  17  18
ENDBRANCH  16  17
ENDBRANCH  15  16
ENDBRANCH   1  15
TORSDOF 22
ENDMDL
