MODEL 1
REMARK VINA RESULT:    -3.893      0.000      0.000
REMARK INTER + INTRA:          -8.789
REMARK INTER:                  -7.080
REMARK INTRA:                  -1.709
REMARK UNBOUND:                -1.709
REMARK SMILES CCCCCCCCCCCCCCCC(=O)[O-]
REMARK SMILES IDX 9 1 10 2 11 3 12 4 13 5 14 6 15 7 16 8 17 9 18 10 8 11 7 12
REMARK SMILES IDX 6 13 5 14 4 15 3 16 2 17 1 18
REMARK H PARENT
REMARK Flexibility Score: inf
ROOT
ATOM      1  C   UNL     1      -8.633  -3.157  -5.604  1.00  0.00     0.000 C 
ENDROOT
BRANCH   1   2
ATOM      2  C   UNL     1      -9.450  -2.520  -6.738  1.00  0.00     0.000 C 
BRANCH   2   3
ATOM      3  C   UNL     1      -8.891  -1.156  -7.175  1.00  0.00     0.000 C 
BRANCH   3   4
ATOM      4  C   UNL     1      -7.354  -1.144  -7.249  1.00  0.00     0.000 C 
BRANCH   4   5
ATOM      5  C   UNL     1      -6.834  -0.980  -8.685  1.00  0.00     0.000 C 
BRANCH   5   6
ATOM      6  C   UNL     1      -6.234  -2.277  -9.247  1.00  0.00     0.006 C 
BRANCH   6   7
ATOM      7  C   UNL     1      -5.919  -3.268  -8.122  1.00  0.00     0.053 C 
BRANCH   7   8
ATOM      8  C   UNL     1      -4.457  -3.589  -8.100  1.00  0.00     0.041 C 
ATOM      9  O   UNL     1      -3.684  -2.965  -7.327  1.00  0.00    -0.550 OA
ATOM     10  O   UNL     1      -3.959  -4.611  -8.897  1.00  0.00    -0.550 OA
ENDBRANCH   7   8
ENDBRANCH   6   7
ENDBRANCH   5   6
ENDBRANCH   4   5
ENDBRANCH   3   4
ENDBRANCH   2   3
ENDBRANCH   1   2
BRANCH   1  11
ATOM     11  C   UNL     1      -9.337  -2.979  -4.254  1.00  0.00     0.000 C 
BRANCH  11  12
ATOM     12  C   UNL     1      -8.490  -2.130  -3.298  1.00  0.00    -0.000 C 
BRANCH  12  13
ATOM     13  C   UNL     1      -8.705  -0.633  -3.553  1.00  0.00    -0.000 C 
BRANCH  13  14
ATOM     14  C   UNL     1      -7.362   0.108  -3.643  1.00  0.00    -0.000 C 
BRANCH  14  15
ATOM     15  C   UNL     1      -7.430   1.362  -4.532  1.00  0.00    -0.000 C 
BRANCH  15  16
ATOM     16  C   UNL     1      -7.062   2.683  -3.826  1.00  0.00    -0.000 C 
BRANCH  16  17
ATOM     17  C   UNL     1      -8.190   3.731  -3.780  1.00  0.00    -0.003 C 
ATOM     18  C   UNL     1      -9.409   3.257  -2.992  1.00  0.00     0.004 C 
ENDBRANCH  16  17
ENDBRANCH  15  16
ENDBRANCH  14  15
ENDBRANCH  13  14
ENDBRANCH  12  13
ENDBRANCH  11  12
ENDBRANCH   1  11
TORSDOF 14
ENDMDL
MODEL 2
REMARK VINA RESULT:    -3.772      1.629      2.348
REMARK INTER + INTRA:          -8.568
REMARK INTER:                  -7.731
REMARK INTRA:                  -0.837
REMARK UNBOUND:                -1.709
REMARK SMILES CCCCCCCCCCCCCCCC(=O)[O-]
REMARK SMILES IDX 9 1 10 2 11 3 12 4 13 5 14 6 15 7 16 8 17 9 18 10 8 11 7 12
REMARK SMILES IDX 6 13 5 14 4 15 3 16 2 17 1 18
REMARK H PARENT
REMARK Flexibility Score: inf
ROOT
ATOM      1  C   UNL     1      -8.333  -1.597  -6.885  1.00  0.00     0.000 C 
ENDROOT
BRANCH   1   2
ATOM      2  C   UNL     1      -7.760  -3.022  -6.883  1.00  0.00     0.000 C 
BRANCH   2   3
ATOM      3  C   UNL     1      -7.312  -3.481  -8.281  1.00  0.00     0.000 C 
BRANCH   3   4
ATOM      4  C   UNL     1      -6.032  -2.770  -8.754  1.00  0.00     0.000 C 
BRANCH   4   5
ATOM      5  C   UNL     1      -5.068  -3.716  -9.487  1.00  0.00     0.000 C 
BRANCH   5   6
ATOM      6  C   UNL     1      -4.029  -4.345  -8.548  1.00  0.00     0.006 C 
BRANCH   6   7
ATOM      7  C   UNL     1      -3.227  -3.265  -7.816  1.00  0.00     0.053 C 
BRANCH   7   8
ATOM      8  C   UNL     1      -1.873  -3.108  -8.434  1.00  0.00     0.041 C 
ATOM      9  O   UNL     1      -1.760  -2.673  -9.610  1.00  0.00    -0.550 OA
ATOM     10  O   UNL     1      -0.734  -3.396  -7.694  1.00  0.00    -0.550 OA
ENDBRANCH   7   8
ENDBRANCH   6   7
ENDBRANCH   5   6
ENDBRANCH   4   5
ENDBRANCH   3   4
ENDBRANCH   2   3
ENDBRANCH   1   2
BRANCH   1  11
ATOM     11  C   UNL     1      -7.880  -0.823  -5.642  1.00  0.00     0.000 C 
BRANCH  11  12
ATOM     12  C   UNL     1      -8.179  -1.612  -4.361  1.00  0.00    -0.000 C 
BRANCH  12  13
ATOM     13  C   UNL     1      -8.018  -0.727  -3.119  1.00  0.00    -0.000 C 
BRANCH  13  14
ATOM     14  C   UNL     1      -7.231   0.549  -3.452  1.00  0.00    -0.000 C 
BRANCH  14  15
ATOM     15  C   UNL     1      -7.955   1.832  -3.004  1.00  0.00    -0.000 C 
BRANCH  15  16
ATOM     16  C   UNL     1      -7.799   3.036  -3.954  1.00  0.00    -0.000 C 
BRANCH  16  17
ATOM     17  C   UNL     1      -9.110   3.766  -4.298  1.00  0.00    -0.003 C 
ATOM     18  C   UNL     1      -9.431   4.901  -3.328  1.00  0.00     0.004 C 
ENDBRANCH  16  17
ENDBRANCH  15  16
ENDBRANCH  14  15
ENDBRANCH  13  14
ENDBRANCH  12  13
ENDBRANCH  11  12
ENDBRANCH   1  11
TORSDOF 14
ENDMDL
MODEL 3
REMARK VINA RESULT:    -3.768      1.886      2.879
REMARK INTER + INTRA:          -8.562
REMARK INTER:                  -7.234
REMARK INTRA:                  -1.328
REMARK UNBOUND:                -1.709
REMARK SMILES CCCCCCCCCCCCCCCC(=O)[O-]
REMARK SMILES IDX 9 1 10 2 11 3 12 4 13 5 14 6 15 7 16 8 17 9 18 10 8 11 7 12
REMARK SMILES IDX 6 13 5 14 4 15 3 16 2 17 1 18
REMARK H PARENT
REMARK Flexibility Score: inf
ROOT
ATOM      1  C   UNL     1      -7.548  -0.618  -5.648  1.00  0.00     0.000 C 
ENDROOT
BRANCH   1   2
ATOM      2  C   UNL     1      -6.856  -0.976  -6.971  1.00  0.00     0.000 C 
BRANCH   2   3
ATOM      3  C   UNL     1      -7.521  -2.164  -7.684  1.00  0.00     0.000 C 
BRANCH   3   4
ATOM      4  C   UNL     1      -6.638  -2.755  -8.797  1.00  0.00     0.000 C 
BRANCH   4   5
ATOM      5  C   UNL     1      -5.477  -3.596  -8.245  1.00  0.00     0.000 C 
BRANCH   5   6
ATOM      6  C   UNL     1      -4.152  -3.324  -8.972  1.00  0.00     0.006 C 
BRANCH   6   7
ATOM      7  C   UNL     1      -2.975  -3.343  -7.991  1.00  0.00     0.053 C 
BRANCH   7   8
ATOM      8  C   UNL     1      -1.698  -3.013  -8.698  1.00  0.00     0.041 C 
ATOM      9  O   UNL     1      -1.707  -2.738  -9.926  1.00  0.00    -0.550 OA
ATOM     10  O   UNL     1      -0.505  -2.962  -7.988  1.00  0.00    -0.550 OA
ENDBRANCH   7   8
ENDBRANCH   6   7
ENDBRANCH   5   6
ENDBRANCH   4   5
ENDBRANCH   3   4
ENDBRANCH   2   3
ENDBRANCH   1   2
BRANCH   1  11
ATOM     11  C   UNL     1      -9.040  -0.965  -5.698  1.00  0.00     0.000 C 
BRANCH  11  12
ATOM     12  C   UNL     1      -9.904   0.270  -5.409  1.00  0.00    -0.000 C 
BRANCH  12  13
ATOM     13  C   UNL     1      -9.379   1.498  -6.162  1.00  0.00    -0.000 C 
BRANCH  13  14
ATOM     14  C   UNL     1      -9.952   2.793  -5.567  1.00  0.00    -0.000 C 
BRANCH  14  15
ATOM     15  C   UNL     1      -9.100   3.350  -4.413  1.00  0.00    -0.000 C 
BRANCH  15  16
ATOM     16  C   UNL     1      -7.640   2.855  -4.379  1.00  0.00    -0.000 C 
BRANCH  16  17
ATOM     17  C   UNL     1      -7.126   2.440  -2.988  1.00  0.00    -0.003 C 
ATOM     18  C   UNL     1      -7.757   1.144  -2.483  1.00  0.00     0.004 C 
ENDBRANCH  16  17
ENDBRANCH  15  16
ENDBRANCH  14  15
ENDBRANCH  13  14
ENDBRANCH  12  13
ENDBRANCH  11  12
ENDBRANCH   1  11
TORSDOF 14
ENDMDL
MODEL 4
REMARK VINA RESULT:    -3.760     13.372     15.837
REMARK INTER + INTRA:          -8.547
REMARK INTER:                  -6.021
REMARK INTRA:                  -2.526
REMARK UNBOUND:                -1.709
REMARK SMILES CCCCCCCCCCCCCCCC(=O)[O-]
REMARK SMILES IDX 9 1 10 2 11 3 12 4 13 5 14 6 15 7 16 8 17 9 18 10 8 11 7 12
REMARK SMILES IDX 6 13 5 14 4 15 3 16 2 17 1 18
REMARK H PARENT
REMARK Flexibility Score: inf
ROOT
ATOM      1  C   UNL     1       0.015   8.660   4.882  1.00  0.00     0.000 C 
ENDROOT
BRANCH   1   2
ATOM      2  C   UNL     1      -1.211   9.450   4.400  1.00  0.00     0.000 C 
BRANCH   2   3
ATOM      3  C   UNL     1      -2.181   8.590   3.574  1.00  0.00     0.000 C 
BRANCH   3   4
ATOM      4  C   UNL     1      -3.570   9.237   3.433  1.00  0.00     0.000 C 
BRANCH   4   5
ATOM      5  C   UNL     1      -4.606   8.626   4.390  1.00  0.00     0.000 C 
BRANCH   5   6
ATOM      6  C   UNL     1      -4.597   7.091   4.368  1.00  0.00     0.006 C 
BRANCH   6   7
ATOM      7  C   UNL     1      -5.905   6.527   4.933  1.00  0.00     0.053 C 
BRANCH   7   8
ATOM      8  C   UNL     1      -5.716   5.112   5.382  1.00  0.00     0.041 C 
ATOM      9  O   UNL     1      -5.675   4.180   4.536  1.00  0.00    -0.550 OA
ATOM     10  O   UNL     1      -5.535   4.829   6.729  1.00  0.00    -0.550 OA
ENDBRANCH   7   8
ENDBRANCH   6   7
ENDBRANCH   5   6
ENDBRANCH   4   5
ENDBRANCH   3   4
ENDBRANCH   2   3
ENDBRANCH   1   2
BRANCH   1  11
ATOM     11  C   UNL     1       0.209   8.817   6.394  1.00  0.00     0.000 C 
BRANCH  11  12
ATOM     12  C   UNL     1      -1.122   9.121   7.093  1.00  0.00    -0.000 C 
BRANCH  12  13
ATOM     13  C   UNL     1      -1.530   7.973   8.023  1.00  0.00    -0.000 C 
BRANCH  13  14
ATOM     14  C   UNL     1      -2.584   7.075   7.359  1.00  0.00    -0.000 C 
BRANCH  14  15
ATOM     15  C   UNL     1      -2.075   5.646   7.100  1.00  0.00    -0.000 C 
BRANCH  15  16
ATOM     16  C   UNL     1      -1.461   5.413   5.705  1.00  0.00    -0.000 C 
BRANCH  16  17
ATOM     17  C   UNL     1       0.039   5.069   5.704  1.00  0.00    -0.003 C 
ATOM     18  C   UNL     1       0.654   5.086   7.102  1.00  0.00     0.004 C 
ENDBRANCH  16  17
ENDBRANCH  15  16
ENDBRANCH  14  15
ENDBRANCH  13  14
ENDBRANCH  12  13
ENDBRANCH  11  12
ENDBRANCH   1  11
TORSDOF 14
ENDMDL
MODEL 5
REMARK VINA RESULT:    -3.696      2.940      7.137
REMARK INTER + INTRA:          -8.430
REMARK INTER:                  -7.160
REMARK INTRA:                  -1.270
REMARK UNBOUND:                -1.709
REMARK SMILES CCCCCCCCCCCCCCCC(=O)[O-]
REMARK SMILES IDX 9 1 10 2 11 3 12 4 13 5 14 6 15 7 16 8 17 9 18 10 8 11 7 12
REMARK SMILES IDX 6 13 5 14 4 15 3 16 2 17 1 18
REMARK H PARENT
REMARK Flexibility Score: inf
ROOT
ATOM      1  C   UNL     1      -8.833  -1.287  -6.303  1.00  0.00     0.000 C 
ENDROOT
BRANCH   1   2
ATOM      2  C   UNL     1      -9.811  -0.144  -5.987  1.00  0.00     0.000 C 
BRANCH   2   3
ATOM      3  C   UNL     1      -9.287   1.226  -6.448  1.00  0.00     0.000 C 
BRANCH   3   4
ATOM      4  C   UNL     1      -9.851   2.386  -5.610  1.00  0.00     0.000 C 
BRANCH   4   5
ATOM      5  C   UNL     1      -8.787   3.037  -4.713  1.00  0.00     0.000 C 
BRANCH   5   6
ATOM      6  C   UNL     1      -9.144   2.961  -3.221  1.00  0.00     0.006 C 
BRANCH   6   7
ATOM      7  C   UNL     1      -9.319   1.506  -2.774  1.00  0.00     0.053 C 
BRANCH   7   8
ATOM      8  C   UNL     1      -7.986   0.859  -2.557  1.00  0.00     0.041 C 
ATOM      9  O   UNL     1      -7.049   1.506  -2.021  1.00  0.00    -0.550 OA
ATOM     10  O   UNL     1      -7.796  -0.472  -2.903  1.00  0.00    -0.550 OA
ENDBRANCH   7   8
ENDBRANCH   6   7
ENDBRANCH   5   6
ENDBRANCH   4   5
ENDBRANCH   3   4
ENDBRANCH   2   3
ENDBRANCH   1   2
BRANCH   1  11
ATOM     11  C   UNL     1      -7.395  -0.766  -6.400  1.00  0.00     0.000 C 
BRANCH  11  12
ATOM     12  C   UNL     1      -6.646  -1.430  -7.563  1.00  0.00    -0.000 C 
BRANCH  12  13
ATOM     13  C   UNL     1      -7.136  -2.865  -7.786  1.00  0.00    -0.000 C 
BRANCH  13  14
ATOM     14  C   UNL     1      -6.153  -3.651  -8.666  1.00  0.00    -0.000 C 
BRANCH  14  15
ATOM     15  C   UNL     1      -4.686  -3.469  -8.235  1.00  0.00    -0.000 C 
BRANCH  15  16
ATOM     16  C   UNL     1      -3.904  -4.778  -8.007  1.00  0.00    -0.000 C 
BRANCH  16  17
ATOM     17  C   UNL     1      -4.776  -6.025  -7.778  1.00  0.00    -0.003 C 
ATOM     18  C   UNL     1      -4.508  -7.133  -8.795  1.00  0.00     0.004 C 
ENDBRANCH  16  17
ENDBRANCH  15  16
ENDBRANCH  14  15
ENDBRANCH  13  14
ENDBRANCH  12  13
ENDBRANCH  11  12
ENDBRANCH   1  11
TORSDOF 14
ENDMDL
MODEL 6
REMARK VINA RESULT:    -3.635      3.093      6.583
REMARK INTER + INTRA:          -8.318
REMARK INTER:                  -6.571
REMARK INTRA:                  -1.747
REMARK UNBOUND:                -1.709
REMARK SMILES CCCCCCCCCCCCCCCC(=O)[O-]
REMARK SMILES IDX 9 1 10 2 11 3 12 4 13 5 14 6 15 7 16 8 17 9 18 10 8 11 7 12
REMARK SMILES IDX 6 13 5 14 4 15 3 16 2 17 1 18
REMARK H PARENT
REMARK Flexibility Score: inf
ROOT
ATOM      1  C   UNL     1      -9.759  -3.243  -6.634  1.00  0.00     0.000 C 
ENDROOT
BRANCH   1   2
ATOM      2  C   UNL     1      -8.657  -3.411  -5.578  1.00  0.00     0.000 C 
BRANCH   2   3
ATOM      3  C   UNL     1      -9.175  -3.199  -4.145  1.00  0.00     0.000 C 
BRANCH   3   4
ATOM      4  C   UNL     1      -8.616  -1.920  -3.498  1.00  0.00     0.000 C 
BRANCH   4   5
ATOM      5  C   UNL     1      -9.493  -0.688  -3.774  1.00  0.00     0.000 C 
BRANCH   5   6
ATOM      6  C   UNL     1      -8.807   0.333  -4.692  1.00  0.00     0.006 C 
BRANCH   6   7
ATOM      7  C   UNL     1      -7.330   0.499  -4.320  1.00  0.00     0.053 C 
BRANCH   7   8
ATOM      8  C   UNL     1      -7.178   1.483  -3.203  1.00  0.00     0.041 C 
ATOM      9  O   UNL     1      -7.212   2.719  -3.439  1.00  0.00    -0.550 OA
ATOM     10  O   UNL     1      -7.047   1.035  -1.895  1.00  0.00    -0.550 OA
ENDBRANCH   7   8
ENDBRANCH   6   7
ENDBRANCH   5   6
ENDBRANCH   4   5
ENDBRANCH   3   4
ENDBRANCH   2   3
ENDBRANCH   1   2
BRANCH   1  11
ATOM     11  C   UNL     1      -9.606  -1.914  -7.381  1.00  0.00     0.000 C 
BRANCH  11  12
ATOM     12  C   UNL     1      -8.484  -1.993  -8.424  1.00  0.00    -0.000 C 
BRANCH  12  13
ATOM     13  C   UNL     1      -7.308  -1.089  -8.037  1.00  0.00    -0.000 C 
BRANCH  13  14
ATOM     14  C   UNL     1      -6.053  -1.920  -7.732  1.00  0.00    -0.000 C 
BRANCH  14  15
ATOM     15  C   UNL     1      -6.141  -3.359  -8.272  1.00  0.00    -0.000 C 
BRANCH  15  16
ATOM     16  C   UNL     1      -4.848  -3.896  -8.916  1.00  0.00    -0.000 C 
BRANCH  16  17
ATOM     17  C   UNL     1      -4.010  -4.822  -8.016  1.00  0.00    -0.003 C 
ATOM     18  C   UNL     1      -4.538  -6.255  -7.980  1.00  0.00     0.004 C 
ENDBRANCH  16  17
ENDBRANCH  15  16
ENDBRANCH  14  15
ENDBRANCH  13  14
ENDBRANCH  12  13
ENDBRANCH  11  12
ENDBRANCH   1  11
TORSDOF 14
ENDMDL
MODEL 7
REMARK VINA RESULT:    -3.608     13.595     15.784
REMARK INTER + INTRA:          -8.270
REMARK INTER:                  -5.661
REMARK INTRA:                  -2.609
REMARK UNBOUND:                -1.709
REMARK SMILES CCCCCCCCCCCCCCCC(=O)[O-]
REMARK SMILES IDX 9 1 10 2 11 3 12 4 13 5 14 6 15 7 16 8 17 9 18 10 8 11 7 12
REMARK SMILES IDX 6 13 5 14 4 15 3 16 2 17 1 18
REMARK H PARENT
REMARK Flexibility Score: inf
ROOT
ATOM      1  C   UNL     1      -1.587   8.559   4.573  1.00  0.00     0.000 C 
ENDROOT
BRANCH   1   2
ATOM      2  C   UNL     1      -1.626   9.030   6.034  1.00  0.00     0.000 C 
BRANCH   2   3
ATOM      3  C   UNL     1      -2.534   8.155   6.913  1.00  0.00     0.000 C 
BRANCH   3   4
ATOM      4  C   UNL     1      -1.769   7.008   7.595  1.00  0.00     0.000 C 
BRANCH   4   5
ATOM      5  C   UNL     1      -2.040   5.645   6.939  1.00  0.00     0.000 C 
BRANCH   5   6
ATOM      6  C   UNL     1      -0.935   5.232   5.957  1.00  0.00     0.006 C 
BRANCH   6   7
ATOM      7  C   UNL     1       0.452   5.532   6.535  1.00  0.00     0.053 C 
BRANCH   7   8
ATOM      8  C   UNL     1       0.829   4.504   7.555  1.00  0.00     0.041 C 
ATOM      9  O   UNL     1       1.369   4.854   8.637  1.00  0.00    -0.550 OA
ATOM     10  O   UNL     1       0.539   3.164   7.332  1.00  0.00    -0.550 OA
ENDBRANCH   7   8
ENDBRANCH   6   7
ENDBRANCH   5   6
ENDBRANCH   4   5
ENDBRANCH   3   4
ENDBRANCH   2   3
ENDBRANCH   1   2
BRANCH   1  11
ATOM     11  C   UNL     1      -3.003   8.359   4.023  1.00  0.00     0.000 C 
BRANCH  11  12
ATOM     12  C   UNL     1      -3.206   6.919   3.534  1.00  0.00    -0.000 C 
BRANCH  12  13
ATOM     13  C   UNL     1      -4.453   6.293   4.169  1.00  0.00    -0.000 C 
BRANCH  13  14
ATOM     14  C   UNL     1      -5.349   7.369   4.800  1.00  0.00    -0.000 C 
BRANCH  14  15
ATOM     15  C   UNL     1      -6.302   6.804   5.868  1.00  0.00    -0.000 C 
BRANCH  15  16
ATOM     16  C   UNL     1      -5.902   5.429   6.441  1.00  0.00    -0.000 C 
BRANCH  16  17
ATOM     17  C   UNL     1      -5.632   5.410   7.956  1.00  0.00    -0.003 C 
ATOM     18  C   UNL     1      -5.508   6.809   8.556  1.00  0.00     0.004 C 
ENDBRANCH  16  17
ENDBRANCH  15  16
ENDBRANCH  14  15
ENDBRANCH  13  14
ENDBRANCH  12  13
ENDBRANCH  11  12
ENDBRANCH   1  11
TORSDOF 14
ENDMDL
MODEL 8
REMARK VINA RESULT:    -3.585      3.290      6.299
REMARK INTER + INTRA:          -8.229
REMARK INTER:                  -6.398
REMARK INTRA:                  -1.830
REMARK UNBOUND:                -1.709
REMARK SMILES CCCCCCCCCCCCCCCC(=O)[O-]
REMARK SMILES IDX 9 1 10 2 11 3 12 4 13 5 14 6 15 7 16 8 17 9 18 10 8 11 7 12
REMARK SMILES IDX 6 13 5 14 4 15 3 16 2 17 1 18
REMARK H PARENT
REMARK Flexibility Score: inf
ROOT
ATOM      1  C   UNL     1      -8.941  -3.773  -5.319  1.00  0.00     0.000 C 
ENDROOT
BRANCH   1   2
ATOM      2  C   UNL     1      -8.944  -2.976  -4.006  1.00  0.00     0.000 C 
BRANCH   2   3
ATOM      3  C   UNL     1      -9.589  -1.589  -4.159  1.00  0.00     0.000 C 
BRANCH   3   4
ATOM      4  C   UNL     1      -9.457  -1.030  -5.586  1.00  0.00     0.000 C 
BRANCH   4   5
ATOM      5  C   UNL     1      -8.708   0.312  -5.627  1.00  0.00     0.000 C 
BRANCH   5   6
ATOM      6  C   UNL     1      -7.361   0.259  -4.892  1.00  0.00     0.006 C 
BRANCH   6   7
ATOM      7  C   UNL     1      -7.143   1.526  -4.058  1.00  0.00     0.053 C 
BRANCH   7   8
ATOM      8  C   UNL     1      -7.751   1.371  -2.699  1.00  0.00     0.041 C 
ATOM      9  O   UNL     1      -7.041   1.008  -1.725  1.00  0.00    -0.550 OA
ATOM     10  O   UNL     1      -9.091   1.675  -2.499  1.00  0.00    -0.550 OA
ENDBRANCH   7   8
ENDBRANCH   6   7
ENDBRANCH   5   6
ENDBRANCH   4   5
ENDBRANCH   3   4
ENDBRANCH   2   3
ENDBRANCH   1   2
BRANCH   1  11
ATOM     11  C   UNL     1      -9.775  -5.052  -5.186  1.00  0.00     0.000 C 
BRANCH  11  12
ATOM     12  C   UNL     1      -9.059  -6.248  -5.826  1.00  0.00    -0.000 C 
BRANCH  12  13
ATOM     13  C   UNL     1      -8.820  -6.010  -7.322  1.00  0.00    -0.000 C 
BRANCH  13  14
ATOM     14  C   UNL     1      -7.352  -6.271  -7.692  1.00  0.00    -0.000 C 
BRANCH  14  15
ATOM     15  C   UNL     1      -6.589  -4.985  -8.057  1.00  0.00    -0.000 C 
BRANCH  15  16
ATOM     16  C   UNL     1      -7.327  -4.039  -9.026  1.00  0.00    -0.000 C 
BRANCH  16  17
ATOM     17  C   UNL     1      -7.594  -2.626  -8.477  1.00  0.00    -0.003 C 
ATOM     18  C   UNL     1      -6.442  -2.089  -7.631  1.00  0.00     0.004 C 
ENDBRANCH  16  17
ENDBRANCH  15  16
ENDBRANCH  14  15
ENDBRANCH  13  14
ENDBRANCH  12  13
ENDBRANCH  11  12
ENDBRANCH   1  11
TORSDOF 14
ENDMDL
MODEL 9
REMARK VINA RESULT:    -3.568     13.693     16.078
REMARK INTER + INTRA:          -8.197
REMARK INTER:                  -6.122
REMARK INTRA:                  -2.075
REMARK UNBOUND:                -1.709
REMARK SMILES CCCCCCCCCCCCCCCC(=O)[O-]
REMARK SMILES IDX 9 1 10 2 11 3 12 4 13 5 14 6 15 7 16 8 17 9 18 10 8 11 7 12
REMARK SMILES IDX 6 13 5 14 4 15 3 16 2 17 1 18
REMARK H PARENT
REMARK Flexibility Score: inf
ROOT
ATOM      1  C   UNL     1      -1.037   9.679   4.749  1.00  0.00     0.000 C 
ENDROOT
BRANCH   1   2
ATOM      2  C   UNL     1       0.082   8.648   4.960  1.00  0.00     0.000 C 
BRANCH   2   3
ATOM      3  C   UNL     1       0.376   8.392   6.447  1.00  0.00     0.000 C 
BRANCH   3   4
ATOM      4  C   UNL     1      -0.872   8.551   7.333  1.00  0.00     0.000 C 
BRANCH   4   5
ATOM      5  C   UNL     1      -0.916   7.530   8.480  1.00  0.00     0.000 C 
BRANCH   5   6
ATOM      6  C   UNL     1       0.002   6.324   8.233  1.00  0.00     0.006 C 
BRANCH   6   7
ATOM      7  C   UNL     1      -0.800   5.120   7.727  1.00  0.00     0.053 C 
BRANCH   7   8
ATOM      8  C   UNL     1       0.048   4.259   6.844  1.00  0.00     0.041 C 
ATOM      9  O   UNL     1       0.744   3.335   7.340  1.00  0.00    -0.550 OA
ATOM     10  O   UNL     1       0.031   4.446   5.468  1.00  0.00    -0.550 OA
ENDBRANCH   7   8
ENDBRANCH   6   7
ENDBRANCH   5   6
ENDBRANCH   4   5
ENDBRANCH   3   4
ENDBRANCH   2   3
ENDBRANCH   1   2
BRANCH   1  11
ATOM     11  C   UNL     1      -1.874   9.334   3.512  1.00  0.00     0.000 C 
BRANCH  11  12
ATOM     12  C   UNL     1      -3.108   8.507   3.894  1.00  0.00    -0.000 C 
BRANCH  12  13
ATOM     13  C   UNL     1      -2.998   7.074   3.359  1.00  0.00    -0.000 C 
BRANCH  13  14
ATOM     14  C   UNL     1      -3.044   6.054   4.507  1.00  0.00    -0.000 C 
BRANCH  14  15
ATOM     15  C   UNL     1      -3.454   6.683   5.850  1.00  0.00    -0.000 C 
BRANCH  15  16
ATOM     16  C   UNL     1      -4.391   5.819   6.718  1.00  0.00    -0.000 C 
BRANCH  16  17
ATOM     17  C   UNL     1      -5.831   5.689   6.189  1.00  0.00    -0.003 C 
ATOM     18  C   UNL     1      -6.364   6.989   5.590  1.00  0.00     0.004 C 
ENDBRANCH  16  17
ENDBRANCH  15  16
ENDBRANCH  14  15
ENDBRANCH  13  14
ENDBRANCH  12  13
ENDBRANCH  11  12
ENDBRANCH   1  11
TORSDOF 14
ENDMDL
