MODEL 1
REMARK VINA RESULT:    -0.454      0.000      0.000
REMARK INTER + INTRA:          -0.167
REMARK INTER:                  -0.560
REMARK INTRA:                   0.394
REMARK UNBOUND:                 0.394
REMARK SMILES Oc1cc(O)c2cc(O)c(-c3cc(O)c(O)c(O)c3)[o+]c2c1
REMARK SMILES IDX 10 1 20 2 21 3 22 4 2 5 3 6 4 7 6 8 7 9 8 10 11 11 12 12
REMARK SMILES IDX 13 13 19 14 15 15 17 16 14 17 16 19 18 21 9 23 1 25 5 27
REMARK H PARENT 14 18 16 20 18 22 9 24 1 26 5 28
REMARK Flexibility Score: inf
ROOT
ATOM      1  C   UNL     1      -1.554  -2.364   8.083  1.00  0.00     0.402 A 
ATOM      2  O   UNL     1      -0.395  -3.018   8.114  1.00  0.00    -0.202 OA
ATOM      3  C   UNL     1      -0.304  -4.344   8.087  1.00  0.00     0.368 A 
ATOM      4  C   UNL     1       0.958  -4.940   8.120  1.00  0.00     0.162 A 
ATOM      5  C   UNL     1       1.085  -6.329   8.090  1.00  0.00     0.128 A 
ATOM      6  C   UNL     1      -0.060  -7.131   8.025  1.00  0.00     0.093 A 
ATOM      7  C   UNL     1      -1.339  -6.558   7.990  1.00  0.00     0.136 A 
ATOM      8  C   UNL     1      -1.470  -5.146   8.023  1.00  0.00     0.125 A 
ATOM      9  C   UNL     1      -2.709  -4.485   8.005  1.00  0.00     0.078 A 
ATOM     10  C   UNL     1      -2.761  -3.089   8.046  1.00  0.00     0.223 A 
ENDROOT
BRANCH   1  11
ATOM     11  C   UNL     1      -1.524  -0.885   8.109  1.00  0.00     0.091 A 
ATOM     12  C   UNL     1      -0.288  -0.219   8.108  1.00  0.00     0.068 A 
ATOM     13  C   UNL     1      -0.230   1.179   8.111  1.00  0.00     0.162 A 
ATOM     14  C   UNL     1      -2.708  -0.128   8.077  1.00  0.00     0.068 A 
ATOM     15  C   UNL     1      -1.417   1.931   8.101  1.00  0.00     0.200 A 
ATOM     16  C   UNL     1      -2.659   1.272   8.079  1.00  0.00     0.162 A 
BRANCH  13  17
ATOM     17  O   UNL     1       1.017   1.802   8.125  1.00  0.00    -0.504 OA
ATOM     18  H   UNL     1       1.180   2.694   7.672  1.00  0.00     0.293 HD
ENDBRANCH  13  17
BRANCH  15  19
ATOM     19  O   UNL     1      -1.350   3.325   8.108  1.00  0.00    -0.502 OA
ATOM     20  H   UNL     1      -0.510   3.824   8.375  1.00  0.00     0.293 HD
ENDBRANCH  15  19
BRANCH  16  21
ATOM     21  O   UNL     1      -3.840   2.013   8.054  1.00  0.00    -0.504 OA
ATOM     22  H   UNL     1      -3.965   2.833   8.637  1.00  0.00     0.293 HD
ENDBRANCH  16  21
ENDBRANCH   1  11
BRANCH  10  23
ATOM     23  O   UNL     1      -3.991  -2.434   8.078  1.00  0.00    -0.500 OA
ATOM     24  H   UNL     1      -4.257  -1.765   7.364  1.00  0.00     0.294 HD
ENDBRANCH  10  23
BRANCH   5  25
ATOM     25  O   UNL     1       2.353  -6.904   8.125  1.00  0.00    -0.507 OA
ATOM     26  H   UNL     1       2.566  -7.679   8.742  1.00  0.00     0.293 HD
ENDBRANCH   5  25
BRANCH   7  27
ATOM     27  O   UNL     1      -2.431  -7.426   7.921  1.00  0.00    -0.507 OA
ATOM     28  H   UNL     1      -2.573  -8.108   7.190  1.00  0.00     0.293 HD
ENDBRANCH   7  27
TORSDOF 7
ENDMDL
