MODEL 1
REMARK VINA RESULT:     0.577      0.000      0.000
REMARK INTER + INTRA:           7.076
REMARK INTER:                   1.084
REMARK INTRA:                   5.992
REMARK UNBOUND:                 5.992
REMARK SMILES CCCCCCCCC=CCCCCCCCC(=O)[O-]
REMARK SMILES IDX 10 1 9 2 11 3 12 4 13 5 14 6 15 7 16 8 17 9 18 10 19 11
REMARK SMILES IDX 20 12 8 13 7 14 6 15 5 16 4 17 3 18 2 19 1 20
REMARK H PARENT
REMARK Flexibility Score: inf
ROOT
ATOM      1  C   UNL     1     -18.337 -12.839  10.990  1.00  0.00    -0.031 C 
ATOM      2  C   UNL     1     -18.661 -13.653   9.975  1.00  0.00    -0.031 C 
ENDROOT
BRANCH   1   3
ATOM      3  C   UNL     1     -19.124 -12.827  12.274  1.00  0.00     0.027 C 
BRANCH   3   4
ATOM      4  C   UNL     1     -18.916 -11.516  13.044  1.00  0.00     0.004 C 
BRANCH   4   5
ATOM      5  C   UNL     1     -19.116 -11.698  14.559  1.00  0.00     0.000 C 
BRANCH   5   6
ATOM      6  C   UNL     1     -18.982 -13.164  15.000  1.00  0.00     0.000 C 
BRANCH   6   7
ATOM      7  C   UNL     1     -18.834 -13.307  16.525  1.00  0.00     0.000 C 
BRANCH   7   8
ATOM      8  C   UNL     1     -18.662 -11.951  17.229  1.00  0.00     0.006 C 
BRANCH   8   9
ATOM      9  C   UNL     1     -18.968 -10.767  16.305  1.00  0.00     0.053 C 
BRANCH   9  10
ATOM     10  C   UNL     1     -17.783  -9.858  16.211  1.00  0.00     0.041 C 
ATOM     11  O   UNL     1     -17.787  -8.750  16.808  1.00  0.00    -0.550 OA
ATOM     12  O   UNL     1     -16.697 -10.211  15.421  1.00  0.00    -0.550 OA
ENDBRANCH   9  10
ENDBRANCH   8   9
ENDBRANCH   7   8
ENDBRANCH   6   7
ENDBRANCH   5   6
ENDBRANCH   4   5
ENDBRANCH   3   4
ENDBRANCH   1   3
BRANCH   2  13
ATOM     13  C   UNL     1     -17.924 -13.604   8.665  1.00  0.00     0.027 C 
BRANCH  13  14
ATOM     14  C   UNL     1     -18.012 -14.944   7.926  1.00  0.00     0.004 C 
BRANCH  14  15
ATOM     15  C   UNL     1     -18.458 -16.064   8.873  1.00  0.00     0.000 C 
BRANCH  15  16
ATOM     16  C   UNL     1     -17.249 -16.754   9.521  1.00  0.00     0.000 C 
BRANCH  16  17
ATOM     17  C   UNL     1     -16.539 -15.869  10.561  1.00  0.00    -0.000 C 
BRANCH  17  18
ATOM     18  C   UNL     1     -17.403 -15.466  11.769  1.00  0.00    -0.000 C 
BRANCH  18  19
ATOM     19  C   UNL     1     -18.792 -16.118  11.756  1.00  0.00    -0.003 C 
ATOM     20  C   UNL     1     -18.947 -17.102  12.913  1.00  0.00     0.004 C 
ENDBRANCH  18  19
ENDBRANCH  17  18
ENDBRANCH  16  17
ENDBRANCH  15  16
ENDBRANCH  14  15
ENDBRANCH  13  14
ENDBRANCH   2  13
TORSDOF 15
ENDMDL
