MODEL 1
REMARK VINA RESULT:     1.035      0.000      0.000
REMARK INTER + INTRA:           0.593
REMARK INTER:                   2.729
REMARK INTRA:                  -2.135
REMARK UNBOUND:                -2.135
REMARK SMILES CCCCCCCCCCCCCCCCCCCCCCCCCCCCCC(=O)[O-]
REMARK SMILES IDX 16 1 17 2 18 3 19 4 20 5 21 6 22 7 23 8 24 9 25 10 26 11
REMARK SMILES IDX 27 12 28 13 29 14 30 15 31 16 32 17 15 18 14 19 13 20 12 21
REMARK SMILES IDX 11 22 10 23 9 24 8 25 7 26 6 27 5 28 4 29 3 30 2 31 1 32
REMARK H PARENT
REMARK Flexibility Score: inf
ROOT
ATOM      1  C   UNL     1      24.991  19.043  57.113  1.00  0.00     0.000 C 
ENDROOT
BRANCH   1   2
ATOM      2  C   UNL     1      24.182  19.270  58.402  1.00  0.00     0.000 C 
BRANCH   2   3
ATOM      3  C   UNL     1      23.204  20.452  58.285  1.00  0.00     0.000 C 
BRANCH   3   4
ATOM      4  C   UNL     1      23.900  21.811  58.472  1.00  0.00     0.000 C 
BRANCH   4   5
ATOM      5  C   UNL     1      24.237  22.116  59.943  1.00  0.00     0.000 C 
BRANCH   5   6
ATOM      6  C   UNL     1      23.037  22.104  60.908  1.00  0.00     0.000 C 
BRANCH   6   7
ATOM      7  C   UNL     1      22.948  20.813  61.737  1.00  0.00     0.000 C 
BRANCH   7   8
ATOM      8  C   UNL     1      23.266  21.081  63.217  1.00  0.00     0.000 C 
BRANCH   8   9
ATOM      9  C   UNL     1      24.567  21.877  63.410  1.00  0.00     0.000 C 
BRANCH   9  10
ATOM     10  C   UNL     1      25.589  21.141  64.288  1.00  0.00     0.000 C 
BRANCH  10  11
ATOM     11  C   UNL     1      26.617  20.398  63.425  1.00  0.00     0.000 C 
BRANCH  11  12
ATOM     12  C   UNL     1      26.867  21.085  62.072  1.00  0.00     0.000 C 
BRANCH  12  13
ATOM     13  C   UNL     1      27.593  20.186  61.049  1.00  0.00     0.006 C 
BRANCH  13  14
ATOM     14  C   UNL     1      27.141  20.469  59.610  1.00  0.00     0.053 C 
BRANCH  14  15
ATOM     15  C   UNL     1      27.900  21.625  59.038  1.00  0.00     0.041 C 
ATOM     16  O   UNL     1      27.559  22.122  57.933  1.00  0.00    -0.550 OA
ATOM     17  O   UNL     1      29.013  22.124  59.704  1.00  0.00    -0.550 OA
ENDBRANCH  14  15
ENDBRANCH  13  14
ENDBRANCH  12  13
ENDBRANCH  11  12
ENDBRANCH  10  11
ENDBRANCH   9  10
ENDBRANCH   8   9
ENDBRANCH   7   8
ENDBRANCH   6   7
ENDBRANCH   5   6
ENDBRANCH   4   5
ENDBRANCH   3   4
ENDBRANCH   2   3
ENDBRANCH   1   2
BRANCH   1  18
ATOM     18  C   UNL     1      25.183  17.552  56.796  1.00  0.00     0.000 C 
BRANCH  18  19
ATOM     19  C   UNL     1      24.899  17.222  55.322  1.00  0.00     0.000 C 
BRANCH  19  20
ATOM     20  C   UNL     1      24.759  18.477  54.443  1.00  0.00     0.000 C 
BRANCH  20  21
ATOM     21  C   UNL     1      23.298  18.886  54.171  1.00  0.00     0.000 C 
BRANCH  21  22
ATOM     22  C   UNL     1      23.163  19.791  52.936  1.00  0.00     0.000 C 
BRANCH  22  23
ATOM     23  C   UNL     1      22.877  21.239  53.346  1.00  0.00     0.000 C 
BRANCH  23  24
ATOM     24  C   UNL     1      24.157  22.089  53.297  1.00  0.00    -0.000 C 
BRANCH  24  25
ATOM     25  C   UNL     1      25.175  21.713  54.390  1.00  0.00    -0.000 C 
BRANCH  25  26
ATOM     26  C   UNL     1      26.629  22.124  54.093  1.00  0.00    -0.000 C 
BRANCH  26  27
ATOM     27  C   UNL     1      27.612  21.680  55.191  1.00  0.00    -0.000 C 
BRANCH  27  28
ATOM     28  C   UNL     1      29.074  21.646  54.707  1.00  0.00    -0.000 C 
BRANCH  28  29
ATOM     29  C   UNL     1      30.128  21.716  55.828  1.00  0.00    -0.000 C 
BRANCH  29  30
ATOM     30  C   UNL     1      31.547  21.997  55.304  1.00  0.00    -0.000 C 
BRANCH  30  31
ATOM     31  C   UNL     1      32.628  21.276  56.121  1.00  0.00    -0.003 C 
ATOM     32  C   UNL     1      33.089  22.090  57.331  1.00  0.00     0.004 C 
ENDBRANCH  30  31
ENDBRANCH  29  30
ENDBRANCH  28  29
ENDBRANCH  27  28
ENDBRANCH  26  27
ENDBRANCH  25  26
ENDBRANCH  24  25
ENDBRANCH  23  24
ENDBRANCH  22  23
ENDBRANCH  21  22
ENDBRANCH  20  21
ENDBRANCH  19  20
ENDBRANCH  18  19
ENDBRANCH   1  18
TORSDOF 28
ENDMDL
MODEL 2
REMARK VINA RESULT:     2.727      2.242      4.751
REMARK INTER + INTRA:           5.054
REMARK INTER:                   8.277
REMARK INTRA:                  -3.223
REMARK UNBOUND:                -2.135
REMARK SMILES CCCCCCCCCCCCCCCCCCCCCCCCCCCCCC(=O)[O-]
REMARK SMILES IDX 16 1 17 2 18 3 19 4 20 5 21 6 22 7 23 8 24 9 25 10 26 11
REMARK SMILES IDX 27 12 28 13 29 14 30 15 31 16 32 17 15 18 14 19 13 20 12 21
REMARK SMILES IDX 11 22 10 23 9 24 8 25 7 26 6 27 5 28 4 29 3 30 2 31 1 32
REMARK H PARENT
REMARK Flexibility Score: inf
ROOT
ATOM      1  C   UNL     1      28.057  16.263  59.210  1.00  0.00     0.000 C 
ENDROOT
BRANCH   1   2
ATOM      2  C   UNL     1      27.521  17.245  60.267  1.00  0.00     0.000 C 
BRANCH   2   3
ATOM      3  C   UNL     1      28.643  18.031  60.966  1.00  0.00     0.000 C 
BRANCH   3   4
ATOM      4  C   UNL     1      28.320  19.529  61.093  1.00  0.00     0.000 C 
BRANCH   4   5
ATOM      5  C   UNL     1      27.949  20.180  59.747  1.00  0.00     0.000 C 
BRANCH   5   6
ATOM      6  C   UNL     1      27.746  21.706  59.790  1.00  0.00     0.000 C 
BRANCH   6   7
ATOM      7  C   UNL     1      26.279  22.120  59.594  1.00  0.00     0.000 C 
BRANCH   7   8
ATOM      8  C   UNL     1      25.590  21.240  58.539  1.00  0.00     0.000 C 
BRANCH   8   9
ATOM      9  C   UNL     1      24.344  21.905  57.934  1.00  0.00     0.000 C 
BRANCH   9  10
ATOM     10  C   UNL     1      23.043  21.182  58.310  1.00  0.00     0.000 C 
BRANCH  10  11
ATOM     11  C   UNL     1      23.048  20.781  59.791  1.00  0.00     0.000 C 
BRANCH  11  12
ATOM     12  C   UNL     1      23.186  21.988  60.734  1.00  0.00     0.000 C 
BRANCH  12  13
ATOM     13  C   UNL     1      23.496  21.597  62.195  1.00  0.00     0.006 C 
BRANCH  13  14
ATOM     14  C   UNL     1      24.797  20.792  62.313  1.00  0.00     0.053 C 
BRANCH  14  15
ATOM     15  C   UNL     1      25.048  20.404  63.735  1.00  0.00     0.041 C 
ATOM     16  O   UNL     1      25.500  19.261  64.010  1.00  0.00    -0.550 OA
ATOM     17  O   UNL     1      24.740  21.288  64.761  1.00  0.00    -0.550 OA
ENDBRANCH  14  15
ENDBRANCH  13  14
ENDBRANCH  12  13
ENDBRANCH  11  12
ENDBRANCH  10  11
ENDBRANCH   9  10
ENDBRANCH   8   9
ENDBRANCH   7   8
ENDBRANCH   6   7
ENDBRANCH   5   6
ENDBRANCH   4   5
ENDBRANCH   3   4
ENDBRANCH   2   3
ENDBRANCH   1   2
BRANCH   1  18
ATOM     18  C   UNL     1      27.658  16.664  57.782  1.00  0.00     0.000 C 
BRANCH  18  19
ATOM     19  C   UNL     1      26.704  17.870  57.752  1.00  0.00     0.000 C 
BRANCH  19  20
ATOM     20  C   UNL     1      25.805  17.891  56.505  1.00  0.00     0.000 C 
BRANCH  20  21
ATOM     21  C   UNL     1      24.481  18.657  56.705  1.00  0.00     0.000 C 
BRANCH  21  22
ATOM     22  C   UNL     1      23.252  17.738  56.607  1.00  0.00     0.000 C 
BRANCH  22  23
ATOM     23  C   UNL     1      22.931  17.407  55.145  1.00  0.00     0.000 C 
BRANCH  23  24
ATOM     24  C   UNL     1      23.896  18.130  54.192  1.00  0.00    -0.000 C 
BRANCH  24  25
ATOM     25  C   UNL     1      23.194  19.155  53.281  1.00  0.00    -0.000 C 
BRANCH  25  26
ATOM     26  C   UNL     1      22.875  20.506  53.947  1.00  0.00    -0.000 C 
BRANCH  26  27
ATOM     27  C   UNL     1      23.229  21.710  53.057  1.00  0.00    -0.000 C 
BRANCH  27  28
ATOM     28  C   UNL     1      24.708  22.124  53.170  1.00  0.00    -0.000 C 
BRANCH  28  29
ATOM     29  C   UNL     1      25.342  21.887  54.554  1.00  0.00    -0.000 C 
BRANCH  29  30
ATOM     30  C   UNL     1      26.867  22.090  54.561  1.00  0.00    -0.000 C 
BRANCH  30  31
ATOM     31  C   UNL     1      27.539  21.446  55.783  1.00  0.00    -0.003 C 
ATOM     32  C   UNL     1      28.963  21.957  56.003  1.00  0.00     0.004 C 
ENDBRANCH  30  31
ENDBRANCH  29  30
ENDBRANCH  28  29
ENDBRANCH  27  28
ENDBRANCH  26  27
ENDBRANCH  25  26
ENDBRANCH  24  25
ENDBRANCH  23  24
ENDBRANCH  22  23
ENDBRANCH  21  22
ENDBRANCH  20  21
ENDBRANCH  19  20
ENDBRANCH  18  19
ENDBRANCH   1  18
TORSDOF 28
ENDMDL
