MODEL 1
REMARK VINA RESULT:    -3.552      0.000      0.000
REMARK INTER + INTRA:          -8.462
REMARK INTER:                  -6.458
REMARK INTRA:                  -2.004
REMARK UNBOUND:                -2.004
REMARK SMILES CCCCCCCCCCCCCCCC(=O)[O-]
REMARK SMILES IDX 9 1 10 2 11 3 12 4 13 5 14 6 15 7 16 8 17 9 18 10 8 11 7 12
REMARK SMILES IDX 6 13 5 14 4 15 3 16 2 17 1 18
REMARK H PARENT
REMARK Flexibility Score: inf
ROOT
ATOM      1  C   UNL     1       2.961  -0.099  -4.078  1.00  0.00     0.000 C 
ENDROOT
BRANCH   1   2
ATOM      2  C   UNL     1       2.582   1.047  -5.037  1.00  0.00     0.000 C 
BRANCH   2   3
ATOM      3  C   UNL     1       3.738   1.994  -5.407  1.00  0.00     0.000 C 
BRANCH   3   4
ATOM      4  C   UNL     1       3.269   3.225  -6.195  1.00  0.00     0.000 C 
BRANCH   4   5
ATOM      5  C   UNL     1       1.740   3.338  -6.181  1.00  0.00     0.000 C 
BRANCH   5   6
ATOM      6  C   UNL     1       1.226   3.997  -7.466  1.00  0.00     0.006 C 
BRANCH   6   7
ATOM      7  C   UNL     1       1.146   2.983  -8.611  1.00  0.00     0.053 C 
BRANCH   7   8
ATOM      8  C   UNL     1      -0.166   2.264  -8.582  1.00  0.00     0.041 C 
ATOM      9  O   UNL     1      -1.245   2.910  -8.655  1.00  0.00    -0.550 OA
ATOM     10  O   UNL     1      -0.197   0.876  -8.535  1.00  0.00    -0.550 OA
ENDBRANCH   7   8
ENDBRANCH   6   7
ENDBRANCH   5   6
ENDBRANCH   4   5
ENDBRANCH   3   4
ENDBRANCH   2   3
ENDBRANCH   1   2
BRANCH   1  11
ATOM     11  C   UNL     1       4.459  -0.184  -3.718  1.00  0.00     0.000 C 
BRANCH  11  12
ATOM     12  C   UNL     1       5.004  -1.610  -3.516  1.00  0.00    -0.000 C 
BRANCH  12  13
ATOM     13  C   UNL     1       4.332  -2.643  -4.437  1.00  0.00    -0.000 C 
BRANCH  13  14
ATOM     14  C   UNL     1       5.125  -2.895  -5.733  1.00  0.00    -0.000 C 
BRANCH  14  15
ATOM     15  C   UNL     1       4.387  -2.532  -7.036  1.00  0.00    -0.000 C 
BRANCH  15  16
ATOM     16  C   UNL     1       2.850  -2.501  -6.930  1.00  0.00    -0.000 C 
BRANCH  16  17
ATOM     17  C   UNL     1       2.180  -1.523  -7.918  1.00  0.00    -0.003 C 
ATOM     18  C   UNL     1       3.117  -0.400  -8.363  1.00  0.00     0.004 C 
ENDBRANCH  16  17
ENDBRANCH  15  16
ENDBRANCH  14  15
ENDBRANCH  13  14
ENDBRANCH  12  13
ENDBRANCH  11  12
ENDBRANCH   1  11
TORSDOF 14
ENDMDL
MODEL 2
REMARK VINA RESULT:    -3.549      1.243      2.018
REMARK INTER + INTRA:          -8.457
REMARK INTER:                  -6.277
REMARK INTRA:                  -2.180
REMARK UNBOUND:                -2.004
REMARK SMILES CCCCCCCCCCCCCCCC(=O)[O-]
REMARK SMILES IDX 9 1 10 2 11 3 12 4 13 5 14 6 15 7 16 8 17 9 18 10 8 11 7 12
REMARK SMILES IDX 6 13 5 14 4 15 3 16 2 17 1 18
REMARK H PARENT
REMARK Flexibility Score: inf
ROOT
ATOM      1  C   UNL     1       2.666   0.098  -4.132  1.00  0.00     0.000 C 
ENDROOT
BRANCH   1   2
ATOM      2  C   UNL     1       2.435   1.229  -5.155  1.00  0.00     0.000 C 
BRANCH   2   3
ATOM      3  C   UNL     1       3.679   2.075  -5.478  1.00  0.00     0.000 C 
BRANCH   3   4
ATOM      4  C   UNL     1       3.354   3.308  -6.333  1.00  0.00     0.000 C 
BRANCH   4   5
ATOM      5  C   UNL     1       1.878   3.700  -6.194  1.00  0.00     0.000 C 
BRANCH   5   6
ATOM      6  C   UNL     1       1.327   4.242  -7.518  1.00  0.00     0.006 C 
BRANCH   6   7
ATOM      7  C   UNL     1       0.136   5.175  -7.278  1.00  0.00     0.053 C 
BRANCH   7   8
ATOM      8  C   UNL     1      -1.105   4.381  -7.012  1.00  0.00     0.041 C 
ATOM      9  O   UNL     1      -1.891   4.724  -6.090  1.00  0.00    -0.550 OA
ATOM     10  O   UNL     1      -1.423   3.299  -7.822  1.00  0.00    -0.550 OA
ENDBRANCH   7   8
ENDBRANCH   6   7
ENDBRANCH   5   6
ENDBRANCH   4   5
ENDBRANCH   3   4
ENDBRANCH   2   3
ENDBRANCH   1   2
BRANCH   1  11
ATOM     11  C   UNL     1       4.037  -0.602  -4.226  1.00  0.00     0.000 C 
BRANCH  11  12
ATOM     12  C   UNL     1       3.994  -2.066  -4.701  1.00  0.00    -0.000 C 
BRANCH  12  13
ATOM     13  C   UNL     1       4.029  -2.198  -6.234  1.00  0.00    -0.000 C 
BRANCH  13  14
ATOM     14  C   UNL     1       2.656  -2.547  -6.837  1.00  0.00    -0.000 C 
BRANCH  14  15
ATOM     15  C   UNL     1       2.232  -1.687  -8.043  1.00  0.00    -0.000 C 
BRANCH  15  16
ATOM     16  C   UNL     1       3.120  -0.458  -8.315  1.00  0.00    -0.000 C 
BRANCH  16  17
ATOM     17  C   UNL     1       2.337   0.775  -8.813  1.00  0.00    -0.003 C 
ATOM     18  C   UNL     1       0.845   0.698  -8.487  1.00  0.00     0.004 C 
ENDBRANCH  16  17
ENDBRANCH  15  16
ENDBRANCH  14  15
ENDBRANCH  13  14
ENDBRANCH  12  13
ENDBRANCH  11  12
ENDBRANCH   1  11
TORSDOF 14
ENDMDL
MODEL 3
REMARK VINA RESULT:    -3.477     21.192     22.775
REMARK INTER + INTRA:          -8.326
REMARK INTER:                  -6.033
REMARK INTRA:                  -2.292
REMARK UNBOUND:                -2.004
REMARK SMILES CCCCCCCCCCCCCCCC(=O)[O-]
REMARK SMILES IDX 9 1 10 2 11 3 12 4 13 5 14 6 15 7 16 8 17 9 18 10 8 11 7 12
REMARK SMILES IDX 6 13 5 14 4 15 3 16 2 17 1 18
REMARK H PARENT
REMARK Flexibility Score: inf
ROOT
ATOM      1  C   UNL     1     -11.763 -11.901   5.660  1.00  0.00     0.000 C 
ENDROOT
BRANCH   1   2
ATOM      2  C   UNL     1     -10.967 -13.154   5.242  1.00  0.00     0.000 C 
BRANCH   2   3
ATOM      3  C   UNL     1     -11.498 -13.871   3.988  1.00  0.00     0.000 C 
BRANCH   3   4
ATOM      4  C   UNL     1     -13.010 -14.125   4.042  1.00  0.00     0.000 C 
BRANCH   4   5
ATOM      5  C   UNL     1     -13.722 -13.459   2.859  1.00  0.00     0.000 C 
BRANCH   5   6
ATOM      6  C   UNL     1     -12.720 -12.742   1.947  1.00  0.00     0.006 C 
BRANCH   6   7
ATOM      7  C   UNL     1     -13.422 -11.706   1.063  1.00  0.00     0.053 C 
BRANCH   7   8
ATOM      8  C   UNL     1     -12.982 -11.851  -0.360  1.00  0.00     0.041 C 
ATOM      9  O   UNL     1     -11.991 -12.572  -0.647  1.00  0.00    -0.550 OA
ATOM     10  O   UNL     1     -13.704 -11.238  -1.376  1.00  0.00    -0.550 OA
ENDBRANCH   7   8
ENDBRANCH   6   7
ENDBRANCH   5   6
ENDBRANCH   4   5
ENDBRANCH   3   4
ENDBRANCH   2   3
ENDBRANCH   1   2
BRANCH   1  11
ATOM     11  C   UNL     1     -11.410 -10.612   4.889  1.00  0.00     0.000 C 
BRANCH  11  12
ATOM     12  C   UNL     1     -12.616  -9.818   4.354  1.00  0.00    -0.000 C 
BRANCH  12  13
ATOM     13  C   UNL     1     -13.964 -10.466   4.711  1.00  0.00    -0.000 C 
BRANCH  13  14
ATOM     14  C   UNL     1     -14.833  -9.581   5.623  1.00  0.00    -0.000 C 
BRANCH  14  15
ATOM     15  C   UNL     1     -14.699  -9.862   7.132  1.00  0.00    -0.000 C 
BRANCH  15  16
ATOM     16  C   UNL     1     -14.038  -8.737   7.950  1.00  0.00    -0.000 C 
BRANCH  16  17
ATOM     17  C   UNL     1     -12.501  -8.852   8.036  1.00  0.00    -0.003 C 
ATOM     18  C   UNL     1     -12.046 -10.067   8.845  1.00  0.00     0.004 C 
ENDBRANCH  16  17
ENDBRANCH  15  16
ENDBRANCH  14  15
ENDBRANCH  13  14
ENDBRANCH  12  13
ENDBRANCH  11  12
ENDBRANCH   1  11
TORSDOF 14
ENDMDL
MODEL 4
REMARK VINA RESULT:    -3.461      1.602      2.216
REMARK INTER + INTRA:          -8.297
REMARK INTER:                  -6.475
REMARK INTRA:                  -1.822
REMARK UNBOUND:                -2.004
REMARK SMILES CCCCCCCCCCCCCCCC(=O)[O-]
REMARK SMILES IDX 9 1 10 2 11 3 12 4 13 5 14 6 15 7 16 8 17 9 18 10 8 11 7 12
REMARK SMILES IDX 6 13 5 14 4 15 3 16 2 17 1 18
REMARK H PARENT
REMARK Flexibility Score: inf
ROOT
ATOM      1  C   UNL     1       2.430   0.906  -5.171  1.00  0.00     0.000 C 
ENDROOT
BRANCH   1   2
ATOM      2  C   UNL     1       3.581   1.601  -5.926  1.00  0.00     0.000 C 
BRANCH   2   3
ATOM      3  C   UNL     1       3.714   1.210  -7.409  1.00  0.00     0.000 C 
BRANCH   3   4
ATOM      4  C   UNL     1       2.366   1.188  -8.142  1.00  0.00     0.000 C 
BRANCH   4   5
ATOM      5  C   UNL     1       1.835   2.609  -8.358  1.00  0.00     0.000 C 
BRANCH   5   6
ATOM      6  C   UNL     1       0.430   2.767  -7.764  1.00  0.00     0.006 C 
BRANCH   6   7
ATOM      7  C   UNL     1      -0.107   4.184  -7.987  1.00  0.00     0.053 C 
BRANCH   7   8
ATOM      8  C   UNL     1      -1.052   4.563  -6.890  1.00  0.00     0.041 C 
ATOM      9  O   UNL     1      -0.665   5.305  -5.948  1.00  0.00    -0.550 OA
ATOM     10  O   UNL     1      -2.376   4.148  -6.940  1.00  0.00    -0.550 OA
ENDBRANCH   7   8
ENDBRANCH   6   7
ENDBRANCH   5   6
ENDBRANCH   4   5
ENDBRANCH   3   4
ENDBRANCH   2   3
ENDBRANCH   1   2
BRANCH   1  11
ATOM     11  C   UNL     1       2.851   0.113  -3.918  1.00  0.00     0.000 C 
BRANCH  11  12
ATOM     12  C   UNL     1       4.037  -0.849  -4.120  1.00  0.00    -0.000 C 
BRANCH  12  13
ATOM     13  C   UNL     1       3.623  -2.178  -4.777  1.00  0.00    -0.000 C 
BRANCH  13  14
ATOM     14  C   UNL     1       4.527  -2.569  -5.960  1.00  0.00    -0.000 C 
BRANCH  14  15
ATOM     15  C   UNL     1       3.850  -2.530  -7.344  1.00  0.00    -0.000 C 
BRANCH  15  16
ATOM     16  C   UNL     1       2.313  -2.434  -7.318  1.00  0.00    -0.000 C 
BRANCH  16  17
ATOM     17  C   UNL     1       1.652  -2.686  -8.689  1.00  0.00    -0.003 C 
ATOM     18  C   UNL     1       0.346  -1.911  -8.865  1.00  0.00     0.004 C 
ENDBRANCH  16  17
ENDBRANCH  15  16
ENDBRANCH  14  15
ENDBRANCH  13  14
ENDBRANCH  12  13
ENDBRANCH  11  12
ENDBRANCH   1  11
TORSDOF 14
ENDMDL
MODEL 5
REMARK VINA RESULT:    -3.428     18.615     20.167
REMARK INTER + INTRA:          -8.237
REMARK INTER:                  -7.704
REMARK INTRA:                  -0.534
REMARK UNBOUND:                -2.004
REMARK SMILES CCCCCCCCCCCCCCCC(=O)[O-]
REMARK SMILES IDX 9 1 10 2 11 3 12 4 13 5 14 6 15 7 16 8 17 9 18 10 8 11 7 12
REMARK SMILES IDX 6 13 5 14 4 15 3 16 2 17 1 18
REMARK H PARENT
REMARK Flexibility Score: inf
ROOT
ATOM      1  C   UNL     1     -12.840 -12.531  -1.651  1.00  0.00     0.000 C 
ENDROOT
BRANCH   1   2
ATOM      2  C   UNL     1     -13.637 -11.870  -0.509  1.00  0.00     0.000 C 
BRANCH   2   3
ATOM      3  C   UNL     1     -13.487 -12.549   0.865  1.00  0.00     0.000 C 
BRANCH   3   4
ATOM      4  C   UNL     1     -13.032 -11.577   1.962  1.00  0.00     0.000 C 
BRANCH   4   5
ATOM      5  C   UNL     1     -14.070 -11.493   3.087  1.00  0.00     0.000 C 
BRANCH   5   6
ATOM      6  C   UNL     1     -13.770 -10.318   4.026  1.00  0.00     0.006 C 
BRANCH   6   7
ATOM      7  C   UNL     1     -13.093 -10.800   5.313  1.00  0.00     0.053 C 
BRANCH   7   8
ATOM      8  C   UNL     1     -11.607 -10.837   5.139  1.00  0.00     0.041 C 
ATOM      9  O   UNL     1     -10.976 -11.913   5.311  1.00  0.00    -0.550 OA
ATOM     10  O   UNL     1     -10.927  -9.699   4.727  1.00  0.00    -0.550 OA
ENDBRANCH   7   8
ENDBRANCH   6   7
ENDBRANCH   5   6
ENDBRANCH   4   5
ENDBRANCH   3   4
ENDBRANCH   2   3
ENDBRANCH   1   2
BRANCH   1  11
ATOM     11  C   UNL     1     -11.477 -13.125  -1.242  1.00  0.00     0.000 C 
BRANCH  11  12
ATOM     12  C   UNL     1     -10.578 -13.568  -2.411  1.00  0.00    -0.000 C 
BRANCH  12  13
ATOM     13  C   UNL     1      -9.193 -12.898  -2.388  1.00  0.00    -0.000 C 
BRANCH  13  14
ATOM     14  C   UNL     1      -8.194 -13.550  -3.362  1.00  0.00    -0.000 C 
BRANCH  14  15
ATOM     15  C   UNL     1      -6.955 -12.699  -3.698  1.00  0.00    -0.000 C 
BRANCH  15  16
ATOM     16  C   UNL     1      -5.735 -13.491  -4.206  1.00  0.00    -0.000 C 
BRANCH  16  17
ATOM     17  C   UNL     1      -5.123 -12.923  -5.504  1.00  0.00    -0.003 C 
ATOM     18  C   UNL     1      -5.939 -11.767  -6.084  1.00  0.00     0.004 C 
ENDBRANCH  16  17
ENDBRANCH  15  16
ENDBRANCH  14  15
ENDBRANCH  13  14
ENDBRANCH  12  13
ENDBRANCH  11  12
ENDBRANCH   1  11
TORSDOF 14
ENDMDL
MODEL 6
REMARK VINA RESULT:    -3.401     21.912     23.228
REMARK INTER + INTRA:          -8.188
REMARK INTER:                  -5.977
REMARK INTRA:                  -2.211
REMARK UNBOUND:                -2.004
REMARK SMILES CCCCCCCCCCCCCCCC(=O)[O-]
REMARK SMILES IDX 9 1 10 2 11 3 12 4 13 5 14 6 15 7 16 8 17 9 18 10 8 11 7 12
REMARK SMILES IDX 6 13 5 14 4 15 3 16 2 17 1 18
REMARK H PARENT
REMARK Flexibility Score: inf
ROOT
ATOM      1  C   UNL     1     -11.724 -10.004   5.155  1.00  0.00     0.000 C 
ENDROOT
BRANCH   1   2
ATOM      2  C   UNL     1     -12.982  -9.852   4.277  1.00  0.00     0.000 C 
BRANCH   2   3
ATOM      3  C   UNL     1     -14.293  -9.634   5.054  1.00  0.00     0.000 C 
BRANCH   3   4
ATOM      4  C   UNL     1     -14.067  -9.441   6.560  1.00  0.00     0.000 C 
BRANCH   4   5
ATOM      5  C   UNL     1     -14.688 -10.591   7.361  1.00  0.00     0.000 C 
BRANCH   5   6
ATOM      6  C   UNL     1     -13.901 -10.850   8.651  1.00  0.00     0.006 C 
BRANCH   6   7
ATOM      7  C   UNL     1     -12.986 -12.069   8.503  1.00  0.00     0.053 C 
BRANCH   7   8
ATOM      8  C   UNL     1     -11.562 -11.687   8.765  1.00  0.00     0.041 C 
ATOM      9  O   UNL     1     -11.192 -10.491   8.632  1.00  0.00    -0.550 OA
ATOM     10  O   UNL     1     -10.659 -12.642   9.214  1.00  0.00    -0.550 OA
ENDBRANCH   7   8
ENDBRANCH   6   7
ENDBRANCH   5   6
ENDBRANCH   4   5
ENDBRANCH   3   4
ENDBRANCH   2   3
ENDBRANCH   1   2
BRANCH   1  11
ATOM     11  C   UNL     1     -11.107 -11.417   5.180  1.00  0.00     0.000 C 
BRANCH  11  12
ATOM     12  C   UNL     1     -12.107 -12.571   4.978  1.00  0.00    -0.000 C 
BRANCH  12  13
ATOM     13  C   UNL     1     -11.598 -13.636   3.990  1.00  0.00    -0.000 C 
BRANCH  13  14
ATOM     14  C   UNL     1     -12.539 -13.836   2.788  1.00  0.00    -0.000 C 
BRANCH  14  15
ATOM     15  C   UNL     1     -13.955 -13.252   2.958  1.00  0.00    -0.000 C 
BRANCH  15  16
ATOM     16  C   UNL     1     -14.407 -12.295   1.839  1.00  0.00    -0.000 C 
BRANCH  16  17
ATOM     17  C   UNL     1     -13.241 -11.566   1.138  1.00  0.00    -0.003 C 
ATOM     18  C   UNL     1     -13.235 -11.783  -0.376  1.00  0.00     0.004 C 
ENDBRANCH  16  17
ENDBRANCH  15  16
ENDBRANCH  14  15
ENDBRANCH  13  14
ENDBRANCH  12  13
ENDBRANCH  11  12
ENDBRANCH   1  11
TORSDOF 14
ENDMDL
MODEL 7
REMARK VINA RESULT:    -3.397      1.407      4.942
REMARK INTER + INTRA:          -8.181
REMARK INTER:                  -5.915
REMARK INTRA:                  -2.267
REMARK UNBOUND:                -2.004
REMARK SMILES CCCCCCCCCCCCCCCC(=O)[O-]
REMARK SMILES IDX 9 1 10 2 11 3 12 4 13 5 14 6 15 7 16 8 17 9 18 10 8 11 7 12
REMARK SMILES IDX 6 13 5 14 4 15 3 16 2 17 1 18
REMARK H PARENT
REMARK Flexibility Score: inf
ROOT
ATOM      1  C   UNL     1       2.858   0.272  -4.210  1.00  0.00     0.000 C 
ENDROOT
BRANCH   1   2
ATOM      2  C   UNL     1       3.689  -1.026  -4.234  1.00  0.00     0.000 C 
BRANCH   2   3
ATOM      3  C   UNL     1       3.186  -2.101  -5.214  1.00  0.00     0.000 C 
BRANCH   3   4
ATOM      4  C   UNL     1       4.244  -2.505  -6.250  1.00  0.00     0.000 C 
BRANCH   4   5
ATOM      5  C   UNL     1       3.681  -2.419  -7.673  1.00  0.00     0.000 C 
BRANCH   5   6
ATOM      6  C   UNL     1       2.165  -2.190  -7.652  1.00  0.00     0.006 C 
BRANCH   6   7
ATOM      7  C   UNL     1       1.687  -1.548  -8.958  1.00  0.00     0.053 C 
BRANCH   7   8
ATOM      8  C   UNL     1       0.323  -0.956  -8.779  1.00  0.00     0.041 C 
ATOM      9  O   UNL     1      -0.701  -1.680  -8.886  1.00  0.00    -0.550 OA
ATOM     10  O   UNL     1       0.188   0.383  -8.435  1.00  0.00    -0.550 OA
ENDBRANCH   7   8
ENDBRANCH   6   7
ENDBRANCH   5   6
ENDBRANCH   4   5
ENDBRANCH   3   4
ENDBRANCH   2   3
ENDBRANCH   1   2
BRANCH   1  11
ATOM     11  C   UNL     1       2.531   0.868  -5.595  1.00  0.00     0.000 C 
BRANCH  11  12
ATOM     12  C   UNL     1       3.681   1.646  -6.261  1.00  0.00    -0.000 C 
BRANCH  12  13
ATOM     13  C   UNL     1       3.900   1.246  -7.730  1.00  0.00    -0.000 C 
BRANCH  13  14
ATOM     14  C   UNL     1       3.102   2.121  -8.715  1.00  0.00    -0.000 C 
BRANCH  14  15
ATOM     15  C   UNL     1       2.860   3.572  -8.257  1.00  0.00    -0.000 C 
BRANCH  15  16
ATOM     16  C   UNL     1       1.381   3.994  -8.177  1.00  0.00    -0.000 C 
BRANCH  16  17
ATOM     17  C   UNL     1       0.858   4.153  -6.734  1.00  0.00    -0.003 C 
ATOM     18  C   UNL     1       1.853   4.872  -5.822  1.00  0.00     0.004 C 
ENDBRANCH  16  17
ENDBRANCH  15  16
ENDBRANCH  14  15
ENDBRANCH  13  14
ENDBRANCH  12  13
ENDBRANCH  11  12
ENDBRANCH   1  11
TORSDOF 14
ENDMDL
MODEL 8
REMARK VINA RESULT:    -3.374     20.091     21.669
REMARK INTER + INTRA:          -8.140
REMARK INTER:                  -6.514
REMARK INTRA:                  -1.625
REMARK UNBOUND:                -2.004
REMARK SMILES CCCCCCCCCCCCCCCC(=O)[O-]
REMARK SMILES IDX 9 1 10 2 11 3 12 4 13 5 14 6 15 7 16 8 17 9 18 10 8 11 7 12
REMARK SMILES IDX 6 13 5 14 4 15 3 16 2 17 1 18
REMARK H PARENT
REMARK Flexibility Score: inf
ROOT
ATOM      1  C   UNL     1     -14.372 -12.275   2.115  1.00  0.00     0.000 C 
ENDROOT
BRANCH   1   2
ATOM      2  C   UNL     1     -13.244 -11.514   1.388  1.00  0.00     0.000 C 
BRANCH   2   3
ATOM      3  C   UNL     1     -13.270 -11.625  -0.147  1.00  0.00     0.000 C 
BRANCH   3   4
ATOM      4  C   UNL     1     -13.293 -13.080  -0.637  1.00  0.00     0.000 C 
BRANCH   4   5
ATOM      5  C   UNL     1     -12.261 -13.301  -1.749  1.00  0.00     0.000 C 
BRANCH   5   6
ATOM      6  C   UNL     1     -10.833 -13.147  -1.212  1.00  0.00     0.006 C 
BRANCH   6   7
ATOM      7  C   UNL     1      -9.841 -13.968  -2.042  1.00  0.00     0.053 C 
BRANCH   7   8
ATOM      8  C   UNL     1      -9.134 -13.091  -3.028  1.00  0.00     0.041 C 
ATOM      9  O   UNL     1      -8.210 -12.325  -2.646  1.00  0.00    -0.550 OA
ATOM     10  O   UNL     1      -9.454 -13.165  -4.377  1.00  0.00    -0.550 OA
ENDBRANCH   7   8
ENDBRANCH   6   7
ENDBRANCH   5   6
ENDBRANCH   4   5
ENDBRANCH   3   4
ENDBRANCH   2   3
ENDBRANCH   1   2
BRANCH   1  11
ATOM     11  C   UNL     1     -13.909 -13.463   2.982  1.00  0.00     0.000 C 
BRANCH  11  12
ATOM     12  C   UNL     1     -14.150 -13.303   4.495  1.00  0.00    -0.000 C 
BRANCH  12  13
ATOM     13  C   UNL     1     -12.845 -13.278   5.309  1.00  0.00    -0.000 C 
BRANCH  13  14
ATOM     14  C   UNL     1     -11.699 -12.549   4.582  1.00  0.00    -0.000 C 
BRANCH  14  15
ATOM     15  C   UNL     1     -11.345 -11.159   5.143  1.00  0.00    -0.000 C 
BRANCH  15  16
ATOM     16  C   UNL     1     -12.198  -9.997   4.600  1.00  0.00    -0.000 C 
BRANCH  16  17
ATOM     17  C   UNL     1     -13.472  -9.723   5.426  1.00  0.00    -0.003 C 
ATOM     18  C   UNL     1     -14.706  -9.503   4.551  1.00  0.00     0.004 C 
ENDBRANCH  16  17
ENDBRANCH  15  16
ENDBRANCH  14  15
ENDBRANCH  13  14
ENDBRANCH  12  13
ENDBRANCH  11  12
ENDBRANCH   1  11
TORSDOF 14
ENDMDL
MODEL 9
REMARK VINA RESULT:    -3.368     21.232     22.536
REMARK INTER + INTRA:          -8.127
REMARK INTER:                  -6.113
REMARK INTRA:                  -2.014
REMARK UNBOUND:                -2.004
REMARK SMILES CCCCCCCCCCCCCCCC(=O)[O-]
REMARK SMILES IDX 9 1 10 2 11 3 12 4 13 5 14 6 15 7 16 8 17 9 18 10 8 11 7 12
REMARK SMILES IDX 6 13 5 14 4 15 3 16 2 17 1 18
REMARK H PARENT
REMARK Flexibility Score: inf
ROOT
ATOM      1  C   UNL     1     -10.990 -12.987   4.842  1.00  0.00     0.000 C 
ENDROOT
BRANCH   1   2
ATOM      2  C   UNL     1     -11.465 -11.713   5.568  1.00  0.00     0.000 C 
BRANCH   2   3
ATOM      3  C   UNL     1     -11.461 -10.436   4.709  1.00  0.00     0.000 C 
BRANCH   3   4
ATOM      4  C   UNL     1     -12.872  -9.990   4.299  1.00  0.00     0.000 C 
BRANCH   4   5
ATOM      5  C   UNL     1     -13.918 -10.481   5.307  1.00  0.00     0.000 C 
BRANCH   5   6
ATOM      6  C   UNL     1     -14.365  -9.343   6.233  1.00  0.00     0.006 C 
BRANCH   6   7
ATOM      7  C   UNL     1     -14.076  -9.680   7.699  1.00  0.00     0.053 C 
BRANCH   7   8
ATOM      8  C   UNL     1     -12.970  -8.818   8.224  1.00  0.00     0.041 C 
ATOM      9  O   UNL     1     -11.856  -8.790   7.638  1.00  0.00    -0.550 OA
ATOM     10  O   UNL     1     -13.189  -8.001   9.326  1.00  0.00    -0.550 OA
ENDBRANCH   7   8
ENDBRANCH   6   7
ENDBRANCH   5   6
ENDBRANCH   4   5
ENDBRANCH   3   4
ENDBRANCH   2   3
ENDBRANCH   1   2
BRANCH   1  11
ATOM     11  C   UNL     1     -12.111 -13.852   4.232  1.00  0.00     0.000 C 
BRANCH  11  12
ATOM     12  C   UNL     1     -12.488 -13.509   2.779  1.00  0.00    -0.000 C 
BRANCH  12  13
ATOM     13  C   UNL     1     -14.006 -13.370   2.572  1.00  0.00    -0.000 C 
BRANCH  13  14
ATOM     14  C   UNL     1     -14.386 -12.137   1.732  1.00  0.00    -0.000 C 
BRANCH  14  15
ATOM     15  C   UNL     1     -13.226 -11.496   0.945  1.00  0.00    -0.000 C 
BRANCH  15  16
ATOM     16  C   UNL     1     -13.271 -11.712  -0.579  1.00  0.00    -0.000 C 
BRANCH  16  17
ATOM     17  C   UNL     1     -12.825 -13.122  -1.020  1.00  0.00    -0.003 C 
ATOM     18  C   UNL     1     -11.307 -13.302  -0.969  1.00  0.00     0.004 C 
ENDBRANCH  16  17
ENDBRANCH  15  16
ENDBRANCH  14  15
ENDBRANCH  13  14
ENDBRANCH  12  13
ENDBRANCH  11  12
ENDBRANCH   1  11
TORSDOF 14
ENDMDL
