MODEL 1
REMARK VINA RESULT:    -3.776      0.000      0.000
REMARK INTER + INTRA:          -9.256
REMARK INTER:                  -6.866
REMARK INTRA:                  -2.390
REMARK UNBOUND:                -2.390
REMARK SMILES CCCCCCCCCCCCCCCC(=O)[O-]
REMARK SMILES IDX 9 1 10 2 11 3 12 4 13 5 14 6 15 7 16 8 17 9 18 10 8 11 7 12
REMARK SMILES IDX 6 13 5 14 4 15 3 16 2 17 1 18
REMARK H PARENT
REMARK Flexibility Score: inf
ROOT
ATOM      1  C   UNL     1    -110.723 -41.490 -65.682  1.00  0.00     0.000 C 
ENDROOT
BRANCH   1   2
ATOM      2  C   UNL     1    -112.050 -40.711 -65.751  1.00  0.00     0.000 C 
BRANCH   2   3
ATOM      3  C   UNL     1    -113.254 -41.400 -65.076  1.00  0.00     0.000 C 
BRANCH   3   4
ATOM      4  C   UNL     1    -114.266 -42.052 -66.036  1.00  0.00     0.000 C 
BRANCH   4   5
ATOM      5  C   UNL     1    -113.959 -41.762 -67.515  1.00  0.00     0.000 C 
BRANCH   5   6
ATOM      6  C   UNL     1    -113.657 -43.036 -68.326  1.00  0.00     0.006 C 
BRANCH   6   7
ATOM      7  C   UNL     1    -112.177 -43.193 -68.722  1.00  0.00     0.053 C 
BRANCH   7   8
ATOM      8  C   UNL     1    -111.682 -42.063 -69.572  1.00  0.00     0.041 C 
ATOM      9  O   UNL     1    -110.721 -41.348 -69.181  1.00  0.00    -0.550 OA
ATOM     10  O   UNL     1    -112.297 -41.783 -70.786  1.00  0.00    -0.550 OA
ENDBRANCH   7   8
ENDBRANCH   6   7
ENDBRANCH   5   6
ENDBRANCH   4   5
ENDBRANCH   3   4
ENDBRANCH   2   3
ENDBRANCH   1   2
BRANCH   1  11
ATOM     11  C   UNL     1    -110.886 -42.890 -65.063  1.00  0.00     0.000 C 
BRANCH  11  12
ATOM     12  C   UNL     1    -109.991 -43.940 -65.742  1.00  0.00    -0.000 C 
BRANCH  12  13
ATOM     13  C   UNL     1    -109.015 -43.317 -66.754  1.00  0.00    -0.000 C 
BRANCH  13  14
ATOM     14  C   UNL     1    -107.544 -43.656 -66.452  1.00  0.00    -0.000 C 
BRANCH  14  15
ATOM     15  C   UNL     1    -107.118 -43.480 -64.981  1.00  0.00    -0.000 C 
BRANCH  15  16
ATOM     16  C   UNL     1    -107.132 -42.030 -64.465  1.00  0.00    -0.000 C 
BRANCH  16  17
ATOM     17  C   UNL     1    -107.678 -41.912 -63.035  1.00  0.00    -0.003 C 
ATOM     18  C   UNL     1    -108.152 -43.266 -62.515  1.00  0.00     0.004 C 
ENDBRANCH  16  17
ENDBRANCH  15  16
ENDBRANCH  14  15
ENDBRANCH  13  14
ENDBRANCH  12  13
ENDBRANCH  11  12
ENDBRANCH   1  11
TORSDOF 14
ENDMDL
MODEL 2
REMARK VINA RESULT:    -3.767      1.807      2.882
REMARK INTER + INTRA:          -9.240
REMARK INTER:                  -6.894
REMARK INTRA:                  -2.346
REMARK UNBOUND:                -2.390
REMARK SMILES CCCCCCCCCCCCCCCC(=O)[O-]
REMARK SMILES IDX 9 1 10 2 11 3 12 4 13 5 14 6 15 7 16 8 17 9 18 10 8 11 7 12
REMARK SMILES IDX 6 13 5 14 4 15 3 16 2 17 1 18
REMARK H PARENT
REMARK Flexibility Score: inf
ROOT
ATOM      1  C   UNL     1    -113.324 -41.783 -64.623  1.00  0.00     0.000 C 
ENDROOT
BRANCH   1   2
ATOM      2  C   UNL     1    -112.631 -40.868 -65.651  1.00  0.00     0.000 C 
BRANCH   2   3
ATOM      3  C   UNL     1    -113.226 -40.908 -67.074  1.00  0.00     0.000 C 
BRANCH   3   4
ATOM      4  C   UNL     1    -114.162 -42.097 -67.366  1.00  0.00     0.000 C 
BRANCH   4   5
ATOM      5  C   UNL     1    -113.449 -43.254 -68.084  1.00  0.00     0.000 C 
BRANCH   5   6
ATOM      6  C   UNL     1    -112.124 -42.827 -68.743  1.00  0.00     0.006 C 
BRANCH   6   7
ATOM      7  C   UNL     1    -111.040 -43.920 -68.742  1.00  0.00     0.053 C 
BRANCH   7   8
ATOM      8  C   UNL     1    -109.871 -43.580 -69.614  1.00  0.00     0.041 C 
ATOM      9  O   UNL     1    -110.051 -43.009 -70.722  1.00  0.00    -0.550 OA
ATOM     10  O   UNL     1    -108.583 -43.913 -69.214  1.00  0.00    -0.550 OA
ENDBRANCH   7   8
ENDBRANCH   6   7
ENDBRANCH   5   6
ENDBRANCH   4   5
ENDBRANCH   3   4
ENDBRANCH   2   3
ENDBRANCH   1   2
BRANCH   1  11
ATOM     11  C   UNL     1    -112.417 -42.927 -64.138  1.00  0.00     0.000 C 
BRANCH  11  12
ATOM     12  C   UNL     1    -111.217 -43.162 -65.070  1.00  0.00    -0.000 C 
BRANCH  12  13
ATOM     13  C   UNL     1    -109.884 -43.241 -64.307  1.00  0.00    -0.000 C 
BRANCH  13  14
ATOM     14  C   UNL     1    -108.721 -42.573 -65.065  1.00  0.00    -0.000 C 
BRANCH  14  15
ATOM     15  C   UNL     1    -108.498 -41.082 -64.743  1.00  0.00    -0.000 C 
BRANCH  15  16
ATOM     16  C   UNL     1    -108.954 -40.101 -65.839  1.00  0.00    -0.000 C 
BRANCH  16  17
ATOM     17  C   UNL     1    -109.329 -40.806 -67.150  1.00  0.00    -0.003 C 
ATOM     18  C   UNL     1    -108.384 -40.404 -68.279  1.00  0.00     0.004 C 
ENDBRANCH  16  17
ENDBRANCH  15  16
ENDBRANCH  14  15
ENDBRANCH  13  14
ENDBRANCH  12  13
ENDBRANCH  11  12
ENDBRANCH   1  11
TORSDOF 14
ENDMDL
MODEL 3
REMARK VINA RESULT:    -3.742      1.659      3.322
REMARK INTER + INTRA:          -9.194
REMARK INTER:                  -7.429
REMARK INTRA:                  -1.765
REMARK UNBOUND:                -2.390
REMARK SMILES CCCCCCCCCCCCCCCC(=O)[O-]
REMARK SMILES IDX 9 1 10 2 11 3 12 4 13 5 14 6 15 7 16 8 17 9 18 10 8 11 7 12
REMARK SMILES IDX 6 13 5 14 4 15 3 16 2 17 1 18
REMARK H PARENT
REMARK Flexibility Score: inf
ROOT
ATOM      1  C   UNL     1    -109.711 -43.789 -65.370  1.00  0.00     0.000 C 
ENDROOT
BRANCH   1   2
ATOM      2  C   UNL     1    -110.221 -42.829 -66.461  1.00  0.00     0.000 C 
BRANCH   2   3
ATOM      3  C   UNL     1    -109.997 -41.329 -66.175  1.00  0.00     0.000 C 
BRANCH   3   4
ATOM      4  C   UNL     1    -111.261 -40.534 -65.798  1.00  0.00     0.000 C 
BRANCH   4   5
ATOM      5  C   UNL     1    -112.387 -41.426 -65.250  1.00  0.00     0.000 C 
BRANCH   5   6
ATOM      6  C   UNL     1    -113.777 -41.037 -65.790  1.00  0.00     0.006 C 
BRANCH   6   7
ATOM      7  C   UNL     1    -114.426 -42.110 -66.683  1.00  0.00     0.053 C 
BRANCH   7   8
ATOM      8  C   UNL     1    -113.653 -42.363 -67.942  1.00  0.00     0.041 C 
ATOM      9  O   UNL     1    -113.224 -41.398 -68.628  1.00  0.00    -0.550 OA
ATOM     10  O   UNL     1    -113.425 -43.665 -68.369  1.00  0.00    -0.550 OA
ENDBRANCH   7   8
ENDBRANCH   6   7
ENDBRANCH   5   6
ENDBRANCH   4   5
ENDBRANCH   3   4
ENDBRANCH   2   3
ENDBRANCH   1   2
BRANCH   1  11
ATOM     11  C   UNL     1    -109.128 -43.052 -64.152  1.00  0.00     0.000 C 
BRANCH  11  12
ATOM     12  C   UNL     1    -107.718 -43.544 -63.786  1.00  0.00    -0.000 C 
BRANCH  12  13
ATOM     13  C   UNL     1    -107.418 -43.408 -62.284  1.00  0.00    -0.000 C 
BRANCH  13  14
ATOM     14  C   UNL     1    -107.515 -41.954 -61.785  1.00  0.00    -0.000 C 
BRANCH  14  15
ATOM     15  C   UNL     1    -106.300 -41.064 -62.114  1.00  0.00    -0.000 C 
BRANCH  15  16
ATOM     16  C   UNL     1    -106.641 -39.672 -62.675  1.00  0.00    -0.000 C 
BRANCH  16  17
ATOM     17  C   UNL     1    -107.453 -39.736 -63.976  1.00  0.00    -0.003 C 
ATOM     18  C   UNL     1    -106.590 -40.220 -65.138  1.00  0.00     0.004 C 
ENDBRANCH  16  17
ENDBRANCH  15  16
ENDBRANCH  14  15
ENDBRANCH  13  14
ENDBRANCH  12  13
ENDBRANCH  11  12
ENDBRANCH   1  11
TORSDOF 14
ENDMDL
MODEL 4
REMARK VINA RESULT:    -3.713      1.332      2.155
REMARK INTER + INTRA:          -9.141
REMARK INTER:                  -7.123
REMARK INTRA:                  -2.018
REMARK UNBOUND:                -2.390
REMARK SMILES CCCCCCCCCCCCCCCC(=O)[O-]
REMARK SMILES IDX 9 1 10 2 11 3 12 4 13 5 14 6 15 7 16 8 17 9 18 10 8 11 7 12
REMARK SMILES IDX 6 13 5 14 4 15 3 16 2 17 1 18
REMARK H PARENT
REMARK Flexibility Score: inf
ROOT
ATOM      1  C   UNL     1    -110.845 -41.926 -65.716  1.00  0.00     0.000 C 
ENDROOT
BRANCH   1   2
ATOM      2  C   UNL     1    -111.680 -42.726 -64.698  1.00  0.00     0.000 C 
BRANCH   2   3
ATOM      3  C   UNL     1    -113.049 -42.112 -64.341  1.00  0.00     0.000 C 
BRANCH   3   4
ATOM      4  C   UNL     1    -113.667 -41.204 -65.422  1.00  0.00     0.000 C 
BRANCH   4   5
ATOM      5  C   UNL     1    -114.460 -41.988 -66.480  1.00  0.00     0.000 C 
BRANCH   5   6
ATOM      6  C   UNL     1    -113.805 -41.947 -67.873  1.00  0.00     0.006 C 
BRANCH   6   7
ATOM      7  C   UNL     1    -113.481 -43.335 -68.457  1.00  0.00     0.053 C 
BRANCH   7   8
ATOM      8  C   UNL     1    -112.979 -43.269 -69.866  1.00  0.00     0.041 C 
ATOM      9  O   UNL     1    -113.778 -43.394 -70.832  1.00  0.00    -0.550 OA
ATOM     10  O   UNL     1    -111.623 -43.093 -70.115  1.00  0.00    -0.550 OA
ENDBRANCH   7   8
ENDBRANCH   6   7
ENDBRANCH   5   6
ENDBRANCH   4   5
ENDBRANCH   3   4
ENDBRANCH   2   3
ENDBRANCH   1   2
BRANCH   1  11
ATOM     11  C   UNL     1    -110.092 -42.828 -66.709  1.00  0.00     0.000 C 
BRANCH  11  12
ATOM     12  C   UNL     1    -109.500 -44.077 -66.035  1.00  0.00    -0.000 C 
BRANCH  12  13
ATOM     13  C   UNL     1    -108.014 -43.906 -65.679  1.00  0.00    -0.000 C 
BRANCH  13  14
ATOM     14  C   UNL     1    -107.778 -43.745 -64.166  1.00  0.00    -0.000 C 
BRANCH  14  15
ATOM     15  C   UNL     1    -107.927 -42.308 -63.627  1.00  0.00    -0.000 C 
BRANCH  15  16
ATOM     16  C   UNL     1    -107.137 -41.235 -64.399  1.00  0.00    -0.000 C 
BRANCH  16  17
ATOM     17  C   UNL     1    -107.926 -39.930 -64.580  1.00  0.00    -0.003 C 
ATOM     18  C   UNL     1    -107.982 -39.522 -66.048  1.00  0.00     0.004 C 
ENDBRANCH  16  17
ENDBRANCH  15  16
ENDBRANCH  14  15
ENDBRANCH  13  14
ENDBRANCH  12  13
ENDBRANCH  11  12
ENDBRANCH   1  11
TORSDOF 14
ENDMDL
MODEL 5
REMARK VINA RESULT:    -3.693      2.514      5.371
REMARK INTER + INTRA:          -9.106
REMARK INTER:                  -6.828
REMARK INTRA:                  -2.277
REMARK UNBOUND:                -2.390
REMARK SMILES CCCCCCCCCCCCCCCC(=O)[O-]
REMARK SMILES IDX 9 1 10 2 11 3 12 4 13 5 14 6 15 7 16 8 17 9 18 10 8 11 7 12
REMARK SMILES IDX 6 13 5 14 4 15 3 16 2 17 1 18
REMARK H PARENT
REMARK Flexibility Score: inf
ROOT
ATOM      1  C   UNL     1    -112.727 -41.285 -65.412  1.00  0.00     0.000 C 
ENDROOT
BRANCH   1   2
ATOM      2  C   UNL     1    -112.989 -42.270 -64.257  1.00  0.00     0.000 C 
BRANCH   2   3
ATOM      3  C   UNL     1    -111.807 -43.195 -63.900  1.00  0.00     0.000 C 
BRANCH   3   4
ATOM      4  C   UNL     1    -110.711 -43.310 -64.976  1.00  0.00     0.000 C 
BRANCH   4   5
ATOM      5  C   UNL     1    -109.399 -42.619 -64.568  1.00  0.00     0.000 C 
BRANCH   5   6
ATOM      6  C   UNL     1    -108.822 -41.722 -65.679  1.00  0.00     0.006 C 
BRANCH   6   7
ATOM      7  C   UNL     1    -109.207 -40.237 -65.550  1.00  0.00     0.053 C 
BRANCH   7   8
ATOM      8  C   UNL     1    -108.019 -39.325 -65.587  1.00  0.00     0.041 C 
ATOM      9  O   UNL     1    -107.402 -39.130 -66.668  1.00  0.00    -0.550 OA
ATOM     10  O   UNL     1    -107.579 -38.706 -64.423  1.00  0.00    -0.550 OA
ENDBRANCH   7   8
ENDBRANCH   6   7
ENDBRANCH   5   6
ENDBRANCH   4   5
ENDBRANCH   3   4
ENDBRANCH   2   3
ENDBRANCH   1   2
BRANCH   1  11
ATOM     11  C   UNL     1    -113.705 -41.470 -66.585  1.00  0.00     0.000 C 
BRANCH  11  12
ATOM     12  C   UNL     1    -113.738 -42.918 -67.101  1.00  0.00    -0.000 C 
BRANCH  12  13
ATOM     13  C   UNL     1    -113.702 -42.998 -68.637  1.00  0.00    -0.000 C 
BRANCH  13  14
ATOM     14  C   UNL     1    -112.455 -43.729 -69.168  1.00  0.00    -0.000 C 
BRANCH  14  15
ATOM     15  C   UNL     1    -111.126 -43.335 -68.494  1.00  0.00    -0.000 C 
BRANCH  15  16
ATOM     16  C   UNL     1    -110.330 -42.231 -69.213  1.00  0.00    -0.000 C 
BRANCH  16  17
ATOM     17  C   UNL     1    -110.744 -40.818 -68.777  1.00  0.00    -0.003 C 
ATOM     18  C   UNL     1    -111.646 -40.165 -69.819  1.00  0.00     0.004 C 
ENDBRANCH  16  17
ENDBRANCH  15  16
ENDBRANCH  14  15
ENDBRANCH  13  14
ENDBRANCH  12  13
ENDBRANCH  11  12
ENDBRANCH   1  11
TORSDOF 14
ENDMDL
MODEL 6
REMARK VINA RESULT:    -3.684      3.199      5.889
REMARK INTER + INTRA:          -9.088
REMARK INTER:                  -7.200
REMARK INTRA:                  -1.888
REMARK UNBOUND:                -2.390
REMARK SMILES CCCCCCCCCCCCCCCC(=O)[O-]
REMARK SMILES IDX 9 1 10 2 11 3 12 4 13 5 14 6 15 7 16 8 17 9 18 10 8 11 7 12
REMARK SMILES IDX 6 13 5 14 4 15 3 16 2 17 1 18
REMARK H PARENT
REMARK Flexibility Score: inf
ROOT
ATOM      1  C   UNL     1    -113.750 -41.126 -65.807  1.00  0.00     0.000 C 
ENDROOT
BRANCH   1   2
ATOM      2  C   UNL     1    -112.443 -41.756 -65.290  1.00  0.00     0.000 C 
BRANCH   2   3
ATOM      3  C   UNL     1    -112.592 -42.649 -64.040  1.00  0.00     0.000 C 
BRANCH   3   4
ATOM      4  C   UNL     1    -111.345 -43.473 -63.666  1.00  0.00     0.000 C 
BRANCH   4   5
ATOM      5  C   UNL     1    -110.233 -43.388 -64.724  1.00  0.00     0.000 C 
BRANCH   5   6
ATOM      6  C   UNL     1    -108.902 -42.860 -64.154  1.00  0.00     0.006 C 
BRANCH   6   7
ATOM      7  C   UNL     1    -108.575 -43.378 -62.742  1.00  0.00     0.053 C 
BRANCH   7   8
ATOM      8  C   UNL     1    -107.111 -43.622 -62.538  1.00  0.00     0.041 C 
ATOM      9  O   UNL     1    -106.634 -43.689 -61.375  1.00  0.00    -0.550 OA
ATOM     10  O   UNL     1    -106.268 -43.753 -63.635  1.00  0.00    -0.550 OA
ENDBRANCH   7   8
ENDBRANCH   6   7
ENDBRANCH   5   6
ENDBRANCH   4   5
ENDBRANCH   3   4
ENDBRANCH   2   3
ENDBRANCH   1   2
BRANCH   1  11
ATOM     11  C   UNL     1    -114.115 -41.591 -67.228  1.00  0.00     0.000 C 
BRANCH  11  12
ATOM     12  C   UNL     1    -113.591 -43.004 -67.536  1.00  0.00    -0.000 C 
BRANCH  12  13
ATOM     13  C   UNL     1    -113.402 -43.246 -69.043  1.00  0.00    -0.000 C 
BRANCH  13  14
ATOM     14  C   UNL     1    -111.976 -43.707 -69.399  1.00  0.00    -0.000 C 
BRANCH  14  15
ATOM     15  C   UNL     1    -110.955 -43.635 -68.247  1.00  0.00    -0.000 C 
BRANCH  15  16
ATOM     16  C   UNL     1    -109.862 -42.563 -68.408  1.00  0.00    -0.000 C 
BRANCH  16  17
ATOM     17  C   UNL     1    -110.401 -41.134 -68.255  1.00  0.00    -0.003 C 
ATOM     18  C   UNL     1    -110.366 -40.388 -69.585  1.00  0.00     0.004 C 
ENDBRANCH  16  17
ENDBRANCH  15  16
ENDBRANCH  14  15
ENDBRANCH  13  14
ENDBRANCH  12  13
ENDBRANCH  11  12
ENDBRANCH   1  11
TORSDOF 14
ENDMDL
MODEL 7
REMARK VINA RESULT:    -3.673      2.303      6.132
REMARK INTER + INTRA:          -9.069
REMARK INTER:                  -6.900
REMARK INTRA:                  -2.169
REMARK UNBOUND:                -2.390
REMARK SMILES CCCCCCCCCCCCCCCC(=O)[O-]
REMARK SMILES IDX 9 1 10 2 11 3 12 4 13 5 14 6 15 7 16 8 17 9 18 10 8 11 7 12
REMARK SMILES IDX 6 13 5 14 4 15 3 16 2 17 1 18
REMARK H PARENT
REMARK Flexibility Score: inf
ROOT
ATOM      1  C   UNL     1    -110.802 -41.340 -65.805  1.00  0.00     0.000 C 
ENDROOT
BRANCH   1   2
ATOM      2  C   UNL     1    -110.884 -42.686 -65.060  1.00  0.00     0.000 C 
BRANCH   2   3
ATOM      3  C   UNL     1    -109.876 -43.757 -65.524  1.00  0.00     0.000 C 
BRANCH   3   4
ATOM      4  C   UNL     1    -108.457 -43.626 -64.939  1.00  0.00     0.000 C 
BRANCH   4   5
ATOM      5  C   UNL     1    -108.450 -43.057 -63.511  1.00  0.00     0.000 C 
BRANCH   5   6
ATOM      6  C   UNL     1    -107.501 -41.854 -63.349  1.00  0.00     0.006 C 
BRANCH   6   7
ATOM      7  C   UNL     1    -107.323 -41.018 -64.630  1.00  0.00     0.053 C 
BRANCH   7   8
ATOM      8  C   UNL     1    -107.669 -39.574 -64.433  1.00  0.00     0.041 C 
ATOM      9  O   UNL     1    -108.249 -38.930 -65.346  1.00  0.00    -0.550 OA
ATOM     10  O   UNL     1    -107.330 -38.932 -63.248  1.00  0.00    -0.550 OA
ENDBRANCH   7   8
ENDBRANCH   6   7
ENDBRANCH   5   6
ENDBRANCH   4   5
ENDBRANCH   3   4
ENDBRANCH   2   3
ENDBRANCH   1   2
BRANCH   1  11
ATOM     11  C   UNL     1    -112.109 -40.533 -65.722  1.00  0.00     0.000 C 
BRANCH  11  12
ATOM     12  C   UNL     1    -113.318 -41.407 -65.348  1.00  0.00    -0.000 C 
BRANCH  12  13
ATOM     13  C   UNL     1    -114.197 -41.748 -66.563  1.00  0.00    -0.000 C 
BRANCH  13  14
ATOM     14  C   UNL     1    -113.741 -43.028 -67.289  1.00  0.00    -0.000 C 
BRANCH  14  15
ATOM     15  C   UNL     1    -113.068 -42.802 -68.657  1.00  0.00    -0.000 C 
BRANCH  15  16
ATOM     16  C   UNL     1    -111.830 -43.676 -68.930  1.00  0.00    -0.000 C 
BRANCH  16  17
ATOM     17  C   UNL     1    -110.557 -42.850 -69.162  1.00  0.00    -0.003 C 
ATOM     18  C   UNL     1    -110.896 -41.398 -69.484  1.00  0.00     0.004 C 
ENDBRANCH  16  17
ENDBRANCH  15  16
ENDBRANCH  14  15
ENDBRANCH  13  14
ENDBRANCH  12  13
ENDBRANCH  11  12
ENDBRANCH   1  11
TORSDOF 14
ENDMDL
MODEL 8
REMARK VINA RESULT:    -3.667      1.168      2.049
REMARK INTER + INTRA:          -9.059
REMARK INTER:                  -6.766
REMARK INTRA:                  -2.293
REMARK UNBOUND:                -2.390
REMARK SMILES CCCCCCCCCCCCCCCC(=O)[O-]
REMARK SMILES IDX 9 1 10 2 11 3 12 4 13 5 14 6 15 7 16 8 17 9 18 10 8 11 7 12
REMARK SMILES IDX 6 13 5 14 4 15 3 16 2 17 1 18
REMARK H PARENT
REMARK Flexibility Score: inf
ROOT
ATOM      1  C   UNL     1    -110.016 -41.155 -67.052  1.00  0.00     0.000 C 
ENDROOT
BRANCH   1   2
ATOM      2  C   UNL     1    -110.862 -41.110 -65.766  1.00  0.00     0.000 C 
BRANCH   2   3
ATOM      3  C   UNL     1    -111.385 -42.475 -65.273  1.00  0.00     0.000 C 
BRANCH   3   4
ATOM      4  C   UNL     1    -112.695 -42.429 -64.465  1.00  0.00     0.000 C 
BRANCH   4   5
ATOM      5  C   UNL     1    -113.718 -41.437 -65.042  1.00  0.00     0.000 C 
BRANCH   5   6
ATOM      6  C   UNL     1    -114.461 -41.990 -66.273  1.00  0.00     0.006 C 
BRANCH   6   7
ATOM      7  C   UNL     1    -114.086 -41.298 -67.596  1.00  0.00     0.053 C 
BRANCH   7   8
ATOM      8  C   UNL     1    -113.346 -42.201 -68.534  1.00  0.00     0.041 C 
ATOM      9  O   UNL     1    -112.667 -41.718 -69.478  1.00  0.00    -0.550 OA
ATOM     10  O   UNL     1    -113.423 -43.580 -68.379  1.00  0.00    -0.550 OA
ENDBRANCH   7   8
ENDBRANCH   6   7
ENDBRANCH   5   6
ENDBRANCH   4   5
ENDBRANCH   3   4
ENDBRANCH   2   3
ENDBRANCH   1   2
BRANCH   1  11
ATOM     11  C   UNL     1    -109.755 -42.589 -67.543  1.00  0.00     0.000 C 
BRANCH  11  12
ATOM     12  C   UNL     1    -108.258 -42.943 -67.554  1.00  0.00    -0.000 C 
BRANCH  12  13
ATOM     13  C   UNL     1    -107.848 -43.805 -66.349  1.00  0.00    -0.000 C 
BRANCH  13  14
ATOM     14  C   UNL     1    -106.597 -43.267 -65.628  1.00  0.00    -0.000 C 
BRANCH  14  15
ATOM     15  C   UNL     1    -106.665 -41.784 -65.214  1.00  0.00    -0.000 C 
BRANCH  15  16
ATOM     16  C   UNL     1    -107.688 -41.459 -64.111  1.00  0.00    -0.000 C 
BRANCH  16  17
ATOM     17  C   UNL     1    -107.541 -42.362 -62.877  1.00  0.00    -0.003 C 
ATOM     18  C   UNL     1    -108.750 -43.280 -62.722  1.00  0.00     0.004 C 
ENDBRANCH  16  17
ENDBRANCH  15  16
ENDBRANCH  14  15
ENDBRANCH  13  14
ENDBRANCH  12  13
ENDBRANCH  11  12
ENDBRANCH   1  11
TORSDOF 14
ENDMDL
MODEL 9
REMARK VINA RESULT:    -3.653      1.874      2.928
REMARK INTER + INTRA:          -9.032
REMARK INTER:                  -7.148
REMARK INTRA:                  -1.884
REMARK UNBOUND:                -2.390
REMARK SMILES CCCCCCCCCCCCCCCC(=O)[O-]
REMARK SMILES IDX 9 1 10 2 11 3 12 4 13 5 14 6 15 7 16 8 17 9 18 10 8 11 7 12
REMARK SMILES IDX 6 13 5 14 4 15 3 16 2 17 1 18
REMARK H PARENT
REMARK Flexibility Score: inf
ROOT
ATOM      1  C   UNL     1    -109.272 -43.014 -64.580  1.00  0.00     0.000 C 
ENDROOT
BRANCH   1   2
ATOM      2  C   UNL     1    -110.736 -43.368 -64.903  1.00  0.00     0.000 C 
BRANCH   2   3
ATOM      3  C   UNL     1    -111.695 -43.371 -63.695  1.00  0.00     0.000 C 
BRANCH   3   4
ATOM      4  C   UNL     1    -112.997 -42.570 -63.883  1.00  0.00     0.000 C 
BRANCH   4   5
ATOM      5  C   UNL     1    -112.941 -41.613 -65.085  1.00  0.00     0.000 C 
BRANCH   5   6
ATOM      6  C   UNL     1    -114.092 -41.838 -66.085  1.00  0.00     0.006 C 
BRANCH   6   7
ATOM      7  C   UNL     1    -113.735 -42.774 -67.254  1.00  0.00     0.053 C 
BRANCH   7   8
ATOM      8  C   UNL     1    -112.605 -42.254 -68.090  1.00  0.00     0.041 C 
ATOM      9  O   UNL     1    -112.676 -41.109 -68.610  1.00  0.00    -0.550 OA
ATOM     10  O   UNL     1    -111.483 -43.042 -68.313  1.00  0.00    -0.550 OA
ENDBRANCH   7   8
ENDBRANCH   6   7
ENDBRANCH   5   6
ENDBRANCH   4   5
ENDBRANCH   3   4
ENDBRANCH   2   3
ENDBRANCH   1   2
BRANCH   1  11
ATOM     11  C   UNL     1    -108.621 -42.129 -65.657  1.00  0.00     0.000 C 
BRANCH  11  12
ATOM     12  C   UNL     1    -109.540 -40.982 -66.110  1.00  0.00    -0.000 C 
BRANCH  12  13
ATOM     13  C   UNL     1    -109.159 -39.635 -65.472  1.00  0.00    -0.000 C 
BRANCH  13  14
ATOM     14  C   UNL     1    -107.692 -39.245 -65.734  1.00  0.00    -0.000 C 
BRANCH  14  15
ATOM     15  C   UNL     1    -106.938 -38.670 -64.519  1.00  0.00    -0.000 C 
BRANCH  15  16
ATOM     16  C   UNL     1    -107.314 -39.292 -63.161  1.00  0.00    -0.000 C 
BRANCH  16  17
ATOM     17  C   UNL     1    -106.442 -40.503 -62.800  1.00  0.00    -0.003 C 
ATOM     18  C   UNL     1    -107.255 -41.566 -62.067  1.00  0.00     0.004 C 
ENDBRANCH  16  17
ENDBRANCH  15  16
ENDBRANCH  14  15
ENDBRANCH  13  14
ENDBRANCH  12  13
ENDBRANCH  11  12
ENDBRANCH   1  11
TORSDOF 14
ENDMDL
