MODEL 1
REMARK VINA RESULT:    -4.481      0.000      0.000
REMARK INTER + INTRA:         -15.420
REMARK INTER:                 -11.815
REMARK INTRA:                  -3.606
REMARK UNBOUND:                -3.606
REMARK SMILES CCCCCCCCCCCCCCCCCCCCCCCCCCCCCC(=O)[O-]
REMARK SMILES IDX 16 1 17 2 18 3 19 4 20 5 21 6 22 7 23 8 24 9 25 10 26 11
REMARK SMILES IDX 27 12 28 13 29 14 30 15 31 16 32 17 15 18 14 19 13 20 12 21
REMARK SMILES IDX 11 22 10 23 9 24 8 25 7 26 6 27 5 28 4 29 3 30 2 31 1 32
REMARK H PARENT
REMARK Flexibility Score: inf
ROOT
ATOM      1  C   UNL     1     -51.615  10.983 -30.007  1.00  0.00     0.000 C 
ENDROOT
BRANCH   1   2
ATOM      2  C   UNL     1     -52.317  10.113 -31.066  1.00  0.00     0.000 C 
BRANCH   2   3
ATOM      3  C   UNL     1     -53.480   9.301 -30.473  1.00  0.00     0.000 C 
BRANCH   3   4
ATOM      4  C   UNL     1     -53.060   7.850 -30.195  1.00  0.00     0.000 C 
BRANCH   4   5
ATOM      5  C   UNL     1     -54.122   6.866 -30.703  1.00  0.00     0.000 C 
BRANCH   5   6
ATOM      6  C   UNL     1     -53.756   6.227 -32.054  1.00  0.00     0.000 C 
BRANCH   6   7
ATOM      7  C   UNL     1     -53.974   7.159 -33.263  1.00  0.00     0.000 C 
BRANCH   7   8
ATOM      8  C   UNL     1     -52.648   7.621 -33.890  1.00  0.00     0.000 C 
BRANCH   8   9
ATOM      9  C   UNL     1     -51.511   6.605 -33.679  1.00  0.00     0.000 C 
BRANCH   9  10
ATOM     10  C   UNL     1     -50.170   7.282 -33.356  1.00  0.00     0.000 C 
BRANCH  10  11
ATOM     11  C   UNL     1     -49.446   6.553 -32.213  1.00  0.00     0.000 C 
BRANCH  11  12
ATOM     12  C   UNL     1     -49.612   7.273 -30.858  1.00  0.00     0.000 C 
BRANCH  12  13
ATOM     13  C   UNL     1     -49.031   8.700 -30.839  1.00  0.00     0.006 C 
BRANCH  13  14
ATOM     14  C   UNL     1     -47.552   8.785 -31.250  1.00  0.00     0.053 C 
BRANCH  14  15
ATOM     15  C   UNL     1     -46.642   8.889 -30.062  1.00  0.00     0.041 C 
ATOM     16  O   UNL     1     -46.180  10.008 -29.713  1.00  0.00    -0.550 OA
ATOM     17  O   UNL     1     -46.298   7.751 -29.345  1.00  0.00    -0.550 OA
ENDBRANCH  14  15
ENDBRANCH  13  14
ENDBRANCH  12  13
ENDBRANCH  11  12
ENDBRANCH  10  11
ENDBRANCH   9  10
ENDBRANCH   8   9
ENDBRANCH   7   8
ENDBRANCH   6   7
ENDBRANCH   5   6
ENDBRANCH   4   5
ENDBRANCH   3   4
ENDBRANCH   2   3
ENDBRANCH   1   2
BRANCH   1  18
ATOM     18  C   UNL     1     -52.598  11.536 -28.959  1.00  0.00     0.000 C 
BRANCH  18  19
ATOM     19  C   UNL     1     -53.296  12.834 -29.416  1.00  0.00     0.000 C 
BRANCH  19  20
ATOM     20  C   UNL     1     -53.753  13.750 -28.264  1.00  0.00     0.000 C 
BRANCH  20  21
ATOM     21  C   UNL     1     -53.784  15.258 -28.582  1.00  0.00     0.000 C 
BRANCH  21  22
ATOM     22  C   UNL     1     -54.124  16.175 -27.392  1.00  0.00     0.000 C 
BRANCH  22  23
ATOM     23  C   UNL     1     -54.060  17.668 -27.746  1.00  0.00     0.000 C 
BRANCH  23  24
ATOM     24  C   UNL     1     -52.859  17.964 -28.657  1.00  0.00    -0.000 C 
BRANCH  24  25
ATOM     25  C   UNL     1     -53.279  18.497 -30.037  1.00  0.00    -0.000 C 
BRANCH  25  26
ATOM     26  C   UNL     1     -52.077  18.745 -30.963  1.00  0.00    -0.000 C 
BRANCH  26  27
ATOM     27  C   UNL     1     -51.026  17.624 -30.893  1.00  0.00    -0.000 C 
BRANCH  27  28
ATOM     28  C   UNL     1     -51.560  16.251 -31.355  1.00  0.00    -0.000 C 
BRANCH  28  29
ATOM     29  C   UNL     1     -50.426  15.249 -31.629  1.00  0.00    -0.000 C 
BRANCH  29  30
ATOM     30  C   UNL     1     -50.008  14.464 -30.378  1.00  0.00    -0.000 C 
BRANCH  30  31
ATOM     31  C   UNL     1     -49.214  13.190 -30.707  1.00  0.00    -0.003 C 
ATOM     32  C   UNL     1     -48.756  12.486 -29.433  1.00  0.00     0.004 C 
ENDBRANCH  30  31
ENDBRANCH  29  30
ENDBRANCH  28  29
ENDBRANCH  27  28
ENDBRANCH  26  27
ENDBRANCH  25  26
ENDBRANCH  24  25
ENDBRANCH  23  24
ENDBRANCH  22  23
ENDBRANCH  21  22
ENDBRANCH  20  21
ENDBRANCH  19  20
ENDBRANCH  18  19
ENDBRANCH   1  18
TORSDOF 28
ENDMDL
MODEL 2
REMARK VINA RESULT:    -4.363      2.007      9.381
REMARK INTER + INTRA:         -15.111
REMARK INTER:                 -11.751
REMARK INTRA:                  -3.360
REMARK UNBOUND:                -3.606
REMARK SMILES CCCCCCCCCCCCCCCCCCCCCCCCCCCCCC(=O)[O-]
REMARK SMILES IDX 16 1 17 2 18 3 19 4 20 5 21 6 22 7 23 8 24 9 25 10 26 11
REMARK SMILES IDX 27 12 28 13 29 14 30 15 31 16 32 17 15 18 14 19 13 20 12 21
REMARK SMILES IDX 11 22 10 23 9 24 8 25 7 26 6 27 5 28 4 29 3 30 2 31 1 32
REMARK H PARENT
REMARK Flexibility Score: inf
ROOT
ATOM      1  C   UNL     1     -48.356  11.705 -29.150  1.00  0.00     0.000 C 
ENDROOT
BRANCH   1   2
ATOM      2  C   UNL     1     -49.387  12.848 -29.178  1.00  0.00     0.000 C 
BRANCH   2   3
ATOM      3  C   UNL     1     -49.739  13.278 -30.612  1.00  0.00     0.000 C 
BRANCH   3   4
ATOM      4  C   UNL     1     -50.721  14.458 -30.614  1.00  0.00     0.000 C 
BRANCH   4   5
ATOM      5  C   UNL     1     -50.537  15.323 -31.867  1.00  0.00     0.000 C 
BRANCH   5   6
ATOM      6  C   UNL     1     -51.038  16.766 -31.683  1.00  0.00     0.000 C 
BRANCH   6   7
ATOM      7  C   UNL     1     -52.316  16.877 -30.826  1.00  0.00     0.000 C 
BRANCH   7   8
ATOM      8  C   UNL     1     -52.328  18.147 -29.959  1.00  0.00     0.000 C 
BRANCH   8   9
ATOM      9  C   UNL     1     -52.362  17.832 -28.453  1.00  0.00     0.000 C 
BRANCH   9  10
ATOM     10  C   UNL     1     -53.790  17.609 -27.931  1.00  0.00     0.000 C 
BRANCH  10  11
ATOM     11  C   UNL     1     -53.979  16.165 -27.441  1.00  0.00     0.000 C 
BRANCH  11  12
ATOM     12  C   UNL     1     -53.919  15.140 -28.594  1.00  0.00     0.000 C 
BRANCH  12  13
ATOM     13  C   UNL     1     -53.674  13.693 -28.126  1.00  0.00     0.006 C 
BRANCH  13  14
ATOM     14  C   UNL     1     -54.125  12.619 -29.129  1.00  0.00     0.053 C 
BRANCH  14  15
ATOM     15  C   UNL     1     -52.993  11.732 -29.553  1.00  0.00     0.041 C 
ATOM     16  O   UNL     1     -52.756  11.547 -30.776  1.00  0.00    -0.550 OA
ATOM     17  O   UNL     1     -52.203  11.104 -28.598  1.00  0.00    -0.550 OA
ENDBRANCH  14  15
ENDBRANCH  13  14
ENDBRANCH  12  13
ENDBRANCH  11  12
ENDBRANCH  10  11
ENDBRANCH   9  10
ENDBRANCH   8   9
ENDBRANCH   7   8
ENDBRANCH   6   7
ENDBRANCH   5   6
ENDBRANCH   4   5
ENDBRANCH   3   4
ENDBRANCH   2   3
ENDBRANCH   1   2
BRANCH   1  18
ATOM     18  C   UNL     1     -48.960  10.362 -29.597  1.00  0.00     0.000 C 
BRANCH  18  19
ATOM     19  C   UNL     1     -48.144   9.145 -29.113  1.00  0.00     0.000 C 
BRANCH  19  20
ATOM     20  C   UNL     1     -46.787   8.967 -29.820  1.00  0.00     0.000 C 
BRANCH  20  21
ATOM     21  C   UNL     1     -46.093   7.608 -29.601  1.00  0.00     0.000 C 
BRANCH  21  22
ATOM     22  C   UNL     1     -46.867   6.382 -30.123  1.00  0.00     0.000 C 
BRANCH  22  23
ATOM     23  C   UNL     1     -47.549   6.633 -31.476  1.00  0.00     0.000 C 
BRANCH  23  24
ATOM     24  C   UNL     1     -48.972   6.054 -31.488  1.00  0.00    -0.000 C 
BRANCH  24  25
ATOM     25  C   UNL     1     -49.585   5.959 -30.081  1.00  0.00    -0.000 C 
BRANCH  25  26
ATOM     26  C   UNL     1     -51.090   6.280 -30.072  1.00  0.00    -0.000 C 
BRANCH  26  27
ATOM     27  C   UNL     1     -51.398   7.714 -30.534  1.00  0.00    -0.000 C 
BRANCH  27  28
ATOM     28  C   UNL     1     -52.893   8.085 -30.432  1.00  0.00    -0.000 C 
BRANCH  28  29
ATOM     29  C   UNL     1     -53.570   8.151 -31.812  1.00  0.00    -0.000 C 
BRANCH  29  30
ATOM     30  C   UNL     1     -52.587   8.483 -32.943  1.00  0.00    -0.000 C 
BRANCH  30  31
ATOM     31  C   UNL     1     -52.438   7.342 -33.962  1.00  0.00    -0.003 C 
ATOM     32  C   UNL     1     -53.745   6.568 -34.111  1.00  0.00     0.004 C 
ENDBRANCH  30  31
ENDBRANCH  29  30
ENDBRANCH  28  29
ENDBRANCH  27  28
ENDBRANCH  26  27
ENDBRANCH  25  26
ENDBRANCH  24  25
ENDBRANCH  23  24
ENDBRANCH  22  23
ENDBRANCH  21  22
ENDBRANCH  20  21
ENDBRANCH  19  20
ENDBRANCH  18  19
ENDBRANCH   1  18
TORSDOF 28
ENDMDL
MODEL 3
REMARK VINA RESULT:    -4.351      1.595      3.844
REMARK INTER + INTRA:         -15.079
REMARK INTER:                 -10.807
REMARK INTRA:                  -4.271
REMARK UNBOUND:                -3.606
REMARK SMILES CCCCCCCCCCCCCCCCCCCCCCCCCCCCCC(=O)[O-]
REMARK SMILES IDX 16 1 17 2 18 3 19 4 20 5 21 6 22 7 23 8 24 9 25 10 26 11
REMARK SMILES IDX 27 12 28 13 29 14 30 15 31 16 32 17 15 18 14 19 13 20 12 21
REMARK SMILES IDX 11 22 10 23 9 24 8 25 7 26 6 27 5 28 4 29 3 30 2 31 1 32
REMARK H PARENT
REMARK Flexibility Score: inf
ROOT
ATOM      1  C   UNL     1     -53.916  14.759 -28.143  1.00  0.00     0.000 C 
ENDROOT
BRANCH   1   2
ATOM      2  C   UNL     1     -53.121  13.836 -29.083  1.00  0.00     0.000 C 
BRANCH   2   3
ATOM      3  C   UNL     1     -53.640  12.389 -29.052  1.00  0.00     0.000 C 
BRANCH   3   4
ATOM      4  C   UNL     1     -53.191  11.610 -30.296  1.00  0.00     0.000 C 
BRANCH   4   5
ATOM      5  C   UNL     1     -52.897  10.144 -29.949  1.00  0.00     0.000 C 
BRANCH   5   6
ATOM      6  C   UNL     1     -51.684   9.576 -30.705  1.00  0.00     0.000 C 
BRANCH   6   7
ATOM      7  C   UNL     1     -51.679   9.906 -32.212  1.00  0.00     0.000 C 
BRANCH   7   8
ATOM      8  C   UNL     1     -52.333   8.797 -33.054  1.00  0.00     0.000 C 
BRANCH   8   9
ATOM      9  C   UNL     1     -53.129   7.798 -32.195  1.00  0.00     0.000 C 
BRANCH   9  10
ATOM     10  C   UNL     1     -52.652   6.349 -32.382  1.00  0.00     0.000 C 
BRANCH  10  11
ATOM     11  C   UNL     1     -51.623   5.965 -31.308  1.00  0.00     0.000 C 
BRANCH  11  12
ATOM     12  C   UNL     1     -50.174   6.268 -31.745  1.00  0.00     0.000 C 
BRANCH  12  13
ATOM     13  C   UNL     1     -49.158   6.239 -30.587  1.00  0.00     0.006 C 
BRANCH  13  14
ATOM     14  C   UNL     1     -47.700   6.034 -31.030  1.00  0.00     0.053 C 
BRANCH  14  15
ATOM     15  C   UNL     1     -47.433   6.623 -32.383  1.00  0.00     0.041 C 
ATOM     16  O   UNL     1     -47.351   5.878 -33.395  1.00  0.00    -0.550 OA
ATOM     17  O   UNL     1     -47.267   7.995 -32.525  1.00  0.00    -0.550 OA
ENDBRANCH  14  15
ENDBRANCH  13  14
ENDBRANCH  12  13
ENDBRANCH  11  12
ENDBRANCH  10  11
ENDBRANCH   9  10
ENDBRANCH   8   9
ENDBRANCH   7   8
ENDBRANCH   6   7
ENDBRANCH   5   6
ENDBRANCH   4   5
ENDBRANCH   3   4
ENDBRANCH   2   3
ENDBRANCH   1   2
BRANCH   1  18
ATOM     18  C   UNL     1     -53.058  15.914 -27.595  1.00  0.00     0.000 C 
BRANCH  18  19
ATOM     19  C   UNL     1     -53.871  17.203 -27.352  1.00  0.00     0.000 C 
BRANCH  19  20
ATOM     20  C   UNL     1     -53.588  18.333 -28.361  1.00  0.00     0.000 C 
BRANCH  20  21
ATOM     21  C   UNL     1     -53.965  18.029 -29.825  1.00  0.00     0.000 C 
BRANCH  21  22
ATOM     22  C   UNL     1     -52.803  18.110 -30.833  1.00  0.00     0.000 C 
BRANCH  22  23
ATOM     23  C   UNL     1     -52.276  16.730 -31.254  1.00  0.00     0.000 C 
BRANCH  23  24
ATOM     24  C   UNL     1     -50.749  16.656 -31.096  1.00  0.00    -0.000 C 
BRANCH  24  25
ATOM     25  C   UNL     1     -50.273  15.287 -30.581  1.00  0.00    -0.000 C 
BRANCH  25  26
ATOM     26  C   UNL     1     -50.510  14.159 -31.599  1.00  0.00    -0.000 C 
BRANCH  26  27
ATOM     27  C   UNL     1     -49.788  12.854 -31.225  1.00  0.00    -0.000 C 
BRANCH  27  28
ATOM     28  C   UNL     1     -49.122  12.897 -29.833  1.00  0.00    -0.000 C 
BRANCH  28  29
ATOM     29  C   UNL     1     -49.764  11.902 -28.851  1.00  0.00    -0.000 C 
BRANCH  29  30
ATOM     30  C   UNL     1     -48.815  10.763 -28.451  1.00  0.00    -0.000 C 
BRANCH  30  31
ATOM     31  C   UNL     1     -48.333   9.935 -29.652  1.00  0.00    -0.003 C 
ATOM     32  C   UNL     1     -46.819  10.036 -29.814  1.00  0.00     0.004 C 
ENDBRANCH  30  31
ENDBRANCH  29  30
ENDBRANCH  28  29
ENDBRANCH  27  28
ENDBRANCH  26  27
ENDBRANCH  25  26
ENDBRANCH  24  25
ENDBRANCH  23  24
ENDBRANCH  22  23
ENDBRANCH  21  22
ENDBRANCH  20  21
ENDBRANCH  19  20
ENDBRANCH  18  19
ENDBRANCH   1  18
TORSDOF 28
ENDMDL
MODEL 4
REMARK VINA RESULT:    -4.266      2.920      8.898
REMARK INTER + INTRA:         -14.855
REMARK INTER:                 -11.311
REMARK INTRA:                  -3.545
REMARK UNBOUND:                -3.606
REMARK SMILES CCCCCCCCCCCCCCCCCCCCCCCCCCCCCC(=O)[O-]
REMARK SMILES IDX 16 1 17 2 18 3 19 4 20 5 21 6 22 7 23 8 24 9 25 10 26 11
REMARK SMILES IDX 27 12 28 13 29 14 30 15 31 16 32 17 15 18 14 19 13 20 12 21
REMARK SMILES IDX 11 22 10 23 9 24 8 25 7 26 6 27 5 28 4 29 3 30 2 31 1 32
REMARK H PARENT
REMARK Flexibility Score: inf
ROOT
ATOM      1  C   UNL     1     -48.323  12.112 -29.325  1.00  0.00     0.000 C 
ENDROOT
BRANCH   1   2
ATOM      2  C   UNL     1     -49.390  13.195 -29.565  1.00  0.00     0.000 C 
BRANCH   2   3
ATOM      3  C   UNL     1     -49.431  13.655 -31.032  1.00  0.00     0.000 C 
BRANCH   3   4
ATOM      4  C   UNL     1     -50.139  15.010 -31.170  1.00  0.00     0.000 C 
BRANCH   4   5
ATOM      5  C   UNL     1     -51.557  14.833 -31.729  1.00  0.00     0.000 C 
BRANCH   5   6
ATOM      6  C   UNL     1     -52.239  13.542 -31.245  1.00  0.00     0.000 C 
BRANCH   6   7
ATOM      7  C   UNL     1     -53.757  13.689 -31.013  1.00  0.00     0.000 C 
BRANCH   7   8
ATOM      8  C   UNL     1     -54.125  13.650 -29.520  1.00  0.00     0.000 C 
BRANCH   8   9
ATOM      9  C   UNL     1     -52.899  13.825 -28.607  1.00  0.00     0.000 C 
BRANCH   9  10
ATOM     10  C   UNL     1     -52.920  15.158 -27.841  1.00  0.00     0.000 C 
BRANCH  10  11
ATOM     11  C   UNL     1     -54.124  16.015 -28.260  1.00  0.00     0.000 C 
BRANCH  11  12
ATOM     12  C   UNL     1     -54.093  17.423 -27.626  1.00  0.00     0.000 C 
BRANCH  12  13
ATOM     13  C   UNL     1     -53.792  18.548 -28.634  1.00  0.00     0.006 C 
BRANCH  13  14
ATOM     14  C   UNL     1     -53.651  18.072 -30.089  1.00  0.00     0.053 C 
BRANCH  14  15
ATOM     15  C   UNL     1     -52.483  18.710 -30.781  1.00  0.00     0.041 C 
ATOM     16  O   UNL     1     -52.662  19.680 -31.565  1.00  0.00    -0.550 OA
ATOM     17  O   UNL     1     -51.199  18.228 -30.567  1.00  0.00    -0.550 OA
ENDBRANCH  14  15
ENDBRANCH  13  14
ENDBRANCH  12  13
ENDBRANCH  11  12
ENDBRANCH  10  11
ENDBRANCH   9  10
ENDBRANCH   8   9
ENDBRANCH   7   8
ENDBRANCH   6   7
ENDBRANCH   5   6
ENDBRANCH   4   5
ENDBRANCH   3   4
ENDBRANCH   2   3
ENDBRANCH   1   2
BRANCH   1  18
ATOM     18  C   UNL     1     -48.924  10.695 -29.294  1.00  0.00     0.000 C 
BRANCH  18  19
ATOM     19  C   UNL     1     -50.085  10.512 -30.294  1.00  0.00     0.000 C 
BRANCH  19  20
ATOM     20  C   UNL     1     -51.225   9.608 -29.787  1.00  0.00     0.000 C 
BRANCH  20  21
ATOM     21  C   UNL     1     -52.638  10.221 -29.842  1.00  0.00     0.000 C 
BRANCH  21  22
ATOM     22  C   UNL     1     -53.620   9.526 -30.804  1.00  0.00     0.000 C 
BRANCH  22  23
ATOM     23  C   UNL     1     -52.976   8.380 -31.597  1.00  0.00     0.000 C 
BRANCH  23  24
ATOM     24  C   UNL     1     -52.705   8.801 -33.049  1.00  0.00    -0.000 C 
BRANCH  24  25
ATOM     25  C   UNL     1     -53.063   7.701 -34.062  1.00  0.00    -0.000 C 
BRANCH  25  26
ATOM     26  C   UNL     1     -52.975   6.290 -33.454  1.00  0.00    -0.000 C 
BRANCH  26  27
ATOM     27  C   UNL     1     -51.551   5.920 -33.006  1.00  0.00    -0.000 C 
BRANCH  27  28
ATOM     28  C   UNL     1     -50.447   6.558 -33.876  1.00  0.00    -0.000 C 
BRANCH  28  29
ATOM     29  C   UNL     1     -49.151   6.799 -33.083  1.00  0.00    -0.000 C 
BRANCH  29  30
ATOM     30  C   UNL     1     -49.410   7.201 -31.624  1.00  0.00    -0.000 C 
BRANCH  30  31
ATOM     31  C   UNL     1     -48.121   7.327 -30.798  1.00  0.00    -0.003 C 
ATOM     32  C   UNL     1     -47.081   8.169 -31.532  1.00  0.00     0.004 C 
ENDBRANCH  30  31
ENDBRANCH  29  30
ENDBRANCH  28  29
ENDBRANCH  27  28
ENDBRANCH  26  27
ENDBRANCH  25  26
ENDBRANCH  24  25
ENDBRANCH  23  24
ENDBRANCH  22  23
ENDBRANCH  21  22
ENDBRANCH  20  21
ENDBRANCH  19  20
ENDBRANCH  18  19
ENDBRANCH   1  18
TORSDOF 28
ENDMDL
MODEL 5
REMARK VINA RESULT:    -4.249      2.994      9.272
REMARK INTER + INTRA:         -14.809
REMARK INTER:                 -11.325
REMARK INTRA:                  -3.485
REMARK UNBOUND:                -3.606
REMARK SMILES CCCCCCCCCCCCCCCCCCCCCCCCCCCCCC(=O)[O-]
REMARK SMILES IDX 16 1 17 2 18 3 19 4 20 5 21 6 22 7 23 8 24 9 25 10 26 11
REMARK SMILES IDX 27 12 28 13 29 14 30 15 31 16 32 17 15 18 14 19 13 20 12 21
REMARK SMILES IDX 11 22 10 23 9 24 8 25 7 26 6 27 5 28 4 29 3 30 2 31 1 32
REMARK H PARENT
REMARK Flexibility Score: inf
ROOT
ATOM      1  C   UNL     1     -52.705  10.648 -30.522  1.00  0.00     0.000 C 
ENDROOT
BRANCH   1   2
ATOM      2  C   UNL     1     -51.855  10.483 -29.249  1.00  0.00     0.000 C 
BRANCH   2   3
ATOM      3  C   UNL     1     -50.399  10.930 -29.460  1.00  0.00     0.000 C 
BRANCH   3   4
ATOM      4  C   UNL     1     -50.167  12.345 -28.913  1.00  0.00     0.000 C 
BRANCH   4   5
ATOM      5  C   UNL     1     -49.215  13.135 -29.821  1.00  0.00     0.000 C 
BRANCH   5   6
ATOM      6  C   UNL     1     -49.948  14.087 -30.781  1.00  0.00     0.000 C 
BRANCH   6   7
ATOM      7  C   UNL     1     -51.215  14.726 -30.176  1.00  0.00     0.000 C 
BRANCH   7   8
ATOM      8  C   UNL     1     -52.495  14.294 -30.914  1.00  0.00     0.000 C 
BRANCH   8   9
ATOM      9  C   UNL     1     -53.740  14.347 -30.011  1.00  0.00     0.000 C 
BRANCH   9  10
ATOM     10  C   UNL     1     -53.429  13.968 -28.555  1.00  0.00     0.000 C 
BRANCH  10  11
ATOM     11  C   UNL     1     -54.046  14.980 -27.578  1.00  0.00     0.000 C 
BRANCH  11  12
ATOM     12  C   UNL     1     -53.192  16.259 -27.439  1.00  0.00     0.000 C 
BRANCH  12  13
ATOM     13  C   UNL     1     -54.014  17.561 -27.493  1.00  0.00     0.006 C 
BRANCH  13  14
ATOM     14  C   UNL     1     -54.103  18.194 -28.891  1.00  0.00     0.053 C 
BRANCH  14  15
ATOM     15  C   UNL     1     -52.854  17.975 -29.691  1.00  0.00     0.041 C 
ATOM     16  O   UNL     1     -52.926  17.610 -30.894  1.00  0.00    -0.550 OA
ATOM     17  O   UNL     1     -51.609  18.168 -29.106  1.00  0.00    -0.550 OA
ENDBRANCH  14  15
ENDBRANCH  13  14
ENDBRANCH  12  13
ENDBRANCH  11  12
ENDBRANCH  10  11
ENDBRANCH   9  10
ENDBRANCH   8   9
ENDBRANCH   7   8
ENDBRANCH   6   7
ENDBRANCH   5   6
ENDBRANCH   4   5
ENDBRANCH   3   4
ENDBRANCH   2   3
ENDBRANCH   1   2
BRANCH   1  18
ATOM     18  C   UNL     1     -51.871  11.125 -31.725  1.00  0.00     0.000 C 
BRANCH  18  19
ATOM     19  C   UNL     1     -51.738  10.055 -32.827  1.00  0.00     0.000 C 
BRANCH  19  20
ATOM     20  C   UNL     1     -50.608   9.034 -32.591  1.00  0.00     0.000 C 
BRANCH  20  21
ATOM     21  C   UNL     1     -49.247   9.387 -33.222  1.00  0.00     0.000 C 
BRANCH  21  22
ATOM     22  C   UNL     1     -48.261   8.212 -33.359  1.00  0.00     0.000 C 
BRANCH  22  23
ATOM     23  C   UNL     1     -48.697   6.966 -32.576  1.00  0.00     0.000 C 
BRANCH  23  24
ATOM     24  C   UNL     1     -47.938   6.862 -31.244  1.00  0.00    -0.000 C 
BRANCH  24  25
ATOM     25  C   UNL     1     -48.655   7.590 -30.095  1.00  0.00    -0.000 C 
BRANCH  25  26
ATOM     26  C   UNL     1     -49.958   6.889 -29.675  1.00  0.00    -0.000 C 
BRANCH  26  27
ATOM     27  C   UNL     1     -50.572   6.042 -30.803  1.00  0.00    -0.000 C 
BRANCH  27  28
ATOM     28  C   UNL     1     -52.102   5.875 -30.683  1.00  0.00    -0.000 C 
BRANCH  28  29
ATOM     29  C   UNL     1     -52.862   7.112 -31.191  1.00  0.00    -0.000 C 
BRANCH  29  30
ATOM     30  C   UNL     1     -53.979   6.759 -32.185  1.00  0.00    -0.000 C 
BRANCH  30  31
ATOM     31  C   UNL     1     -53.458   6.049 -33.444  1.00  0.00    -0.003 C 
ATOM     32  C   UNL     1     -53.055   7.059 -34.515  1.00  0.00     0.004 C 
ENDBRANCH  30  31
ENDBRANCH  29  30
ENDBRANCH  28  29
ENDBRANCH  27  28
ENDBRANCH  26  27
ENDBRANCH  25  26
ENDBRANCH  24  25
ENDBRANCH  23  24
ENDBRANCH  22  23
ENDBRANCH  21  22
ENDBRANCH  20  21
ENDBRANCH  19  20
ENDBRANCH  18  19
ENDBRANCH   1  18
TORSDOF 28
ENDMDL
MODEL 6
REMARK VINA RESULT:    -4.226      3.038      4.912
REMARK INTER + INTRA:         -14.750
REMARK INTER:                 -12.109
REMARK INTRA:                  -2.641
REMARK UNBOUND:                -3.606
REMARK SMILES CCCCCCCCCCCCCCCCCCCCCCCCCCCCCC(=O)[O-]
REMARK SMILES IDX 16 1 17 2 18 3 19 4 20 5 21 6 22 7 23 8 24 9 25 10 26 11
REMARK SMILES IDX 27 12 28 13 29 14 30 15 31 16 32 17 15 18 14 19 13 20 12 21
REMARK SMILES IDX 11 22 10 23 9 24 8 25 7 26 6 27 5 28 4 29 3 30 2 31 1 32
REMARK H PARENT
REMARK Flexibility Score: inf
ROOT
ATOM      1  C   UNL     1     -50.043  11.715 -30.855  1.00  0.00     0.000 C 
ENDROOT
BRANCH   1   2
ATOM      2  C   UNL     1     -50.951  10.552 -31.292  1.00  0.00     0.000 C 
BRANCH   2   3
ATOM      3  C   UNL     1     -52.422  10.790 -30.915  1.00  0.00     0.000 C 
BRANCH   3   4
ATOM      4  C   UNL     1     -52.952   9.669 -30.008  1.00  0.00     0.000 C 
BRANCH   4   5
ATOM      5  C   UNL     1     -52.456   8.298 -30.485  1.00  0.00     0.000 C 
BRANCH   5   6
ATOM      6  C   UNL     1     -53.591   7.276 -30.667  1.00  0.00     0.000 C 
BRANCH   6   7
ATOM      7  C   UNL     1     -53.765   6.791 -32.121  1.00  0.00     0.000 C 
BRANCH   7   8
ATOM      8  C   UNL     1     -52.914   7.602 -33.112  1.00  0.00     0.000 C 
BRANCH   8   9
ATOM      9  C   UNL     1     -51.687   6.820 -33.612  1.00  0.00     0.000 C 
BRANCH   9  10
ATOM     10  C   UNL     1     -50.369   7.573 -33.368  1.00  0.00     0.000 C 
BRANCH  10  11
ATOM     11  C   UNL     1     -49.306   6.641 -32.765  1.00  0.00     0.000 C 
BRANCH  11  12
ATOM     12  C   UNL     1     -49.587   6.310 -31.284  1.00  0.00     0.000 C 
BRANCH  12  13
ATOM     13  C   UNL     1     -48.933   7.294 -30.295  1.00  0.00     0.006 C 
BRANCH  13  14
ATOM     14  C   UNL     1     -47.874   8.213 -30.925  1.00  0.00     0.053 C 
BRANCH  14  15
ATOM     15  C   UNL     1     -46.989   8.845 -29.893  1.00  0.00     0.041 C 
ATOM     16  O   UNL     1     -47.115  10.066 -29.610  1.00  0.00    -0.550 OA
ATOM     17  O   UNL     1     -46.020   8.087 -29.247  1.00  0.00    -0.550 OA
ENDBRANCH  14  15
ENDBRANCH  13  14
ENDBRANCH  12  13
ENDBRANCH  11  12
ENDBRANCH  10  11
ENDBRANCH   9  10
ENDBRANCH   8   9
ENDBRANCH   7   8
ENDBRANCH   6   7
ENDBRANCH   5   6
ENDBRANCH   4   5
ENDBRANCH   3   4
ENDBRANCH   2   3
ENDBRANCH   1   2
BRANCH   1  18
ATOM     18  C   UNL     1     -50.830  13.018 -30.624  1.00  0.00     0.000 C 
BRANCH  18  19
ATOM     19  C   UNL     1     -49.949  14.280 -30.734  1.00  0.00     0.000 C 
BRANCH  19  20
ATOM     20  C   UNL     1     -50.436  15.306 -31.775  1.00  0.00     0.000 C 
BRANCH  20  21
ATOM     21  C   UNL     1     -51.761  16.019 -31.441  1.00  0.00     0.000 C 
BRANCH  21  22
ATOM     22  C   UNL     1     -51.760  16.831 -30.132  1.00  0.00     0.000 C 
BRANCH  22  23
ATOM     23  C   UNL     1     -53.168  17.250 -29.682  1.00  0.00     0.000 C 
BRANCH  23  24
ATOM     24  C   UNL     1     -53.909  17.979 -30.813  1.00  0.00    -0.000 C 
BRANCH  24  25
ATOM     25  C   UNL     1     -53.258  19.323 -31.178  1.00  0.00    -0.000 C 
BRANCH  25  26
ATOM     26  C   UNL     1     -54.100  20.134 -32.179  1.00  0.00    -0.000 C 
BRANCH  26  27
ATOM     27  C   UNL     1     -53.285  20.622 -33.388  1.00  0.00    -0.000 C 
BRANCH  27  28
ATOM     28  C   UNL     1     -54.125  21.404 -34.421  1.00  0.00    -0.000 C 
BRANCH  28  29
ATOM     29  C   UNL     1     -53.385  21.578 -35.758  1.00  0.00    -0.000 C 
BRANCH  29  30
ATOM     30  C   UNL     1     -53.519  22.996 -36.334  1.00  0.00    -0.000 C 
BRANCH  30  31
ATOM     31  C   UNL     1     -52.558  23.261 -37.503  1.00  0.00    -0.003 C 
ATOM     32  C   UNL     1     -52.891  24.579 -38.197  1.00  0.00     0.004 C 
ENDBRANCH  30  31
ENDBRANCH  29  30
ENDBRANCH  28  29
ENDBRANCH  27  28
ENDBRANCH  26  27
ENDBRANCH  25  26
ENDBRANCH  24  25
ENDBRANCH  23  24
ENDBRANCH  22  23
ENDBRANCH  21  22
ENDBRANCH  20  21
ENDBRANCH  19  20
ENDBRANCH  18  19
ENDBRANCH   1  18
TORSDOF 28
ENDMDL
MODEL 7
REMARK VINA RESULT:    -4.073      1.917      4.040
REMARK INTER + INTRA:         -14.346
REMARK INTER:                  -9.874
REMARK INTRA:                  -4.472
REMARK UNBOUND:                -3.606
REMARK SMILES CCCCCCCCCCCCCCCCCCCCCCCCCCCCCC(=O)[O-]
REMARK SMILES IDX 16 1 17 2 18 3 19 4 20 5 21 6 22 7 23 8 24 9 25 10 26 11
REMARK SMILES IDX 27 12 28 13 29 14 30 15 31 16 32 17 15 18 14 19 13 20 12 21
REMARK SMILES IDX 11 22 10 23 9 24 8 25 7 26 6 27 5 28 4 29 3 30 2 31 1 32
REMARK H PARENT
REMARK Flexibility Score: inf
ROOT
ATOM      1  C   UNL     1     -48.139  10.812 -29.911  1.00  0.00     0.000 C 
ENDROOT
BRANCH   1   2
ATOM      2  C   UNL     1     -46.856  10.000 -29.659  1.00  0.00     0.000 C 
BRANCH   2   3
ATOM      3  C   UNL     1     -46.953   8.571 -30.218  1.00  0.00     0.000 C 
BRANCH   3   4
ATOM      4  C   UNL     1     -46.679   7.526 -29.127  1.00  0.00     0.000 C 
BRANCH   4   5
ATOM      5  C   UNL     1     -46.951   6.108 -29.645  1.00  0.00     0.000 C 
BRANCH   5   6
ATOM      6  C   UNL     1     -48.254   6.001 -30.456  1.00  0.00     0.000 C 
BRANCH   6   7
ATOM      7  C   UNL     1     -49.517   6.384 -29.657  1.00  0.00     0.000 C 
BRANCH   7   8
ATOM      8  C   UNL     1     -50.804   6.202 -30.480  1.00  0.00     0.000 C 
BRANCH   8   9
ATOM      9  C   UNL     1     -51.830   7.320 -30.224  1.00  0.00     0.000 C 
BRANCH   9  10
ATOM     10  C   UNL     1     -52.570   7.744 -31.501  1.00  0.00     0.000 C 
BRANCH  10  11
ATOM     11  C   UNL     1     -52.587   9.274 -31.648  1.00  0.00     0.000 C 
BRANCH  11  12
ATOM     12  C   UNL     1     -51.508   9.783 -32.627  1.00  0.00     0.000 C 
BRANCH  12  13
ATOM     13  C   UNL     1     -50.067   9.483 -32.171  1.00  0.00     0.006 C 
BRANCH  13  14
ATOM     14  C   UNL     1     -49.092   9.179 -33.320  1.00  0.00     0.053 C 
BRANCH  14  15
ATOM     15  C   UNL     1     -48.836   7.709 -33.470  1.00  0.00     0.041 C 
ATOM     16  O   UNL     1     -47.662   7.258 -33.395  1.00  0.00    -0.550 OA
ATOM     17  O   UNL     1     -49.893   6.837 -33.698  1.00  0.00    -0.550 OA
ENDBRANCH  14  15
ENDBRANCH  13  14
ENDBRANCH  12  13
ENDBRANCH  11  12
ENDBRANCH  10  11
ENDBRANCH   9  10
ENDBRANCH   8   9
ENDBRANCH   7   8
ENDBRANCH   6   7
ENDBRANCH   5   6
ENDBRANCH   4   5
ENDBRANCH   3   4
ENDBRANCH   2   3
ENDBRANCH   1   2
BRANCH   1  18
ATOM     18  C   UNL     1     -49.013  10.933 -28.649  1.00  0.00     0.000 C 
BRANCH  18  19
ATOM     19  C   UNL     1     -50.513  10.715 -28.934  1.00  0.00     0.000 C 
BRANCH  19  20
ATOM     20  C   UNL     1     -51.418  11.887 -28.508  1.00  0.00     0.000 C 
BRANCH  20  21
ATOM     21  C   UNL     1     -52.849  11.869 -29.083  1.00  0.00     0.000 C 
BRANCH  21  22
ATOM     22  C   UNL     1     -53.770  13.001 -28.591  1.00  0.00     0.000 C 
BRANCH  22  23
ATOM     23  C   UNL     1     -53.005  14.277 -28.212  1.00  0.00     0.000 C 
BRANCH  23  24
ATOM     24  C   UNL     1     -53.775  15.530 -28.657  1.00  0.00    -0.000 C 
BRANCH  24  25
ATOM     25  C   UNL     1     -54.125  15.510 -30.154  1.00  0.00    -0.000 C 
BRANCH  25  26
ATOM     26  C   UNL     1     -53.783  16.835 -30.857  1.00  0.00    -0.000 C 
BRANCH  26  27
ATOM     27  C   UNL     1     -52.670  17.620 -30.143  1.00  0.00    -0.000 C 
BRANCH  27  28
ATOM     28  C   UNL     1     -51.268  17.388 -30.748  1.00  0.00    -0.000 C 
BRANCH  28  29
ATOM     29  C   UNL     1     -51.200  16.091 -31.572  1.00  0.00    -0.000 C 
BRANCH  29  30
ATOM     30  C   UNL     1     -50.012  15.199 -31.183  1.00  0.00    -0.000 C 
BRANCH  30  31
ATOM     31  C   UNL     1     -50.316  13.700 -31.329  1.00  0.00    -0.003 C 
ATOM     32  C   UNL     1     -51.711  13.478 -31.906  1.00  0.00     0.004 C 
ENDBRANCH  30  31
ENDBRANCH  29  30
ENDBRANCH  28  29
ENDBRANCH  27  28
ENDBRANCH  26  27
ENDBRANCH  25  26
ENDBRANCH  24  25
ENDBRANCH  23  24
ENDBRANCH  22  23
ENDBRANCH  21  22
ENDBRANCH  20  21
ENDBRANCH  19  20
ENDBRANCH  18  19
ENDBRANCH   1  18
TORSDOF 28
ENDMDL
