MODEL 1
REMARK VINA RESULT:    -5.946      0.000      0.000
REMARK INTER + INTRA:          -6.120
REMARK INTER:                  -6.120
REMARK INTRA:                   0.000
REMARK UNBOUND:                 0.000
REMARK SMILES O=c1ccc2ccc(O)cc2o1
REMARK SMILES IDX 6 1 7 2 8 3 10 4 11 5 5 6 4 7 3 8 2 9 1 10 12 11 9 12
REMARK H PARENT 9 13
REMARK Flexibility Score: inf
ROOT
ATOM      1  C   UNL     1      -9.530  -4.149  -7.230  1.00  0.00     0.016 A 
ATOM      2  C   UNL     1      -9.164  -3.723  -8.512  1.00  0.00     0.047 A 
ATOM      3  C   UNL     1      -9.930  -4.089  -9.625  1.00  0.00     0.119 A 
ATOM      4  C   UNL     1     -11.070  -4.889  -9.457  1.00  0.00     0.094 A 
ATOM      5  C   UNL     1     -11.444  -5.321  -8.180  1.00  0.00     0.142 A 
ATOM      6  C   UNL     1     -10.668  -4.949  -7.059  1.00  0.00     0.018 A 
ATOM      7  C   UNL     1     -11.065  -5.395  -5.794  1.00  0.00     0.019 A 
ATOM      8  C   UNL     1     -12.206  -6.189  -5.678  1.00  0.00     0.094 A 
ATOM      9  C   UNL     1     -12.926  -6.518  -6.831  1.00  0.00     0.336 A 
ATOM     10  O   UNL     1     -13.958  -7.233  -6.745  1.00  0.00    -0.246 OA
ATOM     11  O   UNL     1     -12.526  -6.079  -8.023  1.00  0.00    -0.423 OA
ENDROOT
BRANCH   3  12
ATOM     12  O   UNL     1      -9.551  -3.654 -10.892  1.00  0.00    -0.508 OA
ATOM     13  H   UNL     1      -9.035  -2.792 -11.024  1.00  0.00     0.293 HD
ENDBRANCH   3  12
TORSDOF 1
ENDMDL
MODEL 2
REMARK VINA RESULT:    -5.291      6.872      8.004
REMARK INTER + INTRA:          -5.445
REMARK INTER:                  -5.445
REMARK INTRA:                   0.000
REMARK UNBOUND:                 0.000
REMARK SMILES O=c1ccc2ccc(O)cc2o1
REMARK SMILES IDX 6 1 7 2 8 3 10 4 11 5 5 6 4 7 3 8 2 9 1 10 12 11 9 12
REMARK H PARENT 9 13
REMARK Flexibility Score: inf
ROOT
ATOM      1  C   UNL     1     -11.992   0.025 -10.011  1.00  0.00     0.016 A 
ATOM      2  C   UNL     1     -12.846  -0.997 -10.440  1.00  0.00     0.047 A 
ATOM      3  C   UNL     1     -14.233  -0.807 -10.438  1.00  0.00     0.119 A 
ATOM      4  C   UNL     1     -14.772   0.413 -10.005  1.00  0.00     0.094 A 
ATOM      5  C   UNL     1     -13.926   1.441  -9.574  1.00  0.00     0.142 A 
ATOM      6  C   UNL     1     -12.527   1.246  -9.576  1.00  0.00     0.018 A 
ATOM      7  C   UNL     1     -11.706   2.290  -9.141  1.00  0.00     0.019 A 
ATOM      8  C   UNL     1     -12.288   3.485  -8.719  1.00  0.00     0.094 A 
ATOM      9  C   UNL     1     -13.682   3.608  -8.743  1.00  0.00     0.336 A 
ATOM     10  O   UNL     1     -14.225   4.679  -8.366  1.00  0.00    -0.246 OA
ATOM     11  O   UNL     1     -14.440   2.598  -9.163  1.00  0.00    -0.423 OA
ENDROOT
BRANCH   3  12
ATOM     12  O   UNL     1     -15.067  -1.837 -10.869  1.00  0.00    -0.508 OA
ATOM     13  H   UNL     1     -15.932  -1.647 -11.362  1.00  0.00     0.293 HD
ENDBRANCH   3  12
TORSDOF 1
ENDMDL
MODEL 3
REMARK VINA RESULT:    -5.271      1.540      2.294
REMARK INTER + INTRA:          -5.425
REMARK INTER:                  -5.425
REMARK INTRA:                   0.000
REMARK UNBOUND:                 0.000
REMARK SMILES O=c1ccc2ccc(O)cc2o1
REMARK SMILES IDX 6 1 7 2 8 3 10 4 11 5 5 6 4 7 3 8 2 9 1 10 12 11 9 12
REMARK H PARENT 9 13
REMARK Flexibility Score: inf
ROOT
ATOM      1  C   UNL     1     -11.256  -4.685  -9.240  1.00  0.00     0.016 A 
ATOM      2  C   UNL     1     -10.167  -3.822  -9.071  1.00  0.00     0.047 A 
ATOM      3  C   UNL     1      -9.484  -3.776  -7.851  1.00  0.00     0.119 A 
ATOM      4  C   UNL     1      -9.891  -4.598  -6.789  1.00  0.00     0.094 A 
ATOM      5  C   UNL     1     -10.978  -5.464  -6.948  1.00  0.00     0.142 A 
ATOM      6  C   UNL     1     -11.665  -5.508  -8.182  1.00  0.00     0.018 A 
ATOM      7  C   UNL     1     -12.748  -6.383  -8.312  1.00  0.00     0.019 A 
ATOM      8  C   UNL     1     -13.115  -7.180  -7.228  1.00  0.00     0.094 A 
ATOM      9  C   UNL     1     -12.388  -7.084  -6.036  1.00  0.00     0.336 A 
ATOM     10  O   UNL     1     -12.705  -7.796  -5.048  1.00  0.00    -0.246 OA
ATOM     11  O   UNL     1     -11.361  -6.243  -5.940  1.00  0.00    -0.423 OA
ENDROOT
BRANCH   3  12
ATOM     12  O   UNL     1      -8.403  -2.910  -7.702  1.00  0.00    -0.508 OA
ATOM     13  H   UNL     1      -8.438  -2.122  -7.067  1.00  0.00     0.293 HD
ENDBRANCH   3  12
TORSDOF 1
ENDMDL
MODEL 4
REMARK VINA RESULT:    -5.236      1.287      1.339
REMARK INTER + INTRA:          -5.389
REMARK INTER:                  -5.389
REMARK INTRA:                   0.000
REMARK UNBOUND:                 0.000
REMARK SMILES O=c1ccc2ccc(O)cc2o1
REMARK SMILES IDX 6 1 7 2 8 3 10 4 11 5 5 6 4 7 3 8 2 9 1 10 12 11 9 12
REMARK H PARENT 9 13
REMARK Flexibility Score: inf
ROOT
ATOM      1  C   UNL     1      -9.865  -3.855  -7.016  1.00  0.00     0.016 A 
ATOM      2  C   UNL     1      -9.622  -2.843  -7.951  1.00  0.00     0.047 A 
ATOM      3  C   UNL     1     -10.129  -2.944  -9.252  1.00  0.00     0.119 A 
ATOM      4  C   UNL     1     -10.884  -4.066  -9.623  1.00  0.00     0.094 A 
ATOM      5  C   UNL     1     -11.132  -5.084  -8.696  1.00  0.00     0.142 A 
ATOM      6  C   UNL     1     -10.619  -4.978  -7.384  1.00  0.00     0.018 A 
ATOM      7  C   UNL     1     -10.884  -6.011  -6.479  1.00  0.00     0.019 A 
ATOM      8  C   UNL     1     -11.639  -7.107  -6.895  1.00  0.00     0.094 A 
ATOM      9  C   UNL     1     -12.115  -7.144  -8.210  1.00  0.00     0.336 A 
ATOM     10  O   UNL     1     -12.799  -8.125  -8.603  1.00  0.00    -0.246 OA
ATOM     11  O   UNL     1     -11.849  -6.148  -9.051  1.00  0.00    -0.423 OA
ENDROOT
BRANCH   3  12
ATOM     12  O   UNL     1      -9.876  -1.925 -10.168  1.00  0.00    -0.508 OA
ATOM     13  H   UNL     1     -10.625  -1.360 -10.552  1.00  0.00     0.293 HD
ENDBRANCH   3  12
TORSDOF 1
ENDMDL
MODEL 5
REMARK VINA RESULT:    -5.210     16.966     18.051
REMARK INTER + INTRA:          -5.362
REMARK INTER:                  -5.362
REMARK INTRA:                   0.000
REMARK UNBOUND:                 0.000
REMARK SMILES O=c1ccc2ccc(O)cc2o1
REMARK SMILES IDX 6 1 7 2 8 3 10 4 11 5 5 6 4 7 3 8 2 9 1 10 12 11 9 12
REMARK H PARENT 9 13
REMARK Flexibility Score: inf
ROOT
ATOM      1  C   UNL     1     -11.630   3.700   6.280  1.00  0.00     0.016 A 
ATOM      2  C   UNL     1     -10.770   3.967   7.351  1.00  0.00     0.047 A 
ATOM      3  C   UNL     1     -10.671   5.262   7.873  1.00  0.00     0.119 A 
ATOM      4  C   UNL     1     -11.436   6.300   7.321  1.00  0.00     0.094 A 
ATOM      5  C   UNL     1     -12.298   6.044   6.250  1.00  0.00     0.142 A 
ATOM      6  C   UNL     1     -12.396   4.735   5.725  1.00  0.00     0.018 A 
ATOM      7  C   UNL     1     -13.267   4.509   4.655  1.00  0.00     0.019 A 
ATOM      8  C   UNL     1     -14.006   5.573   4.139  1.00  0.00     0.094 A 
ATOM      9  C   UNL     1     -13.859   6.842   4.709  1.00  0.00     0.336 A 
ATOM     10  O   UNL     1     -14.518   7.814   4.258  1.00  0.00    -0.246 OA
ATOM     11  O   UNL     1     -13.023   7.030   5.728  1.00  0.00    -0.423 OA
ENDROOT
BRANCH   3  12
ATOM     12  O   UNL     1      -9.809   5.507   8.940  1.00  0.00    -0.508 OA
ATOM     13  H   UNL     1     -10.158   5.772   9.853  1.00  0.00     0.293 HD
ENDBRANCH   3  12
TORSDOF 1
ENDMDL
MODEL 6
REMARK VINA RESULT:    -5.062      1.637      4.745
REMARK INTER + INTRA:          -5.210
REMARK INTER:                  -5.210
REMARK INTRA:                   0.000
REMARK UNBOUND:                 0.000
REMARK SMILES O=c1ccc2ccc(O)cc2o1
REMARK SMILES IDX 6 1 7 2 8 3 10 4 11 5 5 6 4 7 3 8 2 9 1 10 12 11 9 12
REMARK H PARENT 9 13
REMARK Flexibility Score: inf
ROOT
ATOM      1  C   UNL     1     -12.880  -6.353  -8.261  1.00  0.00     0.016 A 
ATOM      2  C   UNL     1     -13.259  -7.138  -7.167  1.00  0.00     0.047 A 
ATOM      3  C   UNL     1     -12.527  -7.091  -5.975  1.00  0.00     0.119 A 
ATOM      4  C   UNL     1     -11.407  -6.253  -5.874  1.00  0.00     0.094 A 
ATOM      5  C   UNL     1     -11.020  -5.464  -6.962  1.00  0.00     0.142 A 
ATOM      6  C   UNL     1     -11.760  -5.514  -8.165  1.00  0.00     0.018 A 
ATOM      7  C   UNL     1     -11.350  -4.715  -9.236  1.00  0.00     0.019 A 
ATOM      8  C   UNL     1     -10.230  -3.898  -9.088  1.00  0.00     0.094 A 
ATOM      9  C   UNL     1      -9.544  -3.898  -7.868  1.00  0.00     0.336 A 
ATOM     10  O   UNL     1      -8.531  -3.167  -7.716  1.00  0.00    -0.246 OA
ATOM     11  O   UNL     1      -9.957  -4.669  -6.864  1.00  0.00    -0.423 OA
ENDROOT
BRANCH   3  12
ATOM     12  O   UNL     1     -12.921  -7.880  -4.896  1.00  0.00    -0.508 OA
ATOM     13  H   UNL     1     -12.314  -8.596  -4.514  1.00  0.00     0.293 HD
ENDBRANCH   3  12
TORSDOF 1
ENDMDL
MODEL 7
REMARK VINA RESULT:    -5.033     16.502     17.689
REMARK INTER + INTRA:          -5.180
REMARK INTER:                  -5.180
REMARK INTRA:                   0.000
REMARK UNBOUND:                 0.000
REMARK SMILES O=c1ccc2ccc(O)cc2o1
REMARK SMILES IDX 6 1 7 2 8 3 10 4 11 5 5 6 4 7 3 8 2 9 1 10 12 11 9 12
REMARK H PARENT 9 13
REMARK Flexibility Score: inf
ROOT
ATOM      1  C   UNL     1     -13.854   5.801   7.585  1.00  0.00     0.016 A 
ATOM      2  C   UNL     1     -13.117   4.710   8.060  1.00  0.00     0.047 A 
ATOM      3  C   UNL     1     -12.521   3.815   7.164  1.00  0.00     0.119 A 
ATOM      4  C   UNL     1     -12.663   4.010   5.782  1.00  0.00     0.094 A 
ATOM      5  C   UNL     1     -13.398   5.097   5.297  1.00  0.00     0.142 A 
ATOM      6  C   UNL     1     -13.998   5.998   6.204  1.00  0.00     0.018 A 
ATOM      7  C   UNL     1     -14.727   7.076   5.691  1.00  0.00     0.019 A 
ATOM      8  C   UNL     1     -14.840   7.227   4.310  1.00  0.00     0.094 A 
ATOM      9  C   UNL     1     -14.219   6.296   3.471  1.00  0.00     0.336 A 
ATOM     10  O   UNL     1     -14.310   6.417   2.221  1.00  0.00    -0.246 OA
ATOM     11  O   UNL     1     -13.531   5.279   3.986  1.00  0.00    -0.423 OA
ENDROOT
BRANCH   3  12
ATOM     12  O   UNL     1     -11.791   2.736   7.656  1.00  0.00    -0.508 OA
ATOM     13  H   UNL     1     -11.015   2.868   8.294  1.00  0.00     0.293 HD
ENDBRANCH   3  12
TORSDOF 1
ENDMDL
MODEL 8
REMARK VINA RESULT:    -4.957     16.511     17.477
REMARK INTER + INTRA:          -5.102
REMARK INTER:                  -5.102
REMARK INTRA:                   0.000
REMARK UNBOUND:                 0.000
REMARK SMILES O=c1ccc2ccc(O)cc2o1
REMARK SMILES IDX 6 1 7 2 8 3 10 4 11 5 5 6 4 7 3 8 2 9 1 10 12 11 9 12
REMARK H PARENT 9 13
REMARK Flexibility Score: inf
ROOT
ATOM      1  C   UNL     1     -14.531   6.857   5.987  1.00  0.00     0.016 A 
ATOM      2  C   UNL     1     -14.830   6.947   4.623  1.00  0.00     0.047 A 
ATOM      3  C   UNL     1     -14.325   5.999   3.725  1.00  0.00     0.119 A 
ATOM      4  C   UNL     1     -13.515   4.954   4.192  1.00  0.00     0.094 A 
ATOM      5  C   UNL     1     -13.211   4.855   5.554  1.00  0.00     0.142 A 
ATOM      6  C   UNL     1     -13.722   5.814   6.458  1.00  0.00     0.018 A 
ATOM      7  C   UNL     1     -13.402   5.690   7.813  1.00  0.00     0.019 A 
ATOM      8  C   UNL     1     -12.593   4.634   8.230  1.00  0.00     0.094 A 
ATOM      9  C   UNL     1     -12.122   3.722   7.279  1.00  0.00     0.336 A 
ATOM     10  O   UNL     1     -11.391   2.762   7.637  1.00  0.00    -0.246 OA
ATOM     11  O   UNL     1     -12.443   3.863   5.995  1.00  0.00    -0.423 OA
ENDROOT
BRANCH   3  12
ATOM     12  O   UNL     1     -14.633   6.105   2.370  1.00  0.00    -0.508 OA
ATOM     13  H   UNL     1     -14.977   6.971   1.971  1.00  0.00     0.293 HD
ENDBRANCH   3  12
TORSDOF 1
ENDMDL
