MODEL 1
REMARK VINA RESULT:    -3.257      0.000      0.000
REMARK INTER + INTRA:          -8.933
REMARK INTER:                  -7.445
REMARK INTRA:                  -1.488
REMARK UNBOUND:                -1.488
REMARK SMILES CCCCCCCCCCCCCCCCCCCCCCCC(=O)[O-]
REMARK SMILES IDX 13 1 14 2 15 3 16 4 17 5 18 6 19 7 20 8 21 9 22 10 23 11
REMARK SMILES IDX 24 12 25 13 26 14 12 15 11 16 10 17 9 18 8 19 7 20 6 21 5 22
REMARK SMILES IDX 4 23 3 24 2 25 1 26
REMARK H PARENT
REMARK Flexibility Score: inf
ROOT
ATOM      1  C   UNL     1     109.927 104.061 111.284  1.00  0.00     0.000 C 
ENDROOT
BRANCH   1   2
ATOM      2  C   UNL     1     110.346 102.840 110.444  1.00  0.00     0.000 C 
BRANCH   2   3
ATOM      3  C   UNL     1     111.300 101.855 111.148  1.00  0.00     0.000 C 
BRANCH   3   4
ATOM      4  C   UNL     1     111.720 102.319 112.550  1.00  0.00     0.000 C 
BRANCH   4   5
ATOM      5  C   UNL     1     113.243 102.492 112.638  1.00  0.00     0.000 C 
BRANCH   5   6
ATOM      6  C   UNL     1     113.892 102.689 111.258  1.00  0.00     0.000 C 
BRANCH   6   7
ATOM      7  C   UNL     1     114.912 103.842 111.250  1.00  0.00     0.000 C 
BRANCH   7   8
ATOM      8  C   UNL     1     114.514 104.991 112.190  1.00  0.00     0.000 C 
BRANCH   8   9
ATOM      9  C   UNL     1     115.582 105.288 113.254  1.00  0.00     0.000 C 
BRANCH   9  10
ATOM     10  C   UNL     1     116.898 104.575 112.924  1.00  0.00     0.006 C 
BRANCH  10  11
ATOM     11  C   UNL     1     118.098 105.493 113.172  1.00  0.00     0.053 C 
BRANCH  11  12
ATOM     12  C   UNL     1     119.135 104.792 113.990  1.00  0.00     0.041 C 
ATOM     13  O   UNL     1     119.129 103.536 114.078  1.00  0.00    -0.550 OA
ATOM     14  O   UNL     1     120.073 105.528 114.702  1.00  0.00    -0.550 OA
ENDBRANCH  11  12
ENDBRANCH  10  11
ENDBRANCH   9  10
ENDBRANCH   8   9
ENDBRANCH   7   8
ENDBRANCH   6   7
ENDBRANCH   5   6
ENDBRANCH   4   5
ENDBRANCH   3   4
ENDBRANCH   2   3
ENDBRANCH   1   2
BRANCH   1  15
ATOM     15  C   UNL     1     108.874 104.939 110.585  1.00  0.00     0.000 C 
BRANCH  15  16
ATOM     16  C   UNL     1     109.159 106.441 110.746  1.00  0.00     0.000 C 
BRANCH  16  17
ATOM     17  C   UNL     1     108.174 107.132 111.706  1.00  0.00     0.000 C 
BRANCH  17  18
ATOM     18  C   UNL     1     107.803 106.230 112.904  1.00  0.00    -0.000 C 
BRANCH  18  19
ATOM     19  C   UNL     1     106.306 106.264 113.262  1.00  0.00    -0.000 C 
BRANCH  19  20
ATOM     20  C   UNL     1     105.700 107.671 113.167  1.00  0.00    -0.000 C 
BRANCH  20  21
ATOM     21  C   UNL     1     104.168 107.610 113.076  1.00  0.00    -0.000 C 
BRANCH  21  22
ATOM     22  C   UNL     1     103.615 106.206 113.390  1.00  0.00    -0.000 C 
BRANCH  22  23
ATOM     23  C   UNL     1     102.110 106.040 113.105  1.00  0.00    -0.000 C 
BRANCH  23  24
ATOM     24  C   UNL     1     101.621 106.789 111.850  1.00  0.00    -0.000 C 
BRANCH  24  25
ATOM     25  C   UNL     1     100.176 106.425 111.476  1.00  0.00    -0.003 C 
ATOM     26  C   UNL     1     100.083 105.948 110.030  1.00  0.00     0.004 C 
ENDBRANCH  24  25
ENDBRANCH  23  24
ENDBRANCH  22  23
ENDBRANCH  21  22
ENDBRANCH  20  21
ENDBRANCH  19  20
ENDBRANCH  18  19
ENDBRANCH  17  18
ENDBRANCH  16  17
ENDBRANCH  15  16
ENDBRANCH   1  15
TORSDOF 22
ENDMDL
MODEL 2
REMARK VINA RESULT:    -2.743      2.130      3.093
REMARK INTER + INTRA:          -7.760
REMARK INTER:                  -6.707
REMARK INTRA:                  -1.053
REMARK UNBOUND:                -1.488
REMARK SMILES CCCCCCCCCCCCCCCCCCCCCCCC(=O)[O-]
REMARK SMILES IDX 13 1 14 2 15 3 16 4 17 5 18 6 19 7 20 8 21 9 22 10 23 11
REMARK SMILES IDX 24 12 25 13 26 14 12 15 11 16 10 17 9 18 8 19 7 20 6 21 5 22
REMARK SMILES IDX 4 23 3 24 2 25 1 26
REMARK H PARENT
REMARK Flexibility Score: inf
ROOT
ATOM      1  C   UNL     1     111.040 102.218 111.159  1.00  0.00     0.000 C 
ENDROOT
BRANCH   1   2
ATOM      2  C   UNL     1     111.381 102.622 112.606  1.00  0.00     0.000 C 
BRANCH   2   3
ATOM      3  C   UNL     1     112.871 102.513 112.985  1.00  0.00     0.000 C 
BRANCH   3   4
ATOM      4  C   UNL     1     113.752 102.015 111.831  1.00  0.00     0.000 C 
BRANCH   4   5
ATOM      5  C   UNL     1     114.479 103.184 111.150  1.00  0.00     0.000 C 
BRANCH   5   6
ATOM      6  C   UNL     1     113.938 104.552 111.596  1.00  0.00     0.000 C 
BRANCH   6   7
ATOM      7  C   UNL     1     114.837 105.222 112.651  1.00  0.00     0.000 C 
BRANCH   7   8
ATOM      8  C   UNL     1     116.221 104.561 112.755  1.00  0.00     0.000 C 
BRANCH   8   9
ATOM      9  C   UNL     1     117.198 105.358 113.632  1.00  0.00     0.000 C 
BRANCH   9  10
ATOM     10  C   UNL     1     118.538 105.561 112.914  1.00  0.00     0.006 C 
BRANCH  10  11
ATOM     11  C   UNL     1     119.710 105.432 113.891  1.00  0.00     0.053 C 
BRANCH  11  12
ATOM     12  C   UNL     1     119.415 104.395 114.929  1.00  0.00     0.041 C 
ATOM     13  O   UNL     1     119.169 103.208 114.586  1.00  0.00    -0.550 OA
ATOM     14  O   UNL     1     119.355 104.751 116.270  1.00  0.00    -0.550 OA
ENDBRANCH  11  12
ENDBRANCH  10  11
ENDBRANCH   9  10
ENDBRANCH   8   9
ENDBRANCH   7   8
ENDBRANCH   6   7
ENDBRANCH   5   6
ENDBRANCH   4   5
ENDBRANCH   3   4
ENDBRANCH   2   3
ENDBRANCH   1   2
BRANCH   1  15
ATOM     15  C   UNL     1     110.250 103.300 110.403  1.00  0.00     0.000 C 
BRANCH  15  16
ATOM     16  C   UNL     1     109.276 104.063 111.315  1.00  0.00     0.000 C 
BRANCH  16  17
ATOM     17  C   UNL     1     108.548 105.205 110.582  1.00  0.00     0.000 C 
BRANCH  17  18
ATOM     18  C   UNL     1     108.809 106.576 111.242  1.00  0.00    -0.000 C 
BRANCH  18  19
ATOM     19  C   UNL     1     108.106 106.751 112.600  1.00  0.00    -0.000 C 
BRANCH  19  20
ATOM     20  C   UNL     1     106.591 106.957 112.468  1.00  0.00    -0.000 C 
BRANCH  20  21
ATOM     21  C   UNL     1     105.821 106.040 113.429  1.00  0.00    -0.000 C 
BRANCH  21  22
ATOM     22  C   UNL     1     104.862 106.821 114.348  1.00  0.00    -0.000 C 
BRANCH  22  23
ATOM     23  C   UNL     1     105.499 108.047 115.032  1.00  0.00    -0.000 C 
BRANCH  23  24
ATOM     24  C   UNL     1     105.099 108.222 116.510  1.00  0.00    -0.000 C 
BRANCH  24  25
ATOM     25  C   UNL     1     104.382 106.985 117.072  1.00  0.00    -0.003 C 
ATOM     26  C   UNL     1     102.872 107.199 117.125  1.00  0.00     0.004 C 
ENDBRANCH  24  25
ENDBRANCH  23  24
ENDBRANCH  22  23
ENDBRANCH  21  22
ENDBRANCH  20  21
ENDBRANCH  19  20
ENDBRANCH  18  19
ENDBRANCH  17  18
ENDBRANCH  16  17
ENDBRANCH  15  16
ENDBRANCH   1  15
TORSDOF 22
ENDMDL
MODEL 3
REMARK VINA RESULT:    -2.653      0.860      1.448
REMARK INTER + INTRA:          -7.553
REMARK INTER:                  -6.210
REMARK INTRA:                  -1.343
REMARK UNBOUND:                -1.488
REMARK SMILES CCCCCCCCCCCCCCCCCCCCCCCC(=O)[O-]
REMARK SMILES IDX 13 1 14 2 15 3 16 4 17 5 18 6 19 7 20 8 21 9 22 10 23 11
REMARK SMILES IDX 24 12 25 13 26 14 12 15 11 16 10 17 9 18 8 19 7 20 6 21 5 22
REMARK SMILES IDX 4 23 3 24 2 25 1 26
REMARK H PARENT
REMARK Flexibility Score: inf
ROOT
ATOM      1  C   UNL     1     108.587 105.064 110.582  1.00  0.00     0.000 C 
ENDROOT
BRANCH   1   2
ATOM      2  C   UNL     1     109.600 103.913 110.443  1.00  0.00     0.000 C 
BRANCH   2   3
ATOM      3  C   UNL     1     110.610 103.784 111.600  1.00  0.00     0.000 C 
BRANCH   3   4
ATOM      4  C   UNL     1     110.904 102.328 111.985  1.00  0.00     0.000 C 
BRANCH   4   5
ATOM      5  C   UNL     1     112.118 101.789 111.212  1.00  0.00     0.000 C 
BRANCH   5   6
ATOM      6  C   UNL     1     113.447 102.093 111.921  1.00  0.00     0.000 C 
BRANCH   6   7
ATOM      7  C   UNL     1     114.304 103.112 111.150  1.00  0.00     0.000 C 
BRANCH   7   8
ATOM      8  C   UNL     1     114.414 104.463 111.877  1.00  0.00     0.000 C 
BRANCH   8   9
ATOM      9  C   UNL     1     114.969 104.330 113.303  1.00  0.00     0.000 C 
BRANCH   9  10
ATOM     10  C   UNL     1     116.208 105.213 113.493  1.00  0.00     0.006 C 
BRANCH  10  11
ATOM     11  C   UNL     1     117.378 104.710 112.643  1.00  0.00     0.053 C 
BRANCH  11  12
ATOM     12  C   UNL     1     118.679 104.985 113.328  1.00  0.00     0.041 C 
ATOM     13  O   UNL     1     119.019 104.311 114.336  1.00  0.00    -0.550 OA
ATOM     14  O   UNL     1     119.490 106.023 112.889  1.00  0.00    -0.550 OA
ENDBRANCH  11  12
ENDBRANCH  10  11
ENDBRANCH   9  10
ENDBRANCH   8   9
ENDBRANCH   7   8
ENDBRANCH   6   7
ENDBRANCH   5   6
ENDBRANCH   4   5
ENDBRANCH   3   4
ENDBRANCH   2   3
ENDBRANCH   1   2
BRANCH   1  15
ATOM     15  C   UNL     1     109.258 106.438 110.759  1.00  0.00     0.000 C 
BRANCH  15  16
ATOM     16  C   UNL     1     108.484 107.350 111.725  1.00  0.00     0.000 C 
BRANCH  16  17
ATOM     17  C   UNL     1     107.659 106.559 112.756  1.00  0.00     0.000 C 
BRANCH  17  18
ATOM     18  C   UNL     1     106.140 106.749 112.552  1.00  0.00    -0.000 C 
BRANCH  18  19
ATOM     19  C   UNL     1     105.451 107.495 113.708  1.00  0.00    -0.000 C 
BRANCH  19  20
ATOM     20  C   UNL     1     104.524 106.592 114.533  1.00  0.00    -0.000 C 
BRANCH  20  21
ATOM     21  C   UNL     1     103.573 105.796 113.627  1.00  0.00    -0.000 C 
BRANCH  21  22
ATOM     22  C   UNL     1     102.570 106.702 112.887  1.00  0.00    -0.000 C 
BRANCH  22  23
ATOM     23  C   UNL     1     101.619 105.949 111.935  1.00  0.00    -0.000 C 
BRANCH  23  24
ATOM     24  C   UNL     1     100.552 106.842 111.274  1.00  0.00    -0.000 C 
BRANCH  24  25
ATOM     25  C   UNL     1     100.097 106.300 109.911  1.00  0.00    -0.003 C 
ATOM     26  C   UNL     1      99.876 104.791 109.963  1.00  0.00     0.004 C 
ENDBRANCH  24  25
ENDBRANCH  23  24
ENDBRANCH  22  23
ENDBRANCH  21  22
ENDBRANCH  20  21
ENDBRANCH  19  20
ENDBRANCH  18  19
ENDBRANCH  17  18
ENDBRANCH  16  17
ENDBRANCH  15  16
ENDBRANCH   1  15
TORSDOF 22
ENDMDL
MODEL 4
REMARK VINA RESULT:    -2.611      5.390     12.607
REMARK INTER + INTRA:          -7.456
REMARK INTER:                  -6.039
REMARK INTRA:                  -1.417
REMARK UNBOUND:                -1.488
REMARK SMILES CCCCCCCCCCCCCCCCCCCCCCCC(=O)[O-]
REMARK SMILES IDX 13 1 14 2 15 3 16 4 17 5 18 6 19 7 20 8 21 9 22 10 23 11
REMARK SMILES IDX 24 12 25 13 26 14 12 15 11 16 10 17 9 18 8 19 7 20 6 21 5 22
REMARK SMILES IDX 4 23 3 24 2 25 1 26
REMARK H PARENT
REMARK Flexibility Score: inf
ROOT
ATOM      1  C   UNL     1     110.278 102.964 110.404  1.00  0.00     0.000 C 
ENDROOT
BRANCH   1   2
ATOM      2  C   UNL     1     109.968 104.169 111.312  1.00  0.00     0.000 C 
BRANCH   2   3
ATOM      3  C   UNL     1     108.736 104.999 110.903  1.00  0.00     0.000 C 
BRANCH   3   4
ATOM      4  C   UNL     1     108.938 106.509 111.085  1.00  0.00     0.000 C 
BRANCH   4   5
ATOM      5  C   UNL     1     107.672 107.170 111.650  1.00  0.00     0.000 C 
BRANCH   5   6
ATOM      6  C   UNL     1     107.139 106.445 112.897  1.00  0.00     0.000 C 
BRANCH   6   7
ATOM      7  C   UNL     1     105.778 106.995 113.358  1.00  0.00     0.000 C 
BRANCH   7   8
ATOM      8  C   UNL     1     104.740 105.886 113.592  1.00  0.00     0.000 C 
BRANCH   8   9
ATOM      9  C   UNL     1     103.298 106.415 113.634  1.00  0.00     0.000 C 
BRANCH   9  10
ATOM     10  C   UNL     1     102.504 105.940 112.412  1.00  0.00     0.006 C 
BRANCH  10  11
ATOM     11  C   UNL     1     101.165 106.675 112.307  1.00  0.00     0.053 C 
BRANCH  11  12
ATOM     12  C   UNL     1     100.720 106.751 110.881  1.00  0.00     0.041 C 
ATOM     13  O   UNL     1      99.939 105.881 110.413  1.00  0.00    -0.550 OA
ATOM     14  O   UNL     1     101.213 107.751 110.051  1.00  0.00    -0.550 OA
ENDBRANCH  11  12
ENDBRANCH  10  11
ENDBRANCH   9  10
ENDBRANCH   8   9
ENDBRANCH   7   8
ENDBRANCH   6   7
ENDBRANCH   5   6
ENDBRANCH   4   5
ENDBRANCH   3   4
ENDBRANCH   2   3
ENDBRANCH   1   2
BRANCH   1  15
ATOM     15  C   UNL     1     111.130 101.889 111.101  1.00  0.00     0.000 C 
BRANCH  15  16
ATOM     16  C   UNL     1     111.718 102.378 112.435  1.00  0.00     0.000 C 
BRANCH  16  17
ATOM     17  C   UNL     1     113.234 102.128 112.541  1.00  0.00     0.000 C 
BRANCH  17  18
ATOM     18  C   UNL     1     114.002 102.696 111.328  1.00  0.00    -0.000 C 
BRANCH  18  19
ATOM     19  C   UNL     1     114.323 104.196 111.448  1.00  0.00    -0.000 C 
BRANCH  19  20
ATOM     20  C   UNL     1     114.484 104.658 112.903  1.00  0.00    -0.000 C 
BRANCH  20  21
ATOM     21  C   UNL     1     115.961 104.654 113.326  1.00  0.00    -0.000 C 
BRANCH  21  22
ATOM     22  C   UNL     1     116.896 104.185 112.195  1.00  0.00    -0.000 C 
BRANCH  22  23
ATOM     23  C   UNL     1     118.393 104.200 112.563  1.00  0.00    -0.000 C 
BRANCH  23  24
ATOM     24  C   UNL     1     118.954 105.605 112.856  1.00  0.00    -0.000 C 
BRANCH  24  25
ATOM     25  C   UNL     1     119.820 105.636 114.125  1.00  0.00    -0.003 C 
ATOM     26  C   UNL     1     119.376 104.570 115.122  1.00  0.00     0.004 C 
ENDBRANCH  24  25
ENDBRANCH  23  24
ENDBRANCH  22  23
ENDBRANCH  21  22
ENDBRANCH  20  21
ENDBRANCH  19  20
ENDBRANCH  18  19
ENDBRANCH  17  18
ENDBRANCH  16  17
ENDBRANCH  15  16
ENDBRANCH   1  15
TORSDOF 22
ENDMDL
MODEL 5
REMARK VINA RESULT:    -2.380      4.633     11.608
REMARK INTER + INTRA:          -6.930
REMARK INTER:                  -5.282
REMARK INTRA:                  -1.647
REMARK UNBOUND:                -1.488
REMARK SMILES CCCCCCCCCCCCCCCCCCCCCCCC(=O)[O-]
REMARK SMILES IDX 13 1 14 2 15 3 16 4 17 5 18 6 19 7 20 8 21 9 22 10 23 11
REMARK SMILES IDX 24 12 25 13 26 14 12 15 11 16 10 17 9 18 8 19 7 20 6 21 5 22
REMARK SMILES IDX 4 23 3 24 2 25 1 26
REMARK H PARENT
REMARK Flexibility Score: inf
ROOT
ATOM      1  C   UNL     1     112.120 101.979 111.129  1.00  0.00     0.000 C 
ENDROOT
BRANCH   1   2
ATOM      2  C   UNL     1     111.059 102.426 112.153  1.00  0.00     0.000 C 
BRANCH   2   3
ATOM      3  C   UNL     1     110.439 103.812 111.892  1.00  0.00     0.000 C 
BRANCH   3   4
ATOM      4  C   UNL     1     109.659 103.886 110.573  1.00  0.00     0.000 C 
BRANCH   4   5
ATOM      5  C   UNL     1     108.483 104.868 110.685  1.00  0.00     0.000 C 
BRANCH   5   6
ATOM      6  C   UNL     1     108.915 106.243 111.220  1.00  0.00     0.000 C 
BRANCH   6   7
ATOM      7  C   UNL     1     107.716 107.111 111.642  1.00  0.00     0.000 C 
BRANCH   7   8
ATOM      8  C   UNL     1     107.280 106.852 113.093  1.00  0.00     0.000 C 
BRANCH   8   9
ATOM      9  C   UNL     1     106.067 105.915 113.194  1.00  0.00     0.000 C 
BRANCH   9  10
ATOM     10  C   UNL     1     104.978 106.524 114.085  1.00  0.00     0.006 C 
BRANCH  10  11
ATOM     11  C   UNL     1     105.418 107.880 114.642  1.00  0.00     0.053 C 
BRANCH  11  12
ATOM     12  C   UNL     1     105.145 107.957 116.111  1.00  0.00     0.041 C 
ATOM     13  O   UNL     1     105.640 108.888 116.799  1.00  0.00    -0.550 OA
ATOM     14  O   UNL     1     104.391 106.968 116.730  1.00  0.00    -0.550 OA
ENDBRANCH  11  12
ENDBRANCH  10  11
ENDBRANCH   9  10
ENDBRANCH   8   9
ENDBRANCH   7   8
ENDBRANCH   6   7
ENDBRANCH   5   6
ENDBRANCH   4   5
ENDBRANCH   3   4
ENDBRANCH   2   3
ENDBRANCH   1   2
BRANCH   1  15
ATOM     15  C   UNL     1     113.542 101.941 111.714  1.00  0.00     0.000 C 
BRANCH  15  16
ATOM     16  C   UNL     1     114.567 102.653 110.817  1.00  0.00     0.000 C 
BRANCH  16  17
ATOM     17  C   UNL     1     115.269 103.823 111.531  1.00  0.00     0.000 C 
BRANCH  17  18
ATOM     18  C   UNL     1     114.302 104.608 112.444  1.00  0.00    -0.000 C 
BRANCH  18  19
ATOM     19  C   UNL     1     114.941 105.843 113.103  1.00  0.00    -0.000 C 
BRANCH  19  20
ATOM     20  C   UNL     1     116.255 105.521 113.828  1.00  0.00    -0.000 C 
BRANCH  20  21
ATOM     21  C   UNL     1     117.427 106.316 113.231  1.00  0.00    -0.000 C 
BRANCH  21  22
ATOM     22  C   UNL     1     118.541 105.401 112.687  1.00  0.00    -0.000 C 
BRANCH  22  23
ATOM     23  C   UNL     1     118.460 103.942 113.178  1.00  0.00    -0.000 C 
BRANCH  23  24
ATOM     24  C   UNL     1     119.272 103.663 114.458  1.00  0.00    -0.000 C 
BRANCH  24  25
ATOM     25  C   UNL     1     119.765 104.953 115.132  1.00  0.00    -0.003 C 
ATOM     26  C   UNL     1     119.579 104.891 116.645  1.00  0.00     0.004 C 
ENDBRANCH  24  25
ENDBRANCH  23  24
ENDBRANCH  22  23
ENDBRANCH  21  22
ENDBRANCH  20  21
ENDBRANCH  19  20
ENDBRANCH  18  19
ENDBRANCH  17  18
ENDBRANCH  16  17
ENDBRANCH  15  16
ENDBRANCH   1  15
TORSDOF 22
ENDMDL
MODEL 6
REMARK VINA RESULT:    -2.262      5.645     12.731
REMARK INTER + INTRA:          -6.659
REMARK INTER:                  -5.542
REMARK INTRA:                  -1.116
REMARK UNBOUND:                -1.488
REMARK SMILES CCCCCCCCCCCCCCCCCCCCCCCC(=O)[O-]
REMARK SMILES IDX 13 1 14 2 15 3 16 4 17 5 18 6 19 7 20 8 21 9 22 10 23 11
REMARK SMILES IDX 24 12 25 13 26 14 12 15 11 16 10 17 9 18 8 19 7 20 6 21 5 22
REMARK SMILES IDX 4 23 3 24 2 25 1 26
REMARK H PARENT
REMARK Flexibility Score: inf
ROOT
ATOM      1  C   UNL     1     109.042 104.868 110.391  1.00  0.00     0.000 C 
ENDROOT
BRANCH   1   2
ATOM      2  C   UNL     1     109.325 106.338 110.753  1.00  0.00     0.000 C 
BRANCH   2   3
ATOM      3  C   UNL     1     108.120 107.119 111.313  1.00  0.00     0.000 C 
BRANCH   3   4
ATOM      4  C   UNL     1     107.663 106.619 112.690  1.00  0.00     0.000 C 
BRANCH   4   5
ATOM      5  C   UNL     1     106.222 107.061 112.985  1.00  0.00     0.000 C 
BRANCH   5   6
ATOM      6  C   UNL     1     105.484 106.078 113.908  1.00  0.00     0.000 C 
BRANCH   6   7
ATOM      7  C   UNL     1     104.001 106.446 114.092  1.00  0.00     0.000 C 
BRANCH   7   8
ATOM      8  C   UNL     1     103.097 105.812 113.023  1.00  0.00     0.000 C 
BRANCH   8   9
ATOM      9  C   UNL     1     102.059 106.794 112.458  1.00  0.00     0.000 C 
BRANCH   9  10
ATOM     10  C   UNL     1     100.685 106.127 112.331  1.00  0.00     0.006 C 
BRANCH  10  11
ATOM     11  C   UNL     1      99.876 106.748 111.190  1.00  0.00     0.053 C 
BRANCH  11  12
ATOM     12  C   UNL     1      99.967 105.899 109.961  1.00  0.00     0.041 C 
ATOM     13  O   UNL     1      99.909 104.645 110.052  1.00  0.00    -0.550 OA
ATOM     14  O   UNL     1     100.174 106.491 108.722  1.00  0.00    -0.550 OA
ENDBRANCH  11  12
ENDBRANCH  10  11
ENDBRANCH   9  10
ENDBRANCH   8   9
ENDBRANCH   7   8
ENDBRANCH   6   7
ENDBRANCH   5   6
ENDBRANCH   4   5
ENDBRANCH   3   4
ENDBRANCH   2   3
ENDBRANCH   1   2
BRANCH   1  15
ATOM     15  C   UNL     1     109.753 103.871 111.322  1.00  0.00     0.000 C 
BRANCH  15  16
ATOM     16  C   UNL     1     110.448 102.737 110.551  1.00  0.00     0.000 C 
BRANCH  16  17
ATOM     17  C   UNL     1     111.226 101.782 111.475  1.00  0.00     0.000 C 
BRANCH  17  18
ATOM     18  C   UNL     1     112.323 102.516 112.276  1.00  0.00    -0.000 C 
BRANCH  18  19
ATOM     19  C   UNL     1     113.754 102.128 111.861  1.00  0.00    -0.000 C 
BRANCH  19  20
ATOM     20  C   UNL     1     114.484 103.251 111.111  1.00  0.00    -0.000 C 
BRANCH  20  21
ATOM     21  C   UNL     1     114.490 104.551 111.929  1.00  0.00    -0.000 C 
BRANCH  21  22
ATOM     22  C   UNL     1     115.068 104.354 113.344  1.00  0.00    -0.000 C 
BRANCH  22  23
ATOM     23  C   UNL     1     116.386 105.111 113.600  1.00  0.00    -0.000 C 
BRANCH  23  24
ATOM     24  C   UNL     1     117.647 104.355 113.137  1.00  0.00    -0.000 C 
BRANCH  24  25
ATOM     25  C   UNL     1     118.925 105.191 113.304  1.00  0.00    -0.003 C 
ATOM     26  C   UNL     1     119.034 106.256 112.216  1.00  0.00     0.004 C 
ENDBRANCH  24  25
ENDBRANCH  23  24
ENDBRANCH  22  23
ENDBRANCH  21  22
ENDBRANCH  20  21
ENDBRANCH  19  20
ENDBRANCH  18  19
ENDBRANCH  17  18
ENDBRANCH  16  17
ENDBRANCH  15  16
ENDBRANCH   1  15
TORSDOF 22
ENDMDL
MODEL 7
REMARK VINA RESULT:    -2.246      1.236      2.349
REMARK INTER + INTRA:          -6.622
REMARK INTER:                  -5.416
REMARK INTRA:                  -1.206
REMARK UNBOUND:                -1.488
REMARK SMILES CCCCCCCCCCCCCCCCCCCCCCCC(=O)[O-]
REMARK SMILES IDX 13 1 14 2 15 3 16 4 17 5 18 6 19 7 20 8 21 9 22 10 23 11
REMARK SMILES IDX 24 12 25 13 26 14 12 15 11 16 10 17 9 18 8 19 7 20 6 21 5 22
REMARK SMILES IDX 4 23 3 24 2 25 1 26
REMARK H PARENT
REMARK Flexibility Score: inf
ROOT
ATOM      1  C   UNL     1     109.048 106.015 110.735  1.00  0.00     0.000 C 
ENDROOT
BRANCH   1   2
ATOM      2  C   UNL     1     108.995 104.606 111.354  1.00  0.00     0.000 C 
BRANCH   2   3
ATOM      3  C   UNL     1     109.978 103.585 110.748  1.00  0.00     0.000 C 
BRANCH   3   4
ATOM      4  C   UNL     1     110.948 102.994 111.780  1.00  0.00     0.000 C 
BRANCH   4   5
ATOM      5  C   UNL     1     111.709 101.795 111.195  1.00  0.00     0.000 C 
BRANCH   5   6
ATOM      6  C   UNL     1     113.222 101.876 111.459  1.00  0.00     0.000 C 
BRANCH   6   7
ATOM      7  C   UNL     1     113.585 102.991 112.455  1.00  0.00     0.000 C 
BRANCH   7   8
ATOM      8  C   UNL     1     114.537 104.036 111.851  1.00  0.00     0.000 C 
BRANCH   8   9
ATOM      9  C   UNL     1     114.912 105.146 112.845  1.00  0.00     0.000 C 
BRANCH   9  10
ATOM     10  C   UNL     1     116.163 104.765 113.646  1.00  0.00     0.006 C 
BRANCH  10  11
ATOM     11  C   UNL     1     117.380 104.621 112.728  1.00  0.00     0.053 C 
BRANCH  11  12
ATOM     12  C   UNL     1     118.633 104.988 113.458  1.00  0.00     0.041 C 
ATOM     13  O   UNL     1     119.410 105.860 112.986  1.00  0.00    -0.550 OA
ATOM     14  O   UNL     1     118.973 104.327 114.632  1.00  0.00    -0.550 OA
ENDBRANCH  11  12
ENDBRANCH  10  11
ENDBRANCH   9  10
ENDBRANCH   8   9
ENDBRANCH   7   8
ENDBRANCH   6   7
ENDBRANCH   5   6
ENDBRANCH   4   5
ENDBRANCH   3   4
ENDBRANCH   2   3
ENDBRANCH   1   2
BRANCH   1  15
ATOM     15  C   UNL     1     108.148 107.027 111.466  1.00  0.00     0.000 C 
BRANCH  15  16
ATOM     16  C   UNL     1     107.606 106.479 112.796  1.00  0.00     0.000 C 
BRANCH  16  17
ATOM     17  C   UNL     1     106.190 106.994 113.116  1.00  0.00     0.000 C 
BRANCH  17  18
ATOM     18  C   UNL     1     105.253 105.859 113.583  1.00  0.00    -0.000 C 
BRANCH  18  19
ATOM     19  C   UNL     1     103.825 106.332 113.907  1.00  0.00    -0.000 C 
BRANCH  19  20
ATOM     20  C   UNL     1     103.060 106.817 112.668  1.00  0.00    -0.000 C 
BRANCH  20  21
ATOM     21  C   UNL     1     101.761 106.021 112.471  1.00  0.00    -0.000 C 
BRANCH  21  22
ATOM     22  C   UNL     1     100.659 106.853 111.786  1.00  0.00    -0.000 C 
BRANCH  22  23
ATOM     23  C   UNL     1     100.066 106.198 110.523  1.00  0.00    -0.000 C 
BRANCH  23  24
ATOM     24  C   UNL     1     100.559 106.819 109.201  1.00  0.00    -0.000 C 
BRANCH  24  25
ATOM     25  C   UNL     1     101.428 108.066 109.428  1.00  0.00    -0.003 C 
ATOM     26  C   UNL     1     101.777 108.744 108.107  1.00  0.00     0.004 C 
ENDBRANCH  24  25
ENDBRANCH  23  24
ENDBRANCH  22  23
ENDBRANCH  21  22
ENDBRANCH  20  21
ENDBRANCH  19  20
ENDBRANCH  18  19
ENDBRANCH  17  18
ENDBRANCH  16  17
ENDBRANCH  15  16
ENDBRANCH   1  15
TORSDOF 22
ENDMDL
MODEL 8
REMARK VINA RESULT:    -2.142      3.273      6.406
REMARK INTER + INTRA:          -6.385
REMARK INTER:                  -4.611
REMARK INTRA:                  -1.774
REMARK UNBOUND:                -1.488
REMARK SMILES CCCCCCCCCCCCCCCCCCCCCCCC(=O)[O-]
REMARK SMILES IDX 13 1 14 2 15 3 16 4 17 5 18 6 19 7 20 8 21 9 22 10 23 11
REMARK SMILES IDX 24 12 25 13 26 14 12 15 11 16 10 17 9 18 8 19 7 20 6 21 5 22
REMARK SMILES IDX 4 23 3 24 2 25 1 26
REMARK H PARENT
REMARK Flexibility Score: inf
ROOT
ATOM      1  C   UNL     1     109.949 103.955 111.367  1.00  0.00     0.000 C 
ENDROOT
BRANCH   1   2
ATOM      2  C   UNL     1     110.365 102.756 110.493  1.00  0.00     0.000 C 
BRANCH   2   3
ATOM      3  C   UNL     1     111.319 101.752 111.167  1.00  0.00     0.000 C 
BRANCH   3   4
ATOM      4  C   UNL     1     112.318 102.417 112.123  1.00  0.00     0.000 C 
BRANCH   4   5
ATOM      5  C   UNL     1     113.759 102.006 111.786  1.00  0.00     0.000 C 
BRANCH   5   6
ATOM      6  C   UNL     1     114.591 103.178 111.239  1.00  0.00     0.000 C 
BRANCH   6   7
ATOM      7  C   UNL     1     114.436 104.453 112.087  1.00  0.00     0.000 C 
BRANCH   7   8
ATOM      8  C   UNL     1     115.155 104.353 113.442  1.00  0.00     0.000 C 
BRANCH   8   9
ATOM      9  C   UNL     1     116.095 105.539 113.708  1.00  0.00     0.000 C 
BRANCH   9  10
ATOM     10  C   UNL     1     117.286 105.521 112.742  1.00  0.00     0.006 C 
BRANCH  10  11
ATOM     11  C   UNL     1     118.133 104.260 112.937  1.00  0.00     0.053 C 
BRANCH  11  12
ATOM     12  C   UNL     1     119.004 104.396 114.145  1.00  0.00     0.041 C 
ATOM     13  O   UNL     1     119.785 105.377 114.255  1.00  0.00    -0.550 OA
ATOM     14  O   UNL     1     118.995 103.409 115.122  1.00  0.00    -0.550 OA
ENDBRANCH  11  12
ENDBRANCH  10  11
ENDBRANCH   9  10
ENDBRANCH   8   9
ENDBRANCH   7   8
ENDBRANCH   6   7
ENDBRANCH   5   6
ENDBRANCH   4   5
ENDBRANCH   3   4
ENDBRANCH   2   3
ENDBRANCH   1   2
BRANCH   1  15
ATOM     15  C   UNL     1     108.872 104.834 110.709  1.00  0.00     0.000 C 
BRANCH  15  16
ATOM     16  C   UNL     1     108.214 105.803 111.705  1.00  0.00     0.000 C 
BRANCH  16  17
ATOM     17  C   UNL     1     107.999 107.207 111.111  1.00  0.00     0.000 C 
BRANCH  17  18
ATOM     18  C   UNL     1     109.258 108.091 111.243  1.00  0.00    -0.000 C 
BRANCH  18  19
ATOM     19  C   UNL     1     110.234 107.955 110.061  1.00  0.00    -0.000 C 
BRANCH  19  20
ATOM     20  C   UNL     1     111.511 107.186 110.425  1.00  0.00    -0.000 C 
BRANCH  20  21
ATOM     21  C   UNL     1     112.722 107.718 109.644  1.00  0.00    -0.000 C 
BRANCH  21  22
ATOM     22  C   UNL     1     112.328 108.292 108.269  1.00  0.00    -0.000 C 
BRANCH  22  23
ATOM     23  C   UNL     1     113.348 108.008 107.148  1.00  0.00    -0.000 C 
BRANCH  23  24
ATOM     24  C   UNL     1     112.711 107.633 105.797  1.00  0.00    -0.000 C 
BRANCH  24  25
ATOM     25  C   UNL     1     113.746 107.548 104.665  1.00  0.00    -0.003 C 
ATOM     26  C   UNL     1     113.350 106.497 103.632  1.00  0.00     0.004 C 
ENDBRANCH  24  25
ENDBRANCH  23  24
ENDBRANCH  22  23
ENDBRANCH  21  22
ENDBRANCH  20  21
ENDBRANCH  19  20
ENDBRANCH  18  19
ENDBRANCH  17  18
ENDBRANCH  16  17
ENDBRANCH  15  16
ENDBRANCH   1  15
TORSDOF 22
ENDMDL
MODEL 9
REMARK VINA RESULT:    -1.977      4.711     10.133
REMARK INTER + INTRA:          -6.008
REMARK INTER:                  -4.026
REMARK INTRA:                  -1.982
REMARK UNBOUND:                -1.488
REMARK SMILES CCCCCCCCCCCCCCCCCCCCCCCC(=O)[O-]
REMARK SMILES IDX 13 1 14 2 15 3 16 4 17 5 18 6 19 7 20 8 21 9 22 10 23 11
REMARK SMILES IDX 24 12 25 13 26 14 12 15 11 16 10 17 9 18 8 19 7 20 6 21 5 22
REMARK SMILES IDX 4 23 3 24 2 25 1 26
REMARK H PARENT
REMARK Flexibility Score: inf
ROOT
ATOM      1  C   UNL     1     110.160 104.002 111.151  1.00  0.00     0.000 C 
ENDROOT
BRANCH   1   2
ATOM      2  C   UNL     1     108.879 104.748 110.732  1.00  0.00     0.000 C 
BRANCH   2   3
ATOM      3  C   UNL     1     108.476 105.924 111.643  1.00  0.00     0.000 C 
BRANCH   3   4
ATOM      4  C   UNL     1     108.381 107.261 110.895  1.00  0.00     0.000 C 
BRANCH   4   5
ATOM      5  C   UNL     1     109.694 108.050 111.009  1.00  0.00     0.000 C 
BRANCH   5   6
ATOM      6  C   UNL     1     110.541 107.966 109.729  1.00  0.00     0.000 C 
BRANCH   6   7
ATOM      7  C   UNL     1     111.924 107.338 109.981  1.00  0.00     0.000 C 
BRANCH   7   8
ATOM      8  C   UNL     1     113.023 107.955 109.102  1.00  0.00     0.000 C 
BRANCH   8   9
ATOM      9  C   UNL     1     112.528 108.317 107.693  1.00  0.00     0.000 C 
BRANCH   9  10
ATOM     10  C   UNL     1     113.446 107.722 106.619  1.00  0.00     0.006 C 
BRANCH  10  11
ATOM     11  C   UNL     1     112.666 107.415 105.338  1.00  0.00     0.053 C 
BRANCH  11  12
ATOM     12  C   UNL     1     113.596 106.977 104.251  1.00  0.00     0.041 C 
ATOM     13  O   UNL     1     114.795 107.365 104.249  1.00  0.00    -0.550 OA
ATOM     14  O   UNL     1     113.125 106.189 103.209  1.00  0.00    -0.550 OA
ENDBRANCH  11  12
ENDBRANCH  10  11
ENDBRANCH   9  10
ENDBRANCH   8   9
ENDBRANCH   7   8
ENDBRANCH   6   7
ENDBRANCH   5   6
ENDBRANCH   4   5
ENDBRANCH   3   4
ENDBRANCH   2   3
ENDBRANCH   1   2
BRANCH   1  15
ATOM     15  C   UNL     1     110.342 102.661 110.419  1.00  0.00     0.000 C 
BRANCH  15  16
ATOM     16  C   UNL     1     111.311 101.719 111.150  1.00  0.00     0.000 C 
BRANCH  16  17
ATOM     17  C   UNL     1     111.809 102.300 112.486  1.00  0.00     0.000 C 
BRANCH  17  18
ATOM     18  C   UNL     1     113.337 102.152 112.649  1.00  0.00    -0.000 C 
BRANCH  18  19
ATOM     19  C   UNL     1     114.127 102.454 111.364  1.00  0.00    -0.000 C 
BRANCH  19  20
ATOM     20  C   UNL     1     114.544 103.927 111.251  1.00  0.00    -0.000 C 
BRANCH  20  21
ATOM     21  C   UNL     1     114.506 104.621 112.621  1.00  0.00    -0.000 C 
BRANCH  21  22
ATOM     22  C   UNL     1     115.880 104.619 113.320  1.00  0.00    -0.000 C 
BRANCH  22  23
ATOM     23  C   UNL     1     117.077 104.462 112.363  1.00  0.00    -0.000 C 
BRANCH  23  24
ATOM     24  C   UNL     1     118.420 104.199 113.072  1.00  0.00    -0.000 C 
BRANCH  24  25
ATOM     25  C   UNL     1     119.131 105.498 113.479  1.00  0.00    -0.003 C 
ATOM     26  C   UNL     1     119.392 106.388 112.267  1.00  0.00     0.004 C 
ENDBRANCH  24  25
ENDBRANCH  23  24
ENDBRANCH  22  23
ENDBRANCH  21  22
ENDBRANCH  20  21
ENDBRANCH  19  20
ENDBRANCH  18  19
ENDBRANCH  17  18
ENDBRANCH  16  17
ENDBRANCH  15  16
ENDBRANCH   1  15
TORSDOF 22
ENDMDL
