MODEL 1
REMARK VINA RESULT:    -3.877      0.000      0.000
REMARK INTER + INTRA:          -7.016
REMARK INTER:                  -6.143
REMARK INTRA:                  -0.872
REMARK UNBOUND:                -0.872
REMARK SMILES CCCCCCCCCCCC(=O)[O-]
REMARK SMILES IDX 7 1 8 2 9 3 10 4 11 5 12 6 13 7 14 8 6 9 5 10 4 11 3 12 2 13
REMARK SMILES IDX 1 14
REMARK H PARENT
REMARK Flexibility Score: inf
ROOT
ATOM      1  C   UNL     1      46.104  26.120   3.534  1.00  0.00     0.000 C 
ENDROOT
BRANCH   1   2
ATOM      2  C   UNL     1      45.998  26.315   5.057  1.00  0.00     0.000 C 
BRANCH   2   3
ATOM      3  C   UNL     1      46.285  27.761   5.489  1.00  0.00     0.000 C 
BRANCH   3   4
ATOM      4  C   UNL     1      46.337  27.921   7.018  1.00  0.00     0.006 C 
BRANCH   4   5
ATOM      5  C   UNL     1      46.047  26.602   7.748  1.00  0.00     0.053 C 
BRANCH   5   6
ATOM      6  C   UNL     1      45.624  26.833   9.167  1.00  0.00     0.041 C 
ATOM      7  O   UNL     1      45.041  27.902   9.489  1.00  0.00    -0.550 OA
ATOM      8  O   UNL     1      45.848  25.855  10.127  1.00  0.00    -0.550 OA
ENDBRANCH   5   6
ENDBRANCH   4   5
ENDBRANCH   3   4
ENDBRANCH   2   3
ENDBRANCH   1   2
BRANCH   1   9
ATOM      9  C   UNL     1      46.681  27.354   2.821  1.00  0.00     0.000 C 
BRANCH   9  10
ATOM     10  C   UNL     1      45.761  27.878   1.708  1.00  0.00    -0.000 C 
BRANCH  10  11
ATOM     11  C   UNL     1      45.224  29.275   2.053  1.00  0.00    -0.000 C 
BRANCH  11  12
ATOM     12  C   UNL     1      43.706  29.288   2.310  1.00  0.00    -0.000 C 
BRANCH  12  13
ATOM     13  C   UNL     1      43.030  27.906   2.261  1.00  0.00    -0.003 C 
ATOM     14  C   UNL     1      41.528  27.965   2.533  1.00  0.00     0.004 C 
ENDBRANCH  12  13
ENDBRANCH  11  12
ENDBRANCH  10  11
ENDBRANCH   9  10
ENDBRANCH   1   9
TORSDOF 10
ENDMDL
MODEL 2
REMARK VINA RESULT:    -3.798      1.315      1.922
REMARK INTER + INTRA:          -6.891
REMARK INTER:                  -6.386
REMARK INTRA:                  -0.505
REMARK UNBOUND:                -0.872
REMARK SMILES CCCCCCCCCCCC(=O)[O-]
REMARK SMILES IDX 7 1 8 2 9 3 10 4 11 5 12 6 13 7 14 8 6 9 5 10 4 11 3 12 2 13
REMARK SMILES IDX 1 14
REMARK H PARENT
REMARK Flexibility Score: inf
ROOT
ATOM      1  C   UNL     1      46.073  26.349   5.470  1.00  0.00     0.000 C 
ENDROOT
BRANCH   1   2
ATOM      2  C   UNL     1      46.745  26.974   6.705  1.00  0.00     0.000 C 
BRANCH   2   3
ATOM      3  C   UNL     1      46.034  28.251   7.182  1.00  0.00     0.000 C 
BRANCH   3   4
ATOM      4  C   UNL     1      46.019  28.380   8.714  1.00  0.00     0.006 C 
BRANCH   4   5
ATOM      5  C   UNL     1      45.359  27.171   9.391  1.00  0.00     0.053 C 
BRANCH   5   6
ATOM      6  C   UNL     1      46.261  26.542  10.408  1.00  0.00     0.041 C 
ATOM      7  O   UNL     1      46.449  25.296  10.405  1.00  0.00    -0.550 OA
ATOM      8  O   UNL     1      46.917  27.335  11.340  1.00  0.00    -0.550 OA
ENDBRANCH   5   6
ENDBRANCH   4   5
ENDBRANCH   3   4
ENDBRANCH   2   3
ENDBRANCH   1   2
BRANCH   1   9
ATOM      9  C   UNL     1      46.875  26.583   4.180  1.00  0.00     0.000 C 
BRANCH   9  10
ATOM     10  C   UNL     1      46.025  27.199   3.058  1.00  0.00    -0.000 C 
BRANCH  10  11
ATOM     11  C   UNL     1      44.576  26.695   3.130  1.00  0.00    -0.000 C 
BRANCH  11  12
ATOM     12  C   UNL     1      43.703  27.211   1.970  1.00  0.00    -0.000 C 
BRANCH  12  13
ATOM     13  C   UNL     1      42.890  28.478   2.287  1.00  0.00    -0.003 C 
ATOM     14  C   UNL     1      41.419  28.187   2.579  1.00  0.00     0.004 C 
ENDBRANCH  12  13
ENDBRANCH  11  12
ENDBRANCH  10  11
ENDBRANCH   9  10
ENDBRANCH   1   9
TORSDOF 10
ENDMDL
MODEL 3
REMARK VINA RESULT:    -3.741      3.343      6.063
REMARK INTER + INTRA:          -6.801
REMARK INTER:                  -5.867
REMARK INTRA:                  -0.934
REMARK UNBOUND:                -0.872
REMARK SMILES CCCCCCCCCCCC(=O)[O-]
REMARK SMILES IDX 7 1 8 2 9 3 10 4 11 5 12 6 13 7 14 8 6 9 5 10 4 11 3 12 2 13
REMARK SMILES IDX 1 14
REMARK H PARENT
REMARK Flexibility Score: inf
ROOT
ATOM      1  C   UNL     1      46.451  26.747   6.115  1.00  0.00     0.000 C 
ENDROOT
BRANCH   1   2
ATOM      2  C   UNL     1      46.901  26.005   4.845  1.00  0.00     0.000 C 
BRANCH   2   3
ATOM      3  C   UNL     1      45.772  25.864   3.811  1.00  0.00     0.000 C 
BRANCH   3   4
ATOM      4  C   UNL     1      45.749  27.025   2.801  1.00  0.00     0.006 C 
BRANCH   4   5
ATOM      5  C   UNL     1      44.526  27.933   2.991  1.00  0.00     0.053 C 
BRANCH   5   6
ATOM      6  C   UNL     1      43.372  27.495   2.142  1.00  0.00     0.041 C 
ATOM      7  O   UNL     1      43.553  26.687   1.192  1.00  0.00    -0.550 OA
ATOM      8  O   UNL     1      42.091  27.956   2.417  1.00  0.00    -0.550 OA
ENDBRANCH   5   6
ENDBRANCH   4   5
ENDBRANCH   3   4
ENDBRANCH   2   3
ENDBRANCH   1   2
BRANCH   1   9
ATOM      9  C   UNL     1      47.010  28.177   6.193  1.00  0.00     0.000 C 
BRANCH   9  10
ATOM     10  C   UNL     1      45.923  29.222   6.488  1.00  0.00    -0.000 C 
BRANCH  10  11
ATOM     11  C   UNL     1      46.108  29.823   7.889  1.00  0.00    -0.000 C 
BRANCH  11  12
ATOM     12  C   UNL     1      45.097  29.278   8.914  1.00  0.00    -0.000 C 
BRANCH  12  13
ATOM     13  C   UNL     1      45.677  28.270   9.922  1.00  0.00    -0.003 C 
ATOM     14  C   UNL     1      45.370  26.818   9.561  1.00  0.00     0.004 C 
ENDBRANCH  12  13
ENDBRANCH  11  12
ENDBRANCH  10  11
ENDBRANCH   9  10
ENDBRANCH   1   9
TORSDOF 10
ENDMDL
MODEL 4
REMARK VINA RESULT:    -3.677      3.298      6.184
REMARK INTER + INTRA:          -6.699
REMARK INTER:                  -6.091
REMARK INTRA:                  -0.608
REMARK UNBOUND:                -0.872
REMARK SMILES CCCCCCCCCCCC(=O)[O-]
REMARK SMILES IDX 7 1 8 2 9 3 10 4 11 5 12 6 13 7 14 8 6 9 5 10 4 11 3 12 2 13
REMARK SMILES IDX 1 14
REMARK H PARENT
REMARK Flexibility Score: inf
ROOT
ATOM      1  C   UNL     1      45.991  26.295   4.727  1.00  0.00     0.000 C 
ENDROOT
BRANCH   1   2
ATOM      2  C   UNL     1      46.638  26.806   3.427  1.00  0.00     0.000 C 
BRANCH   2   3
ATOM      3  C   UNL     1      46.399  28.307   3.198  1.00  0.00     0.000 C 
BRANCH   3   4
ATOM      4  C   UNL     1      45.431  28.579   2.034  1.00  0.00     0.006 C 
BRANCH   4   5
ATOM      5  C   UNL     1      44.003  28.863   2.522  1.00  0.00     0.053 C 
BRANCH   5   6
ATOM      6  C   UNL     1      43.052  27.778   2.121  1.00  0.00     0.041 C 
ATOM      7  O   UNL     1      43.472  26.760   1.508  1.00  0.00    -0.550 OA
ATOM      8  O   UNL     1      41.706  27.876   2.449  1.00  0.00    -0.550 OA
ENDBRANCH   5   6
ENDBRANCH   4   5
ENDBRANCH   3   4
ENDBRANCH   2   3
ENDBRANCH   1   2
BRANCH   1   9
ATOM      9  C   UNL     1      46.904  26.473   5.950  1.00  0.00     0.000 C 
BRANCH   9  10
ATOM     10  C   UNL     1      46.348  27.487   6.962  1.00  0.00    -0.000 C 
BRANCH  10  11
ATOM     11  C   UNL     1      46.051  26.811   8.308  1.00  0.00    -0.000 C 
BRANCH  11  12
ATOM     12  C   UNL     1      45.317  27.738   9.295  1.00  0.00    -0.000 C 
BRANCH  12  13
ATOM     13  C   UNL     1      45.218  29.207   8.851  1.00  0.00    -0.003 C 
ATOM     14  C   UNL     1      44.654  30.124   9.936  1.00  0.00     0.004 C 
ENDBRANCH  12  13
ENDBRANCH  11  12
ENDBRANCH  10  11
ENDBRANCH   9  10
ENDBRANCH   1   9
TORSDOF 10
ENDMDL
MODEL 5
REMARK VINA RESULT:    -3.591      6.106      7.783
REMARK INTER + INTRA:          -6.562
REMARK INTER:                  -5.629
REMARK INTRA:                  -0.933
REMARK UNBOUND:                -0.872
REMARK SMILES CCCCCCCCCCCC(=O)[O-]
REMARK SMILES IDX 7 1 8 2 9 3 10 4 11 5 12 6 13 7 14 8 6 9 5 10 4 11 3 12 2 13
REMARK SMILES IDX 1 14
REMARK H PARENT
REMARK Flexibility Score: inf
ROOT
ATOM      1  C   UNL     1      45.974  27.689  -2.821  1.00  0.00     0.000 C 
ENDROOT
BRANCH   1   2
ATOM      2  C   UNL     1      45.914  29.217  -2.991  1.00  0.00     0.000 C 
BRANCH   2   3
ATOM      3  C   UNL     1      45.915  29.962  -1.646  1.00  0.00     0.000 C 
BRANCH   3   4
ATOM      4  C   UNL     1      46.323  29.057  -0.471  1.00  0.00     0.006 C 
BRANCH   4   5
ATOM      5  C   UNL     1      45.272  29.053   0.648  1.00  0.00     0.053 C 
BRANCH   5   6
ATOM      6  C   UNL     1      45.158  27.708   1.298  1.00  0.00     0.041 C 
ATOM      7  O   UNL     1      44.056  27.099   1.307  1.00  0.00    -0.550 OA
ATOM      8  O   UNL     1      46.277  27.115   1.869  1.00  0.00    -0.550 OA
ENDBRANCH   5   6
ENDBRANCH   4   5
ENDBRANCH   3   4
ENDBRANCH   2   3
ENDBRANCH   1   2
BRANCH   1   9
ATOM      9  C   UNL     1      45.456  26.937  -4.058  1.00  0.00     0.000 C 
BRANCH   9  10
ATOM     10  C   UNL     1      45.915  27.579  -5.376  1.00  0.00    -0.000 C 
BRANCH  10  11
ATOM     11  C   UNL     1      44.710  27.977  -6.240  1.00  0.00    -0.000 C 
BRANCH  11  12
ATOM     12  C   UNL     1      43.368  27.499  -5.655  1.00  0.00    -0.000 C 
BRANCH  12  13
ATOM     13  C   UNL     1      42.281  28.585  -5.559  1.00  0.00    -0.003 C 
ATOM     14  C   UNL     1      42.793  29.892  -4.957  1.00  0.00     0.004 C 
ENDBRANCH  12  13
ENDBRANCH  11  12
ENDBRANCH  10  11
ENDBRANCH   9  10
ENDBRANCH   1   9
TORSDOF 10
ENDMDL
MODEL 6
REMARK VINA RESULT:    -3.553      7.376      9.822
REMARK INTER + INTRA:          -6.503
REMARK INTER:                  -5.979
REMARK INTRA:                  -0.525
REMARK UNBOUND:                -0.872
REMARK SMILES CCCCCCCCCCCC(=O)[O-]
REMARK SMILES IDX 7 1 8 2 9 3 10 4 11 5 12 6 13 7 14 8 6 9 5 10 4 11 3 12 2 13
REMARK SMILES IDX 1 14
REMARK H PARENT
REMARK Flexibility Score: inf
ROOT
ATOM      1  C   UNL     1      45.959  28.561  -2.716  1.00  0.00     0.000 C 
ENDROOT
BRANCH   1   2
ATOM      2  C   UNL     1      46.234  27.210  -3.399  1.00  0.00     0.000 C 
BRANCH   2   3
ATOM      3  C   UNL     1      45.492  27.062  -4.737  1.00  0.00     0.000 C 
BRANCH   3   4
ATOM      4  C   UNL     1      44.629  28.291  -5.071  1.00  0.00     0.006 C 
BRANCH   4   5
ATOM      5  C   UNL     1      43.327  27.906  -5.789  1.00  0.00     0.053 C 
BRANCH   5   6
ATOM      6  C   UNL     1      42.276  28.963  -5.638  1.00  0.00     0.041 C 
ATOM      7  O   UNL     1      41.270  28.970  -6.395  1.00  0.00    -0.550 OA
ATOM      8  O   UNL     1      42.394  29.924  -4.642  1.00  0.00    -0.550 OA
ENDBRANCH   5   6
ENDBRANCH   4   5
ENDBRANCH   3   4
ENDBRANCH   2   3
ENDBRANCH   1   2
BRANCH   1   9
ATOM      9  C   UNL     1      46.312  28.548  -1.220  1.00  0.00     0.000 C 
BRANCH   9  10
ATOM     10  C   UNL     1      45.790  29.788  -0.478  1.00  0.00    -0.000 C 
BRANCH  10  11
ATOM     11  C   UNL     1      45.117  29.392   0.844  1.00  0.00    -0.000 C 
BRANCH  11  12
ATOM     12  C   UNL     1      45.102  27.870   1.078  1.00  0.00    -0.000 C 
BRANCH  12  13
ATOM     13  C   UNL     1      44.261  27.409   2.281  1.00  0.00    -0.003 C 
ATOM     14  C   UNL     1      42.795  27.828   2.182  1.00  0.00     0.004 C 
ENDBRANCH  12  13
ENDBRANCH  11  12
ENDBRANCH  10  11
ENDBRANCH   9  10
ENDBRANCH   1   9
TORSDOF 10
ENDMDL
MODEL 7
REMARK VINA RESULT:    -3.546      3.604      6.510
REMARK INTER + INTRA:          -6.491
REMARK INTER:                  -5.632
REMARK INTRA:                  -0.859
REMARK UNBOUND:                -0.872
REMARK SMILES CCCCCCCCCCCC(=O)[O-]
REMARK SMILES IDX 7 1 8 2 9 3 10 4 11 5 12 6 13 7 14 8 6 9 5 10 4 11 3 12 2 13
REMARK SMILES IDX 1 14
REMARK H PARENT
REMARK Flexibility Score: inf
ROOT
ATOM      1  C   UNL     1      46.262  26.701   6.497  1.00  0.00     0.000 C 
ENDROOT
BRANCH   1   2
ATOM      2  C   UNL     1      46.989  27.866   5.802  1.00  0.00     0.000 C 
BRANCH   2   3
ATOM      3  C   UNL     1      46.370  28.221   4.440  1.00  0.00     0.000 C 
BRANCH   3   4
ATOM      4  C   UNL     1      46.044  26.976   3.598  1.00  0.00     0.006 C 
BRANCH   4   5
ATOM      5  C   UNL     1      44.549  26.878   3.263  1.00  0.00     0.053 C 
BRANCH   5   6
ATOM      6  C   UNL     1      44.266  27.299   1.853  1.00  0.00     0.041 C 
ATOM      7  O   UNL     1      43.453  26.646   1.147  1.00  0.00    -0.550 OA
ATOM      8  O   UNL     1      44.880  28.429   1.328  1.00  0.00    -0.550 OA
ENDBRANCH   5   6
ENDBRANCH   4   5
ENDBRANCH   3   4
ENDBRANCH   2   3
ENDBRANCH   1   2
BRANCH   1   9
ATOM      9  C   UNL     1      46.806  26.424   7.907  1.00  0.00     0.000 C 
BRANCH   9  10
ATOM     10  C   UNL     1      45.691  26.268   8.952  1.00  0.00    -0.000 C 
BRANCH  10  11
ATOM     11  C   UNL     1      46.041  27.021  10.244  1.00  0.00    -0.000 C 
BRANCH  11  12
ATOM     12  C   UNL     1      46.184  28.540  10.033  1.00  0.00    -0.000 C 
BRANCH  12  13
ATOM     13  C   UNL     1      44.933  29.235   9.471  1.00  0.00    -0.003 C 
ATOM     14  C   UNL     1      45.232  30.123   8.264  1.00  0.00     0.004 C 
ENDBRANCH  12  13
ENDBRANCH  11  12
ENDBRANCH  10  11
ENDBRANCH   9  10
ENDBRANCH   1   9
TORSDOF 10
ENDMDL
MODEL 8
REMARK VINA RESULT:    -3.539      4.028      6.734
REMARK INTER + INTRA:          -6.481
REMARK INTER:                  -5.787
REMARK INTRA:                  -0.694
REMARK UNBOUND:                -0.872
REMARK SMILES CCCCCCCCCCCC(=O)[O-]
REMARK SMILES IDX 7 1 8 2 9 3 10 4 11 5 12 6 13 7 14 8 6 9 5 10 4 11 3 12 2 13
REMARK SMILES IDX 1 14
REMARK H PARENT
REMARK Flexibility Score: inf
ROOT
ATOM      1  C   UNL     1      45.292  26.810   3.042  1.00  0.00     0.000 C 
ENDROOT
BRANCH   1   2
ATOM      2  C   UNL     1      43.842  27.123   2.631  1.00  0.00     0.000 C 
BRANCH   2   3
ATOM      3  C   UNL     1      43.707  28.490   1.939  1.00  0.00     0.000 C 
BRANCH   3   4
ATOM      4  C   UNL     1      45.037  29.262   1.894  1.00  0.00     0.006 C 
BRANCH   4   5
ATOM      5  C   UNL     1      45.371  29.757   0.479  1.00  0.00     0.053 C 
BRANCH   5   6
ATOM      6  C   UNL     1      46.146  28.737  -0.297  1.00  0.00     0.041 C 
ATOM      7  O   UNL     1      46.898  27.922   0.300  1.00  0.00    -0.550 OA
ATOM      8  O   UNL     1      46.017  28.669  -1.679  1.00  0.00    -0.550 OA
ENDBRANCH   5   6
ENDBRANCH   4   5
ENDBRANCH   3   4
ENDBRANCH   2   3
ENDBRANCH   1   2
BRANCH   1   9
ATOM      9  C   UNL     1      45.371  25.973   4.329  1.00  0.00     0.000 C 
BRANCH   9  10
ATOM     10  C   UNL     1      46.557  26.371   5.221  1.00  0.00    -0.000 C 
BRANCH  10  11
ATOM     11  C   UNL     1      46.368  27.787   5.785  1.00  0.00    -0.000 C 
BRANCH  11  12
ATOM     12  C   UNL     1      46.425  27.832   7.323  1.00  0.00    -0.000 C 
BRANCH  12  13
ATOM     13  C   UNL     1      46.008  26.528   8.024  1.00  0.00    -0.003 C 
ATOM     14  C   UNL     1      45.400  26.760   9.407  1.00  0.00     0.004 C 
ENDBRANCH  12  13
ENDBRANCH  11  12
ENDBRANCH  10  11
ENDBRANCH   9  10
ENDBRANCH   1   9
TORSDOF 10
ENDMDL
MODEL 9
REMARK VINA RESULT:    -3.424      1.718      2.859
REMARK INTER + INTRA:          -6.298
REMARK INTER:                  -5.707
REMARK INTRA:                  -0.591
REMARK UNBOUND:                -0.872
REMARK SMILES CCCCCCCCCCCC(=O)[O-]
REMARK SMILES IDX 7 1 8 2 9 3 10 4 11 5 12 6 13 7 14 8 6 9 5 10 4 11 3 12 2 13
REMARK SMILES IDX 1 14
REMARK H PARENT
REMARK Flexibility Score: inf
ROOT
ATOM      1  C   UNL     1      46.422  26.986   6.046  1.00  0.00     0.000 C 
ENDROOT
BRANCH   1   2
ATOM      2  C   UNL     1      46.789  26.949   7.540  1.00  0.00     0.000 C 
BRANCH   2   3
ATOM      3  C   UNL     1      45.616  26.498   8.426  1.00  0.00     0.000 C 
BRANCH   3   4
ATOM      4  C   UNL     1      45.534  27.287   9.743  1.00  0.00     0.006 C 
BRANCH   4   5
ATOM      5  C   UNL     1      46.081  28.714   9.597  1.00  0.00     0.053 C 
BRANCH   5   6
ATOM      6  C   UNL     1      44.997  29.694   9.268  1.00  0.00     0.041 C 
ATOM      7  O   UNL     1      44.857  30.114   8.089  1.00  0.00    -0.550 OA
ATOM      8  O   UNL     1      44.122  30.122  10.259  1.00  0.00    -0.550 OA
ENDBRANCH   5   6
ENDBRANCH   4   5
ENDBRANCH   3   4
ENDBRANCH   2   3
ENDBRANCH   1   2
BRANCH   1   9
ATOM      9  C   UNL     1      47.119  25.880   5.239  1.00  0.00     0.000 C 
BRANCH   9  10
ATOM     10  C   UNL     1      46.643  25.822   3.779  1.00  0.00    -0.000 C 
BRANCH  10  11
ATOM     11  C   UNL     1      45.402  26.704   3.573  1.00  0.00    -0.000 C 
BRANCH  11  12
ATOM     12  C   UNL     1      45.460  27.525   2.271  1.00  0.00    -0.000 C 
BRANCH  12  13
ATOM     13  C   UNL     1      44.164  28.278   1.924  1.00  0.00    -0.003 C 
ATOM     14  C   UNL     1      42.903  27.473   2.233  1.00  0.00     0.004 C 
ENDBRANCH  12  13
ENDBRANCH  11  12
ENDBRANCH  10  11
ENDBRANCH   9  10
ENDBRANCH   1   9
TORSDOF 10
ENDMDL
