MODEL 1
REMARK VINA RESULT:    -9.906      0.000      0.000
REMARK INTER + INTRA:         -16.938
REMARK INTER:                 -16.276
REMARK INTRA:                  -0.662
REMARK UNBOUND:                -0.662
REMARK SMILES C[C@H]1O[C@H](OC[C@@H]2O[C@@H](Oc3c(-c4ccc(O)c(O)c4)oc4cc(O)cc(O)c4c3=O)[C@H](O)[C@@H](O)[C@H]2O)[C@@H](O)[C@@H](O)[C@@H]1O
REMARK SMILES IDX 7 1 36 2 34 3 32 4 9 5 8 6 6 7 5 8 4 9 1 10 2 11 42 12 3 13
REMARK SMILES IDX 40 14 38 15 43 16 41 18 39 20 37 22 35 24 10 26 11 27 12 28
REMARK SMILES IDX 30 29 21 30 29 31 31 32 22 33 27 34 23 35 26 36 24 37 13 38
REMARK SMILES IDX 20 39 14 40 18 41 15 42 16 43 19 44 17 46 28 48 25 50 33 52
REMARK H PARENT 43 17 41 19 39 21 37 23 35 25 19 45 17 47 28 49 25 51 33 53
REMARK Flexibility Score: inf
ROOT
ATOM      1  C   UNL     1      49.569  61.583   5.662  1.00  0.00     0.180 C 
ATOM      2  C   UNL     1      48.638  60.971   6.735  1.00  0.00     0.177 C 
ATOM      3  C   UNL     1      47.170  61.022   6.267  1.00  0.00     0.180 C 
ATOM      4  C   UNL     1      46.804  62.413   5.706  1.00  0.00     0.214 C 
ATOM      5  C   UNL     1      47.899  62.975   4.774  1.00  0.00     0.339 C 
ATOM      6  O   UNL     1      49.186  62.916   5.366  1.00  0.00    -0.332 OA
ENDROOT
BRANCH   1   7
ATOM      7  C   UNL     1      51.030  61.595   6.125  1.00  0.00     0.198 C 
BRANCH   7   8
ATOM      8  O   UNL     1      51.103  61.247   7.492  1.00  0.00    -0.347 OA
BRANCH   8   9
ATOM      9  C   UNL     1      52.447  61.021   7.895  1.00  0.00     0.281 C 
ATOM     10  C   UNL     1      51.930  57.855   9.699  1.00  0.00     0.041 C 
ATOM     11  C   UNL     1      51.958  58.798   8.494  1.00  0.00     0.150 C 
ATOM     12  C   UNL     1      52.803  58.196   7.349  1.00  0.00     0.174 C 
ATOM     13  O   UNL     1      52.493  60.041   8.921  1.00  0.00    -0.344 OA
ATOM     14  C   UNL     1      52.883  59.194   6.181  1.00  0.00     0.179 C 
ATOM     15  C   UNL     1      53.298  60.594   6.678  1.00  0.00     0.202 C 
BRANCH  12  16
ATOM     16  O   UNL     1      52.209  57.001   6.907  1.00  0.00    -0.388 OA
ATOM     17  H   UNL     1      51.343  57.247   6.490  1.00  0.00     0.211 HD
ENDBRANCH  12  16
BRANCH  14  18
ATOM     18  O   UNL     1      53.795  58.725   5.222  1.00  0.00    -0.387 OA
ATOM     19  H   UNL     1      54.344  58.026   5.667  1.00  0.00     0.211 HD
ENDBRANCH  14  18
BRANCH  15  20
ATOM     20  O   UNL     1      54.673  60.645   6.973  1.00  0.00    -0.385 OA
ATOM     21  H   UNL     1      54.778  60.813   7.945  1.00  0.00     0.211 HD
ENDBRANCH  15  20
ENDBRANCH   8   9
ENDBRANCH   7   8
ENDBRANCH   1   7
BRANCH   2  22
ATOM     22  O   UNL     1      48.995  59.637   6.997  1.00  0.00    -0.387 OA
ATOM     23  H   UNL     1      49.416  59.277   6.173  1.00  0.00     0.211 HD
ENDBRANCH   2  22
BRANCH   3  24
ATOM     24  O   UNL     1      46.872  59.999   5.345  1.00  0.00    -0.387 OA
ATOM     25  H   UNL     1      46.323  60.380   4.615  1.00  0.00     0.211 HD
ENDBRANCH   3  24
BRANCH   5  26
ATOM     26  O   UNL     1      47.895  62.326   3.499  1.00  0.00    -0.454 OA
BRANCH  26  27
ATOM     27  C   UNL     1      48.774  62.697   2.476  1.00  0.00     0.214 A 
ATOM     28  C   UNL     1      48.792  64.016   1.984  1.00  0.00     0.180 A 
ATOM     29  C   UNL     1      49.628  61.748   1.900  1.00  0.00     0.239 A 
ATOM     30  O   UNL     1      49.582  64.331   0.962  1.00  0.00    -0.452 OA
ATOM     31  C   UNL     1      50.465  62.122   0.829  1.00  0.00     0.111 A 
ATOM     32  O   UNL     1      49.630  60.570   2.348  1.00  0.00    -0.285 OA
ATOM     33  C   UNL     1      50.399  63.461   0.378  1.00  0.00     0.146 A 
ATOM     34  C   UNL     1      51.352  61.221   0.190  1.00  0.00     0.134 A 
ATOM     35  C   UNL     1      51.196  63.885  -0.689  1.00  0.00     0.094 A 
ATOM     36  C   UNL     1      52.145  61.668  -0.877  1.00  0.00     0.093 A 
ATOM     37  C   UNL     1      52.068  62.991  -1.318  1.00  0.00     0.123 A 
BRANCH  28  38
ATOM     38  C   UNL     1      47.926  65.069   2.550  1.00  0.00     0.025 A 
ATOM     39  C   UNL     1      48.443  66.332   2.883  1.00  0.00     0.062 A 
ATOM     40  C   UNL     1      46.556  64.823   2.722  1.00  0.00     0.016 A 
ATOM     41  C   UNL     1      47.610  67.320   3.429  1.00  0.00     0.158 A 
ATOM     42  C   UNL     1      45.723  65.808   3.259  1.00  0.00     0.051 A 
ATOM     43  C   UNL     1      46.244  67.054   3.621  1.00  0.00     0.157 A 
BRANCH  41  44
ATOM     44  O   UNL     1      48.137  68.560   3.783  1.00  0.00    -0.504 OA
ATOM     45  H   UNL     1      48.106  68.895   4.738  1.00  0.00     0.293 HD
ENDBRANCH  41  44
BRANCH  43  46
ATOM     46  O   UNL     1      45.393  68.013   4.169  1.00  0.00    -0.504 OA
ATOM     47  H   UNL     1      45.149  68.862   3.673  1.00  0.00     0.293 HD
ENDBRANCH  43  46
ENDBRANCH  28  38
BRANCH  34  48
ATOM     48  O   UNL     1      51.450  59.893   0.606  1.00  0.00    -0.507 OA
ATOM     49  H   UNL     1      51.753  59.159  -0.024  1.00  0.00     0.293 HD
ENDBRANCH  34  48
BRANCH  37  50
ATOM     50  O   UNL     1      52.864  63.406  -2.383  1.00  0.00    -0.508 OA
ATOM     51  H   UNL     1      53.264  64.338  -2.412  1.00  0.00     0.293 HD
ENDBRANCH  37  50
ENDBRANCH  26  27
ENDBRANCH   5  26
BRANCH   4  52
ATOM     52  O   UNL     1      46.622  63.313   6.771  1.00  0.00    -0.384 OA
ATOM     53  H   UNL     1      47.250  63.042   7.491  1.00  0.00     0.211 HD
ENDBRANCH   4  52
TORSDOF 16
ENDMDL
MODEL 2
REMARK VINA RESULT:    -9.709      1.679      2.284
REMARK INTER + INTRA:         -16.614
REMARK INTER:                 -15.166
REMARK INTRA:                  -1.448
REMARK UNBOUND:                -0.662
REMARK SMILES C[C@H]1O[C@H](OC[C@@H]2O[C@@H](Oc3c(-c4ccc(O)c(O)c4)oc4cc(O)cc(O)c4c3=O)[C@H](O)[C@@H](O)[C@H]2O)[C@@H](O)[C@@H](O)[C@@H]1O
REMARK SMILES IDX 7 1 36 2 34 3 32 4 9 5 8 6 6 7 5 8 4 9 1 10 2 11 42 12 3 13
REMARK SMILES IDX 40 14 38 15 43 16 41 18 39 20 37 22 35 24 10 26 11 27 12 28
REMARK SMILES IDX 30 29 21 30 29 31 31 32 22 33 27 34 23 35 26 36 24 37 13 38
REMARK SMILES IDX 20 39 14 40 18 41 15 42 16 43 19 44 17 46 28 48 25 50 33 52
REMARK H PARENT 43 17 41 19 39 21 37 23 35 25 19 45 17 47 28 49 25 51 33 53
REMARK Flexibility Score: inf
ROOT
ATOM      1  C   UNL     1      49.631  60.175   6.715  1.00  0.00     0.180 C 
ATOM      2  C   UNL     1      48.230  60.388   7.336  1.00  0.00     0.177 C 
ATOM      3  C   UNL     1      47.240  60.897   6.272  1.00  0.00     0.180 C 
ATOM      4  C   UNL     1      47.843  62.055   5.447  1.00  0.00     0.214 C 
ATOM      5  C   UNL     1      49.303  61.776   5.027  1.00  0.00     0.339 C 
ATOM      6  O   UNL     1      50.106  61.375   6.126  1.00  0.00    -0.332 OA
ENDROOT
BRANCH   1   7
ATOM      7  C   UNL     1      50.650  59.720   7.765  1.00  0.00     0.198 C 
BRANCH   7   8
ATOM      8  O   UNL     1      51.593  58.851   7.173  1.00  0.00    -0.347 OA
BRANCH   8   9
ATOM      9  C   UNL     1      52.516  59.566   6.362  1.00  0.00     0.281 C 
ATOM     10  C   UNL     1      54.644  60.910   9.048  1.00  0.00     0.041 C 
ATOM     11  C   UNL     1      53.993  59.834   8.175  1.00  0.00     0.150 C 
ATOM     12  C   UNL     1      55.066  58.900   7.572  1.00  0.00     0.174 C 
ATOM     13  O   UNL     1      53.254  60.485   7.153  1.00  0.00    -0.344 OA
ATOM     14  C   UNL     1      54.397  57.877   6.636  1.00  0.00     0.179 C 
ATOM     15  C   UNL     1      53.455  58.577   5.635  1.00  0.00     0.202 C 
BRANCH  12  16
ATOM     16  O   UNL     1      55.733  58.223   8.608  1.00  0.00    -0.388 OA
ATOM     17  H   UNL     1      56.340  58.880   9.038  1.00  0.00     0.211 HD
ENDBRANCH  12  16
BRANCH  14  18
ATOM     18  O   UNL     1      55.384  57.149   5.953  1.00  0.00    -0.387 OA
ATOM     19  H   UNL     1      54.913  56.441   5.440  1.00  0.00     0.211 HD
ENDBRANCH  14  18
BRANCH  15  20
ATOM     20  O   UNL     1      54.180  59.218   4.614  1.00  0.00    -0.385 OA
ATOM     21  H   UNL     1      54.526  60.077   4.968  1.00  0.00     0.211 HD
ENDBRANCH  15  20
ENDBRANCH   8   9
ENDBRANCH   7   8
ENDBRANCH   1   7
BRANCH   2  22
ATOM     22  O   UNL     1      47.745  59.187   7.884  1.00  0.00    -0.387 OA
ATOM     23  H   UNL     1      47.877  58.477   7.203  1.00  0.00     0.211 HD
ENDBRANCH   2  22
BRANCH   3  24
ATOM     24  O   UNL     1      46.774  59.859   5.440  1.00  0.00    -0.387 OA
ATOM     25  H   UNL     1      45.787  59.906   5.396  1.00  0.00     0.211 HD
ENDBRANCH   3  24
BRANCH   5  26
ATOM     26  O   UNL     1      49.377  60.819   3.967  1.00  0.00    -0.454 OA
BRANCH  26  27
ATOM     27  C   UNL     1      50.124  61.054   2.808  1.00  0.00     0.214 A 
ATOM     28  C   UNL     1      49.794  62.111   1.938  1.00  0.00     0.180 A 
ATOM     29  C   UNL     1      51.195  60.215   2.477  1.00  0.00     0.239 A 
ATOM     30  O   UNL     1      50.471  62.273   0.806  1.00  0.00    -0.452 OA
ATOM     31  C   UNL     1      51.902  60.427   1.275  1.00  0.00     0.111 A 
ATOM     32  O   UNL     1      51.508  59.277   3.259  1.00  0.00    -0.285 OA
ATOM     33  C   UNL     1      51.485  61.495   0.446  1.00  0.00     0.146 A 
ATOM     34  C   UNL     1      52.992  59.620   0.867  1.00  0.00     0.134 A 
ATOM     35  C   UNL     1      52.140  61.744  -0.763  1.00  0.00     0.094 A 
ATOM     36  C   UNL     1      53.637  59.889  -0.350  1.00  0.00     0.093 A 
ATOM     37  C   UNL     1      53.214  60.943  -1.163  1.00  0.00     0.123 A 
BRANCH  28  38
ATOM     38  C   UNL     1      48.684  63.040   2.230  1.00  0.00     0.025 A 
ATOM     39  C   UNL     1      48.929  64.382   2.559  1.00  0.00     0.062 A 
ATOM     40  C   UNL     1      47.358  62.588   2.137  1.00  0.00     0.016 A 
ATOM     41  C   UNL     1      47.864  65.251   2.842  1.00  0.00     0.158 A 
ATOM     42  C   UNL     1      46.297  63.453   2.412  1.00  0.00     0.051 A 
ATOM     43  C   UNL     1      46.542  64.781   2.773  1.00  0.00     0.157 A 
BRANCH  41  44
ATOM     44  O   UNL     1      48.117  66.574   3.197  1.00  0.00    -0.504 OA
ATOM     45  H   UNL     1      48.525  67.229   2.542  1.00  0.00     0.293 HD
ENDBRANCH  41  44
BRANCH  43  46
ATOM     46  O   UNL     1      45.464  65.618   3.056  1.00  0.00    -0.504 OA
ATOM     47  H   UNL     1      45.545  66.404   3.691  1.00  0.00     0.293 HD
ENDBRANCH  43  46
ENDBRANCH  28  38
BRANCH  34  48
ATOM     48  O   UNL     1      53.436  58.559   1.656  1.00  0.00    -0.507 OA
ATOM     49  H   UNL     1      53.567  58.658   2.656  1.00  0.00     0.293 HD
ENDBRANCH  34  48
BRANCH  37  50
ATOM     50  O   UNL     1      53.870  61.184  -2.368  1.00  0.00    -0.508 OA
ATOM     51  H   UNL     1      53.368  61.200  -3.249  1.00  0.00     0.293 HD
ENDBRANCH  37  50
ENDBRANCH  26  27
ENDBRANCH   5  26
BRANCH   4  52
ATOM     52  O   UNL     1      47.817  63.235   6.209  1.00  0.00    -0.384 OA
ATOM     53  H   UNL     1      48.760  63.521   6.335  1.00  0.00     0.211 HD
ENDBRANCH   4  52
TORSDOF 16
ENDMDL
MODEL 3
REMARK VINA RESULT:    -9.601      1.410      2.253
REMARK INTER + INTRA:         -16.438
REMARK INTER:                 -15.453
REMARK INTRA:                  -0.985
REMARK UNBOUND:                -0.662
REMARK SMILES C[C@H]1O[C@H](OC[C@@H]2O[C@@H](Oc3c(-c4ccc(O)c(O)c4)oc4cc(O)cc(O)c4c3=O)[C@H](O)[C@@H](O)[C@H]2O)[C@@H](O)[C@@H](O)[C@@H]1O
REMARK SMILES IDX 7 1 36 2 34 3 32 4 9 5 8 6 6 7 5 8 4 9 1 10 2 11 42 12 3 13
REMARK SMILES IDX 40 14 38 15 43 16 41 18 39 20 37 22 35 24 10 26 11 27 12 28
REMARK SMILES IDX 30 29 21 30 29 31 31 32 22 33 27 34 23 35 26 36 24 37 13 38
REMARK SMILES IDX 20 39 14 40 18 41 15 42 16 43 19 44 17 46 28 48 25 50 33 52
REMARK H PARENT 43 17 41 19 39 21 37 23 35 25 19 45 17 47 28 49 25 51 33 53
REMARK Flexibility Score: inf
ROOT
ATOM      1  C   UNL     1      49.914  60.560   6.229  1.00  0.00     0.180 C 
ATOM      2  C   UNL     1      48.749  60.369   7.229  1.00  0.00     0.177 C 
ATOM      3  C   UNL     1      47.398  60.649   6.543  1.00  0.00     0.180 C 
ATOM      4  C   UNL     1      47.438  61.961   5.730  1.00  0.00     0.214 C 
ATOM      5  C   UNL     1      48.733  62.095   4.899  1.00  0.00     0.339 C 
ATOM      6  O   UNL     1      49.895  61.868   5.681  1.00  0.00    -0.332 OA
ENDROOT
BRANCH   1   7
ATOM      7  C   UNL     1      51.274  60.341   6.899  1.00  0.00     0.198 C 
BRANCH   7   8
ATOM      8  O   UNL     1      51.834  59.120   6.460  1.00  0.00    -0.347 OA
BRANCH   8   9
ATOM      9  C   UNL     1      52.063  58.237   7.550  1.00  0.00     0.281 C 
ATOM     10  C   UNL     1      55.639  57.593   6.964  1.00  0.00     0.041 C 
ATOM     11  C   UNL     1      54.395  58.423   7.290  1.00  0.00     0.150 C 
ATOM     12  C   UNL     1      54.584  59.191   8.618  1.00  0.00     0.174 C 
ATOM     13  O   UNL     1      53.286  57.540   7.368  1.00  0.00    -0.344 OA
ATOM     14  C   UNL     1      53.294  59.954   8.965  1.00  0.00     0.179 C 
ATOM     15  C   UNL     1      52.064  59.027   8.878  1.00  0.00     0.202 C 
BRANCH  12  16
ATOM     16  O   UNL     1      55.647  60.102   8.484  1.00  0.00    -0.388 OA
ATOM     17  H   UNL     1      56.288  59.704   7.840  1.00  0.00     0.211 HD
ENDBRANCH  12  16
BRANCH  14  18
ATOM     18  O   UNL     1      53.403  60.502  10.254  1.00  0.00    -0.387 OA
ATOM     19  H   UNL     1      52.575  60.251  10.742  1.00  0.00     0.211 HD
ENDBRANCH  14  18
BRANCH  15  20
ATOM     20  O   UNL     1      51.994  58.164   9.987  1.00  0.00    -0.385 OA
ATOM     21  H   UNL     1      52.920  57.959  10.281  1.00  0.00     0.211 HD
ENDBRANCH  15  20
ENDBRANCH   8   9
ENDBRANCH   7   8
ENDBRANCH   1   7
BRANCH   2  22
ATOM     22  O   UNL     1      48.747  59.059   7.740  1.00  0.00    -0.387 OA
ATOM     23  H   UNL     1      47.799  58.771   7.809  1.00  0.00     0.211 HD
ENDBRANCH   2  22
BRANCH   3  24
ATOM     24  O   UNL     1      46.970  59.565   5.752  1.00  0.00    -0.387 OA
ATOM     25  H   UNL     1      47.648  59.395   5.052  1.00  0.00     0.211 HD
ENDBRANCH   3  24
BRANCH   5  26
ATOM     26  O   UNL     1      48.718  61.241   3.752  1.00  0.00    -0.454 OA
BRANCH  26  27
ATOM     27  C   UNL     1      49.523  61.487   2.634  1.00  0.00     0.214 A 
ATOM     28  C   UNL     1      49.338  62.643   1.852  1.00  0.00     0.180 A 
ATOM     29  C   UNL     1      50.506  60.564   2.256  1.00  0.00     0.239 A 
ATOM     30  O   UNL     1      50.064  62.822   0.753  1.00  0.00    -0.452 OA
ATOM     31  C   UNL     1      51.270  60.795   1.093  1.00  0.00     0.111 A 
ATOM     32  O   UNL     1      50.689  59.535   2.962  1.00  0.00    -0.285 OA
ATOM     33  C   UNL     1      50.999  61.968   0.350  1.00  0.00     0.146 A 
ATOM     34  C   UNL     1      52.278  59.908   0.642  1.00  0.00     0.134 A 
ATOM     35  C   UNL     1      51.715  62.242  -0.818  1.00  0.00     0.094 A 
ATOM     36  C   UNL     1      52.986  60.204  -0.532  1.00  0.00     0.093 A 
ATOM     37  C   UNL     1      52.708  61.362  -1.261  1.00  0.00     0.123 A 
BRANCH  28  38
ATOM     38  C   UNL     1      48.327  63.662   2.197  1.00  0.00     0.025 A 
ATOM     39  C   UNL     1      48.704  64.973   2.527  1.00  0.00     0.062 A 
ATOM     40  C   UNL     1      46.964  63.330   2.156  1.00  0.00     0.016 A 
ATOM     41  C   UNL     1      47.732  65.929   2.862  1.00  0.00     0.158 A 
ATOM     42  C   UNL     1      45.996  64.282   2.482  1.00  0.00     0.051 A 
ATOM     43  C   UNL     1      46.372  65.578   2.843  1.00  0.00     0.157 A 
BRANCH  41  44
ATOM     44  O   UNL     1      48.116  67.221   3.217  1.00  0.00    -0.504 OA
ATOM     45  H   UNL     1      48.060  67.545   4.175  1.00  0.00     0.293 HD
ENDBRANCH  41  44
BRANCH  43  46
ATOM     46  O   UNL     1      45.384  66.504   3.179  1.00  0.00    -0.504 OA
ATOM     47  H   UNL     1      45.417  67.465   2.860  1.00  0.00     0.293 HD
ENDBRANCH  43  46
ENDBRANCH  28  38
BRANCH  34  48
ATOM     48  O   UNL     1      52.578  58.742   1.347  1.00  0.00    -0.507 OA
ATOM     49  H   UNL     1      51.856  58.088   1.625  1.00  0.00     0.293 HD
ENDBRANCH  34  48
BRANCH  37  50
ATOM     50  O   UNL     1      53.424  61.629  -2.425  1.00  0.00    -0.508 OA
ATOM     51  H   UNL     1      52.955  61.887  -3.287  1.00  0.00     0.293 HD
ENDBRANCH  37  50
ENDBRANCH  26  27
ENDBRANCH   5  26
BRANCH   4  52
ATOM     52  O   UNL     1      47.358  63.057   6.607  1.00  0.00    -0.384 OA
ATOM     53  H   UNL     1      47.127  63.852   6.057  1.00  0.00     0.211 HD
ENDBRANCH   4  52
TORSDOF 16
ENDMDL
MODEL 4
REMARK VINA RESULT:    -9.385      2.160      7.343
REMARK INTER + INTRA:         -16.083
REMARK INTER:                 -14.854
REMARK INTRA:                  -1.229
REMARK UNBOUND:                -0.662
REMARK SMILES C[C@H]1O[C@H](OC[C@@H]2O[C@@H](Oc3c(-c4ccc(O)c(O)c4)oc4cc(O)cc(O)c4c3=O)[C@H](O)[C@@H](O)[C@H]2O)[C@@H](O)[C@@H](O)[C@@H]1O
REMARK SMILES IDX 7 1 36 2 34 3 32 4 9 5 8 6 6 7 5 8 4 9 1 10 2 11 42 12 3 13
REMARK SMILES IDX 40 14 38 15 43 16 41 18 39 20 37 22 35 24 10 26 11 27 12 28
REMARK SMILES IDX 30 29 21 30 29 31 31 32 22 33 27 34 23 35 26 36 24 37 13 38
REMARK SMILES IDX 20 39 14 40 18 41 15 42 16 43 19 44 17 46 28 48 25 50 33 52
REMARK H PARENT 43 17 41 19 39 21 37 23 35 25 19 45 17 47 28 49 25 51 33 53
REMARK Flexibility Score: inf
ROOT
ATOM      1  C   UNL     1      51.167  59.907   0.851  1.00  0.00     0.180 C 
ATOM      2  C   UNL     1      50.191  60.736  -0.017  1.00  0.00     0.177 C 
ATOM      3  C   UNL     1      49.568  61.876   0.812  1.00  0.00     0.180 C 
ATOM      4  C   UNL     1      49.059  61.367   2.179  1.00  0.00     0.214 C 
ATOM      5  C   UNL     1      50.069  60.419   2.863  1.00  0.00     0.339 C 
ATOM      6  O   UNL     1      50.505  59.387   1.993  1.00  0.00    -0.332 OA
ENDROOT
BRANCH   1   7
ATOM      7  C   UNL     1      51.761  58.732   0.065  1.00  0.00     0.198 C 
BRANCH   7   8
ATOM      8  O   UNL     1      52.362  59.204  -1.122  1.00  0.00    -0.347 OA
BRANCH   8   9
ATOM      9  C   UNL     1      53.776  59.074  -1.071  1.00  0.00     0.281 C 
ATOM     10  C   UNL     1      54.593  61.040  -4.074  1.00  0.00     0.041 C 
ATOM     11  C   UNL     1      54.051  60.784  -2.666  1.00  0.00     0.150 C 
ATOM     12  C   UNL     1      54.678  61.768  -1.653  1.00  0.00     0.174 C 
ATOM     13  O   UNL     1      54.348  59.440  -2.318  1.00  0.00    -0.344 OA
ATOM     14  C   UNL     1      54.180  61.441  -0.235  1.00  0.00     0.179 C 
ATOM     15  C   UNL     1      54.344  59.940   0.077  1.00  0.00     0.202 C 
BRANCH  12  16
ATOM     16  O   UNL     1      54.310  63.082  -1.989  1.00  0.00    -0.388 OA
ATOM     17  H   UNL     1      53.648  63.018  -2.725  1.00  0.00     0.211 HD
ENDBRANCH  12  16
BRANCH  14  18
ATOM     18  O   UNL     1      54.885  62.215   0.702  1.00  0.00    -0.387 OA
ATOM     19  H   UNL     1      54.418  62.106   1.572  1.00  0.00     0.211 HD
ENDBRANCH  14  18
BRANCH  15  20
ATOM     20  O   UNL     1      55.687  59.616   0.344  1.00  0.00    -0.385 OA
ATOM     21  H   UNL     1      56.192  59.652  -0.509  1.00  0.00     0.211 HD
ENDBRANCH  15  20
ENDBRANCH   8   9
ENDBRANCH   7   8
ENDBRANCH   1   7
BRANCH   2  22
ATOM     22  O   UNL     1      50.859  61.282  -1.127  1.00  0.00    -0.387 OA
ATOM     23  H   UNL     1      50.812  60.613  -1.859  1.00  0.00     0.211 HD
ENDBRANCH   2  22
BRANCH   3  24
ATOM     24  O   UNL     1      50.448  62.965   0.962  1.00  0.00    -0.387 OA
ATOM     25  H   UNL     1      51.001  63.042   0.146  1.00  0.00     0.211 HD
ENDBRANCH   3  24
BRANCH   5  26
ATOM     26  O   UNL     1      51.183  61.133   3.405  1.00  0.00    -0.454 OA
BRANCH  26  27
ATOM     27  C   UNL     1      51.448  61.159   4.779  1.00  0.00     0.214 A 
ATOM     28  C   UNL     1      50.644  61.913   5.655  1.00  0.00     0.180 A 
ATOM     29  C   UNL     1      52.545  60.460   5.298  1.00  0.00     0.239 A 
ATOM     30  O   UNL     1      50.956  61.983   6.945  1.00  0.00    -0.452 OA
ATOM     31  C   UNL     1      52.836  60.544   6.676  1.00  0.00     0.111 A 
ATOM     32  O   UNL     1      53.259  59.769   4.523  1.00  0.00    -0.285 OA
ATOM     33  C   UNL     1      51.992  61.346   7.479  1.00  0.00     0.146 A 
ATOM     34  C   UNL     1      53.928  59.872   7.277  1.00  0.00     0.134 A 
ATOM     35  C   UNL     1      52.241  61.477   8.848  1.00  0.00     0.094 A 
ATOM     36  C   UNL     1      54.158  60.015   8.653  1.00  0.00     0.093 A 
ATOM     37  C   UNL     1      53.322  60.814   9.437  1.00  0.00     0.123 A 
BRANCH  28  38
ATOM     38  C   UNL     1      49.467  62.666   5.177  1.00  0.00     0.025 A 
ATOM     39  C   UNL     1      49.611  63.754   4.301  1.00  0.00     0.062 A 
ATOM     40  C   UNL     1      48.181  62.265   5.568  1.00  0.00     0.016 A 
ATOM     41  C   UNL     1      48.484  64.466   3.862  1.00  0.00     0.158 A 
ATOM     42  C   UNL     1      47.058  62.968   5.126  1.00  0.00     0.051 A 
ATOM     43  C   UNL     1      47.202  64.072   4.281  1.00  0.00     0.157 A 
BRANCH  41  44
ATOM     44  O   UNL     1      48.636  65.563   3.017  1.00  0.00    -0.504 OA
ATOM     45  H   UNL     1      48.941  66.463   3.367  1.00  0.00     0.293 HD
ENDBRANCH  41  44
BRANCH  43  46
ATOM     46  O   UNL     1      46.064  64.764   3.868  1.00  0.00    -0.504 OA
ATOM     47  H   UNL     1      45.181  64.297   3.702  1.00  0.00     0.293 HD
ENDBRANCH  43  46
ENDBRANCH  28  38
BRANCH  34  48
ATOM     48  O   UNL     1      54.782  59.069   6.521  1.00  0.00    -0.507 OA
ATOM     49  H   UNL     1      54.440  58.504   5.752  1.00  0.00     0.293 HD
ENDBRANCH  34  48
BRANCH  37  50
ATOM     50  O   UNL     1      53.576  60.942  10.800  1.00  0.00    -0.508 OA
ATOM     51  H   UNL     1      53.415  60.174  11.443  1.00  0.00     0.293 HD
ENDBRANCH  37  50
ENDBRANCH  26  27
ENDBRANCH   5  26
BRANCH   4  52
ATOM     52  O   UNL     1      47.850  60.674   1.999  1.00  0.00    -0.384 OA
ATOM     53  H   UNL     1      47.144  61.356   1.848  1.00  0.00     0.211 HD
ENDBRANCH   4  52
TORSDOF 16
ENDMDL
MODEL 5
REMARK VINA RESULT:    -9.289      2.286      7.153
REMARK INTER + INTRA:         -15.924
REMARK INTER:                 -15.348
REMARK INTRA:                  -0.576
REMARK UNBOUND:                -0.662
REMARK SMILES C[C@H]1O[C@H](OC[C@@H]2O[C@@H](Oc3c(-c4ccc(O)c(O)c4)oc4cc(O)cc(O)c4c3=O)[C@H](O)[C@@H](O)[C@H]2O)[C@@H](O)[C@@H](O)[C@@H]1O
REMARK SMILES IDX 7 1 36 2 34 3 32 4 9 5 8 6 6 7 5 8 4 9 1 10 2 11 42 12 3 13
REMARK SMILES IDX 40 14 38 15 43 16 41 18 39 20 37 22 35 24 10 26 11 27 12 28
REMARK SMILES IDX 30 29 21 30 29 31 31 32 22 33 27 34 23 35 26 36 24 37 13 38
REMARK SMILES IDX 20 39 14 40 18 41 15 42 16 43 19 44 17 46 28 48 25 50 33 52
REMARK H PARENT 43 17 41 19 39 21 37 23 35 25 19 45 17 47 28 49 25 51 33 53
REMARK Flexibility Score: inf
ROOT
ATOM      1  C   UNL     1      50.568  61.747   1.026  1.00  0.00     0.180 C 
ATOM      2  C   UNL     1      50.296  62.865  -0.007  1.00  0.00     0.177 C 
ATOM      3  C   UNL     1      49.635  64.079   0.673  1.00  0.00     0.180 C 
ATOM      4  C   UNL     1      48.467  63.647   1.588  1.00  0.00     0.214 C 
ATOM      5  C   UNL     1      48.825  62.417   2.451  1.00  0.00     0.339 C 
ATOM      6  O   UNL     1      49.367  61.361   1.675  1.00  0.00    -0.332 OA
ENDROOT
BRANCH   1   7
ATOM      7  C   UNL     1      51.176  60.505   0.366  1.00  0.00     0.198 C 
BRANCH   7   8
ATOM      8  O   UNL     1      52.548  60.412   0.691  1.00  0.00    -0.347 OA
BRANCH   8   9
ATOM      9  C   UNL     1      53.365  60.656  -0.447  1.00  0.00     0.281 C 
ATOM     10  C   UNL     1      55.640  57.785  -0.083  1.00  0.00     0.041 C 
ATOM     11  C   UNL     1      54.306  58.503  -0.306  1.00  0.00     0.150 C 
ATOM     12  C   UNL     1      53.634  58.012  -1.607  1.00  0.00     0.174 C 
ATOM     13  O   UNL     1      54.562  59.898  -0.361  1.00  0.00    -0.344 OA
ATOM     14  C   UNL     1      52.336  58.803  -1.852  1.00  0.00     0.179 C 
ATOM     15  C   UNL     1      52.584  60.321  -1.738  1.00  0.00     0.202 C 
BRANCH  12  16
ATOM     16  O   UNL     1      53.335  56.643  -1.492  1.00  0.00    -0.388 OA
ATOM     17  H   UNL     1      54.171  56.147  -1.694  1.00  0.00     0.211 HD
ENDBRANCH  12  16
BRANCH  14  18
ATOM     18  O   UNL     1      51.823  58.485  -3.120  1.00  0.00    -0.387 OA
ATOM     19  H   UNL     1      52.367  58.987  -3.782  1.00  0.00     0.211 HD
ENDBRANCH  14  18
BRANCH  15  20
ATOM     20  O   UNL     1      53.244  60.818  -2.877  1.00  0.00    -0.385 OA
ATOM     21  H   UNL     1      53.673  61.680  -2.637  1.00  0.00     0.211 HD
ENDBRANCH  15  20
ENDBRANCH   8   9
ENDBRANCH   7   8
ENDBRANCH   1   7
BRANCH   2  22
ATOM     22  O   UNL     1      51.494  63.274  -0.620  1.00  0.00    -0.387 OA
ATOM     23  H   UNL     1      51.717  62.597  -1.311  1.00  0.00     0.211 HD
ENDBRANCH   2  22
BRANCH   3  24
ATOM     24  O   UNL     1      50.568  64.872   1.369  1.00  0.00    -0.387 OA
ATOM     25  H   UNL     1      50.897  65.581   0.762  1.00  0.00     0.211 HD
ENDBRANCH   3  24
BRANCH   5  26
ATOM     26  O   UNL     1      49.702  62.760   3.526  1.00  0.00    -0.454 OA
BRANCH  26  27
ATOM     27  C   UNL     1      49.896  61.913   4.623  1.00  0.00     0.214 A 
ATOM     28  C   UNL     1      48.803  61.450   5.379  1.00  0.00     0.180 A 
ATOM     29  C   UNL     1      51.191  61.542   5.006  1.00  0.00     0.239 A 
ATOM     30  O   UNL     1      49.014  60.705   6.460  1.00  0.00    -0.452 OA
ATOM     31  C   UNL     1      51.376  60.737   6.149  1.00  0.00     0.111 A 
ATOM     32  O   UNL     1      52.174  61.938   4.324  1.00  0.00    -0.285 OA
ATOM     33  C   UNL     1      50.224  60.338   6.867  1.00  0.00     0.146 A 
ATOM     34  C   UNL     1      52.651  60.322   6.605  1.00  0.00     0.134 A 
ATOM     35  C   UNL     1      50.347  59.551   8.015  1.00  0.00     0.094 A 
ATOM     36  C   UNL     1      52.753  59.530   7.758  1.00  0.00     0.093 A 
ATOM     37  C   UNL     1      51.609  59.147   8.463  1.00  0.00     0.123 A 
BRANCH  28  38
ATOM     38  C   UNL     1      47.411  61.794   5.026  1.00  0.00     0.025 A 
ATOM     39  C   UNL     1      46.466  60.795   4.748  1.00  0.00     0.062 A 
ATOM     40  C   UNL     1      47.013  63.139   5.009  1.00  0.00     0.016 A 
ATOM     41  C   UNL     1      45.149  61.138   4.405  1.00  0.00     0.158 A 
ATOM     42  C   UNL     1      45.700  63.482   4.675  1.00  0.00     0.051 A 
ATOM     43  C   UNL     1      44.767  62.489   4.364  1.00  0.00     0.157 A 
BRANCH  41  44
ATOM     44  O   UNL     1      44.224  60.141   4.101  1.00  0.00    -0.504 OA
ATOM     45  H   UNL     1      44.445  59.392   3.458  1.00  0.00     0.293 HD
ENDBRANCH  41  44
BRANCH  43  46
ATOM     46  O   UNL     1      43.468  62.862   4.019  1.00  0.00    -0.504 OA
ATOM     47  H   UNL     1      42.968  62.423   3.256  1.00  0.00     0.293 HD
ENDBRANCH  43  46
ENDBRANCH  28  38
BRANCH  34  48
ATOM     48  O   UNL     1      53.812  60.691   5.925  1.00  0.00    -0.507 OA
ATOM     49  H   UNL     1      53.781  61.069   4.985  1.00  0.00     0.293 HD
ENDBRANCH  34  48
BRANCH  37  50
ATOM     50  O   UNL     1      51.739  58.364   9.607  1.00  0.00    -0.508 OA
ATOM     51  H   UNL     1      52.478  57.675   9.696  1.00  0.00     0.293 HD
ENDBRANCH  37  50
ENDBRANCH  26  27
ENDBRANCH   5  26
BRANCH   4  52
ATOM     52  O   UNL     1      47.349  63.327   0.799  1.00  0.00    -0.384 OA
ATOM     53  H   UNL     1      47.348  63.955   0.029  1.00  0.00     0.211 HD
ENDBRANCH   4  52
TORSDOF 16
ENDMDL
MODEL 6
REMARK VINA RESULT:    -9.287      2.200      6.967
REMARK INTER + INTRA:         -15.921
REMARK INTER:                 -15.357
REMARK INTRA:                  -0.564
REMARK UNBOUND:                -0.662
REMARK SMILES C[C@H]1O[C@H](OC[C@@H]2O[C@@H](Oc3c(-c4ccc(O)c(O)c4)oc4cc(O)cc(O)c4c3=O)[C@H](O)[C@@H](O)[C@H]2O)[C@@H](O)[C@@H](O)[C@@H]1O
REMARK SMILES IDX 7 1 36 2 34 3 32 4 9 5 8 6 6 7 5 8 4 9 1 10 2 11 42 12 3 13
REMARK SMILES IDX 40 14 38 15 43 16 41 18 39 20 37 22 35 24 10 26 11 27 12 28
REMARK SMILES IDX 30 29 21 30 29 31 31 32 22 33 27 34 23 35 26 36 24 37 13 38
REMARK SMILES IDX 20 39 14 40 18 41 15 42 16 43 19 44 17 46 28 48 25 50 33 52
REMARK H PARENT 43 17 41 19 39 21 37 23 35 25 19 45 17 47 28 49 25 51 33 53
REMARK Flexibility Score: inf
ROOT
ATOM      1  C   UNL     1      50.114  61.646   1.150  1.00  0.00     0.180 C 
ATOM      2  C   UNL     1      50.173  62.730   0.047  1.00  0.00     0.177 C 
ATOM      3  C   UNL     1      49.668  64.080   0.591  1.00  0.00     0.180 C 
ATOM      4  C   UNL     1      48.343  63.917   1.367  1.00  0.00     0.214 C 
ATOM      5  C   UNL     1      48.368  62.699   2.316  1.00  0.00     0.339 C 
ATOM      6  O   UNL     1      48.796  61.518   1.657  1.00  0.00    -0.332 OA
ENDROOT
BRANCH   1   7
ATOM      7  C   UNL     1      50.560  60.279   0.621  1.00  0.00     0.198 C 
BRANCH   7   8
ATOM      8  O   UNL     1      50.697  60.330  -0.784  1.00  0.00    -0.347 OA
BRANCH   8   9
ATOM      9  C   UNL     1      51.450  59.226  -1.269  1.00  0.00     0.281 C 
ATOM     10  C   UNL     1      54.242  61.107  -2.758  1.00  0.00     0.041 C 
ATOM     11  C   UNL     1      53.330  60.594  -1.641  1.00  0.00     0.150 C 
ATOM     12  C   UNL     1      54.160  59.933  -0.518  1.00  0.00     0.174 C 
ATOM     13  O   UNL     1      52.417  59.667  -2.210  1.00  0.00    -0.344 OA
ATOM     14  C   UNL     1      53.220  59.355   0.553  1.00  0.00     0.179 C 
ATOM     15  C   UNL     1      52.119  58.485  -0.088  1.00  0.00     0.202 C 
BRANCH  12  16
ATOM     16  O   UNL     1      55.004  60.894   0.066  1.00  0.00    -0.388 OA
ATOM     17  H   UNL     1      54.931  60.783   1.049  1.00  0.00     0.211 HD
ENDBRANCH  12  16
BRANCH  14  18
ATOM     18  O   UNL     1      53.963  58.602   1.476  1.00  0.00    -0.387 OA
ATOM     19  H   UNL     1      54.707  58.181   0.968  1.00  0.00     0.211 HD
ENDBRANCH  14  18
BRANCH  15  20
ATOM     20  O   UNL     1      52.625  57.235  -0.490  1.00  0.00    -0.385 OA
ATOM     21  H   UNL     1      52.376  57.089  -1.440  1.00  0.00     0.211 HD
ENDBRANCH  15  20
ENDBRANCH   8   9
ENDBRANCH   7   8
ENDBRANCH   1   7
BRANCH   2  22
ATOM     22  O   UNL     1      51.488  62.883  -0.426  1.00  0.00    -0.387 OA
ATOM     23  H   UNL     1      52.037  62.169  -0.008  1.00  0.00     0.211 HD
ENDBRANCH   2  22
BRANCH   3  24
ATOM     24  O   UNL     1      50.643  64.738   1.366  1.00  0.00    -0.387 OA
ATOM     25  H   UNL     1      50.258  65.581   1.713  1.00  0.00     0.211 HD
ENDBRANCH   3  24
BRANCH   5  26
ATOM     26  O   UNL     1      49.161  62.948   3.479  1.00  0.00    -0.454 OA
BRANCH  26  27
ATOM     27  C   UNL     1      49.231  62.035   4.537  1.00  0.00     0.214 A 
ATOM     28  C   UNL     1      48.066  61.612   5.204  1.00  0.00     0.180 A 
ATOM     29  C   UNL     1      50.473  61.555   4.973  1.00  0.00     0.239 A 
ATOM     30  O   UNL     1      48.160  60.801   6.253  1.00  0.00    -0.452 OA
ATOM     31  C   UNL     1      50.534  60.682   6.079  1.00  0.00     0.111 A 
ATOM     32  O   UNL     1      51.519  61.915   4.370  1.00  0.00    -0.285 OA
ATOM     33  C   UNL     1      49.316  60.330   6.708  1.00  0.00     0.146 A 
ATOM     34  C   UNL     1      51.748  60.156   6.584  1.00  0.00     0.134 A 
ATOM     35  C   UNL     1      49.317  59.480   7.817  1.00  0.00     0.094 A 
ATOM     36  C   UNL     1      51.726  59.303   7.696  1.00  0.00     0.093 A 
ATOM     37  C   UNL     1      50.519  58.966   8.312  1.00  0.00     0.123 A 
BRANCH  28  38
ATOM     38  C   UNL     1      46.724  62.071   4.792  1.00  0.00     0.025 A 
ATOM     39  C   UNL     1      46.405  63.438   4.758  1.00  0.00     0.062 A 
ATOM     40  C   UNL     1      45.763  61.133   4.387  1.00  0.00     0.016 A 
ATOM     41  C   UNL     1      45.123  63.860   4.373  1.00  0.00     0.158 A 
ATOM     42  C   UNL     1      44.489  61.551   3.997  1.00  0.00     0.051 A 
ATOM     43  C   UNL     1      44.160  62.910   3.995  1.00  0.00     0.157 A 
BRANCH  41  44
ATOM     44  O   UNL     1      44.805  65.216   4.370  1.00  0.00    -0.504 OA
ATOM     45  H   UNL     1      45.272  65.871   4.984  1.00  0.00     0.293 HD
ENDBRANCH  41  44
BRANCH  43  46
ATOM     46  O   UNL     1      42.875  63.297   3.615  1.00  0.00    -0.504 OA
ATOM     47  H   UNL     1      42.317  63.931   4.174  1.00  0.00     0.293 HD
ENDBRANCH  43  46
ENDBRANCH  28  38
BRANCH  34  48
ATOM     48  O   UNL     1      52.970  60.476   5.991  1.00  0.00    -0.507 OA
ATOM     49  H   UNL     1      53.830  60.510   6.527  1.00  0.00     0.293 HD
ENDBRANCH  34  48
BRANCH  37  50
ATOM     50  O   UNL     1      50.526  58.119   9.418  1.00  0.00    -0.508 OA
ATOM     51  H   UNL     1      49.670  57.718   9.783  1.00  0.00     0.293 HD
ENDBRANCH  37  50
ENDBRANCH  26  27
ENDBRANCH   5  26
BRANCH   4  52
ATOM     52  O   UNL     1      47.285  63.751   0.457  1.00  0.00    -0.384 OA
ATOM     53  H   UNL     1      46.474  63.539   0.990  1.00  0.00     0.211 HD
ENDBRANCH   4  52
TORSDOF 16
ENDMDL
MODEL 7
REMARK VINA RESULT:    -9.061      2.256      7.637
REMARK INTER + INTRA:         -15.550
REMARK INTER:                 -13.663
REMARK INTRA:                  -1.888
REMARK UNBOUND:                -0.662
REMARK SMILES C[C@H]1O[C@H](OC[C@@H]2O[C@@H](Oc3c(-c4ccc(O)c(O)c4)oc4cc(O)cc(O)c4c3=O)[C@H](O)[C@@H](O)[C@H]2O)[C@@H](O)[C@@H](O)[C@@H]1O
REMARK SMILES IDX 7 1 36 2 34 3 32 4 9 5 8 6 6 7 5 8 4 9 1 10 2 11 42 12 3 13
REMARK SMILES IDX 40 14 38 15 43 16 41 18 39 20 37 22 35 24 10 26 11 27 12 28
REMARK SMILES IDX 30 29 21 30 29 31 31 32 22 33 27 34 23 35 26 36 24 37 13 38
REMARK SMILES IDX 20 39 14 40 18 41 15 42 16 43 19 44 17 46 28 48 25 50 33 52
REMARK H PARENT 43 17 41 19 39 21 37 23 35 25 19 45 17 47 28 49 25 51 33 53
REMARK Flexibility Score: inf
ROOT
ATOM      1  C   UNL     1      46.903  62.727   4.461  1.00  0.00     0.180 C 
ATOM      2  C   UNL     1      46.616  62.530   5.968  1.00  0.00     0.177 C 
ATOM      3  C   UNL     1      47.713  61.666   6.618  1.00  0.00     0.180 C 
ATOM      4  C   UNL     1      48.015  60.408   5.775  1.00  0.00     0.214 C 
ATOM      5  C   UNL     1      48.117  60.725   4.267  1.00  0.00     0.339 C 
ATOM      6  O   UNL     1      47.006  61.474   3.803  1.00  0.00    -0.332 OA
ENDROOT
BRANCH   1   7
ATOM      7  C   UNL     1      45.797  63.538   3.777  1.00  0.00     0.198 C 
BRANCH   7   8
ATOM      8  O   UNL     1      45.884  64.892   4.168  1.00  0.00    -0.347 OA
BRANCH   8   9
ATOM      9  C   UNL     1      46.194  65.730   3.062  1.00  0.00     0.281 C 
ATOM     10  C   UNL     1      42.875  67.257   2.615  1.00  0.00     0.041 C 
ATOM     11  C   UNL     1      44.187  66.930   3.332  1.00  0.00     0.150 C 
ATOM     12  C   UNL     1      44.902  68.224   3.780  1.00  0.00     0.174 C 
ATOM     13  O   UNL     1      45.001  66.182   2.441  1.00  0.00    -0.344 OA
ATOM     14  C   UNL     1      46.253  67.875   4.427  1.00  0.00     0.179 C 
ATOM     15  C   UNL     1      47.065  66.919   3.529  1.00  0.00     0.202 C 
BRANCH  12  16
ATOM     16  O   UNL     1      44.097  68.905   4.710  1.00  0.00    -0.388 OA
ATOM     17  H   UNL     1      43.342  69.303   4.203  1.00  0.00     0.211 HD
ENDBRANCH  12  16
BRANCH  14  18
ATOM     18  O   UNL     1      46.978  69.053   4.668  1.00  0.00    -0.387 OA
ATOM     19  H   UNL     1      47.413  68.945   5.554  1.00  0.00     0.211 HD
ENDBRANCH  14  18
BRANCH  15  20
ATOM     20  O   UNL     1      47.628  67.600   2.435  1.00  0.00    -0.385 OA
ATOM     21  H   UNL     1      47.028  68.351   2.192  1.00  0.00     0.211 HD
ENDBRANCH  15  20
ENDBRANCH   8   9
ENDBRANCH   7   8
ENDBRANCH   1   7
BRANCH   2  22
ATOM     22  O   UNL     1      46.554  63.772   6.625  1.00  0.00    -0.387 OA
ATOM     23  H   UNL     1      46.978  64.443   6.029  1.00  0.00     0.211 HD
ENDBRANCH   2  22
BRANCH   3  24
ATOM     24  O   UNL     1      48.884  62.404   6.880  1.00  0.00    -0.387 OA
ATOM     25  H   UNL     1      48.628  63.283   7.256  1.00  0.00     0.211 HD
ENDBRANCH   3  24
BRANCH   5  26
ATOM     26  O   UNL     1      49.345  61.385   3.946  1.00  0.00    -0.454 OA
BRANCH  26  27
ATOM     27  C   UNL     1      50.421  60.704   3.366  1.00  0.00     0.214 A 
ATOM     28  C   UNL     1      51.559  60.372   4.125  1.00  0.00     0.180 A 
ATOM     29  C   UNL     1      50.396  60.374   2.005  1.00  0.00     0.239 A 
ATOM     30  O   UNL     1      52.601  59.791   3.539  1.00  0.00    -0.452 OA
ATOM     31  C   UNL     1      51.513  59.743   1.419  1.00  0.00     0.111 A 
ATOM     32  O   UNL     1      49.374  60.653   1.322  1.00  0.00    -0.285 OA
ATOM     33  C   UNL     1      52.625  59.470   2.250  1.00  0.00     0.146 A 
ATOM     34  C   UNL     1      51.568  59.381   0.051  1.00  0.00     0.134 A 
ATOM     35  C   UNL     1      53.765  58.858   1.721  1.00  0.00     0.094 A 
ATOM     36  C   UNL     1      52.720  58.765  -0.459  1.00  0.00     0.093 A 
ATOM     37  C   UNL     1      53.815  58.505   0.369  1.00  0.00     0.123 A 
BRANCH  28  38
ATOM     38  C   UNL     1      51.649  60.681   5.566  1.00  0.00     0.025 A 
ATOM     39  C   UNL     1      51.267  59.739   6.535  1.00  0.00     0.062 A 
ATOM     40  C   UNL     1      52.163  61.920   5.980  1.00  0.00     0.016 A 
ATOM     41  C   UNL     1      51.350  60.050   7.901  1.00  0.00     0.158 A 
ATOM     42  C   UNL     1      52.252  62.229   7.339  1.00  0.00     0.051 A 
ATOM     43  C   UNL     1      51.841  61.304   8.303  1.00  0.00     0.157 A 
BRANCH  41  44
ATOM     44  O   UNL     1      50.942  59.121   8.855  1.00  0.00    -0.504 OA
ATOM     45  H   UNL     1      51.609  58.636   9.441  1.00  0.00     0.293 HD
ENDBRANCH  41  44
BRANCH  43  46
ATOM     46  O   UNL     1      51.928  61.645   9.652  1.00  0.00    -0.504 OA
ATOM     47  H   UNL     1      51.436  62.443  10.038  1.00  0.00     0.293 HD
ENDBRANCH  43  46
ENDBRANCH  28  38
BRANCH  34  48
ATOM     48  O   UNL     1      50.491  59.630  -0.801  1.00  0.00    -0.507 OA
ATOM     49  H   UNL     1      49.649  60.091  -0.476  1.00  0.00     0.293 HD
ENDBRANCH  34  48
BRANCH  37  50
ATOM     50  O   UNL     1      54.948  57.897  -0.164  1.00  0.00    -0.508 OA
ATOM     51  H   UNL     1      55.879  58.252   0.027  1.00  0.00     0.293 HD
ENDBRANCH  37  50
ENDBRANCH  26  27
ENDBRANCH   5  26
BRANCH   4  52
ATOM     52  O   UNL     1      46.991  59.463   5.962  1.00  0.00    -0.384 OA
ATOM     53  H   UNL     1      46.607  59.270   5.066  1.00  0.00     0.211 HD
ENDBRANCH   4  52
TORSDOF 16
ENDMDL
MODEL 8
REMARK VINA RESULT:    -8.986      2.145      3.738
REMARK INTER + INTRA:         -15.427
REMARK INTER:                 -14.306
REMARK INTRA:                  -1.120
REMARK UNBOUND:                -0.662
REMARK SMILES C[C@H]1O[C@H](OC[C@@H]2O[C@@H](Oc3c(-c4ccc(O)c(O)c4)oc4cc(O)cc(O)c4c3=O)[C@H](O)[C@@H](O)[C@H]2O)[C@@H](O)[C@@H](O)[C@@H]1O
REMARK SMILES IDX 7 1 36 2 34 3 32 4 9 5 8 6 6 7 5 8 4 9 1 10 2 11 42 12 3 13
REMARK SMILES IDX 40 14 38 15 43 16 41 18 39 20 37 22 35 24 10 26 11 27 12 28
REMARK SMILES IDX 30 29 21 30 29 31 31 32 22 33 27 34 23 35 26 36 24 37 13 38
REMARK SMILES IDX 20 39 14 40 18 41 15 42 16 43 19 44 17 46 28 48 25 50 33 52
REMARK H PARENT 43 17 41 19 39 21 37 23 35 25 19 45 17 47 28 49 25 51 33 53
REMARK Flexibility Score: inf
ROOT
ATOM      1  C   UNL     1      50.943  59.182   6.171  1.00  0.00     0.180 C 
ATOM      2  C   UNL     1      50.243  60.241   7.055  1.00  0.00     0.177 C 
ATOM      3  C   UNL     1      49.946  61.514   6.239  1.00  0.00     0.180 C 
ATOM      4  C   UNL     1      51.178  61.961   5.422  1.00  0.00     0.214 C 
ATOM      5  C   UNL     1      51.876  60.776   4.720  1.00  0.00     0.339 C 
ATOM      6  O   UNL     1      52.137  59.705   5.613  1.00  0.00    -0.332 OA
ENDROOT
BRANCH   1   7
ATOM      7  C   UNL     1      51.299  57.925   6.973  1.00  0.00     0.198 C 
BRANCH   7   8
ATOM      8  O   UNL     1      52.696  57.861   7.169  1.00  0.00    -0.347 OA
BRANCH   8   9
ATOM      9  C   UNL     1      53.019  57.750   8.549  1.00  0.00     0.281 C 
ATOM     10  C   UNL     1      56.365  59.281   8.430  1.00  0.00     0.041 C 
ATOM     11  C   UNL     1      54.840  59.221   8.302  1.00  0.00     0.150 C 
ATOM     12  C   UNL     1      54.179  60.342   9.135  1.00  0.00     0.174 C 
ATOM     13  O   UNL     1      54.412  57.941   8.743  1.00  0.00    -0.344 OA
ATOM     14  C   UNL     1      52.648  60.214   9.055  1.00  0.00     0.179 C 
ATOM     15  C   UNL     1      52.197  58.772   9.366  1.00  0.00     0.202 C 
BRANCH  12  16
ATOM     16  O   UNL     1      54.573  61.594   8.630  1.00  0.00    -0.388 OA
ATOM     17  H   UNL     1      54.963  61.434   7.732  1.00  0.00     0.211 HD
ENDBRANCH  12  16
BRANCH  14  18
ATOM     18  O   UNL     1      52.053  61.116   9.952  1.00  0.00    -0.387 OA
ATOM     19  H   UNL     1      52.702  61.856  10.087  1.00  0.00     0.211 HD
ENDBRANCH  14  18
BRANCH  15  20
ATOM     20  O   UNL     1      52.269  58.499  10.744  1.00  0.00    -0.385 OA
ATOM     21  H   UNL     1      53.188  58.703  11.056  1.00  0.00     0.211 HD
ENDBRANCH  15  20
ENDBRANCH   8   9
ENDBRANCH   7   8
ENDBRANCH   1   7
BRANCH   2  22
ATOM     22  O   UNL     1      49.039  59.734   7.576  1.00  0.00    -0.387 OA
ATOM     23  H   UNL     1      48.818  60.267   8.383  1.00  0.00     0.211 HD
ENDBRANCH   2  22
BRANCH   3  24
ATOM     24  O   UNL     1      48.810  61.366   5.419  1.00  0.00    -0.387 OA
ATOM     25  H   UNL     1      48.998  60.673   4.739  1.00  0.00     0.211 HD
ENDBRANCH   3  24
BRANCH   5  26
ATOM     26  O   UNL     1      51.135  60.321   3.584  1.00  0.00    -0.454 OA
BRANCH  26  27
ATOM     27  C   UNL     1      51.607  60.488   2.277  1.00  0.00     0.214 A 
ATOM     28  C   UNL     1      50.950  61.348   1.377  1.00  0.00     0.180 A 
ATOM     29  C   UNL     1      52.725  59.770   1.834  1.00  0.00     0.239 A 
ATOM     30  O   UNL     1      51.370  61.436   0.119  1.00  0.00    -0.452 OA
ATOM     31  C   UNL     1      53.153  59.901   0.497  1.00  0.00     0.111 A 
ATOM     32  O   UNL     1      53.329  59.012   2.640  1.00  0.00    -0.285 OA
ATOM     33  C   UNL     1      52.418  60.766  -0.347  1.00  0.00     0.146 A 
ATOM     34  C   UNL     1      54.270  59.207  -0.029  1.00  0.00     0.134 A 
ATOM     35  C   UNL     1      52.788  60.925  -1.685  1.00  0.00     0.094 A 
ATOM     36  C   UNL     1      54.626  59.383  -1.374  1.00  0.00     0.093 A 
ATOM     37  C   UNL     1      53.890  60.235  -2.201  1.00  0.00     0.123 A 
BRANCH  28  38
ATOM     38  C   UNL     1      49.772  62.142   1.779  1.00  0.00     0.025 A 
ATOM     39  C   UNL     1      49.838  63.541   1.870  1.00  0.00     0.062 A 
ATOM     40  C   UNL     1      48.553  61.495   2.036  1.00  0.00     0.016 A 
ATOM     41  C   UNL     1      48.712  64.282   2.263  1.00  0.00     0.158 A 
ATOM     42  C   UNL     1      47.430  62.231   2.420  1.00  0.00     0.051 A 
ATOM     43  C   UNL     1      47.504  63.622   2.543  1.00  0.00     0.157 A 
BRANCH  41  44
ATOM     44  O   UNL     1      48.794  65.668   2.379  1.00  0.00    -0.504 OA
ATOM     45  H   UNL     1      49.374  66.218   1.758  1.00  0.00     0.293 HD
ENDBRANCH  41  44
BRANCH  43  46
ATOM     46  O   UNL     1      46.371  64.330   2.943  1.00  0.00    -0.504 OA
ATOM     47  H   UNL     1      46.382  64.957   3.738  1.00  0.00     0.293 HD
ENDBRANCH  43  46
ENDBRANCH  28  38
BRANCH  34  48
ATOM     48  O   UNL     1      55.023  58.347   0.771  1.00  0.00    -0.507 OA
ATOM     49  H   UNL     1      54.686  57.426   1.028  1.00  0.00     0.293 HD
ENDBRANCH  34  48
BRANCH  37  50
ATOM     50  O   UNL     1      54.263  60.388  -3.533  1.00  0.00    -0.508 OA
ATOM     51  H   UNL     1      55.137  60.011  -3.885  1.00  0.00     0.293 HD
ENDBRANCH  37  50
ENDBRANCH  26  27
ENDBRANCH   5  26
BRANCH   4  52
ATOM     52  O   UNL     1      52.107  62.580   6.278  1.00  0.00    -0.384 OA
ATOM     53  H   UNL     1      51.750  62.499   7.201  1.00  0.00     0.211 HD
ENDBRANCH   4  52
TORSDOF 16
ENDMDL
MODEL 9
REMARK VINA RESULT:    -8.711      1.854      7.215
REMARK INTER + INTRA:         -14.974
REMARK INTER:                 -13.029
REMARK INTRA:                  -1.945
REMARK UNBOUND:                -0.662
REMARK SMILES C[C@H]1O[C@H](OC[C@@H]2O[C@@H](Oc3c(-c4ccc(O)c(O)c4)oc4cc(O)cc(O)c4c3=O)[C@H](O)[C@@H](O)[C@H]2O)[C@@H](O)[C@@H](O)[C@@H]1O
REMARK SMILES IDX 7 1 36 2 34 3 32 4 9 5 8 6 6 7 5 8 4 9 1 10 2 11 42 12 3 13
REMARK SMILES IDX 40 14 38 15 43 16 41 18 39 20 37 22 35 24 10 26 11 27 12 28
REMARK SMILES IDX 30 29 21 30 29 31 31 32 22 33 27 34 23 35 26 36 24 37 13 38
REMARK SMILES IDX 20 39 14 40 18 41 15 42 16 43 19 44 17 46 28 48 25 50 33 52
REMARK H PARENT 43 17 41 19 39 21 37 23 35 25 19 45 17 47 28 49 25 51 33 53
REMARK Flexibility Score: inf
ROOT
ATOM      1  C   UNL     1      46.861  62.045   4.464  1.00  0.00     0.180 C 
ATOM      2  C   UNL     1      46.770  62.250   5.994  1.00  0.00     0.177 C 
ATOM      3  C   UNL     1      48.140  62.000   6.655  1.00  0.00     0.180 C 
ATOM      4  C   UNL     1      48.783  60.692   6.142  1.00  0.00     0.214 C 
ATOM      5  C   UNL     1      48.659  60.541   4.610  1.00  0.00     0.339 C 
ATOM      6  O   UNL     1      47.329  60.741   4.160  1.00  0.00    -0.332 OA
ENDROOT
BRANCH   1   7
ATOM      7  C   UNL     1      45.499  62.235   3.787  1.00  0.00     0.198 C 
BRANCH   7   8
ATOM      8  O   UNL     1      45.122  63.595   3.843  1.00  0.00    -0.347 OA
BRANCH   8   9
ATOM      9  C   UNL     1      45.292  64.230   2.583  1.00  0.00     0.281 C 
ATOM     10  C   UNL     1      44.204  67.612   3.546  1.00  0.00     0.041 C 
ATOM     11  C   UNL     1      45.087  66.361   3.561  1.00  0.00     0.150 C 
ATOM     12  C   UNL     1      46.564  66.733   3.305  1.00  0.00     0.174 C 
ATOM     13  O   UNL     1      44.607  65.473   2.563  1.00  0.00    -0.344 OA
ATOM     14  C   UNL     1      47.419  65.456   3.245  1.00  0.00     0.179 C 
ATOM     15  C   UNL     1      46.798  64.419   2.288  1.00  0.00     0.202 C 
BRANCH  12  16
ATOM     16  O   UNL     1      47.025  67.559   4.345  1.00  0.00    -0.388 OA
ATOM     17  H   UNL     1      46.479  67.348   5.146  1.00  0.00     0.211 HD
ENDBRANCH  12  16
BRANCH  14  18
ATOM     18  O   UNL     1      48.723  65.780   2.835  1.00  0.00    -0.387 OA
ATOM     19  H   UNL     1      48.928  66.675   3.215  1.00  0.00     0.211 HD
ENDBRANCH  14  18
BRANCH  15  20
ATOM     20  O   UNL     1      47.014  64.771   0.943  1.00  0.00    -0.385 OA
ATOM     21  H   UNL     1      46.163  64.652   0.448  1.00  0.00     0.211 HD
ENDBRANCH  15  20
ENDBRANCH   8   9
ENDBRANCH   7   8
ENDBRANCH   1   7
BRANCH   2  22
ATOM     22  O   UNL     1      46.344  63.557   6.293  1.00  0.00    -0.387 OA
ATOM     23  H   UNL     1      47.158  64.112   6.417  1.00  0.00     0.211 HD
ENDBRANCH   2  22
BRANCH   3  24
ATOM     24  O   UNL     1      49.011  63.096   6.503  1.00  0.00    -0.387 OA
ATOM     25  H   UNL     1      48.664  63.854   7.037  1.00  0.00     0.211 HD
ENDBRANCH   3  24
BRANCH   5  26
ATOM     26  O   UNL     1      49.566  61.402   3.917  1.00  0.00    -0.454 OA
BRANCH  26  27
ATOM     27  C   UNL     1      50.568  60.902   3.079  1.00  0.00     0.214 A 
ATOM     28  C   UNL     1      51.808  60.489   3.602  1.00  0.00     0.180 A 
ATOM     29  C   UNL     1      50.363  60.839   1.695  1.00  0.00     0.239 A 
ATOM     30  O   UNL     1      52.773  60.085   2.781  1.00  0.00    -0.452 OA
ATOM     31  C   UNL     1      51.403  60.390   0.855  1.00  0.00     0.111 A 
ATOM     32  O   UNL     1      49.250  61.191   1.220  1.00  0.00    -0.285 OA
ATOM     33  C   UNL     1      52.627  60.020   1.462  1.00  0.00     0.146 A 
ATOM     34  C   UNL     1      51.277  60.301  -0.553  1.00  0.00     0.134 A 
ATOM     35  C   UNL     1      53.696  59.580   0.679  1.00  0.00     0.094 A 
ATOM     36  C   UNL     1      52.362  59.855  -1.320  1.00  0.00     0.093 A 
ATOM     37  C   UNL     1      53.567  59.497  -0.711  1.00  0.00     0.123 A 
BRANCH  28  38
ATOM     38  C   UNL     1      52.089  60.520   5.051  1.00  0.00     0.025 A 
ATOM     39  C   UNL     1      52.235  59.333   5.787  1.00  0.00     0.062 A 
ATOM     40  C   UNL     1      52.256  61.753   5.700  1.00  0.00     0.016 A 
ATOM     41  C   UNL     1      52.493  59.377   7.165  1.00  0.00     0.158 A 
ATOM     42  C   UNL     1      52.520  61.799   7.071  1.00  0.00     0.051 A 
ATOM     43  C   UNL     1      52.631  60.618   7.810  1.00  0.00     0.157 A 
BRANCH  41  44
ATOM     44  O   UNL     1      52.607  58.195   7.894  1.00  0.00    -0.504 OA
ATOM     45  H   UNL     1      52.627  58.197   8.906  1.00  0.00     0.293 HD
ENDBRANCH  41  44
BRANCH  43  46
ATOM     46  O   UNL     1      52.880  60.695   9.180  1.00  0.00    -0.504 OA
ATOM     47  H   UNL     1      53.816  60.621   9.562  1.00  0.00     0.293 HD
ENDBRANCH  43  46
ENDBRANCH  28  38
BRANCH  34  48
ATOM     48  O   UNL     1      50.087  60.653  -1.191  1.00  0.00    -0.507 OA
ATOM     49  H   UNL     1      49.930  61.590  -1.546  1.00  0.00     0.293 HD
ENDBRANCH  34  48
BRANCH  37  50
ATOM     50  O   UNL     1      54.631  59.061  -1.498  1.00  0.00    -0.508 OA
ATOM     51  H   UNL     1      54.480  58.484  -2.318  1.00  0.00     0.293 HD
ENDBRANCH  37  50
ENDBRANCH  26  27
ENDBRANCH   5  26
BRANCH   4  52
ATOM     52  O   UNL     1      48.153  59.592   6.750  1.00  0.00    -0.384 OA
ATOM     53  H   UNL     1      47.244  59.890   7.020  1.00  0.00     0.211 HD
ENDBRANCH   4  52
TORSDOF 16
ENDMDL
