MODEL 1
REMARK VINA RESULT:    -4.549      0.000      0.000
REMARK INTER + INTRA:         -12.398
REMARK INTER:                  -9.868
REMARK INTRA:                  -2.531
REMARK UNBOUND:                -2.531
REMARK SMILES CCCCCCCCCCCCCCCCCCCCCC(=O)[O-]
REMARK SMILES IDX 12 1 11 2 10 3 9 4 8 5 7 6 6 7 5 8 4 9 3 10 2 11 1 12 13 13
REMARK SMILES IDX 14 14 15 15 16 16 17 17 18 18 19 19 20 20 21 21 22 22 23 23
REMARK SMILES IDX 24 24
REMARK H PARENT
REMARK Flexibility Score: inf
ROOT
ATOM      1  C   UNL     1      13.464  23.532  23.255  1.00  0.00     0.000 C 
ENDROOT
BRANCH   1   2
ATOM      2  C   UNL     1      14.489  23.258  24.377  1.00  0.00     0.000 C 
BRANCH   2   3
ATOM      3  C   UNL     1      15.842  23.972  24.192  1.00  0.00     0.000 C 
BRANCH   3   4
ATOM      4  C   UNL     1      17.032  23.000  24.128  1.00  0.00    -0.000 C 
BRANCH   4   5
ATOM      5  C   UNL     1      16.630  21.592  23.645  1.00  0.00    -0.000 C 
BRANCH   5   6
ATOM      6  C   UNL     1      17.755  20.804  22.946  1.00  0.00    -0.000 C 
BRANCH   6   7
ATOM      7  C   UNL     1      17.324  20.225  21.587  1.00  0.00    -0.000 C 
BRANCH   7   8
ATOM      8  C   UNL     1      16.935  18.740  21.686  1.00  0.00    -0.000 C 
BRANCH   8   9
ATOM      9  C   UNL     1      15.411  18.538  21.767  1.00  0.00    -0.000 C 
BRANCH   9  10
ATOM     10  C   UNL     1      14.990  17.792  23.053  1.00  0.00    -0.000 C 
BRANCH  10  11
ATOM     11  C   UNL     1      14.719  18.727  24.244  1.00  0.00    -0.003 C 
ATOM     12  C   UNL     1      15.023  18.085  25.594  1.00  0.00     0.004 C 
ENDBRANCH  10  11
ENDBRANCH   9  10
ENDBRANCH   8   9
ENDBRANCH   7   8
ENDBRANCH   6   7
ENDBRANCH   5   6
ENDBRANCH   4   5
ENDBRANCH   3   4
ENDBRANCH   2   3
ENDBRANCH   1   2
BRANCH   1  13
ATOM     13  C   UNL     1      12.724  22.261  22.788  1.00  0.00     0.000 C 
BRANCH  13  14
ATOM     14  C   UNL     1      13.422  21.558  21.603  1.00  0.00     0.000 C 
BRANCH  14  15
ATOM     15  C   UNL     1      14.484  22.417  20.886  1.00  0.00     0.000 C 
BRANCH  15  16
ATOM     16  C   UNL     1      14.066  23.008  19.526  1.00  0.00     0.000 C 
BRANCH  16  17
ATOM     17  C   UNL     1      12.580  22.825  19.157  1.00  0.00     0.000 C 
BRANCH  17  18
ATOM     18  C   UNL     1      11.780  24.133  19.221  1.00  0.00     0.000 C 
BRANCH  18  19
ATOM     19  C   UNL     1      10.305  23.889  18.863  1.00  0.00     0.000 C 
BRANCH  19  20
ATOM     20  C   UNL     1       9.965  24.315  17.422  1.00  0.00     0.006 C 
BRANCH  20  21
ATOM     21  C   UNL     1       9.611  23.144  16.493  1.00  0.00     0.053 C 
BRANCH  21  22
ATOM     22  C   UNL     1       8.742  23.578  15.352  1.00  0.00     0.041 C 
ATOM     23  O   UNL     1       7.992  22.749  14.772  1.00  0.00    -0.550 OA
ATOM     24  O   UNL     1       8.778  24.896  14.914  1.00  0.00    -0.550 OA
ENDBRANCH  21  22
ENDBRANCH  20  21
ENDBRANCH  19  20
ENDBRANCH  18  19
ENDBRANCH  17  18
ENDBRANCH  16  17
ENDBRANCH  15  16
ENDBRANCH  14  15
ENDBRANCH  13  14
ENDBRANCH   1  13
TORSDOF 20
ENDMDL
MODEL 2
REMARK VINA RESULT:    -4.530      2.223      3.143
REMARK INTER + INTRA:         -12.358
REMARK INTER:                  -9.551
REMARK INTRA:                  -2.807
REMARK UNBOUND:                -2.531
REMARK SMILES CCCCCCCCCCCCCCCCCCCCCC(=O)[O-]
REMARK SMILES IDX 12 1 11 2 10 3 9 4 8 5 7 6 6 7 5 8 4 9 3 10 2 11 1 12 13 13
REMARK SMILES IDX 14 14 15 15 16 16 17 17 18 18 19 19 20 20 21 21 22 22 23 23
REMARK SMILES IDX 24 24
REMARK H PARENT
REMARK Flexibility Score: inf
ROOT
ATOM      1  C   UNL     1      15.757  23.724  24.223  1.00  0.00     0.000 C 
ENDROOT
BRANCH   1   2
ATOM      2  C   UNL     1      17.022  22.921  23.849  1.00  0.00     0.000 C 
BRANCH   2   3
ATOM      3  C   UNL     1      16.790  21.406  23.690  1.00  0.00     0.000 C 
BRANCH   3   4
ATOM      4  C   UNL     1      17.809  20.737  22.751  1.00  0.00    -0.000 C 
BRANCH   4   5
ATOM      5  C   UNL     1      17.154  20.121  21.499  1.00  0.00    -0.000 C 
BRANCH   5   6
ATOM      6  C   UNL     1      17.166  18.580  21.456  1.00  0.00    -0.000 C 
BRANCH   6   7
ATOM      7  C   UNL     1      15.762  17.977  21.267  1.00  0.00    -0.000 C 
BRANCH   7   8
ATOM      8  C   UNL     1      15.075  17.674  22.609  1.00  0.00    -0.000 C 
BRANCH   8   9
ATOM      9  C   UNL     1      13.973  18.694  22.946  1.00  0.00    -0.000 C 
BRANCH   9  10
ATOM     10  C   UNL     1      14.009  19.121  24.430  1.00  0.00    -0.000 C 
BRANCH  10  11
ATOM     11  C   UNL     1      15.205  18.545  25.207  1.00  0.00    -0.003 C 
ATOM     12  C   UNL     1      14.797  17.803  26.475  1.00  0.00     0.004 C 
ENDBRANCH  10  11
ENDBRANCH   9  10
ENDBRANCH   8   9
ENDBRANCH   7   8
ENDBRANCH   6   7
ENDBRANCH   5   6
ENDBRANCH   4   5
ENDBRANCH   3   4
ENDBRANCH   2   3
ENDBRANCH   1   2
BRANCH   1  13
ATOM     13  C   UNL     1      14.472  22.870  24.214  1.00  0.00     0.000 C 
BRANCH  13  14
ATOM     14  C   UNL     1      13.496  23.263  23.083  1.00  0.00     0.000 C 
BRANCH  14  15
ATOM     15  C   UNL     1      13.417  22.247  21.925  1.00  0.00     0.000 C 
BRANCH  15  16
ATOM     16  C   UNL     1      14.480  22.402  20.822  1.00  0.00     0.000 C 
BRANCH  16  17
ATOM     17  C   UNL     1      13.962  22.956  19.479  1.00  0.00     0.000 C 
BRANCH  17  18
ATOM     18  C   UNL     1      12.445  22.794  19.308  1.00  0.00     0.000 C 
BRANCH  18  19
ATOM     19  C   UNL     1      12.102  21.393  18.778  1.00  0.00     0.000 C 
BRANCH  19  20
ATOM     20  C   UNL     1      10.933  21.407  17.774  1.00  0.00     0.006 C 
BRANCH  20  21
ATOM     21  C   UNL     1      10.264  20.039  17.578  1.00  0.00     0.053 C 
BRANCH  21  22
ATOM     22  C   UNL     1      11.214  19.029  17.007  1.00  0.00     0.041 C 
ATOM     23  O   UNL     1      11.606  19.128  15.816  1.00  0.00    -0.550 OA
ATOM     24  O   UNL     1      11.647  17.964  17.787  1.00  0.00    -0.550 OA
ENDBRANCH  21  22
ENDBRANCH  20  21
ENDBRANCH  19  20
ENDBRANCH  18  19
ENDBRANCH  17  18
ENDBRANCH  16  17
ENDBRANCH  15  16
ENDBRANCH  14  15
ENDBRANCH  13  14
ENDBRANCH   1  13
TORSDOF 20
ENDMDL
MODEL 3
REMARK VINA RESULT:    -4.466      5.014      8.214
REMARK INTER + INTRA:         -12.218
REMARK INTER:                  -9.652
REMARK INTRA:                  -2.566
REMARK UNBOUND:                -2.531
REMARK SMILES CCCCCCCCCCCCCCCCCCCCCC(=O)[O-]
REMARK SMILES IDX 12 1 11 2 10 3 9 4 8 5 7 6 6 7 5 8 4 9 3 10 2 11 1 12 13 13
REMARK SMILES IDX 14 14 15 15 16 16 17 17 18 18 19 19 20 20 21 21 22 22 23 23
REMARK SMILES IDX 24 24
REMARK H PARENT
REMARK Flexibility Score: inf
ROOT
ATOM      1  C   UNL     1      15.144  18.581  25.249  1.00  0.00     0.000 C 
ENDROOT
BRANCH   1   2
ATOM      2  C   UNL     1      14.743  17.774  26.502  1.00  0.00     0.000 C 
BRANCH   2   3
ATOM      3  C   UNL     1      13.244  17.841  26.850  1.00  0.00     0.000 C 
BRANCH   3   4
ATOM      4  C   UNL     1      12.557  16.464  26.823  1.00  0.00    -0.000 C 
BRANCH   4   5
ATOM      5  C   UNL     1      11.922  16.086  28.176  1.00  0.00    -0.000 C 
BRANCH   5   6
ATOM      6  C   UNL     1      11.272  17.259  28.934  1.00  0.00    -0.000 C 
BRANCH   6   7
ATOM      7  C   UNL     1      11.492  17.182  30.456  1.00  0.00    -0.000 C 
BRANCH   7   8
ATOM      8  C   UNL     1      11.412  18.565  31.125  1.00  0.00    -0.000 C 
BRANCH   8   9
ATOM      9  C   UNL     1      11.485  19.714  30.103  1.00  0.00    -0.000 C 
BRANCH   9  10
ATOM     10  C   UNL     1      12.832  20.467  30.168  1.00  0.00    -0.000 C 
BRANCH  10  11
ATOM     11  C   UNL     1      12.978  21.560  29.095  1.00  0.00    -0.003 C 
ATOM     12  C   UNL     1      12.391  21.160  27.745  1.00  0.00     0.004 C 
ENDBRANCH  10  11
ENDBRANCH   9  10
ENDBRANCH   8   9
ENDBRANCH   7   8
ENDBRANCH   6   7
ENDBRANCH   5   6
ENDBRANCH   4   5
ENDBRANCH   3   4
ENDBRANCH   2   3
ENDBRANCH   1   2
BRANCH   1  13
ATOM     13  C   UNL     1      14.136  18.441  24.089  1.00  0.00     0.000 C 
BRANCH  13  14
ATOM     14  C   UNL     1      14.614  17.466  22.991  1.00  0.00     0.000 C 
BRANCH  14  15
ATOM     15  C   UNL     1      15.123  18.150  21.706  1.00  0.00     0.000 C 
BRANCH  15  16
ATOM     16  C   UNL     1      15.083  19.690  21.703  1.00  0.00     0.000 C 
BRANCH  16  17
ATOM     17  C   UNL     1      16.436  20.384  21.451  1.00  0.00     0.000 C 
BRANCH  17  18
ATOM     18  C   UNL     1      17.577  19.801  22.297  1.00  0.00     0.000 C 
BRANCH  18  19
ATOM     19  C   UNL     1      17.805  20.643  23.562  1.00  0.00     0.000 C 
BRANCH  19  20
ATOM     20  C   UNL     1      17.512  22.139  23.341  1.00  0.00     0.006 C 
BRANCH  20  21
ATOM     21  C   UNL     1      16.591  22.757  24.403  1.00  0.00     0.053 C 
BRANCH  21  22
ATOM     22  C   UNL     1      15.153  22.730  23.979  1.00  0.00     0.041 C 
ATOM     23  O   UNL     1      14.809  23.206  22.866  1.00  0.00    -0.550 OA
ATOM     24  O   UNL     1      14.189  22.199  24.826  1.00  0.00    -0.550 OA
ENDBRANCH  21  22
ENDBRANCH  20  21
ENDBRANCH  19  20
ENDBRANCH  18  19
ENDBRANCH  17  18
ENDBRANCH  16  17
ENDBRANCH  15  16
ENDBRANCH  14  15
ENDBRANCH  13  14
ENDBRANCH   1  13
TORSDOF 20
ENDMDL
MODEL 4
REMARK VINA RESULT:    -4.453      5.227      8.676
REMARK INTER + INTRA:         -12.191
REMARK INTER:                 -10.365
REMARK INTRA:                  -1.826
REMARK UNBOUND:                -2.531
REMARK SMILES CCCCCCCCCCCCCCCCCCCCCC(=O)[O-]
REMARK SMILES IDX 12 1 11 2 10 3 9 4 8 5 7 6 6 7 5 8 4 9 3 10 2 11 1 12 13 13
REMARK SMILES IDX 14 14 15 15 16 16 17 17 18 18 19 19 20 20 21 21 22 22 23 23
REMARK SMILES IDX 24 24
REMARK H PARENT
REMARK Flexibility Score: inf
ROOT
ATOM      1  C   UNL     1      12.508  16.568  27.525  1.00  0.00     0.000 C 
ENDROOT
BRANCH   1   2
ATOM      2  C   UNL     1      11.664  16.887  28.778  1.00  0.00     0.000 C 
BRANCH   2   3
ATOM      3  C   UNL     1      11.113  15.647  29.507  1.00  0.00     0.000 C 
BRANCH   3   4
ATOM      4  C   UNL     1      11.611  15.530  30.957  1.00  0.00    -0.000 C 
BRANCH   4   5
ATOM      5  C   UNL     1      11.851  16.901  31.620  1.00  0.00    -0.000 C 
BRANCH   5   6
ATOM      6  C   UNL     1      10.696  17.396  32.513  1.00  0.00    -0.000 C 
BRANCH   6   7
ATOM      7  C   UNL     1       9.968  18.618  31.926  1.00  0.00    -0.000 C 
BRANCH   7   8
ATOM      8  C   UNL     1      10.351  19.923  32.645  1.00  0.00    -0.000 C 
BRANCH   8   9
ATOM      9  C   UNL     1      11.100  20.902  31.722  1.00  0.00    -0.000 C 
BRANCH   9  10
ATOM     10  C   UNL     1      11.254  20.348  30.289  1.00  0.00    -0.000 C 
BRANCH  10  11
ATOM     11  C   UNL     1      12.719  20.197  29.843  1.00  0.00    -0.003 C 
ATOM     12  C   UNL     1      13.589  21.391  30.220  1.00  0.00     0.004 C 
ENDBRANCH  10  11
ENDBRANCH   9  10
ENDBRANCH   8   9
ENDBRANCH   7   8
ENDBRANCH   6   7
ENDBRANCH   5   6
ENDBRANCH   4   5
ENDBRANCH   3   4
ENDBRANCH   2   3
ENDBRANCH   1   2
BRANCH   1  13
ATOM     13  C   UNL     1      13.160  17.818  26.899  1.00  0.00     0.000 C 
BRANCH  13  14
ATOM     14  C   UNL     1      14.618  17.576  26.450  1.00  0.00     0.000 C 
BRANCH  14  15
ATOM     15  C   UNL     1      15.120  18.545  25.360  1.00  0.00     0.000 C 
BRANCH  15  16
ATOM     16  C   UNL     1      14.614  18.270  23.931  1.00  0.00     0.000 C 
BRANCH  16  17
ATOM     17  C   UNL     1      15.428  18.934  22.803  1.00  0.00     0.000 C 
BRANCH  17  18
ATOM     18  C   UNL     1      16.506  19.895  23.326  1.00  0.00     0.000 C 
BRANCH  18  19
ATOM     19  C   UNL     1      16.381  21.272  22.656  1.00  0.00     0.000 C 
BRANCH  19  20
ATOM     20  C   UNL     1      15.588  21.221  21.335  1.00  0.00     0.006 C 
BRANCH  20  21
ATOM     21  C   UNL     1      14.504  22.303  21.218  1.00  0.00     0.053 C 
BRANCH  21  22
ATOM     22  C   UNL     1      14.026  22.464  19.806  1.00  0.00     0.041 C 
ATOM     23  O   UNL     1      12.924  21.974  19.448  1.00  0.00    -0.550 OA
ATOM     24  O   UNL     1      14.812  23.139  18.880  1.00  0.00    -0.550 OA
ENDBRANCH  21  22
ENDBRANCH  20  21
ENDBRANCH  19  20
ENDBRANCH  18  19
ENDBRANCH  17  18
ENDBRANCH  16  17
ENDBRANCH  15  16
ENDBRANCH  14  15
ENDBRANCH  13  14
ENDBRANCH   1  13
TORSDOF 20
ENDMDL
MODEL 5
REMARK VINA RESULT:    -4.433      7.252     11.091
REMARK INTER + INTRA:         -12.146
REMARK INTER:                  -9.876
REMARK INTRA:                  -2.270
REMARK UNBOUND:                -2.531
REMARK SMILES CCCCCCCCCCCCCCCCCCCCCC(=O)[O-]
REMARK SMILES IDX 12 1 11 2 10 3 9 4 8 5 7 6 6 7 5 8 4 9 3 10 2 11 1 12 13 13
REMARK SMILES IDX 14 14 15 15 16 16 17 17 18 18 19 19 20 20 21 21 22 22 23 23
REMARK SMILES IDX 24 24
REMARK H PARENT
REMARK Flexibility Score: inf
ROOT
ATOM      1  C   UNL     1      13.176  17.872  26.846  1.00  0.00     0.000 C 
ENDROOT
BRANCH   1   2
ATOM      2  C   UNL     1      14.677  18.147  26.608  1.00  0.00     0.000 C 
BRANCH   2   3
ATOM      3  C   UNL     1      15.090  18.184  25.125  1.00  0.00     0.000 C 
BRANCH   3   4
ATOM      4  C   UNL     1      13.894  18.089  24.163  1.00  0.00    -0.000 C 
BRANCH   4   5
ATOM      5  C   UNL     1      14.291  18.310  22.690  1.00  0.00    -0.000 C 
BRANCH   5   6
ATOM      6  C   UNL     1      15.197  17.215  22.095  1.00  0.00    -0.000 C 
BRANCH   6   7
ATOM      7  C   UNL     1      16.232  17.771  21.100  1.00  0.00    -0.000 C 
BRANCH   7   8
ATOM      8  C   UNL     1      17.382  18.505  21.809  1.00  0.00    -0.000 C 
BRANCH   8   9
ATOM      9  C   UNL     1      17.370  20.019  21.532  1.00  0.00    -0.000 C 
BRANCH   9  10
ATOM     10  C   UNL     1      17.579  20.848  22.817  1.00  0.00    -0.000 C 
BRANCH  10  11
ATOM     11  C   UNL     1      16.284  21.473  23.364  1.00  0.00    -0.003 C 
ATOM     12  C   UNL     1      15.282  21.833  22.272  1.00  0.00     0.004 C 
ENDBRANCH  10  11
ENDBRANCH   9  10
ENDBRANCH   8   9
ENDBRANCH   7   8
ENDBRANCH   6   7
ENDBRANCH   5   6
ENDBRANCH   4   5
ENDBRANCH   3   4
ENDBRANCH   2   3
ENDBRANCH   1   2
BRANCH   1  13
ATOM     13  C   UNL     1      12.879  16.402  27.211  1.00  0.00     0.000 C 
BRANCH  13  14
ATOM     14  C   UNL     1      11.835  16.261  28.340  1.00  0.00     0.000 C 
BRANCH  14  15
ATOM     15  C   UNL     1      10.727  17.334  28.323  1.00  0.00     0.000 C 
BRANCH  15  16
ATOM     16  C   UNL     1      10.658  18.249  29.562  1.00  0.00     0.000 C 
BRANCH  16  17
ATOM     17  C   UNL     1      11.801  18.067  30.580  1.00  0.00     0.000 C 
BRANCH  17  18
ATOM     18  C   UNL     1      11.323  17.508  31.927  1.00  0.00     0.000 C 
BRANCH  18  19
ATOM     19  C   UNL     1      11.267  15.972  31.891  1.00  0.00     0.000 C 
BRANCH  19  20
ATOM     20  C   UNL     1       9.908  15.415  32.356  1.00  0.00     0.006 C 
BRANCH  20  21
ATOM     21  C   UNL     1       9.059  14.819  31.224  1.00  0.00     0.053 C 
BRANCH  21  22
ATOM     22  C   UNL     1       8.919  13.332  31.353  1.00  0.00     0.041 C 
ATOM     23  O   UNL     1       9.676  12.687  32.123  1.00  0.00    -0.550 OA
ATOM     24  O   UNL     1       7.965  12.657  30.602  1.00  0.00    -0.550 OA
ENDBRANCH  21  22
ENDBRANCH  20  21
ENDBRANCH  19  20
ENDBRANCH  18  19
ENDBRANCH  17  18
ENDBRANCH  16  17
ENDBRANCH  15  16
ENDBRANCH  14  15
ENDBRANCH  13  14
ENDBRANCH   1  13
TORSDOF 20
ENDMDL
MODEL 6
REMARK VINA RESULT:    -4.373      2.819      3.556
REMARK INTER + INTRA:         -12.016
REMARK INTER:                  -9.287
REMARK INTRA:                  -2.728
REMARK UNBOUND:                -2.531
REMARK SMILES CCCCCCCCCCCCCCCCCCCCCC(=O)[O-]
REMARK SMILES IDX 12 1 11 2 10 3 9 4 8 5 7 6 6 7 5 8 4 9 3 10 2 11 1 12 13 13
REMARK SMILES IDX 14 14 15 15 16 16 17 17 18 18 19 19 20 20 21 21 22 22 23 23
REMARK SMILES IDX 24 24
REMARK H PARENT
REMARK Flexibility Score: inf
ROOT
ATOM      1  C   UNL     1      14.570  21.486  23.048  1.00  0.00     0.000 C 
ENDROOT
BRANCH   1   2
ATOM      2  C   UNL     1      15.609  22.450  23.661  1.00  0.00     0.000 C 
BRANCH   2   3
ATOM      3  C   UNL     1      17.073  22.009  23.478  1.00  0.00     0.000 C 
BRANCH   3   4
ATOM      4  C   UNL     1      17.222  20.494  23.257  1.00  0.00    -0.000 C 
BRANCH   4   5
ATOM      5  C   UNL     1      17.749  20.143  21.851  1.00  0.00    -0.000 C 
BRANCH   5   6
ATOM      6  C   UNL     1      17.401  18.720  21.369  1.00  0.00    -0.000 C 
BRANCH   6   7
ATOM      7  C   UNL     1      16.008  18.256  21.833  1.00  0.00    -0.000 C 
BRANCH   7   8
ATOM      8  C   UNL     1      15.624  16.890  21.239  1.00  0.00    -0.000 C 
BRANCH   8   9
ATOM      9  C   UNL     1      14.134  16.561  21.442  1.00  0.00    -0.000 C 
BRANCH   9  10
ATOM     10  C   UNL     1      13.509  17.381  22.592  1.00  0.00    -0.000 C 
BRANCH  10  11
ATOM     11  C   UNL     1      12.340  18.277  22.143  1.00  0.00    -0.003 C 
ATOM     12  C   UNL     1      12.473  18.762  20.703  1.00  0.00     0.004 C 
ENDBRANCH  10  11
ENDBRANCH   9  10
ENDBRANCH   8   9
ENDBRANCH   7   8
ENDBRANCH   6   7
ENDBRANCH   5   6
ENDBRANCH   4   5
ENDBRANCH   3   4
ENDBRANCH   2   3
ENDBRANCH   1   2
BRANCH   1  13
ATOM     13  C   UNL     1      13.879  22.058  21.793  1.00  0.00     0.000 C 
BRANCH  13  14
ATOM     14  C   UNL     1      14.782  22.026  20.541  1.00  0.00     0.000 C 
BRANCH  14  15
ATOM     15  C   UNL     1      14.197  22.752  19.312  1.00  0.00     0.000 C 
BRANCH  15  16
ATOM     16  C   UNL     1      12.984  23.663  19.584  1.00  0.00     0.000 C 
BRANCH  16  17
ATOM     17  C   UNL     1      11.668  23.226  18.910  1.00  0.00     0.000 C 
BRANCH  17  18
ATOM     18  C   UNL     1      11.431  21.711  18.981  1.00  0.00     0.000 C 
BRANCH  18  19
ATOM     19  C   UNL     1      10.884  21.182  17.645  1.00  0.00     0.000 C 
BRANCH  19  20
ATOM     20  C   UNL     1      11.339  19.741  17.346  1.00  0.00     0.006 C 
BRANCH  20  21
ATOM     21  C   UNL     1      11.567  19.457  15.854  1.00  0.00     0.053 C 
BRANCH  21  22
ATOM     22  C   UNL     1      11.273  18.029  15.505  1.00  0.00     0.041 C 
ATOM     23  O   UNL     1      10.677  17.746  14.433  1.00  0.00    -0.550 OA
ATOM     24  O   UNL     1      11.639  17.011  16.377  1.00  0.00    -0.550 OA
ENDBRANCH  21  22
ENDBRANCH  20  21
ENDBRANCH  19  20
ENDBRANCH  18  19
ENDBRANCH  17  18
ENDBRANCH  16  17
ENDBRANCH  15  16
ENDBRANCH  14  15
ENDBRANCH  13  14
ENDBRANCH   1  13
TORSDOF 20
ENDMDL
MODEL 7
REMARK VINA RESULT:    -4.361      4.258      7.520
REMARK INTER + INTRA:         -11.990
REMARK INTER:                  -8.756
REMARK INTRA:                  -3.235
REMARK UNBOUND:                -2.531
REMARK SMILES CCCCCCCCCCCCCCCCCCCCCC(=O)[O-]
REMARK SMILES IDX 12 1 11 2 10 3 9 4 8 5 7 6 6 7 5 8 4 9 3 10 2 11 1 12 13 13
REMARK SMILES IDX 14 14 15 15 16 16 17 17 18 18 19 19 20 20 21 21 22 22 23 23
REMARK SMILES IDX 24 24
REMARK H PARENT
REMARK Flexibility Score: inf
ROOT
ATOM      1  C   UNL     1      15.901  24.120  24.306  1.00  0.00     0.000 C 
ENDROOT
BRANCH   1   2
ATOM      2  C   UNL     1      14.851  24.493  25.375  1.00  0.00     0.000 C 
BRANCH   2   3
ATOM      3  C   UNL     1      13.619  25.236  24.826  1.00  0.00     0.000 C 
BRANCH   3   4
ATOM      4  C   UNL     1      12.332  24.397  24.889  1.00  0.00    -0.000 C 
BRANCH   4   5
ATOM      5  C   UNL     1      12.478  23.025  24.201  1.00  0.00    -0.000 C 
BRANCH   5   6
ATOM      6  C   UNL     1      12.290  23.048  22.671  1.00  0.00    -0.000 C 
BRANCH   6   7
ATOM      7  C   UNL     1      13.226  22.068  21.940  1.00  0.00    -0.000 C 
BRANCH   7   8
ATOM      8  C   UNL     1      14.263  22.796  21.068  1.00  0.00    -0.000 C 
BRANCH   8   9
ATOM      9  C   UNL     1      13.901  22.755  19.572  1.00  0.00    -0.000 C 
BRANCH   9  10
ATOM     10  C   UNL     1      12.693  21.836  19.290  1.00  0.00    -0.000 C 
BRANCH  10  11
ATOM     11  C   UNL     1      11.492  22.572  18.669  1.00  0.00    -0.003 C 
ATOM     12  C   UNL     1      11.363  24.016  19.142  1.00  0.00     0.004 C 
ENDBRANCH  10  11
ENDBRANCH   9  10
ENDBRANCH   8   9
ENDBRANCH   7   8
ENDBRANCH   6   7
ENDBRANCH   5   6
ENDBRANCH   4   5
ENDBRANCH   3   4
ENDBRANCH   2   3
ENDBRANCH   1   2
BRANCH   1  13
ATOM     13  C   UNL     1      16.105  22.597  24.163  1.00  0.00     0.000 C 
BRANCH  13  14
ATOM     14  C   UNL     1      17.469  22.229  23.537  1.00  0.00     0.000 C 
BRANCH  14  15
ATOM     15  C   UNL     1      17.776  20.718  23.517  1.00  0.00     0.000 C 
BRANCH  15  16
ATOM     16  C   UNL     1      17.685  20.031  22.141  1.00  0.00     0.000 C 
BRANCH  16  17
ATOM     17  C   UNL     1      16.263  19.900  21.561  1.00  0.00     0.000 C 
BRANCH  17  18
ATOM     18  C   UNL     1      15.608  18.548  21.876  1.00  0.00     0.000 C 
BRANCH  18  19
ATOM     19  C   UNL     1      14.459  18.719  22.884  1.00  0.00     0.000 C 
BRANCH  19  20
ATOM     20  C   UNL     1      14.926  18.589  24.346  1.00  0.00     0.006 C 
BRANCH  20  21
ATOM     21  C   UNL     1      14.198  19.529  25.318  1.00  0.00     0.053 C 
BRANCH  21  22
ATOM     22  C   UNL     1      13.459  18.772  26.380  1.00  0.00     0.041 C 
ATOM     23  O   UNL     1      13.165  19.328  27.470  1.00  0.00    -0.550 OA
ATOM     24  O   UNL     1      13.115  17.442  26.172  1.00  0.00    -0.550 OA
ENDBRANCH  21  22
ENDBRANCH  20  21
ENDBRANCH  19  20
ENDBRANCH  18  19
ENDBRANCH  17  18
ENDBRANCH  16  17
ENDBRANCH  15  16
ENDBRANCH  14  15
ENDBRANCH  13  14
ENDBRANCH   1  13
TORSDOF 20
ENDMDL
MODEL 8
REMARK VINA RESULT:    -4.332      5.768      7.664
REMARK INTER + INTRA:         -11.927
REMARK INTER:                  -8.773
REMARK INTRA:                  -3.155
REMARK UNBOUND:                -2.531
REMARK SMILES CCCCCCCCCCCCCCCCCCCCCC(=O)[O-]
REMARK SMILES IDX 12 1 11 2 10 3 9 4 8 5 7 6 6 7 5 8 4 9 3 10 2 11 1 12 13 13
REMARK SMILES IDX 14 14 15 15 16 16 17 17 18 18 19 19 20 20 21 21 22 22 23 23
REMARK SMILES IDX 24 24
REMARK H PARENT
REMARK Flexibility Score: inf
ROOT
ATOM      1  C   UNL     1      16.526  21.024  23.419  1.00  0.00     0.000 C 
ENDROOT
BRANCH   1   2
ATOM      2  C   UNL     1      17.554  20.059  22.790  1.00  0.00     0.000 C 
BRANCH   2   3
ATOM      3  C   UNL     1      17.198  19.588  21.367  1.00  0.00     0.000 C 
BRANCH   3   4
ATOM      4  C   UNL     1      17.349  18.069  21.180  1.00  0.00    -0.000 C 
BRANCH   4   5
ATOM      5  C   UNL     1      15.996  17.329  21.181  1.00  0.00    -0.000 C 
BRANCH   5   6
ATOM      6  C   UNL     1      14.774  18.220  21.479  1.00  0.00    -0.000 C 
BRANCH   6   7
ATOM      7  C   UNL     1      13.995  17.767  22.727  1.00  0.00    -0.000 C 
BRANCH   7   8
ATOM      8  C   UNL     1      13.121  18.893  23.305  1.00  0.00    -0.000 C 
BRANCH   8   9
ATOM      9  C   UNL     1      13.610  19.363  24.687  1.00  0.00    -0.000 C 
BRANCH   9  10
ATOM     10  C   UNL     1      14.691  18.428  25.271  1.00  0.00    -0.000 C 
BRANCH  10  11
ATOM     11  C   UNL     1      14.450  18.056  26.745  1.00  0.00    -0.003 C 
ATOM     12  C   UNL     1      13.259  17.124  26.943  1.00  0.00     0.004 C 
ENDBRANCH  10  11
ENDBRANCH   9  10
ENDBRANCH   8   9
ENDBRANCH   7   8
ENDBRANCH   6   7
ENDBRANCH   5   6
ENDBRANCH   4   5
ENDBRANCH   3   4
ENDBRANCH   2   3
ENDBRANCH   1   2
BRANCH   1  13
ATOM     13  C   UNL     1      15.564  21.643  22.384  1.00  0.00     0.000 C 
BRANCH  13  14
ATOM     14  C   UNL     1      14.688  22.770  22.974  1.00  0.00     0.000 C 
BRANCH  14  15
ATOM     15  C   UNL     1      14.718  22.864  24.513  1.00  0.00     0.000 C 
BRANCH  15  16
ATOM     16  C   UNL     1      15.188  24.211  25.096  1.00  0.00     0.000 C 
BRANCH  16  17
ATOM     17  C   UNL     1      14.124  24.991  25.892  1.00  0.00     0.000 C 
BRANCH  17  18
ATOM     18  C   UNL     1      13.602  24.221  27.113  1.00  0.00     0.000 C 
BRANCH  18  19
ATOM     19  C   UNL     1      12.104  23.908  26.962  1.00  0.00     0.000 C 
BRANCH  19  20
ATOM     20  C   UNL     1      11.726  22.525  27.526  1.00  0.00     0.006 C 
BRANCH  20  21
ATOM     21  C   UNL     1      12.919  21.573  27.691  1.00  0.00     0.053 C 
BRANCH  21  22
ATOM     22  C   UNL     1      12.799  20.735  28.929  1.00  0.00     0.041 C 
ATOM     23  O   UNL     1      13.612  20.882  29.878  1.00  0.00    -0.550 OA
ATOM     24  O   UNL     1      11.801  19.774  29.022  1.00  0.00    -0.550 OA
ENDBRANCH  21  22
ENDBRANCH  20  21
ENDBRANCH  19  20
ENDBRANCH  18  19
ENDBRANCH  17  18
ENDBRANCH  16  17
ENDBRANCH  15  16
ENDBRANCH  14  15
ENDBRANCH  13  14
ENDBRANCH   1  13
TORSDOF 20
ENDMDL
MODEL 9
REMARK VINA RESULT:    -4.312      6.356     10.118
REMARK INTER + INTRA:         -11.885
REMARK INTER:                  -9.245
REMARK INTRA:                  -2.640
REMARK UNBOUND:                -2.531
REMARK SMILES CCCCCCCCCCCCCCCCCCCCCC(=O)[O-]
REMARK SMILES IDX 12 1 11 2 10 3 9 4 8 5 7 6 6 7 5 8 4 9 3 10 2 11 1 12 13 13
REMARK SMILES IDX 14 14 15 15 16 16 17 17 18 18 19 19 20 20 21 21 22 22 23 23
REMARK SMILES IDX 24 24
REMARK H PARENT
REMARK Flexibility Score: inf
ROOT
ATOM      1  C   UNL     1      15.130  18.685  24.995  1.00  0.00     0.000 C 
ENDROOT
BRANCH   1   2
ATOM      2  C   UNL     1      14.468  18.096  23.730  1.00  0.00     0.000 C 
BRANCH   2   3
ATOM      3  C   UNL     1      14.622  18.965  22.468  1.00  0.00     0.000 C 
BRANCH   3   4
ATOM      4  C   UNL     1      15.978  18.773  21.766  1.00  0.00    -0.000 C 
BRANCH   4   5
ATOM      5  C   UNL     1      16.778  20.085  21.642  1.00  0.00    -0.000 C 
BRANCH   5   6
ATOM      6  C   UNL     1      17.725  20.378  22.823  1.00  0.00    -0.000 C 
BRANCH   6   7
ATOM      7  C   UNL     1      17.650  21.839  23.300  1.00  0.00    -0.000 C 
BRANCH   7   8
ATOM      8  C   UNL     1      16.351  22.132  24.070  1.00  0.00    -0.000 C 
BRANCH   8   9
ATOM      9  C   UNL     1      15.430  23.106  23.314  1.00  0.00    -0.000 C 
BRANCH   9  10
ATOM     10  C   UNL     1      13.987  22.568  23.192  1.00  0.00    -0.000 C 
BRANCH  10  11
ATOM     11  C   UNL     1      13.455  21.937  24.490  1.00  0.00    -0.003 C 
ATOM     12  C   UNL     1      12.163  21.153  24.291  1.00  0.00     0.004 C 
ENDBRANCH  10  11
ENDBRANCH   9  10
ENDBRANCH   8   9
ENDBRANCH   7   8
ENDBRANCH   6   7
ENDBRANCH   5   6
ENDBRANCH   4   5
ENDBRANCH   3   4
ENDBRANCH   2   3
ENDBRANCH   1   2
BRANCH   1  13
ATOM     13  C   UNL     1      14.706  17.965  26.292  1.00  0.00     0.000 C 
BRANCH  13  14
ATOM     14  C   UNL     1      13.641  18.746  27.093  1.00  0.00     0.000 C 
BRANCH  14  15
ATOM     15  C   UNL     1      12.185  18.434  26.693  1.00  0.00     0.000 C 
BRANCH  15  16
ATOM     16  C   UNL     1      11.746  16.965  26.840  1.00  0.00     0.000 C 
BRANCH  16  17
ATOM     17  C   UNL     1      12.253  16.249  28.108  1.00  0.00     0.000 C 
BRANCH  17  18
ATOM     18  C   UNL     1      11.209  16.209  29.233  1.00  0.00     0.000 C 
BRANCH  18  19
ATOM     19  C   UNL     1      11.785  15.535  30.489  1.00  0.00     0.000 C 
BRANCH  19  20
ATOM     20  C   UNL     1      11.124  16.034  31.787  1.00  0.00     0.006 C 
BRANCH  20  21
ATOM     21  C   UNL     1      11.381  17.518  32.087  1.00  0.00     0.053 C 
BRANCH  21  22
ATOM     22  C   UNL     1      10.107  18.306  32.147  1.00  0.00     0.041 C 
ATOM     23  O   UNL     1       8.995  17.724  32.052  1.00  0.00    -0.550 OA
ATOM     24  O   UNL     1      10.150  19.687  32.285  1.00  0.00    -0.550 OA
ENDBRANCH  21  22
ENDBRANCH  20  21
ENDBRANCH  19  20
ENDBRANCH  18  19
ENDBRANCH  17  18
ENDBRANCH  16  17
ENDBRANCH  15  16
ENDBRANCH  14  15
ENDBRANCH  13  14
ENDBRANCH   1  13
TORSDOF 20
ENDMDL
