MODEL 1
REMARK VINA RESULT:    69.171      0.000      0.000
REMARK INTER + INTRA:          75.645
REMARK INTER:                  75.237
REMARK INTRA:                   0.408
REMARK UNBOUND:                 0.408
REMARK SMILES C[C@H]1[C@H](C)CC[C@@]2(C(=O)[O-])CC[C@@]3(C)C(=CC[C@@H]4[C@@]5(C)CC[C@H](O)C(C)(C)[C@H]5CC[C@@]43C)[C@H]12
REMARK SMILES IDX 7 1 6 2 11 3 33 4 5 5 12 6 15 7 2 8 3 9 13 10 16 11 1 12
REMARK SMILES IDX 4 13 14 14 31 15 17 16 18 17 30 18 32 19 19 20 29 21 28 22
REMARK SMILES IDX 21 23 20 24 25 25 22 26 23 27 26 28 27 29 8 30 9 31 10 32
REMARK SMILES IDX 24 33
REMARK H PARENT 24 34
REMARK Flexibility Score: inf
ROOT
ATOM      1  C   UNL     1      34.670 -34.244  17.423  1.00  0.00     0.017 C 
ATOM      2  C   UNL     1      34.696 -33.016  16.448  1.00  0.00     0.014 C 
ATOM      3  C   UNL     1      33.468 -35.162  17.084  1.00  0.00     0.014 C 
ATOM      4  C   UNL     1      35.956 -35.123  17.251  1.00  0.00     0.030 C 
ATOM      5  C   UNL     1      35.737 -33.130  15.324  1.00  0.00     0.004 C 
ATOM      6  C   UNL     1      33.428 -36.471  17.925  1.00  0.00     0.013 C 
ATOM      7  C   UNL     1      35.884 -36.328  18.191  1.00  0.00    -0.063 C 
ATOM      8  C   UNL     1      37.252 -34.270  17.149  1.00  0.00    -0.003 C 
ATOM      9  C   UNL     1      37.175 -33.326  15.893  1.00  0.00    -0.011 C 
ATOM     10  C   UNL     1      34.745 -37.338  17.920  1.00  0.00    -0.006 C 
ATOM     11  C   UNL     1      36.543 -36.290  19.352  1.00  0.00    -0.027 C 
ATOM     12  C   UNL     1      38.513 -35.155  17.062  1.00  0.00     0.008 C 
ATOM     13  C   UNL     1      37.834 -31.969  16.190  1.00  0.00     0.008 C 
ATOM     14  C   UNL     1      34.923 -37.928  16.478  1.00  0.00     0.017 C 
ATOM     15  C   UNL     1      34.669 -38.565  19.001  1.00  0.00    -0.020 C 
ATOM     16  C   UNL     1      36.498 -37.380  20.347  1.00  0.00     0.032 C 
ATOM     17  C   UNL     1      35.118 -38.100  20.448  1.00  0.00     0.006 C 
ATOM     18  C   UNL     1      35.606 -39.741  18.599  1.00  0.00     0.008 C 
ATOM     19  C   UNL     1      33.201 -39.113  18.995  1.00  0.00     0.012 C 
ATOM     20  C   UNL     1      35.178 -39.246  21.582  1.00  0.00    -0.025 C 
ATOM     21  C   UNL     1      35.636 -40.903  19.599  1.00  0.00     0.005 C 
ATOM     22  C   UNL     1      35.978 -40.521  21.068  1.00  0.00     0.003 C 
ATOM     23  C   UNL     1      33.732 -39.605  22.100  1.00  0.00     0.010 C 
ATOM     24  C   UNL     1      35.916 -38.659  22.834  1.00  0.00     0.012 C 
ATOM     25  C   UNL     1      35.939 -41.791  22.053  1.00  0.00    -0.006 C 
ATOM     26  C   UNL     1      33.415 -41.105  22.185  1.00  0.00     0.033 C 
ATOM     27  C   UNL     1      34.552 -41.946  22.795  1.00  0.00     0.120 C 
ATOM     28  C   UNL     1      37.122 -41.715  23.068  1.00  0.00     0.014 C 
ATOM     29  C   UNL     1      36.203 -43.125  21.284  1.00  0.00     0.014 C 
ENDROOT
BRANCH   1  30
ATOM     30  C   UNL     1      34.488 -33.697  18.845  1.00  0.00     0.048 C 
ATOM     31  O   UNL     1      35.502 -33.377  19.528  1.00  0.00    -0.550 OA
ATOM     32  O   UNL     1      33.254 -33.738  19.480  1.00  0.00    -0.550 OA
ENDBRANCH   1  30
BRANCH  27  33
ATOM     33  O   UNL     1      34.647 -41.780  24.194  1.00  0.00    -0.393 OA
ATOM     34  H   UNL     1      35.019 -42.600  24.603  1.00  0.00     0.210 HD
ENDBRANCH  27  33
TORSDOF 2
ENDMDL
