MODEL 1
REMARK VINA RESULT:    -4.033      0.000      0.000
REMARK INTER + INTRA:          -8.494
REMARK INTER:                  -7.333
REMARK INTRA:                  -1.161
REMARK UNBOUND:                -1.161
REMARK SMILES CCCCCCCCCCCCCCCC(=O)[O-]
REMARK SMILES IDX 9 1 10 2 11 3 12 4 13 5 14 6 15 7 16 8 17 9 18 10 8 11 7 12
REMARK SMILES IDX 6 13 5 14 4 15 3 16 2 17 1 18
REMARK H PARENT
REMARK Flexibility Score: inf
ROOT
ATOM      1  C   UNL     1       1.893  23.380  22.307  1.00  0.00     0.000 C 
ENDROOT
BRANCH   1   2
ATOM      2  C   UNL     1       1.643  22.758  23.691  1.00  0.00     0.000 C 
BRANCH   2   3
ATOM      3  C   UNL     1       1.063  23.764  24.701  1.00  0.00     0.000 C 
BRANCH   3   4
ATOM      4  C   UNL     1       1.922  23.998  25.958  1.00  0.00     0.000 C 
BRANCH   4   5
ATOM      5  C   UNL     1       2.856  22.820  26.305  1.00  0.00     0.000 C 
BRANCH   5   6
ATOM      6  C   UNL     1       4.329  23.248  26.382  1.00  0.00     0.006 C 
BRANCH   6   7
ATOM      7  C   UNL     1       4.658  24.288  25.308  1.00  0.00     0.053 C 
BRANCH   7   8
ATOM      8  C   UNL     1       5.995  24.007  24.697  1.00  0.00     0.041 C 
ATOM      9  O   UNL     1       6.420  24.718  23.749  1.00  0.00    -0.550 OA
ATOM     10  O   UNL     1       6.792  22.990  25.208  1.00  0.00    -0.550 OA
ENDBRANCH   7   8
ENDBRANCH   6   7
ENDBRANCH   5   6
ENDBRANCH   4   5
ENDBRANCH   3   4
ENDBRANCH   2   3
ENDBRANCH   1   2
BRANCH   1  11
ATOM     11  C   UNL     1       2.611  24.736  22.392  1.00  0.00     0.000 C 
BRANCH  11  12
ATOM     12  C   UNL     1       1.869  25.849  21.632  1.00  0.00    -0.000 C 
BRANCH  12  13
ATOM     13  C   UNL     1       1.197  26.860  22.575  1.00  0.00    -0.000 C 
BRANCH  13  14
ATOM     14  C   UNL     1       0.867  28.188  21.878  1.00  0.00    -0.000 C 
BRANCH  14  15
ATOM     15  C   UNL     1      -0.208  27.992  20.802  1.00  0.00    -0.000 C 
BRANCH  15  16
ATOM     16  C   UNL     1      -1.111  29.226  20.692  1.00  0.00    -0.000 C 
BRANCH  16  17
ATOM     17  C   UNL     1      -0.382  30.383  20.000  1.00  0.00    -0.003 C 
ATOM     18  C   UNL     1      -1.351  31.500  19.625  1.00  0.00     0.004 C 
ENDBRANCH  16  17
ENDBRANCH  15  16
ENDBRANCH  14  15
ENDBRANCH  13  14
ENDBRANCH  12  13
ENDBRANCH  11  12
ENDBRANCH   1  11
TORSDOF 14
ENDMDL
MODEL 2
REMARK VINA RESULT:    -3.727      2.805      3.574
REMARK INTER + INTRA:          -7.939
REMARK INTER:                  -6.898
REMARK INTRA:                  -1.041
REMARK UNBOUND:                -1.161
REMARK SMILES CCCCCCCCCCCCCCCC(=O)[O-]
REMARK SMILES IDX 9 1 10 2 11 3 12 4 13 5 14 6 15 7 16 8 17 9 18 10 8 11 7 12
REMARK SMILES IDX 6 13 5 14 4 15 3 16 2 17 1 18
REMARK H PARENT
REMARK Flexibility Score: inf
ROOT
ATOM      1  C   UNL     1       1.859  24.612  21.680  1.00  0.00     0.000 C 
ENDROOT
BRANCH   1   2
ATOM      2  C   UNL     1       2.911  23.668  22.285  1.00  0.00     0.000 C 
BRANCH   2   3
ATOM      3  C   UNL     1       3.730  24.329  23.408  1.00  0.00     0.000 C 
BRANCH   3   4
ATOM      4  C   UNL     1       3.490  23.754  24.818  1.00  0.00     0.000 C 
BRANCH   4   5
ATOM      5  C   UNL     1       2.273  22.810  24.908  1.00  0.00     0.000 C 
BRANCH   5   6
ATOM      6  C   UNL     1       0.948  23.576  25.032  1.00  0.00     0.006 C 
BRANCH   6   7
ATOM      7  C   UNL     1       1.160  24.939  25.696  1.00  0.00     0.053 C 
BRANCH   7   8
ATOM      8  C   UNL     1      -0.080  25.370  26.416  1.00  0.00     0.041 C 
ATOM      9  O   UNL     1      -0.237  26.576  26.740  1.00  0.00    -0.550 OA
ATOM     10  O   UNL     1      -1.083  24.447  26.685  1.00  0.00    -0.550 OA
ENDBRANCH   7   8
ENDBRANCH   6   7
ENDBRANCH   5   6
ENDBRANCH   4   5
ENDBRANCH   3   4
ENDBRANCH   2   3
ENDBRANCH   1   2
BRANCH   1  11
ATOM     11  C   UNL     1       2.213  26.094  21.881  1.00  0.00     0.000 C 
BRANCH  11  12
ATOM     12  C   UNL     1       1.138  26.858  22.673  1.00  0.00    -0.000 C 
BRANCH  12  13
ATOM     13  C   UNL     1       0.694  28.151  21.970  1.00  0.00    -0.000 C 
BRANCH  13  14
ATOM     14  C   UNL     1      -0.366  27.901  20.887  1.00  0.00    -0.000 C 
BRANCH  14  15
ATOM     15  C   UNL     1      -1.175  29.173  20.606  1.00  0.00    -0.000 C 
BRANCH  15  16
ATOM     16  C   UNL     1      -0.287  30.270  20.008  1.00  0.00    -0.000 C 
BRANCH  16  17
ATOM     17  C   UNL     1      -1.022  31.615  19.976  1.00  0.00    -0.003 C 
ATOM     18  C   UNL     1      -2.200  31.577  19.006  1.00  0.00     0.004 C 
ENDBRANCH  16  17
ENDBRANCH  15  16
ENDBRANCH  14  15
ENDBRANCH  13  14
ENDBRANCH  12  13
ENDBRANCH  11  12
ENDBRANCH   1  11
TORSDOF 14
ENDMDL
MODEL 3
REMARK VINA RESULT:    -3.706      3.644      7.281
REMARK INTER + INTRA:          -7.900
REMARK INTER:                  -6.739
REMARK INTRA:                  -1.162
REMARK UNBOUND:                -1.161
REMARK SMILES CCCCCCCCCCCCCCCC(=O)[O-]
REMARK SMILES IDX 9 1 10 2 11 3 12 4 13 5 14 6 15 7 16 8 17 9 18 10 8 11 7 12
REMARK SMILES IDX 6 13 5 14 4 15 3 16 2 17 1 18
REMARK H PARENT
REMARK Flexibility Score: inf
ROOT
ATOM      1  C   UNL     1       3.258  24.520  23.032  1.00  0.00     0.000 C 
ENDROOT
BRANCH   1   2
ATOM      2  C   UNL     1       2.165  24.175  22.006  1.00  0.00     0.000 C 
BRANCH   2   3
ATOM      3  C   UNL     1       1.530  25.425  21.369  1.00  0.00     0.000 C 
BRANCH   3   4
ATOM      4  C   UNL     1       1.874  26.758  22.061  1.00  0.00     0.000 C 
BRANCH   4   5
ATOM      5  C   UNL     1       0.699  27.756  22.113  1.00  0.00     0.000 C 
BRANCH   5   6
ATOM      6  C   UNL     1       0.086  28.008  20.728  1.00  0.00     0.006 C 
BRANCH   6   7
ATOM      7  C   UNL     1      -0.964  29.122  20.784  1.00  0.00     0.053 C 
BRANCH   7   8
ATOM      8  C   UNL     1      -0.434  30.373  20.156  1.00  0.00     0.041 C 
ATOM      9  O   UNL     1       0.807  30.537  20.020  1.00  0.00    -0.550 OA
ATOM     10  O   UNL     1      -1.314  31.335  19.676  1.00  0.00    -0.550 OA
ENDBRANCH   7   8
ENDBRANCH   6   7
ENDBRANCH   5   6
ENDBRANCH   4   5
ENDBRANCH   3   4
ENDBRANCH   2   3
ENDBRANCH   1   2
BRANCH   1  11
ATOM     11  C   UNL     1       2.713  24.597  24.467  1.00  0.00     0.000 C 
BRANCH  11  12
ATOM     12  C   UNL     1       3.314  23.521  25.388  1.00  0.00    -0.000 C 
BRANCH  12  13
ATOM     13  C   UNL     1       2.294  22.437  25.772  1.00  0.00    -0.000 C 
BRANCH  13  14
ATOM     14  C   UNL     1       0.847  22.855  25.472  1.00  0.00    -0.000 C 
BRANCH  14  15
ATOM     15  C   UNL     1      -0.030  22.736  26.725  1.00  0.00    -0.000 C 
BRANCH  15  16
ATOM     16  C   UNL     1      -0.909  23.980  26.903  1.00  0.00    -0.000 C 
BRANCH  16  17
ATOM     17  C   UNL     1      -0.581  25.041  25.848  1.00  0.00    -0.003 C 
ATOM     18  C   UNL     1       0.028  26.286  26.488  1.00  0.00     0.004 C 
ENDBRANCH  16  17
ENDBRANCH  15  16
ENDBRANCH  14  15
ENDBRANCH  13  14
ENDBRANCH  12  13
ENDBRANCH  11  12
ENDBRANCH   1  11
TORSDOF 14
ENDMDL
MODEL 4
REMARK VINA RESULT:    -3.694      3.488      7.655
REMARK INTER + INTRA:          -7.878
REMARK INTER:                  -6.487
REMARK INTRA:                  -1.392
REMARK UNBOUND:                -1.161
REMARK SMILES CCCCCCCCCCCCCCCC(=O)[O-]
REMARK SMILES IDX 9 1 10 2 11 3 12 4 13 5 14 6 15 7 16 8 17 9 18 10 8 11 7 12
REMARK SMILES IDX 6 13 5 14 4 15 3 16 2 17 1 18
REMARK H PARENT
REMARK Flexibility Score: inf
ROOT
ATOM      1  C   UNL     1       1.718  22.762  23.514  1.00  0.00     0.000 C 
ENDROOT
BRANCH   1   2
ATOM      2  C   UNL     1       2.008  23.465  22.177  1.00  0.00     0.000 C 
BRANCH   2   3
ATOM      3  C   UNL     1       2.521  24.904  22.360  1.00  0.00     0.000 C 
BRANCH   3   4
ATOM      4  C   UNL     1       1.714  25.986  21.617  1.00  0.00     0.000 C 
BRANCH   4   5
ATOM      5  C   UNL     1       1.099  27.055  22.544  1.00  0.00     0.000 C 
BRANCH   5   6
ATOM      6  C   UNL     1       0.864  28.389  21.820  1.00  0.00     0.006 C 
BRANCH   6   7
ATOM      7  C   UNL     1      -0.423  28.346  20.992  1.00  0.00     0.053 C 
BRANCH   7   8
ATOM      8  C   UNL     1      -0.678  29.674  20.351  1.00  0.00     0.041 C 
ATOM      9  O   UNL     1       0.286  30.386  19.963  1.00  0.00    -0.550 OA
ATOM     10  O   UNL     1      -1.982  30.104  20.136  1.00  0.00    -0.550 OA
ENDBRANCH   7   8
ENDBRANCH   6   7
ENDBRANCH   5   6
ENDBRANCH   4   5
ENDBRANCH   3   4
ENDBRANCH   2   3
ENDBRANCH   1   2
BRANCH   1  11
ATOM     11  C   UNL     1       1.259  23.741  24.606  1.00  0.00     0.000 C 
BRANCH  11  12
ATOM     12  C   UNL     1       0.598  23.030  25.800  1.00  0.00    -0.000 C 
BRANCH  12  13
ATOM     13  C   UNL     1       1.606  22.665  26.901  1.00  0.00    -0.000 C 
BRANCH  13  14
ATOM     14  C   UNL     1       2.882  23.517  26.839  1.00  0.00    -0.000 C 
BRANCH  14  15
ATOM     15  C   UNL     1       4.132  22.650  27.041  1.00  0.00    -0.000 C 
BRANCH  15  16
ATOM     16  C   UNL     1       5.318  23.198  26.239  1.00  0.00    -0.000 C 
BRANCH  16  17
ATOM     17  C   UNL     1       4.863  24.277  25.250  1.00  0.00    -0.003 C 
ATOM     18  C   UNL     1       5.664  24.208  23.953  1.00  0.00     0.004 C 
ENDBRANCH  16  17
ENDBRANCH  15  16
ENDBRANCH  14  15
ENDBRANCH  13  14
ENDBRANCH  12  13
ENDBRANCH  11  12
ENDBRANCH   1  11
TORSDOF 14
ENDMDL
MODEL 5
REMARK VINA RESULT:    -3.555      3.562      7.326
REMARK INTER + INTRA:          -7.625
REMARK INTER:                  -6.777
REMARK INTRA:                  -0.848
REMARK UNBOUND:                -1.161
REMARK SMILES CCCCCCCCCCCCCCCC(=O)[O-]
REMARK SMILES IDX 9 1 10 2 11 3 12 4 13 5 14 6 15 7 16 8 17 9 18 10 8 11 7 12
REMARK SMILES IDX 6 13 5 14 4 15 3 16 2 17 1 18
REMARK H PARENT
REMARK Flexibility Score: inf
ROOT
ATOM      1  C   UNL     1       2.496  23.769  21.629  1.00  0.00     0.000 C 
ENDROOT
BRANCH   1   2
ATOM      2  C   UNL     1       1.588  24.967  21.301  1.00  0.00     0.000 C 
BRANCH   2   3
ATOM      3  C   UNL     1       2.079  26.279  21.937  1.00  0.00     0.000 C 
BRANCH   3   4
ATOM      4  C   UNL     1       1.017  27.054  22.740  1.00  0.00     0.000 C 
BRANCH   4   5
ATOM      5  C   UNL     1       0.587  28.384  22.087  1.00  0.00     0.000 C 
BRANCH   5   6
ATOM      6  C   UNL     1      -0.229  28.167  20.804  1.00  0.00     0.006 C 
BRANCH   6   7
ATOM      7  C   UNL     1      -1.254  29.286  20.606  1.00  0.00     0.053 C 
BRANCH   7   8
ATOM      8  C   UNL     1      -0.592  30.513  20.060  1.00  0.00     0.041 C 
ATOM      9  O   UNL     1      -1.286  31.501  19.703  1.00  0.00    -0.550 OA
ATOM     10  O   UNL     1       0.794  30.583  19.992  1.00  0.00    -0.550 OA
ENDBRANCH   7   8
ENDBRANCH   6   7
ENDBRANCH   5   6
ENDBRANCH   4   5
ENDBRANCH   3   4
ENDBRANCH   2   3
ENDBRANCH   1   2
BRANCH   1  11
ATOM     11  C   UNL     1       1.726  22.608  22.277  1.00  0.00     0.000 C 
BRANCH  11  12
ATOM     12  C   UNL     1       1.573  22.774  23.799  1.00  0.00    -0.000 C 
BRANCH  12  13
ATOM     13  C   UNL     1       2.712  23.598  24.420  1.00  0.00    -0.000 C 
BRANCH  13  14
ATOM     14  C   UNL     1       2.765  23.473  25.950  1.00  0.00    -0.000 C 
BRANCH  14  15
ATOM     15  C   UNL     1       1.395  23.769  26.573  1.00  0.00    -0.000 C 
BRANCH  15  16
ATOM     16  C   UNL     1       0.850  25.118  26.092  1.00  0.00    -0.000 C 
BRANCH  16  17
ATOM     17  C   UNL     1      -0.683  25.140  26.137  1.00  0.00    -0.003 C 
ATOM     18  C   UNL     1      -1.230  23.922  26.876  1.00  0.00     0.004 C 
ENDBRANCH  16  17
ENDBRANCH  15  16
ENDBRANCH  14  15
ENDBRANCH  13  14
ENDBRANCH  12  13
ENDBRANCH  11  12
ENDBRANCH   1  11
TORSDOF 14
ENDMDL
MODEL 6
REMARK VINA RESULT:    -3.533      2.803      4.378
REMARK INTER + INTRA:          -7.585
REMARK INTER:                  -5.754
REMARK INTRA:                  -1.831
REMARK UNBOUND:                -1.161
REMARK SMILES CCCCCCCCCCCCCCCC(=O)[O-]
REMARK SMILES IDX 9 1 10 2 11 3 12 4 13 5 14 6 15 7 16 8 17 9 18 10 8 11 7 12
REMARK SMILES IDX 6 13 5 14 4 15 3 16 2 17 1 18
REMARK H PARENT
REMARK Flexibility Score: inf
ROOT
ATOM      1  C   UNL     1       0.318  23.296  25.958  1.00  0.00     0.000 C 
ENDROOT
BRANCH   1   2
ATOM      2  C   UNL     1       1.122  22.382  26.899  1.00  0.00     0.000 C 
BRANCH   2   3
ATOM      3  C   UNL     1       2.466  21.938  26.293  1.00  0.00     0.000 C 
BRANCH   3   4
ATOM      4  C   UNL     1       3.586  22.994  26.345  1.00  0.00     0.000 C 
BRANCH   4   5
ATOM      5  C   UNL     1       4.838  22.539  27.124  1.00  0.00     0.000 C 
BRANCH   5   6
ATOM      6  C   UNL     1       6.134  23.116  26.533  1.00  0.00     0.006 C 
BRANCH   6   7
ATOM      7  C   UNL     1       5.851  23.908  25.254  1.00  0.00     0.053 C 
BRANCH   7   8
ATOM      8  C   UNL     1       6.563  25.224  25.283  1.00  0.00     0.041 C 
ATOM      9  O   UNL     1       6.996  25.734  24.217  1.00  0.00    -0.550 OA
ATOM     10  O   UNL     1       6.706  25.910  26.483  1.00  0.00    -0.550 OA
ENDBRANCH   7   8
ENDBRANCH   6   7
ENDBRANCH   5   6
ENDBRANCH   4   5
ENDBRANCH   3   4
ENDBRANCH   2   3
ENDBRANCH   1   2
BRANCH   1  11
ATOM     11  C   UNL     1       0.120  24.706  26.537  1.00  0.00     0.000 C 
BRANCH  11  12
ATOM     12  C   UNL     1       0.399  25.814  25.507  1.00  0.00    -0.000 C 
BRANCH  12  13
ATOM     13  C   UNL     1       1.511  25.433  24.516  1.00  0.00    -0.000 C 
BRANCH  13  14
ATOM     14  C   UNL     1       1.380  26.162  23.171  1.00  0.00    -0.000 C 
BRANCH  14  15
ATOM     15  C   UNL     1       2.022  25.348  22.041  1.00  0.00    -0.000 C 
BRANCH  15  16
ATOM     16  C   UNL     1       2.790  24.143  22.595  1.00  0.00    -0.000 C 
BRANCH  16  17
ATOM     17  C   UNL     1       2.371  22.849  21.887  1.00  0.00    -0.003 C 
ATOM     18  C   UNL     1       1.302  22.106  22.685  1.00  0.00     0.004 C 
ENDBRANCH  16  17
ENDBRANCH  15  16
ENDBRANCH  14  15
ENDBRANCH  13  14
ENDBRANCH  12  13
ENDBRANCH  11  12
ENDBRANCH   1  11
TORSDOF 14
ENDMDL
MODEL 7
REMARK VINA RESULT:    -3.265      2.606      3.465
REMARK INTER + INTRA:          -7.099
REMARK INTER:                  -6.255
REMARK INTRA:                  -0.843
REMARK UNBOUND:                -1.161
REMARK SMILES CCCCCCCCCCCCCCCC(=O)[O-]
REMARK SMILES IDX 9 1 10 2 11 3 12 4 13 5 14 6 15 7 16 8 17 9 18 10 8 11 7 12
REMARK SMILES IDX 6 13 5 14 4 15 3 16 2 17 1 18
REMARK H PARENT
REMARK Flexibility Score: inf
ROOT
ATOM      1  C   UNL     1       3.969  23.906  23.272  1.00  0.00     0.000 C 
ENDROOT
BRANCH   1   2
ATOM      2  C   UNL     1       4.174  24.537  24.660  1.00  0.00     0.000 C 
BRANCH   2   3
ATOM      3  C   UNL     1       4.998  23.644  25.604  1.00  0.00     0.000 C 
BRANCH   3   4
ATOM      4  C   UNL     1       4.211  23.035  26.781  1.00  0.00     0.000 C 
BRANCH   4   5
ATOM      5  C   UNL     1       2.730  23.465  26.831  1.00  0.00     0.000 C 
BRANCH   5   6
ATOM      6  C   UNL     1       1.772  22.276  26.666  1.00  0.00     0.006 C 
BRANCH   6   7
ATOM      7  C   UNL     1       0.579  22.648  25.781  1.00  0.00     0.053 C 
BRANCH   7   8
ATOM      8  C   UNL     1       0.039  23.990  26.167  1.00  0.00     0.041 C 
ATOM      9  O   UNL     1       0.514  25.036  25.652  1.00  0.00    -0.550 OA
ATOM     10  O   UNL     1      -1.023  24.081  27.058  1.00  0.00    -0.550 OA
ENDBRANCH   7   8
ENDBRANCH   6   7
ENDBRANCH   5   6
ENDBRANCH   4   5
ENDBRANCH   3   4
ENDBRANCH   2   3
ENDBRANCH   1   2
BRANCH   1  11
ATOM     11  C   UNL     1       2.486  23.809  22.883  1.00  0.00     0.000 C 
BRANCH  11  12
ATOM     12  C   UNL     1       2.068  24.883  21.863  1.00  0.00    -0.000 C 
BRANCH  12  13
ATOM     13  C   UNL     1       1.687  26.214  22.531  1.00  0.00    -0.000 C 
BRANCH  13  14
ATOM     14  C   UNL     1       1.513  27.354  21.517  1.00  0.00    -0.000 C 
BRANCH  14  15
ATOM     15  C   UNL     1       0.368  28.287  21.930  1.00  0.00    -0.000 C 
BRANCH  15  16
ATOM     16  C   UNL     1      -0.474  28.698  20.716  1.00  0.00    -0.000 C 
BRANCH  16  17
ATOM     17  C   UNL     1       0.041  30.007  20.107  1.00  0.00    -0.003 C 
ATOM     18  C   UNL     1      -1.091  31.013  19.925  1.00  0.00     0.004 C 
ENDBRANCH  16  17
ENDBRANCH  15  16
ENDBRANCH  14  15
ENDBRANCH  13  14
ENDBRANCH  12  13
ENDBRANCH  11  12
ENDBRANCH   1  11
TORSDOF 14
ENDMDL
MODEL 8
REMARK VINA RESULT:    -3.184      1.030      2.015
REMARK INTER + INTRA:          -6.951
REMARK INTER:                  -6.103
REMARK INTRA:                  -0.848
REMARK UNBOUND:                -1.161
REMARK SMILES CCCCCCCCCCCCCCCC(=O)[O-]
REMARK SMILES IDX 9 1 10 2 11 3 12 4 13 5 14 6 15 7 16 8 17 9 18 10 8 11 7 12
REMARK SMILES IDX 6 13 5 14 4 15 3 16 2 17 1 18
REMARK H PARENT
REMARK Flexibility Score: inf
ROOT
ATOM      1  C   UNL     1       2.582  24.411  22.019  1.00  0.00     0.000 C 
ENDROOT
BRANCH   1   2
ATOM      2  C   UNL     1       2.111  22.996  21.644  1.00  0.00     0.000 C 
BRANCH   2   3
ATOM      3  C   UNL     1       1.182  22.376  22.704  1.00  0.00     0.000 C 
BRANCH   3   4
ATOM      4  C   UNL     1       1.697  22.461  24.154  1.00  0.00     0.000 C 
BRANCH   4   5
ATOM      5  C   UNL     1       1.032  23.576  24.988  1.00  0.00     0.000 C 
BRANCH   5   6
ATOM      6  C   UNL     1       1.988  24.170  26.034  1.00  0.00     0.006 C 
BRANCH   6   7
ATOM      7  C   UNL     1       3.018  23.133  26.490  1.00  0.00     0.053 C 
BRANCH   7   8
ATOM      8  C   UNL     1       4.386  23.511  26.016  1.00  0.00     0.041 C 
ATOM      9  O   UNL     1       5.385  22.818  26.344  1.00  0.00    -0.550 OA
ATOM     10  O   UNL     1       4.552  24.601  25.170  1.00  0.00    -0.550 OA
ENDBRANCH   7   8
ENDBRANCH   6   7
ENDBRANCH   5   6
ENDBRANCH   4   5
ENDBRANCH   3   4
ENDBRANCH   2   3
ENDBRANCH   1   2
BRANCH   1  11
ATOM     11  C   UNL     1       1.608  25.500  21.541  1.00  0.00     0.000 C 
BRANCH  11  12
ATOM     12  C   UNL     1       1.254  26.507  22.650  1.00  0.00    -0.000 C 
BRANCH  12  13
ATOM     13  C   UNL     1       1.107  27.942  22.119  1.00  0.00    -0.000 C 
BRANCH  13  14
ATOM     14  C   UNL     1      -0.095  28.102  21.176  1.00  0.00    -0.000 C 
BRANCH  14  15
ATOM     15  C   UNL     1       0.000  29.411  20.382  1.00  0.00    -0.000 C 
BRANCH  15  16
ATOM     16  C   UNL     1      -1.372  30.082  20.257  1.00  0.00    -0.000 C 
BRANCH  16  17
ATOM     17  C   UNL     1      -1.245  31.489  19.662  1.00  0.00    -0.003 C 
ATOM     18  C   UNL     1      -2.397  31.790  18.707  1.00  0.00     0.004 C 
ENDBRANCH  16  17
ENDBRANCH  15  16
ENDBRANCH  14  15
ENDBRANCH  13  14
ENDBRANCH  12  13
ENDBRANCH  11  12
ENDBRANCH   1  11
TORSDOF 14
ENDMDL
MODEL 9
REMARK VINA RESULT:    -2.828      5.017      9.682
REMARK INTER + INTRA:          -6.303
REMARK INTER:                  -5.569
REMARK INTRA:                  -0.734
REMARK UNBOUND:                -1.161
REMARK SMILES CCCCCCCCCCCCCCCC(=O)[O-]
REMARK SMILES IDX 9 1 10 2 11 3 12 4 13 5 14 6 15 7 16 8 17 9 18 10 8 11 7 12
REMARK SMILES IDX 6 13 5 14 4 15 3 16 2 17 1 18
REMARK H PARENT
REMARK Flexibility Score: inf
ROOT
ATOM      1  C   UNL     1       6.519  21.569  26.642  1.00  0.00     0.000 C 
ENDROOT
BRANCH   1   2
ATOM      2  C   UNL     1       7.009  22.652  25.666  1.00  0.00     0.000 C 
BRANCH   2   3
ATOM      3  C   UNL     1       6.166  23.938  25.730  1.00  0.00     0.000 C 
BRANCH   3   4
ATOM      4  C   UNL     1       5.073  24.058  24.651  1.00  0.00     0.000 C 
BRANCH   4   5
ATOM      5  C   UNL     1       3.652  23.744  25.165  1.00  0.00     0.000 C 
BRANCH   5   6
ATOM      6  C   UNL     1       2.566  24.468  24.354  1.00  0.00     0.006 C 
BRANCH   6   7
ATOM      7  C   UNL     1       1.482  23.490  23.890  1.00  0.00     0.053 C 
BRANCH   7   8
ATOM      8  C   UNL     1       1.802  22.962  22.526  1.00  0.00     0.041 C 
ATOM      9  O   UNL     1       2.531  23.627  21.744  1.00  0.00    -0.550 OA
ATOM     10  O   UNL     1       1.334  21.713  22.138  1.00  0.00    -0.550 OA
ENDBRANCH   7   8
ENDBRANCH   6   7
ENDBRANCH   5   6
ENDBRANCH   4   5
ENDBRANCH   3   4
ENDBRANCH   2   3
ENDBRANCH   1   2
BRANCH   1  11
ATOM     11  C   UNL     1       7.124  20.189  26.342  1.00  0.00     0.000 C 
BRANCH  11  12
ATOM     12  C   UNL     1       6.419  19.054  27.104  1.00  0.00    -0.000 C 
BRANCH  12  13
ATOM     13  C   UNL     1       5.601  18.140  26.177  1.00  0.00    -0.000 C 
BRANCH  13  14
ATOM     14  C   UNL     1       6.447  17.533  25.049  1.00  0.00    -0.000 C 
BRANCH  14  15
ATOM     15  C   UNL     1       6.192  16.026  24.920  1.00  0.00    -0.000 C 
BRANCH  15  16
ATOM     16  C   UNL     1       6.492  15.535  23.499  1.00  0.00    -0.000 C 
BRANCH  16  17
ATOM     17  C   UNL     1       5.328  14.704  22.947  1.00  0.00    -0.003 C 
ATOM     18  C   UNL     1       3.984  15.280  23.385  1.00  0.00     0.004 C 
ENDBRANCH  16  17
ENDBRANCH  15  16
ENDBRANCH  14  15
ENDBRANCH  13  14
ENDBRANCH  12  13
ENDBRANCH  11  12
ENDBRANCH   1  11
TORSDOF 14
ENDMDL
