MODEL 1
REMARK VINA RESULT:    -8.376      0.000      0.000
REMARK INTER + INTRA:         -14.019
REMARK INTER:                 -12.294
REMARK INTRA:                  -1.725
REMARK UNBOUND:                -1.725
REMARK SMILES O=c1c(O[C@H]2O[C@H](CO)[C@@H](O)[C@H](O)[C@H]2O)c(-c2ccc(O)c(O)c2)oc2cc(O)cc(O)c12
REMARK SMILES IDX 4 1 3 2 16 3 25 4 2 5 26 6 1 7 33 8 27 9 31 10 28 11 30 12
REMARK SMILES IDX 17 13 18 14 19 15 20 16 24 17 22 18 21 19 23 21 32 23 29 25
REMARK SMILES IDX 5 27 14 28 6 29 12 30 7 31 10 32 15 33 13 35 8 37 9 38 11 40
REMARK H PARENT 21 20 23 22 32 24 29 26 15 34 13 36 9 39 11 41
REMARK Flexibility Score: inf
ROOT
ATOM      1  O   UNL     1      50.377  61.050   1.456  1.00  0.00    -0.454 OA
ENDROOT
BRANCH   1   2
ATOM      2  C   UNL     1      50.994  61.148   2.709  1.00  0.00     0.214 A 
ATOM      3  C   UNL     1      51.563  62.355   3.198  1.00  0.00     0.180 A 
ATOM      4  O   UNL     1      52.068  62.384   4.439  1.00  0.00    -0.452 OA
ATOM      5  C   UNL     1      50.802  60.117   3.632  1.00  0.00     0.239 A 
ATOM      6  C   UNL     1      51.750  61.479   5.353  1.00  0.00     0.146 A 
ATOM      7  O   UNL     1      50.542  58.926   3.228  1.00  0.00    -0.285 OA
ATOM      8  C   UNL     1      50.897  60.396   4.991  1.00  0.00     0.111 A 
ATOM      9  C   UNL     1      52.190  61.643   6.685  1.00  0.00     0.094 A 
ATOM     10  C   UNL     1      50.032  59.733   5.933  1.00  0.00     0.134 A 
ATOM     11  C   UNL     1      51.425  60.803   7.734  1.00  0.00     0.123 A 
ATOM     12  C   UNL     1      50.224  59.864   7.311  1.00  0.00     0.093 A 
BRANCH   3  13
ATOM     13  C   UNL     1      51.318  63.686   2.578  1.00  0.00     0.025 A 
ATOM     14  C   UNL     1      50.872  64.718   3.446  1.00  0.00     0.016 A 
ATOM     15  C   UNL     1      50.978  66.060   3.084  1.00  0.00     0.051 A 
ATOM     16  C   UNL     1      51.511  66.397   1.834  1.00  0.00     0.157 A 
ATOM     17  C   UNL     1      51.838  64.028   1.317  1.00  0.00     0.062 A 
ATOM     18  C   UNL     1      51.909  65.381   0.927  1.00  0.00     0.158 A 
BRANCH  16  19
ATOM     19  O   UNL     1      51.654  67.743   1.485  1.00  0.00    -0.504 OA
ATOM     20  H   UNL     1      51.839  68.444   2.202  1.00  0.00     0.293 HD
ENDBRANCH  16  19
BRANCH  18  21
ATOM     21  O   UNL     1      52.426  65.689  -0.329  1.00  0.00    -0.504 OA
ATOM     22  H   UNL     1      52.582  64.980  -1.026  1.00  0.00     0.293 HD
ENDBRANCH  18  21
ENDBRANCH   3  13
BRANCH  10  23
ATOM     23  O   UNL     1      48.910  59.046   5.467  1.00  0.00    -0.507 OA
ATOM     24  H   UNL     1      48.873  58.030   5.469  1.00  0.00     0.293 HD
ENDBRANCH  10  23
BRANCH  11  25
ATOM     25  O   UNL     1      51.885  60.993   9.129  1.00  0.00    -0.508 OA
ATOM     26  H   UNL     1      52.312  61.880   9.351  1.00  0.00     0.293 HD
ENDBRANCH  11  25
ENDBRANCH   1   2
BRANCH   1  27
ATOM     27  C   UNL     1      50.969  60.798   0.176  1.00  0.00     0.339 C 
ATOM     28  C   UNL     1      50.219  59.662  -0.549  1.00  0.00     0.214 C 
ATOM     29  O   UNL     1      52.389  60.741   0.210  1.00  0.00    -0.332 OA
ATOM     30  C   UNL     1      51.100  59.068  -1.659  1.00  0.00     0.180 C 
ATOM     31  C   UNL     1      52.922  59.420   0.156  1.00  0.00     0.179 C 
ATOM     32  C   UNL     1      52.445  58.586  -1.070  1.00  0.00     0.177 C 
BRANCH  28  33
ATOM     33  O   UNL     1      49.855  58.663   0.389  1.00  0.00    -0.384 OA
ATOM     34  H   UNL     1      50.152  57.784   0.028  1.00  0.00     0.211 HD
ENDBRANCH  28  33
BRANCH  30  35
ATOM     35  O   UNL     1      51.352  60.056  -2.619  1.00  0.00    -0.387 OA
ATOM     36  H   UNL     1      50.715  60.800  -2.468  1.00  0.00     0.211 HD
ENDBRANCH  30  35
BRANCH  31  37
ATOM     37  C   UNL     1      54.453  59.561   0.073  1.00  0.00     0.191 C 
BRANCH  37  38
ATOM     38  O   UNL     1      55.066  58.388   0.512  1.00  0.00    -0.394 OA
ATOM     39  H   UNL     1      54.640  58.131   1.387  1.00  0.00     0.210 HD
ENDBRANCH  37  38
ENDBRANCH  31  37
BRANCH  32  40
ATOM     40  O   UNL     1      52.413  57.219  -0.750  1.00  0.00    -0.387 OA
ATOM     41  H   UNL     1      51.474  56.918  -0.824  1.00  0.00     0.211 HD
ENDBRANCH  32  40
ENDBRANCH   1  27
TORSDOF 12
ENDMDL
MODEL 2
REMARK VINA RESULT:    -8.352      3.693      5.274
REMARK INTER + INTRA:         -13.983
REMARK INTER:                 -12.109
REMARK INTRA:                  -1.874
REMARK UNBOUND:                -1.725
REMARK SMILES O=c1c(O[C@H]2O[C@H](CO)[C@@H](O)[C@H](O)[C@H]2O)c(-c2ccc(O)c(O)c2)oc2cc(O)cc(O)c12
REMARK SMILES IDX 4 1 3 2 16 3 25 4 2 5 26 6 1 7 33 8 27 9 31 10 28 11 30 12
REMARK SMILES IDX 17 13 18 14 19 15 20 16 24 17 22 18 21 19 23 21 32 23 29 25
REMARK SMILES IDX 5 27 14 28 6 29 12 30 7 31 10 32 15 33 13 35 8 37 9 38 11 40
REMARK H PARENT 21 20 23 22 32 24 29 26 15 34 13 36 9 39 11 41
REMARK Flexibility Score: inf
ROOT
ATOM      1  O   UNL     1      48.970  62.808   1.228  1.00  0.00    -0.454 OA
ENDROOT
BRANCH   1   2
ATOM      2  C   UNL     1      48.530  62.089   2.346  1.00  0.00     0.214 A 
ATOM      3  C   UNL     1      47.549  62.585   3.246  1.00  0.00     0.180 A 
ATOM      4  O   UNL     1      47.129  61.803   4.250  1.00  0.00    -0.452 OA
ATOM      5  C   UNL     1      48.846  60.731   2.435  1.00  0.00     0.239 A 
ATOM      6  C   UNL     1      47.300  60.489   4.243  1.00  0.00     0.146 A 
ATOM      7  O   UNL     1      49.889  60.268   1.847  1.00  0.00    -0.285 OA
ATOM      8  C   UNL     1      48.016  59.888   3.167  1.00  0.00     0.111 A 
ATOM      9  C   UNL     1      46.704  59.699   5.250  1.00  0.00     0.094 A 
ATOM     10  C   UNL     1      47.776  58.538   2.726  1.00  0.00     0.134 A 
ATOM     11  C   UNL     1      46.592  58.192   4.918  1.00  0.00     0.123 A 
ATOM     12  C   UNL     1      47.093  57.622   3.530  1.00  0.00     0.093 A 
BRANCH   3  13
ATOM     13  C   UNL     1      46.689  63.763   2.952  1.00  0.00     0.025 A 
ATOM     14  C   UNL     1      45.333  63.493   2.625  1.00  0.00     0.016 A 
ATOM     15  C   UNL     1      44.359  64.487   2.709  1.00  0.00     0.051 A 
ATOM     16  C   UNL     1      44.727  65.781   3.100  1.00  0.00     0.157 A 
ATOM     17  C   UNL     1      47.056  65.067   3.329  1.00  0.00     0.062 A 
ATOM     18  C   UNL     1      46.084  66.088   3.375  1.00  0.00     0.158 A 
BRANCH  16  19
ATOM     19  O   UNL     1      43.746  66.769   3.222  1.00  0.00    -0.504 OA
ATOM     20  H   UNL     1      43.725  67.376   4.041  1.00  0.00     0.293 HD
ENDBRANCH  16  19
BRANCH  18  21
ATOM     21  O   UNL     1      46.478  67.370   3.748  1.00  0.00    -0.504 OA
ATOM     22  H   UNL     1      45.975  68.189   3.445  1.00  0.00     0.293 HD
ENDBRANCH  18  21
ENDBRANCH   3  13
BRANCH  10  23
ATOM     23  O   UNL     1      48.125  58.170   1.425  1.00  0.00    -0.507 OA
ATOM     24  H   UNL     1      48.951  57.609   1.237  1.00  0.00     0.293 HD
ENDBRANCH  10  23
BRANCH  11  25
ATOM     25  O   UNL     1      45.954  57.375   5.975  1.00  0.00    -0.508 OA
ATOM     26  H   UNL     1      45.670  56.442   5.720  1.00  0.00     0.293 HD
ENDBRANCH  11  25
ENDBRANCH   1   2
BRANCH   1  27
ATOM     27  C   UNL     1      50.028  63.769   1.132  1.00  0.00     0.339 C 
ATOM     28  C   UNL     1      50.814  63.574  -0.181  1.00  0.00     0.214 C 
ATOM     29  O   UNL     1      50.771  63.916   2.335  1.00  0.00    -0.332 OA
ATOM     30  C   UNL     1      52.193  64.243  -0.078  1.00  0.00     0.180 C 
ATOM     31  C   UNL     1      52.039  63.265   2.321  1.00  0.00     0.179 C 
ATOM     32  C   UNL     1      52.963  63.688   1.141  1.00  0.00     0.177 C 
BRANCH  28  33
ATOM     33  O   UNL     1      50.948  62.189  -0.451  1.00  0.00    -0.384 OA
ATOM     34  H   UNL     1      51.514  62.090  -1.263  1.00  0.00     0.211 HD
ENDBRANCH  28  33
BRANCH  30  35
ATOM     35  O   UNL     1      52.021  65.624   0.083  1.00  0.00    -0.387 OA
ATOM     36  H   UNL     1      51.260  65.906  -0.486  1.00  0.00     0.211 HD
ENDBRANCH  30  35
BRANCH  31  37
ATOM     37  C   UNL     1      52.744  63.638   3.638  1.00  0.00     0.191 C 
BRANCH  37  38
ATOM     38  O   UNL     1      54.023  64.125   3.375  1.00  0.00    -0.394 OA
ATOM     39  H   UNL     1      54.663  63.651   3.992  1.00  0.00     0.210 HD
ENDBRANCH  37  38
ENDBRANCH  31  37
BRANCH  32  40
ATOM     40  O   UNL     1      53.814  62.629   0.782  1.00  0.00    -0.387 OA
ATOM     41  H   UNL     1      53.467  62.241  -0.059  1.00  0.00     0.211 HD
ENDBRANCH  32  40
ENDBRANCH   1  27
TORSDOF 12
ENDMDL
MODEL 3
REMARK VINA RESULT:    -8.352      2.767      7.443
REMARK INTER + INTRA:         -13.983
REMARK INTER:                 -12.160
REMARK INTRA:                  -1.823
REMARK UNBOUND:                -1.725
REMARK SMILES O=c1c(O[C@H]2O[C@H](CO)[C@@H](O)[C@H](O)[C@H]2O)c(-c2ccc(O)c(O)c2)oc2cc(O)cc(O)c12
REMARK SMILES IDX 4 1 3 2 16 3 25 4 2 5 26 6 1 7 33 8 27 9 31 10 28 11 30 12
REMARK SMILES IDX 17 13 18 14 19 15 20 16 24 17 22 18 21 19 23 21 32 23 29 25
REMARK SMILES IDX 5 27 14 28 6 29 12 30 7 31 10 32 15 33 13 35 8 37 9 38 11 40
REMARK H PARENT 21 20 23 22 32 24 29 26 15 34 13 36 9 39 11 41
REMARK Flexibility Score: inf
ROOT
ATOM      1  O   UNL     1      50.340  61.409   5.029  1.00  0.00    -0.454 OA
ENDROOT
BRANCH   1   2
ATOM      2  C   UNL     1      50.386  60.770   3.783  1.00  0.00     0.214 A 
ATOM      3  C   UNL     1      49.288  60.043   3.248  1.00  0.00     0.180 A 
ATOM      4  O   UNL     1      49.387  59.524   2.016  1.00  0.00    -0.452 OA
ATOM      5  C   UNL     1      51.429  61.082   2.908  1.00  0.00     0.239 A 
ATOM      6  C   UNL     1      50.288  59.946   1.141  1.00  0.00     0.146 A 
ATOM      7  O   UNL     1      52.554  61.499   3.364  1.00  0.00    -0.285 OA
ATOM      8  C   UNL     1      51.233  60.936   1.539  1.00  0.00     0.111 A 
ATOM      9  C   UNL     1      50.248  59.472  -0.188  1.00  0.00     0.094 A 
ATOM     10  C   UNL     1      51.825  61.868   0.615  1.00  0.00     0.134 A 
ATOM     11  C   UNL     1      51.034  60.327  -1.210  1.00  0.00     0.123 A 
ATOM     12  C   UNL     1      51.789  61.644  -0.765  1.00  0.00     0.093 A 
BRANCH   3  13
ATOM     13  C   UNL     1      47.908  60.121   3.799  1.00  0.00     0.025 A 
ATOM     14  C   UNL     1      47.163  61.289   3.484  1.00  0.00     0.016 A 
ATOM     15  C   UNL     1      45.775  61.313   3.602  1.00  0.00     0.051 A 
ATOM     16  C   UNL     1      45.102  60.173   4.062  1.00  0.00     0.157 A 
ATOM     17  C   UNL     1      47.230  58.985   4.275  1.00  0.00     0.062 A 
ATOM     18  C   UNL     1      45.830  59.015   4.438  1.00  0.00     0.158 A 
BRANCH  16  19
ATOM     19  O   UNL     1      43.707  60.182   4.145  1.00  0.00    -0.504 OA
ATOM     20  H   UNL     1      43.153  60.677   3.447  1.00  0.00     0.293 HD
ENDBRANCH  16  19
BRANCH  18  21
ATOM     21  O   UNL     1      45.187  57.875   4.915  1.00  0.00    -0.504 OA
ATOM     22  H   UNL     1      44.640  57.890   5.760  1.00  0.00     0.293 HD
ENDBRANCH  18  21
ENDBRANCH   3  13
BRANCH  10  23
ATOM     23  O   UNL     1      52.338  63.075   1.092  1.00  0.00    -0.507 OA
ATOM     24  H   UNL     1      52.766  63.753   0.468  1.00  0.00     0.293 HD
ENDBRANCH  10  23
BRANCH  11  25
ATOM     25  O   UNL     1      50.975  59.829  -2.604  1.00  0.00    -0.508 OA
ATOM     26  H   UNL     1      51.374  58.919  -2.779  1.00  0.00     0.293 HD
ENDBRANCH  11  25
ENDBRANCH   1   2
BRANCH   1  27
ATOM     27  C   UNL     1      50.776  60.928   6.306  1.00  0.00     0.339 C 
ATOM     28  C   UNL     1      51.681  61.971   6.993  1.00  0.00     0.214 C 
ATOM     29  O   UNL     1      51.220  59.577   6.283  1.00  0.00    -0.332 OA
ATOM     30  C   UNL     1      52.519  61.304   8.094  1.00  0.00     0.180 C 
ATOM     31  C   UNL     1      52.637  59.428   6.304  1.00  0.00     0.179 C 
ATOM     32  C   UNL     1      53.337  60.133   7.503  1.00  0.00     0.177 C 
BRANCH  28  33
ATOM     33  O   UNL     1      52.518  62.580   6.026  1.00  0.00    -0.384 OA
ATOM     34  H   UNL     1      51.971  62.751   5.213  1.00  0.00     0.211 HD
ENDBRANCH  28  33
BRANCH  30  35
ATOM     35  O   UNL     1      51.662  60.806   9.083  1.00  0.00    -0.387 OA
ATOM     36  H   UNL     1      51.382  59.894   8.815  1.00  0.00     0.211 HD
ENDBRANCH  30  35
BRANCH  31  37
ATOM     37  C   UNL     1      52.922  57.918   6.404  1.00  0.00     0.191 C 
BRANCH  37  38
ATOM     38  O   UNL     1      54.244  57.657   6.045  1.00  0.00    -0.394 OA
ATOM     39  H   UNL     1      54.279  57.588   5.041  1.00  0.00     0.210 HD
ENDBRANCH  37  38
ENDBRANCH  31  37
BRANCH  32  40
ATOM     40  O   UNL     1      54.635  60.533   7.145  1.00  0.00    -0.387 OA
ATOM     41  H   UNL     1      55.234  59.758   7.283  1.00  0.00     0.211 HD
ENDBRANCH  32  40
ENDBRANCH   1  27
TORSDOF 12
ENDMDL
MODEL 4
REMARK VINA RESULT:    -8.345      2.472      5.145
REMARK INTER + INTRA:         -13.973
REMARK INTER:                 -12.189
REMARK INTRA:                  -1.784
REMARK UNBOUND:                -1.725
REMARK SMILES O=c1c(O[C@H]2O[C@H](CO)[C@@H](O)[C@H](O)[C@H]2O)c(-c2ccc(O)c(O)c2)oc2cc(O)cc(O)c12
REMARK SMILES IDX 4 1 3 2 16 3 25 4 2 5 26 6 1 7 33 8 27 9 31 10 28 11 30 12
REMARK SMILES IDX 17 13 18 14 19 15 20 16 24 17 22 18 21 19 23 21 32 23 29 25
REMARK SMILES IDX 5 27 14 28 6 29 12 30 7 31 10 32 15 33 13 35 8 37 9 38 11 40
REMARK H PARENT 21 20 23 22 32 24 29 26 15 34 13 36 9 39 11 41
REMARK Flexibility Score: inf
ROOT
ATOM      1  O   UNL     1      51.663  61.276   2.682  1.00  0.00    -0.454 OA
ENDROOT
BRANCH   1   2
ATOM      2  C   UNL     1      50.837  60.281   3.219  1.00  0.00     0.214 A 
ATOM      3  C   UNL     1      51.210  59.489   4.338  1.00  0.00     0.180 A 
ATOM      4  O   UNL     1      50.331  58.609   4.838  1.00  0.00    -0.452 OA
ATOM      5  C   UNL     1      49.495  60.246   2.834  1.00  0.00     0.239 A 
ATOM      6  C   UNL     1      49.033  58.686   4.586  1.00  0.00     0.146 A 
ATOM      7  O   UNL     1      49.134  60.717   1.696  1.00  0.00    -0.285 OA
ATOM      8  C   UNL     1      48.555  59.693   3.698  1.00  0.00     0.111 A 
ATOM      9  C   UNL     1      48.137  57.826   5.259  1.00  0.00     0.094 A 
ATOM     10  C   UNL     1      47.233  60.257   3.794  1.00  0.00     0.134 A 
ATOM     11  C   UNL     1      46.657  58.275   5.232  1.00  0.00     0.123 A 
ATOM     12  C   UNL     1      46.223  59.619   4.519  1.00  0.00     0.093 A 
BRANCH   3  13
ATOM     13  C   UNL     1      52.361  59.814   5.224  1.00  0.00     0.025 A 
ATOM     14  C   UNL     1      52.228  60.968   6.042  1.00  0.00     0.016 A 
ATOM     15  C   UNL     1      53.036  61.156   7.161  1.00  0.00     0.051 A 
ATOM     16  C   UNL     1      54.015  60.203   7.472  1.00  0.00     0.157 A 
ATOM     17  C   UNL     1      53.355  58.868   5.531  1.00  0.00     0.062 A 
ATOM     18  C   UNL     1      54.206  59.073   6.637  1.00  0.00     0.158 A 
BRANCH  16  19
ATOM     19  O   UNL     1      54.801  60.371   8.616  1.00  0.00    -0.504 OA
ATOM     20  H   UNL     1      55.129  59.560   9.140  1.00  0.00     0.293 HD
ENDBRANCH  16  19
BRANCH  18  21
ATOM     21  O   UNL     1      55.184  58.121   6.915  1.00  0.00    -0.504 OA
ATOM     22  H   UNL     1      55.478  57.923   7.857  1.00  0.00     0.293 HD
ENDBRANCH  18  21
ENDBRANCH   3  13
BRANCH  10  23
ATOM     23  O   UNL     1      46.986  61.521   3.255  1.00  0.00    -0.507 OA
ATOM     24  H   UNL     1      46.724  62.306   3.845  1.00  0.00     0.293 HD
ENDBRANCH  10  23
BRANCH  11  25
ATOM     25  O   UNL     1      45.728  57.374   5.952  1.00  0.00    -0.508 OA
ATOM     26  H   UNL     1      45.496  56.503   5.499  1.00  0.00     0.293 HD
ENDBRANCH  11  25
ENDBRANCH   1   2
BRANCH   1  27
ATOM     27  C   UNL     1      52.625  61.176   1.625  1.00  0.00     0.339 C 
ATOM     28  C   UNL     1      52.375  62.269   0.565  1.00  0.00     0.214 C 
ATOM     29  O   UNL     1      52.834  59.845   1.170  1.00  0.00    -0.332 OA
ATOM     30  C   UNL     1      53.056  61.890  -0.759  1.00  0.00     0.180 C 
ATOM     31  C   UNL     1      52.191  59.543  -0.065  1.00  0.00     0.179 C 
ATOM     32  C   UNL     1      52.564  60.504  -1.233  1.00  0.00     0.177 C 
BRANCH  28  33
ATOM     33  O   UNL     1      50.980  62.436   0.380  1.00  0.00    -0.384 OA
ATOM     34  H   UNL     1      50.830  62.729  -0.559  1.00  0.00     0.211 HD
ENDBRANCH  28  33
BRANCH  30  35
ATOM     35  O   UNL     1      54.442  61.837  -0.561  1.00  0.00    -0.387 OA
ATOM     36  H   UNL     1      54.714  60.884  -0.558  1.00  0.00     0.211 HD
ENDBRANCH  30  35
BRANCH  31  37
ATOM     37  C   UNL     1      52.629  58.120  -0.458  1.00  0.00     0.191 C 
BRANCH  37  38
ATOM     38  O   UNL     1      51.745  57.589  -1.395  1.00  0.00    -0.394 OA
ATOM     39  H   UNL     1      51.902  56.595  -1.434  1.00  0.00     0.210 HD
ENDBRANCH  37  38
ENDBRANCH  31  37
BRANCH  32  40
ATOM     40  O   UNL     1      51.495  60.613  -2.138  1.00  0.00    -0.387 OA
ATOM     41  H   UNL     1      51.006  59.753  -2.126  1.00  0.00     0.211 HD
ENDBRANCH  32  40
ENDBRANCH   1  27
TORSDOF 12
ENDMDL
MODEL 5
REMARK VINA RESULT:    -8.218      3.738      6.165
REMARK INTER + INTRA:         -13.787
REMARK INTER:                 -12.757
REMARK INTRA:                  -1.030
REMARK UNBOUND:                -1.725
REMARK SMILES O=c1c(O[C@H]2O[C@H](CO)[C@@H](O)[C@H](O)[C@H]2O)c(-c2ccc(O)c(O)c2)oc2cc(O)cc(O)c12
REMARK SMILES IDX 4 1 3 2 16 3 25 4 2 5 26 6 1 7 33 8 27 9 31 10 28 11 30 12
REMARK SMILES IDX 17 13 18 14 19 15 20 16 24 17 22 18 21 19 23 21 32 23 29 25
REMARK SMILES IDX 5 27 14 28 6 29 12 30 7 31 10 32 15 33 13 35 8 37 9 38 11 40
REMARK H PARENT 21 20 23 22 32 24 29 26 15 34 13 36 9 39 11 41
REMARK Flexibility Score: inf
ROOT
ATOM      1  O   UNL     1      50.263  61.575   5.326  1.00  0.00    -0.454 OA
ENDROOT
BRANCH   1   2
ATOM      2  C   UNL     1      49.019  62.139   5.019  1.00  0.00     0.214 A 
ATOM      3  C   UNL     1      48.868  63.242   4.137  1.00  0.00     0.180 A 
ATOM      4  O   UNL     1      47.635  63.674   3.836  1.00  0.00    -0.452 OA
ATOM      5  C   UNL     1      47.862  61.431   5.356  1.00  0.00     0.239 A 
ATOM      6  C   UNL     1      46.558  62.924   4.018  1.00  0.00     0.146 A 
ATOM      7  O   UNL     1      47.873  60.599   6.333  1.00  0.00    -0.285 OA
ATOM      8  C   UNL     1      46.700  61.639   4.619  1.00  0.00     0.111 A 
ATOM      9  C   UNL     1      45.305  63.369   3.543  1.00  0.00     0.094 A 
ATOM     10  C   UNL     1      45.805  60.545   4.347  1.00  0.00     0.134 A 
ATOM     11  C   UNL     1      44.227  62.267   3.412  1.00  0.00     0.123 A 
ATOM     12  C   UNL     1      44.553  60.760   3.764  1.00  0.00     0.093 A 
BRANCH   3  13
ATOM     13  C   UNL     1      49.950  63.726   3.237  1.00  0.00     0.025 A 
ATOM     14  C   UNL     1      49.679  63.696   1.843  1.00  0.00     0.016 A 
ATOM     15  C   UNL     1      50.425  64.458   0.947  1.00  0.00     0.051 A 
ATOM     16  C   UNL     1      51.478  65.249   1.424  1.00  0.00     0.157 A 
ATOM     17  C   UNL     1      51.018  64.510   3.710  1.00  0.00     0.062 A 
ATOM     18  C   UNL     1      51.805  65.250   2.804  1.00  0.00     0.158 A 
BRANCH  16  19
ATOM     19  O   UNL     1      52.203  66.044   0.531  1.00  0.00    -0.504 OA
ATOM     20  H   UNL     1      51.746  66.454  -0.282  1.00  0.00     0.293 HD
ENDBRANCH  16  19
BRANCH  18  21
ATOM     21  O   UNL     1      52.858  66.014   3.302  1.00  0.00    -0.504 OA
ATOM     22  H   UNL     1      52.878  66.328   4.258  1.00  0.00     0.293 HD
ENDBRANCH  18  21
ENDBRANCH   3  13
BRANCH  10  23
ATOM     23  O   UNL     1      46.240  59.235   4.556  1.00  0.00    -0.507 OA
ATOM     24  H   UNL     1      45.657  58.554   5.034  1.00  0.00     0.293 HD
ENDBRANCH  10  23
BRANCH  11  25
ATOM     25  O   UNL     1      42.921  62.742   2.900  1.00  0.00    -0.508 OA
ATOM     26  H   UNL     1      42.122  62.153   3.077  1.00  0.00     0.293 HD
ENDBRANCH  11  25
ENDBRANCH   1   2
BRANCH   1  27
ATOM     27  C   UNL     1      50.767  61.140   6.595  1.00  0.00     0.339 C 
ATOM     28  C   UNL     1      51.806  62.144   7.134  1.00  0.00     0.214 C 
ATOM     29  O   UNL     1      51.098  59.758   6.630  1.00  0.00    -0.332 OA
ATOM     30  C   UNL     1      52.680  61.479   8.208  1.00  0.00     0.180 C 
ATOM     31  C   UNL     1      52.496  59.491   6.549  1.00  0.00     0.179 C 
ATOM     32  C   UNL     1      53.349  60.208   7.637  1.00  0.00     0.177 C 
BRANCH  28  33
ATOM     33  O   UNL     1      52.604  62.618   6.063  1.00  0.00    -0.384 OA
ATOM     34  H   UNL     1      53.169  63.361   6.410  1.00  0.00     0.211 HD
ENDBRANCH  28  33
BRANCH  30  35
ATOM     35  O   UNL     1      51.873  61.118   9.295  1.00  0.00    -0.387 OA
ATOM     36  H   UNL     1      51.013  60.778   8.938  1.00  0.00     0.211 HD
ENDBRANCH  30  35
BRANCH  31  37
ATOM     37  C   UNL     1      52.669  57.971   6.731  1.00  0.00     0.191 C 
BRANCH  37  38
ATOM     38  O   UNL     1      53.946  57.584   6.329  1.00  0.00    -0.394 OA
ATOM     39  H   UNL     1      54.121  56.668   6.709  1.00  0.00     0.210 HD
ENDBRANCH  37  38
ENDBRANCH  31  37
BRANCH  32  40
ATOM     40  O   UNL     1      54.640  60.473   7.150  1.00  0.00    -0.387 OA
ATOM     41  H   UNL     1      54.777  61.452   7.190  1.00  0.00     0.211 HD
ENDBRANCH  32  40
ENDBRANCH   1  27
TORSDOF 12
ENDMDL
MODEL 6
REMARK VINA RESULT:    -8.201      1.491      6.381
REMARK INTER + INTRA:         -13.762
REMARK INTER:                 -11.966
REMARK INTRA:                  -1.796
REMARK UNBOUND:                -1.725
REMARK SMILES O=c1c(O[C@H]2O[C@H](CO)[C@@H](O)[C@H](O)[C@H]2O)c(-c2ccc(O)c(O)c2)oc2cc(O)cc(O)c12
REMARK SMILES IDX 4 1 3 2 16 3 25 4 2 5 26 6 1 7 33 8 27 9 31 10 28 11 30 12
REMARK SMILES IDX 17 13 18 14 19 15 20 16 24 17 22 18 21 19 23 21 32 23 29 25
REMARK SMILES IDX 5 27 14 28 6 29 12 30 7 31 10 32 15 33 13 35 8 37 9 38 11 40
REMARK H PARENT 21 20 23 22 32 24 29 26 15 34 13 36 9 39 11 41
REMARK Flexibility Score: inf
ROOT
ATOM      1  O   UNL     1      52.524  61.621   4.522  1.00  0.00    -0.454 OA
ENDROOT
BRANCH   1   2
ATOM      2  C   UNL     1      51.970  61.194   3.309  1.00  0.00     0.214 A 
ATOM      3  C   UNL     1      51.267  62.065   2.433  1.00  0.00     0.180 A 
ATOM      4  O   UNL     1      50.832  61.595   1.255  1.00  0.00    -0.452 OA
ATOM      5  C   UNL     1      52.354  59.952   2.798  1.00  0.00     0.239 A 
ATOM      6  C   UNL     1      51.323  60.493   0.709  1.00  0.00     0.146 A 
ATOM      7  O   UNL     1      52.754  59.022   3.587  1.00  0.00    -0.285 OA
ATOM      8  C   UNL     1      52.296  59.736   1.425  1.00  0.00     0.111 A 
ATOM      9  C   UNL     1      50.939  60.128  -0.600  1.00  0.00     0.094 A 
ATOM     10  C   UNL     1      53.296  58.931   0.772  1.00  0.00     0.134 A 
ATOM     11  C   UNL     1      51.871  59.106  -1.294  1.00  0.00     0.123 A 
ATOM     12  C   UNL     1      53.164  58.556  -0.569  1.00  0.00     0.093 A 
BRANCH   3  13
ATOM     13  C   UNL     1      51.290  63.548   2.559  1.00  0.00     0.025 A 
ATOM     14  C   UNL     1      52.515  64.193   2.244  1.00  0.00     0.016 A 
ATOM     15  C   UNL     1      52.559  65.555   1.952  1.00  0.00     0.051 A 
ATOM     16  C   UNL     1      51.377  66.307   1.993  1.00  0.00     0.157 A 
ATOM     17  C   UNL     1      50.109  64.309   2.615  1.00  0.00     0.062 A 
ATOM     18  C   UNL     1      50.152  65.696   2.363  1.00  0.00     0.158 A 
BRANCH  16  19
ATOM     19  O   UNL     1      51.413  67.665   1.663  1.00  0.00    -0.504 OA
ATOM     20  H   UNL     1      50.547  68.195   1.571  1.00  0.00     0.293 HD
ENDBRANCH  16  19
BRANCH  18  21
ATOM     21  O   UNL     1      48.967  66.425   2.429  1.00  0.00    -0.504 OA
ATOM     22  H   UNL     1      48.850  67.292   1.930  1.00  0.00     0.293 HD
ENDBRANCH  18  21
ENDBRANCH   3  13
BRANCH  10  23
ATOM     23  O   UNL     1      54.475  58.618   1.450  1.00  0.00    -0.507 OA
ATOM     24  H   UNL     1      55.330  59.145   1.298  1.00  0.00     0.293 HD
ENDBRANCH  10  23
BRANCH  11  25
ATOM     25  O   UNL     1      51.466  58.741  -2.671  1.00  0.00    -0.508 OA
ATOM     26  H   UNL     1      51.310  59.501  -3.316  1.00  0.00     0.293 HD
ENDBRANCH  11  25
ENDBRANCH   1   2
BRANCH   1  27
ATOM     27  C   UNL     1      51.937  61.626   5.829  1.00  0.00     0.339 C 
ATOM     28  C   UNL     1      52.961  61.151   6.880  1.00  0.00     0.214 C 
ATOM     29  O   UNL     1      50.634  61.059   5.869  1.00  0.00    -0.332 OA
ATOM     30  C   UNL     1      52.239  60.700   8.159  1.00  0.00     0.180 C 
ATOM     31  C   UNL     1      50.588  59.738   6.402  1.00  0.00     0.179 C 
ATOM     32  C   UNL     1      51.205  59.600   7.825  1.00  0.00     0.177 C 
BRANCH  28  33
ATOM     33  O   UNL     1      53.735  60.093   6.342  1.00  0.00    -0.384 OA
ATOM     34  H   UNL     1      54.436  60.493   5.760  1.00  0.00     0.211 HD
ENDBRANCH  28  33
BRANCH  30  35
ATOM     35  O   UNL     1      51.572  61.796   8.719  1.00  0.00    -0.387 OA
ATOM     36  H   UNL     1      50.649  61.810   8.358  1.00  0.00     0.211 HD
ENDBRANCH  30  35
BRANCH  31  37
ATOM     37  C   UNL     1      49.102  59.344   6.485  1.00  0.00     0.191 C 
BRANCH  37  38
ATOM     38  O   UNL     1      48.736  59.134   7.813  1.00  0.00    -0.394 OA
ATOM     39  H   UNL     1      48.915  58.167   8.030  1.00  0.00     0.210 HD
ENDBRANCH  37  38
ENDBRANCH  31  37
BRANCH  32  40
ATOM     40  O   UNL     1      51.737  58.313   8.006  1.00  0.00    -0.387 OA
ATOM     41  H   UNL     1      51.124  57.818   8.604  1.00  0.00     0.211 HD
ENDBRANCH  32  40
ENDBRANCH   1  27
TORSDOF 12
ENDMDL
MODEL 7
REMARK VINA RESULT:    -8.155      1.778      6.666
REMARK INTER + INTRA:         -13.693
REMARK INTER:                 -12.099
REMARK INTRA:                  -1.594
REMARK UNBOUND:                -1.725
REMARK SMILES O=c1c(O[C@H]2O[C@H](CO)[C@@H](O)[C@H](O)[C@H]2O)c(-c2ccc(O)c(O)c2)oc2cc(O)cc(O)c12
REMARK SMILES IDX 4 1 3 2 16 3 25 4 2 5 26 6 1 7 33 8 27 9 31 10 28 11 30 12
REMARK SMILES IDX 17 13 18 14 19 15 20 16 24 17 22 18 21 19 23 21 32 23 29 25
REMARK SMILES IDX 5 27 14 28 6 29 12 30 7 31 10 32 15 33 13 35 8 37 9 38 11 40
REMARK H PARENT 21 20 23 22 32 24 29 26 15 34 13 36 9 39 11 41
REMARK Flexibility Score: inf
ROOT
ATOM      1  O   UNL     1      50.499  59.867   3.839  1.00  0.00    -0.454 OA
ENDROOT
BRANCH   1   2
ATOM      2  C   UNL     1      51.166  60.982   3.316  1.00  0.00     0.214 A 
ATOM      3  C   UNL     1      52.022  60.909   2.184  1.00  0.00     0.180 A 
ATOM      4  O   UNL     1      52.564  62.036   1.701  1.00  0.00    -0.452 OA
ATOM      5  C   UNL     1      50.769  62.255   3.732  1.00  0.00     0.239 A 
ATOM      6  C   UNL     1      52.073  63.234   1.984  1.00  0.00     0.146 A 
ATOM      7  O   UNL     1      50.220  62.420   4.881  1.00  0.00    -0.285 OA
ATOM      8  C   UNL     1      50.976  63.340   2.887  1.00  0.00     0.111 A 
ATOM      9  C   UNL     1      52.588  64.373   1.328  1.00  0.00     0.094 A 
ATOM     10  C   UNL     1      50.014  64.410   2.825  1.00  0.00     0.134 A 
ATOM     11  C   UNL     1      51.684  65.627   1.392  1.00  0.00     0.123 A 
ATOM     12  C   UNL     1      50.281  65.587   2.121  1.00  0.00     0.093 A 
BRANCH   3  13
ATOM     13  C   UNL     1      52.077  59.733   1.273  1.00  0.00     0.025 A 
ATOM     14  C   UNL     1      50.908  59.464   0.512  1.00  0.00     0.016 A 
ATOM     15  C   UNL     1      50.957  58.661  -0.626  1.00  0.00     0.051 A 
ATOM     16  C   UNL     1      52.176  58.088  -1.012  1.00  0.00     0.157 A 
ATOM     17  C   UNL     1      53.294  59.144   0.890  1.00  0.00     0.062 A 
ATOM     18  C   UNL     1      53.344  58.295  -0.235  1.00  0.00     0.158 A 
BRANCH  16  19
ATOM     19  O   UNL     1      52.235  57.314  -2.175  1.00  0.00    -0.504 OA
ATOM     20  H   UNL     1      51.380  57.055  -2.666  1.00  0.00     0.293 HD
ENDBRANCH  16  19
BRANCH  18  21
ATOM     21  O   UNL     1      54.563  57.723  -0.589  1.00  0.00    -0.504 OA
ATOM     22  H   UNL     1      55.414  58.262  -0.615  1.00  0.00     0.293 HD
ENDBRANCH  18  21
ENDBRANCH   3  13
BRANCH  10  23
ATOM     23  O   UNL     1      48.745  64.222   3.376  1.00  0.00    -0.507 OA
ATOM     24  H   UNL     1      48.118  63.501   3.030  1.00  0.00     0.293 HD
ENDBRANCH  10  23
BRANCH  11  25
ATOM     25  O   UNL     1      52.226  66.813   0.689  1.00  0.00    -0.508 OA
ATOM     26  H   UNL     1      52.722  66.644  -0.172  1.00  0.00     0.293 HD
ENDBRANCH  11  25
ENDBRANCH   1   2
BRANCH   1  27
ATOM     27  C   UNL     1      50.992  58.853   4.723  1.00  0.00     0.339 C 
ATOM     28  C   UNL     1      49.987  58.601   5.865  1.00  0.00     0.214 C 
ATOM     29  O   UNL     1      52.362  59.017   5.067  1.00  0.00    -0.332 OA
ATOM     30  C   UNL     1      50.685  57.903   7.042  1.00  0.00     0.180 C 
ATOM     31  C   UNL     1      52.575  59.551   6.371  1.00  0.00     0.179 C 
ATOM     32  C   UNL     1      51.896  58.740   7.514  1.00  0.00     0.177 C 
BRANCH  28  33
ATOM     33  O   UNL     1      49.422  59.833   6.278  1.00  0.00    -0.384 OA
ATOM     34  H   UNL     1      50.115  60.329   6.793  1.00  0.00     0.211 HD
ENDBRANCH  28  33
BRANCH  30  35
ATOM     35  O   UNL     1      51.139  56.645   6.624  1.00  0.00    -0.387 OA
ATOM     36  H   UNL     1      51.871  56.785   5.971  1.00  0.00     0.211 HD
ENDBRANCH  30  35
BRANCH  31  37
ATOM     37  C   UNL     1      54.096  59.537   6.613  1.00  0.00     0.191 C 
BRANCH  37  38
ATOM     38  O   UNL     1      54.514  60.774   7.101  1.00  0.00    -0.394 OA
ATOM     39  H   UNL     1      55.213  61.130   6.470  1.00  0.00     0.210 HD
ENDBRANCH  37  38
ENDBRANCH  31  37
BRANCH  32  40
ATOM     40  O   UNL     1      51.557  59.588   8.582  1.00  0.00    -0.387 OA
ATOM     41  H   UNL     1      52.002  60.458   8.424  1.00  0.00     0.211 HD
ENDBRANCH  32  40
ENDBRANCH   1  27
TORSDOF 12
ENDMDL
MODEL 8
REMARK VINA RESULT:    -8.140      2.493      5.159
REMARK INTER + INTRA:         -13.672
REMARK INTER:                 -11.830
REMARK INTRA:                  -1.843
REMARK UNBOUND:                -1.725
REMARK SMILES O=c1c(O[C@H]2O[C@H](CO)[C@@H](O)[C@H](O)[C@H]2O)c(-c2ccc(O)c(O)c2)oc2cc(O)cc(O)c12
REMARK SMILES IDX 4 1 3 2 16 3 25 4 2 5 26 6 1 7 33 8 27 9 31 10 28 11 30 12
REMARK SMILES IDX 17 13 18 14 19 15 20 16 24 17 22 18 21 19 23 21 32 23 29 25
REMARK SMILES IDX 5 27 14 28 6 29 12 30 7 31 10 32 15 33 13 35 8 37 9 38 11 40
REMARK H PARENT 21 20 23 22 32 24 29 26 15 34 13 36 9 39 11 41
REMARK Flexibility Score: inf
ROOT
ATOM      1  O   UNL     1      50.540  59.084   1.889  1.00  0.00    -0.454 OA
ENDROOT
BRANCH   1   2
ATOM      2  C   UNL     1      50.755  59.733   3.111  1.00  0.00     0.214 A 
ATOM      3  C   UNL     1      49.708  60.016   4.029  1.00  0.00     0.180 A 
ATOM      4  O   UNL     1      50.009  60.573   5.211  1.00  0.00    -0.452 OA
ATOM      5  C   UNL     1      52.064  59.858   3.581  1.00  0.00     0.239 A 
ATOM      6  C   UNL     1      51.234  60.544   5.716  1.00  0.00     0.146 A 
ATOM      7  O   UNL     1      53.050  59.876   2.758  1.00  0.00    -0.285 OA
ATOM      8  C   UNL     1      52.287  59.965   4.950  1.00  0.00     0.111 A 
ATOM      9  C   UNL     1      51.462  61.010   7.028  1.00  0.00     0.094 A 
ATOM     10  C   UNL     1      53.442  59.349   5.550  1.00  0.00     0.134 A 
ATOM     11  C   UNL     1      52.791  60.541   7.666  1.00  0.00     0.123 A 
ATOM     12  C   UNL     1      53.780  59.586   6.885  1.00  0.00     0.093 A 
BRANCH   3  13
ATOM     13  C   UNL     1      48.351  59.414   3.936  1.00  0.00     0.025 A 
ATOM     14  C   UNL     1      48.241  58.038   4.273  1.00  0.00     0.016 A 
ATOM     15  C   UNL     1      47.011  57.470   4.594  1.00  0.00     0.051 A 
ATOM     16  C   UNL     1      45.856  58.262   4.561  1.00  0.00     0.157 A 
ATOM     17  C   UNL     1      47.187  60.201   3.889  1.00  0.00     0.062 A 
ATOM     18  C   UNL     1      45.932  59.624   4.171  1.00  0.00     0.158 A 
BRANCH  16  19
ATOM     19  O   UNL     1      44.626  57.704   4.921  1.00  0.00    -0.504 OA
ATOM     20  H   UNL     1      43.788  57.911   4.380  1.00  0.00     0.293 HD
ENDBRANCH  16  19
BRANCH  18  21
ATOM     21  O   UNL     1      44.797  60.428   4.114  1.00  0.00    -0.504 OA
ATOM     22  H   UNL     1      44.818  61.344   3.696  1.00  0.00     0.293 HD
ENDBRANCH  18  21
ENDBRANCH   3  13
BRANCH  10  23
ATOM     23  O   UNL     1      54.171  58.404   4.823  1.00  0.00    -0.507 OA
ATOM     24  H   UNL     1      53.758  57.906   4.040  1.00  0.00     0.293 HD
ENDBRANCH  10  23
BRANCH  11  25
ATOM     25  O   UNL     1      53.014  61.025   9.048  1.00  0.00    -0.508 OA
ATOM     26  H   UNL     1      52.877  60.357   9.792  1.00  0.00     0.293 HD
ENDBRANCH  11  25
ENDBRANCH   1   2
BRANCH   1  27
ATOM     27  C   UNL     1      50.316  59.653   0.593  1.00  0.00     0.339 C 
ATOM     28  C   UNL     1      51.178  58.936  -0.466  1.00  0.00     0.214 C 
ATOM     29  O   UNL     1      50.307  61.075   0.590  1.00  0.00    -0.332 OA
ATOM     30  C   UNL     1      51.317  59.812  -1.720  1.00  0.00     0.180 C 
ATOM     31  C   UNL     1      51.503  61.665   0.088  1.00  0.00     0.179 C 
ATOM     32  C   UNL     1      51.898  61.193  -1.342  1.00  0.00     0.177 C 
BRANCH  28  33
ATOM     33  O   UNL     1      52.452  58.643   0.083  1.00  0.00    -0.384 OA
ATOM     34  H   UNL     1      52.993  59.477   0.059  1.00  0.00     0.211 HD
ENDBRANCH  28  33
BRANCH  30  35
ATOM     35  O   UNL     1      50.051  59.993  -2.293  1.00  0.00    -0.387 OA
ATOM     36  H   UNL     1      50.138  60.657  -3.023  1.00  0.00     0.211 HD
ENDBRANCH  30  35
BRANCH  31  37
ATOM     37  C   UNL     1      51.263  63.185   0.042  1.00  0.00     0.191 C 
BRANCH  37  38
ATOM     38  O   UNL     1      51.479  63.664  -1.249  1.00  0.00    -0.394 OA
ATOM     39  H   UNL     1      50.633  63.517  -1.774  1.00  0.00     0.210 HD
ENDBRANCH  37  38
ENDBRANCH  31  37
BRANCH  32  40
ATOM     40  O   UNL     1      53.294  61.232  -1.503  1.00  0.00    -0.387 OA
ATOM     41  H   UNL     1      53.480  61.308  -2.471  1.00  0.00     0.211 HD
ENDBRANCH  32  40
ENDBRANCH   1  27
TORSDOF 12
ENDMDL
MODEL 9
REMARK VINA RESULT:    -8.128      1.778      5.617
REMARK INTER + INTRA:         -13.655
REMARK INTER:                 -12.048
REMARK INTRA:                  -1.607
REMARK UNBOUND:                -1.725
REMARK SMILES O=c1c(O[C@H]2O[C@H](CO)[C@@H](O)[C@H](O)[C@H]2O)c(-c2ccc(O)c(O)c2)oc2cc(O)cc(O)c12
REMARK SMILES IDX 4 1 3 2 16 3 25 4 2 5 26 6 1 7 33 8 27 9 31 10 28 11 30 12
REMARK SMILES IDX 17 13 18 14 19 15 20 16 24 17 22 18 21 19 23 21 32 23 29 25
REMARK SMILES IDX 5 27 14 28 6 29 12 30 7 31 10 32 15 33 13 35 8 37 9 38 11 40
REMARK H PARENT 21 20 23 22 32 24 29 26 15 34 13 36 9 39 11 41
REMARK Flexibility Score: inf
ROOT
ATOM      1  O   UNL     1      52.682  61.823   2.076  1.00  0.00    -0.454 OA
ENDROOT
BRANCH   1   2
ATOM      2  C   UNL     1      51.955  61.007   2.951  1.00  0.00     0.214 A 
ATOM      3  C   UNL     1      51.211  59.877   2.515  1.00  0.00     0.180 A 
ATOM      4  O   UNL     1      50.603  59.104   3.426  1.00  0.00    -0.452 OA
ATOM      5  C   UNL     1      52.186  61.125   4.324  1.00  0.00     0.239 A 
ATOM      6  C   UNL     1      50.945  59.117   4.707  1.00  0.00     0.146 A 
ATOM      7  O   UNL     1      52.614  62.230   4.817  1.00  0.00    -0.285 OA
ATOM      8  C   UNL     1      51.944  60.032   5.149  1.00  0.00     0.111 A 
ATOM      9  C   UNL     1      50.378  58.175   5.592  1.00  0.00     0.094 A 
ATOM     10  C   UNL     1      52.797  59.770   6.280  1.00  0.00     0.134 A 
ATOM     11  C   UNL     1      51.144  57.987   6.924  1.00  0.00     0.123 A 
ATOM     12  C   UNL     1      52.476  58.787   7.220  1.00  0.00     0.093 A 
BRANCH   3  13
ATOM     13  C   UNL     1      51.352  59.276   1.161  1.00  0.00     0.025 A 
ATOM     14  C   UNL     1      50.285  59.501   0.252  1.00  0.00     0.016 A 
ATOM     15  C   UNL     1      50.459  59.334  -1.121  1.00  0.00     0.051 A 
ATOM     16  C   UNL     1      51.701  58.913  -1.611  1.00  0.00     0.157 A 
ATOM     17  C   UNL     1      52.593  58.838   0.666  1.00  0.00     0.062 A 
ATOM     18  C   UNL     1      52.765  58.626  -0.718  1.00  0.00     0.158 A 
BRANCH  16  19
ATOM     19  O   UNL     1      51.890  58.782  -2.990  1.00  0.00    -0.504 OA
ATOM     20  H   UNL     1      51.132  58.449  -3.584  1.00  0.00     0.293 HD
ENDBRANCH  16  19
BRANCH  18  21
ATOM     21  O   UNL     1      54.004  58.189  -1.179  1.00  0.00    -0.504 OA
ATOM     22  H   UNL     1      54.854  58.685  -0.965  1.00  0.00     0.293 HD
ENDBRANCH  18  21
ENDBRANCH   3  13
BRANCH  10  23
ATOM     23  O   UNL     1      54.027  60.425   6.377  1.00  0.00    -0.507 OA
ATOM     24  H   UNL     1      54.140  61.386   6.069  1.00  0.00     0.293 HD
ENDBRANCH  10  23
BRANCH  11  25
ATOM     25  O   UNL     1      50.549  56.988   7.840  1.00  0.00    -0.508 OA
ATOM     26  H   UNL     1      49.607  57.164   8.156  1.00  0.00     0.293 HD
ENDBRANCH  11  25
ENDBRANCH   1   2
BRANCH   1  27
ATOM     27  C   UNL     1      52.208  62.847   1.194  1.00  0.00     0.339 C 
ATOM     28  C   UNL     1      52.882  64.195   1.524  1.00  0.00     0.214 C 
ATOM     29  O   UNL     1      50.798  62.836   1.017  1.00  0.00    -0.332 OA
ATOM     30  C   UNL     1      52.062  65.355   0.941  1.00  0.00     0.180 C 
ATOM     31  C   UNL     1      50.110  63.848   1.749  1.00  0.00     0.179 C 
ATOM     32  C   UNL     1      50.609  65.295   1.465  1.00  0.00     0.177 C 
BRANCH  28  33
ATOM     33  O   UNL     1      53.009  64.328   2.929  1.00  0.00    -0.384 OA
ATOM     34  H   UNL     1      53.553  65.141   3.111  1.00  0.00     0.211 HD
ENDBRANCH  28  33
BRANCH  30  35
ATOM     35  O   UNL     1      52.047  65.248  -0.455  1.00  0.00    -0.387 OA
ATOM     36  H   UNL     1      52.938  65.522  -0.793  1.00  0.00     0.211 HD
ENDBRANCH  30  35
BRANCH  31  37
ATOM     37  C   UNL     1      48.628  63.763   1.338  1.00  0.00     0.191 C 
BRANCH  37  38
ATOM     38  O   UNL     1      48.465  62.813   0.331  1.00  0.00    -0.394 OA
ATOM     39  H   UNL     1      48.227  61.940   0.772  1.00  0.00     0.210 HD
ENDBRANCH  37  38
ENDBRANCH  31  37
BRANCH  32  40
ATOM     40  O   UNL     1      50.430  66.106   2.598  1.00  0.00    -0.387 OA
ATOM     41  H   UNL     1      51.327  66.372   2.918  1.00  0.00     0.211 HD
ENDBRANCH  32  40
ENDBRANCH   1  27
TORSDOF 12
ENDMDL
