MODEL 1
REMARK VINA RESULT:    -7.241      0.000      0.000
REMARK INTER + INTRA:          -8.780
REMARK INTER:                  -8.511
REMARK INTRA:                  -0.269
REMARK UNBOUND:                -0.269
REMARK SMILES O=c1cc(-c2ccc(O)c(O)c2)oc2cc(O)cc(O)c12
REMARK SMILES IDX 4 1 3 2 2 3 1 4 21 5 19 6 18 7 16 8 15 9 14 10 13 11 5 12
REMARK SMILES IDX 6 13 7 14 8 15 12 16 10 17 9 18 11 20 20 22 17 24
REMARK H PARENT 9 19 11 21 20 23 17 25
REMARK Flexibility Score: inf
ROOT
ATOM      1  C   UNL     1     132.553 128.062 131.731  1.00  0.00     0.138 A 
ATOM      2  C   UNL     1     133.287 128.457 132.857  1.00  0.00     0.100 A 
ATOM      3  C   UNL     1     133.948 127.495 133.623  1.00  0.00     0.197 A 
ATOM      4  O   UNL     1     134.546 127.874 134.664  1.00  0.00    -0.289 OA
ATOM      5  C   UNL     1     133.898 126.135 133.238  1.00  0.00     0.107 A 
ATOM      6  C   UNL     1     134.566 125.073 133.918  1.00  0.00     0.134 A 
ATOM      7  C   UNL     1     134.350 123.750 133.514  1.00  0.00     0.093 A 
ATOM      8  C   UNL     1     133.539 123.454 132.419  1.00  0.00     0.123 A 
ATOM      9  C   UNL     1     132.924 124.488 131.713  1.00  0.00     0.094 A 
ATOM     10  C   UNL     1     133.092 125.817 132.113  1.00  0.00     0.146 A 
ATOM     11  O   UNL     1     132.477 126.771 131.423  1.00  0.00    -0.456 OA
ENDROOT
BRANCH   1  12
ATOM     12  C   UNL     1     131.832 129.043 130.880  1.00  0.00     0.021 A 
ATOM     13  C   UNL     1     130.641 129.659 131.309  1.00  0.00     0.016 A 
ATOM     14  C   UNL     1     129.989 130.587 130.493  1.00  0.00     0.051 A 
ATOM     15  C   UNL     1     130.514 130.920 129.241  1.00  0.00     0.157 A 
ATOM     16  C   UNL     1     132.363 129.393 129.626  1.00  0.00     0.062 A 
ATOM     17  C   UNL     1     131.709 130.323 128.805  1.00  0.00     0.158 A 
BRANCH  15  18
ATOM     18  O   UNL     1     129.840 131.848 128.448  1.00  0.00    -0.504 OA
ATOM     19  H   UNL     1     129.432 131.598 127.555  1.00  0.00     0.293 HD
ENDBRANCH  15  18
BRANCH  17  20
ATOM     20  O   UNL     1     132.240 130.655 127.559  1.00  0.00    -0.504 OA
ATOM     21  H   UNL     1     131.702 131.169 126.872  1.00  0.00     0.293 HD
ENDBRANCH  17  20
ENDBRANCH   1  12
BRANCH   6  22
ATOM     22  O   UNL     1     135.465 125.264 134.973  1.00  0.00    -0.507 OA
ATOM     23  H   UNL     1     136.470 125.262 134.881  1.00  0.00     0.293 HD
ENDBRANCH   6  22
BRANCH   8  24
ATOM     24  O   UNL     1     133.358 122.127 132.036  1.00  0.00    -0.508 OA
ATOM     25  H   UNL     1     134.067 121.625 131.515  1.00  0.00     0.293 HD
ENDBRANCH   8  24
TORSDOF 5
ENDMDL
MODEL 2
REMARK VINA RESULT:    -7.209      5.876      8.070
REMARK INTER + INTRA:          -8.741
REMARK INTER:                  -8.479
REMARK INTRA:                  -0.262
REMARK UNBOUND:                -0.269
REMARK SMILES O=c1cc(-c2ccc(O)c(O)c2)oc2cc(O)cc(O)c12
REMARK SMILES IDX 4 1 3 2 2 3 1 4 21 5 19 6 18 7 16 8 15 9 14 10 13 11 5 12
REMARK SMILES IDX 6 13 7 14 8 15 12 16 10 17 9 18 11 20 20 22 17 24
REMARK H PARENT 9 19 11 21 20 23 17 25
REMARK Flexibility Score: inf
ROOT
ATOM      1  C   UNL     1     128.330 132.371 131.214  1.00  0.00     0.138 A 
ATOM      2  C   UNL     1     127.508 131.778 130.247  1.00  0.00     0.100 A 
ATOM      3  C   UNL     1     128.085 131.148 129.143  1.00  0.00     0.197 A 
ATOM      4  O   UNL     1     127.319 130.680 128.261  1.00  0.00    -0.289 OA
ATOM      5  C   UNL     1     129.493 131.086 129.025  1.00  0.00     0.107 A 
ATOM      6  C   UNL     1     130.192 130.435 127.965  1.00  0.00     0.134 A 
ATOM      7  C   UNL     1     131.586 130.539 127.891  1.00  0.00     0.093 A 
ATOM      8  C   UNL     1     132.311 131.218 128.869  1.00  0.00     0.123 A 
ATOM      9  C   UNL     1     131.643 131.812 129.940  1.00  0.00     0.094 A 
ATOM     10  C   UNL     1     130.249 131.756 130.023  1.00  0.00     0.146 A 
ATOM     11  O   UNL     1     129.649 132.347 131.051  1.00  0.00    -0.456 OA
ENDROOT
BRANCH   1  12
ATOM     12  C   UNL     1     127.770 133.053 132.409  1.00  0.00     0.021 A 
ATOM     13  C   UNL     1     127.736 132.426 133.670  1.00  0.00     0.016 A 
ATOM     14  C   UNL     1     127.213 133.095 134.780  1.00  0.00     0.051 A 
ATOM     15  C   UNL     1     126.722 134.397 134.655  1.00  0.00     0.157 A 
ATOM     16  C   UNL     1     127.287 134.368 132.293  1.00  0.00     0.062 A 
ATOM     17  C   UNL     1     126.761 135.039 133.406  1.00  0.00     0.158 A 
BRANCH  15  18
ATOM     18  O   UNL     1     126.205 135.038 135.780  1.00  0.00    -0.504 OA
ATOM     19  H   UNL     1     125.241 134.921 136.070  1.00  0.00     0.293 HD
ENDBRANCH  15  18
BRANCH  17  20
ATOM     20  O   UNL     1     126.276 136.340 133.275  1.00  0.00    -0.504 OA
ATOM     21  H   UNL     1     126.640 136.974 132.574  1.00  0.00     0.293 HD
ENDBRANCH  17  20
ENDBRANCH   1  12
BRANCH   6  22
ATOM     22  O   UNL     1     129.571 129.659 126.980  1.00  0.00    -0.507 OA
ATOM     23  H   UNL     1     129.497 129.915 126.007  1.00  0.00     0.293 HD
ENDBRANCH   6  22
BRANCH   8  24
ATOM     24  O   UNL     1     133.699 131.288 128.772  1.00  0.00    -0.508 OA
ATOM     25  H   UNL     1     134.159 132.063 128.309  1.00  0.00     0.293 HD
ENDBRANCH   8  24
TORSDOF 5
ENDMDL
MODEL 3
REMARK VINA RESULT:    -7.202      1.555      7.110
REMARK INTER + INTRA:          -8.733
REMARK INTER:                  -8.469
REMARK INTRA:                  -0.264
REMARK UNBOUND:                -0.269
REMARK SMILES O=c1cc(-c2ccc(O)c(O)c2)oc2cc(O)cc(O)c12
REMARK SMILES IDX 4 1 3 2 2 3 1 4 21 5 19 6 18 7 16 8 15 9 14 10 13 11 5 12
REMARK SMILES IDX 6 13 7 14 8 15 12 16 10 17 9 18 11 20 20 22 17 24
REMARK H PARENT 9 19 11 21 20 23 17 25
REMARK Flexibility Score: inf
ROOT
ATOM      1  C   UNL     1     132.023 127.963 131.964  1.00  0.00     0.138 A 
ATOM      2  C   UNL     1     130.926 128.465 132.678  1.00  0.00     0.100 A 
ATOM      3  C   UNL     1     130.107 129.433 132.095  1.00  0.00     0.197 A 
ATOM      4  O   UNL     1     129.168 129.909 132.785  1.00  0.00    -0.289 OA
ATOM      5  C   UNL     1     130.371 129.877 130.778  1.00  0.00     0.107 A 
ATOM      6  C   UNL     1     129.581 130.829 130.068  1.00  0.00     0.134 A 
ATOM      7  C   UNL     1     130.005 131.279 128.812  1.00  0.00     0.093 A 
ATOM      8  C   UNL     1     131.157 130.768 128.214  1.00  0.00     0.123 A 
ATOM      9  C   UNL     1     131.908 129.796 128.876  1.00  0.00     0.094 A 
ATOM     10  C   UNL     1     131.530 129.353 130.146  1.00  0.00     0.146 A 
ATOM     11  O   UNL     1     132.280 128.437 130.749  1.00  0.00    -0.456 OA
ENDROOT
BRANCH   1  12
ATOM     12  C   UNL     1     132.925 126.931 132.535  1.00  0.00     0.021 A 
ATOM     13  C   UNL     1     132.900 125.596 132.088  1.00  0.00     0.016 A 
ATOM     14  C   UNL     1     133.768 124.649 132.636  1.00  0.00     0.051 A 
ATOM     15  C   UNL     1     134.677 125.014 133.631  1.00  0.00     0.157 A 
ATOM     16  C   UNL     1     133.852 127.295 133.528  1.00  0.00     0.062 A 
ATOM     17  C   UNL     1     134.723 126.345 134.079  1.00  0.00     0.158 A 
BRANCH  15  18
ATOM     18  O   UNL     1     135.530 124.045 134.160  1.00  0.00    -0.504 OA
ATOM     19  H   UNL     1     135.718 123.979 135.153  1.00  0.00     0.293 HD
ENDBRANCH  15  18
BRANCH  17  20
ATOM     20  O   UNL     1     135.631 126.717 135.070  1.00  0.00    -0.504 OA
ATOM     21  H   UNL     1     136.597 126.933 134.850  1.00  0.00     0.293 HD
ENDBRANCH  17  20
ENDBRANCH   1  12
BRANCH   6  22
ATOM     22  O   UNL     1     128.366 131.342 130.536  1.00  0.00    -0.507 OA
ATOM     23  H   UNL     1     128.128 132.322 130.565  1.00  0.00     0.293 HD
ENDBRANCH   6  22
BRANCH   8  24
ATOM     24  O   UNL     1     131.541 131.228 126.956  1.00  0.00    -0.508 OA
ATOM     25  H   UNL     1     131.651 132.216 126.765  1.00  0.00     0.293 HD
ENDBRANCH   8  24
TORSDOF 5
ENDMDL
MODEL 4
REMARK VINA RESULT:    -7.174      4.745      7.507
REMARK INTER + INTRA:          -8.701
REMARK INTER:                  -8.435
REMARK INTRA:                  -0.266
REMARK UNBOUND:                -0.269
REMARK SMILES O=c1cc(-c2ccc(O)c(O)c2)oc2cc(O)cc(O)c12
REMARK SMILES IDX 4 1 3 2 2 3 1 4 21 5 19 6 18 7 16 8 15 9 14 10 13 11 5 12
REMARK SMILES IDX 6 13 7 14 8 15 12 16 10 17 9 18 11 20 20 22 17 24
REMARK H PARENT 9 19 11 21 20 23 17 25
REMARK Flexibility Score: inf
ROOT
ATOM      1  C   UNL     1     129.119 133.113 132.025  1.00  0.00     0.138 A 
ATOM      2  C   UNL     1     130.221 132.616 132.735  1.00  0.00     0.100 A 
ATOM      3  C   UNL     1     131.044 131.653 132.148  1.00  0.00     0.197 A 
ATOM      4  O   UNL     1     131.987 131.181 132.835  1.00  0.00    -0.289 OA
ATOM      5  C   UNL     1     130.778 131.210 130.832  1.00  0.00     0.107 A 
ATOM      6  C   UNL     1     131.572 130.264 130.117  1.00  0.00     0.134 A 
ATOM      7  C   UNL     1     131.147 129.813 128.862  1.00  0.00     0.093 A 
ATOM      8  C   UNL     1     129.990 130.318 128.269  1.00  0.00     0.123 A 
ATOM      9  C   UNL     1     129.235 131.285 128.934  1.00  0.00     0.094 A 
ATOM     10  C   UNL     1     129.615 131.729 130.204  1.00  0.00     0.146 A 
ATOM     11  O   UNL     1     128.861 132.639 130.811  1.00  0.00    -0.456 OA
ENDROOT
BRANCH   1  12
ATOM     12  C   UNL     1     128.212 134.138 132.601  1.00  0.00     0.021 A 
ATOM     13  C   UNL     1     128.245 135.479 132.172  1.00  0.00     0.016 A 
ATOM     14  C   UNL     1     127.373 136.421 132.723  1.00  0.00     0.051 A 
ATOM     15  C   UNL     1     126.452 136.044 133.704  1.00  0.00     0.157 A 
ATOM     16  C   UNL     1     127.275 133.763 133.579  1.00  0.00     0.062 A 
ATOM     17  C   UNL     1     126.400 134.707 134.134  1.00  0.00     0.158 A 
BRANCH  15  18
ATOM     18  O   UNL     1     125.596 137.007 134.237  1.00  0.00    -0.504 OA
ATOM     19  H   UNL     1     124.623 136.810 134.438  1.00  0.00     0.293 HD
ENDBRANCH  15  18
BRANCH  17  20
ATOM     20  O   UNL     1     125.480 134.323 135.110  1.00  0.00    -0.504 OA
ATOM     21  H   UNL     1     124.864 133.531 134.976  1.00  0.00     0.293 HD
ENDBRANCH  17  20
ENDBRANCH   1  12
BRANCH   6  22
ATOM     22  O   UNL     1     132.791 129.757 130.581  1.00  0.00    -0.507 OA
ATOM     23  H   UNL     1     133.699 130.062 130.266  1.00  0.00     0.293 HD
ENDBRANCH   6  22
BRANCH   8  24
ATOM     24  O   UNL     1     129.605 129.858 127.011  1.00  0.00    -0.508 OA
ATOM     25  H   UNL     1     130.152 129.170 126.509  1.00  0.00     0.293 HD
ENDBRANCH   8  24
TORSDOF 5
ENDMDL
MODEL 5
REMARK VINA RESULT:    -7.157      1.739      7.033
REMARK INTER + INTRA:          -8.681
REMARK INTER:                  -8.417
REMARK INTRA:                  -0.264
REMARK UNBOUND:                -0.269
REMARK SMILES O=c1cc(-c2ccc(O)c(O)c2)oc2cc(O)cc(O)c12
REMARK SMILES IDX 4 1 3 2 2 3 1 4 21 5 19 6 18 7 16 8 15 9 14 10 13 11 5 12
REMARK SMILES IDX 6 13 7 14 8 15 12 16 10 17 9 18 11 20 20 22 17 24
REMARK H PARENT 9 19 11 21 20 23 17 25
REMARK Flexibility Score: inf
ROOT
ATOM      1  C   UNL     1     132.801 128.691 131.193  1.00  0.00     0.138 A 
ATOM      2  C   UNL     1     133.626 129.239 130.202  1.00  0.00     0.100 A 
ATOM      3  C   UNL     1     133.052 129.861 129.091  1.00  0.00     0.197 A 
ATOM      4  O   UNL     1     133.818 130.287 128.189  1.00  0.00    -0.289 OA
ATOM      5  C   UNL     1     131.645 129.960 128.991  1.00  0.00     0.107 A 
ATOM      6  C   UNL     1     130.950 130.608 127.926  1.00  0.00     0.134 A 
ATOM      7  C   UNL     1     129.552 130.542 127.873  1.00  0.00     0.093 A 
ATOM      8  C   UNL     1     128.822 129.907 128.876  1.00  0.00     0.123 A 
ATOM      9  C   UNL     1     129.488 129.317 129.951  1.00  0.00     0.094 A 
ATOM     10  C   UNL     1     130.884 129.335 130.014  1.00  0.00     0.146 A 
ATOM     11  O   UNL     1     131.481 128.750 131.047  1.00  0.00    -0.456 OA
ENDROOT
BRANCH   1  12
ATOM     12  C   UNL     1     133.358 128.020 132.395  1.00  0.00     0.021 A 
ATOM     13  C   UNL     1     133.347 128.640 133.659  1.00  0.00     0.016 A 
ATOM     14  C   UNL     1     133.869 127.981 134.776  1.00  0.00     0.051 A 
ATOM     15  C   UNL     1     134.403 126.696 134.654  1.00  0.00     0.157 A 
ATOM     16  C   UNL     1     133.886 126.722 132.281  1.00  0.00     0.062 A 
ATOM     17  C   UNL     1     134.410 126.060 133.401  1.00  0.00     0.158 A 
BRANCH  15  18
ATOM     18  O   UNL     1     134.918 126.065 135.786  1.00  0.00    -0.504 OA
ATOM     19  H   UNL     1     134.389 125.374 136.304  1.00  0.00     0.293 HD
ENDBRANCH  15  18
BRANCH  17  20
ATOM     20  O   UNL     1     134.939 124.776 133.272  1.00  0.00    -0.504 OA
ATOM     21  H   UNL     1     135.346 124.288 134.062  1.00  0.00     0.293 HD
ENDBRANCH  17  20
ENDBRANCH   1  12
BRANCH   6  22
ATOM     22  O   UNL     1     131.578 131.344 126.916  1.00  0.00    -0.507 OA
ATOM     23  H   UNL     1     132.577 131.443 126.811  1.00  0.00     0.293 HD
ENDBRANCH   6  22
BRANCH   8  24
ATOM     24  O   UNL     1     127.431 129.874 128.799  1.00  0.00    -0.508 OA
ATOM     25  H   UNL     1     126.860 129.674 129.611  1.00  0.00     0.293 HD
ENDBRANCH   8  24
TORSDOF 5
ENDMDL
MODEL 6
REMARK VINA RESULT:    -7.079      5.102      9.519
REMARK INTER + INTRA:          -8.589
REMARK INTER:                  -8.326
REMARK INTRA:                  -0.263
REMARK UNBOUND:                -0.269
REMARK SMILES O=c1cc(-c2ccc(O)c(O)c2)oc2cc(O)cc(O)c12
REMARK SMILES IDX 4 1 3 2 2 3 1 4 21 5 19 6 18 7 16 8 15 9 14 10 13 11 5 12
REMARK SMILES IDX 6 13 7 14 8 15 12 16 10 17 9 18 11 20 20 22 17 24
REMARK H PARENT 9 19 11 21 20 23 17 25
REMARK Flexibility Score: inf
ROOT
ATOM      1  C   UNL     1     128.673 132.793 131.797  1.00  0.00     0.138 A 
ATOM      2  C   UNL     1     127.966 132.370 132.930  1.00  0.00     0.100 A 
ATOM      3  C   UNL     1     127.320 133.311 133.733  1.00  0.00     0.197 A 
ATOM      4  O   UNL     1     126.747 132.906 134.778  1.00  0.00    -0.289 OA
ATOM      5  C   UNL     1     127.357 134.680 133.379  1.00  0.00     0.107 A 
ATOM      6  C   UNL     1     126.701 135.723 134.099  1.00  0.00     0.134 A 
ATOM      7  C   UNL     1     126.904 137.056 133.722  1.00  0.00     0.093 A 
ATOM      8  C   UNL     1     127.689 137.380 132.616  1.00  0.00     0.123 A 
ATOM      9  C   UNL     1     128.292 136.365 131.872  1.00  0.00     0.094 A 
ATOM     10  C   UNL     1     128.136 135.027 132.244  1.00  0.00     0.146 A 
ATOM     11  O   UNL     1     128.738 134.091 131.518  1.00  0.00    -0.456 OA
ENDROOT
BRANCH   1  12
ATOM     12  C   UNL     1     129.378 131.835 130.907  1.00  0.00     0.021 A 
ATOM     13  C   UNL     1     130.620 131.274 131.261  1.00  0.00     0.016 A 
ATOM     14  C   UNL     1     131.256 130.367 130.410  1.00  0.00     0.051 A 
ATOM     15  C   UNL     1     130.664 129.999 129.198  1.00  0.00     0.157 A 
ATOM     16  C   UNL     1     128.782 131.451 129.693  1.00  0.00     0.062 A 
ATOM     17  C   UNL     1     129.419 130.541 128.838  1.00  0.00     0.158 A 
BRANCH  15  18
ATOM     18  O   UNL     1     131.324 129.093 128.369  1.00  0.00    -0.504 OA
ATOM     19  H   UNL     1     130.961 128.834 127.459  1.00  0.00     0.293 HD
ENDBRANCH  15  18
BRANCH  17  20
ATOM     20  O   UNL     1     128.821 130.176 127.632  1.00  0.00    -0.504 OA
ATOM     21  H   UNL     1     129.327 130.216 126.755  1.00  0.00     0.293 HD
ENDBRANCH  17  20
ENDBRANCH   1  12
BRANCH   6  22
ATOM     22  O   UNL     1     125.827 135.504 135.169  1.00  0.00    -0.507 OA
ATOM     23  H   UNL     1     126.092 135.109 136.058  1.00  0.00     0.293 HD
ENDBRANCH   6  22
BRANCH   8  24
ATOM     24  O   UNL     1     127.857 138.717 132.260  1.00  0.00    -0.508 OA
ATOM     25  H   UNL     1     127.986 138.996 131.295  1.00  0.00     0.293 HD
ENDBRANCH   8  24
TORSDOF 5
ENDMDL
MODEL 7
REMARK VINA RESULT:    -6.891      5.459      6.909
REMARK INTER + INTRA:          -8.368
REMARK INTER:                  -8.074
REMARK INTRA:                  -0.295
REMARK UNBOUND:                -0.269
REMARK SMILES O=c1cc(-c2ccc(O)c(O)c2)oc2cc(O)cc(O)c12
REMARK SMILES IDX 4 1 3 2 2 3 1 4 21 5 19 6 18 7 16 8 15 9 14 10 13 11 5 12
REMARK SMILES IDX 6 13 7 14 8 15 12 16 10 17 9 18 11 20 20 22 17 24
REMARK H PARENT 9 19 11 21 20 23 17 25
REMARK Flexibility Score: inf
ROOT
ATOM      1  C   UNL     1     128.330 129.293 130.233  1.00  0.00     0.138 A 
ATOM      2  C   UNL     1     127.466 128.794 129.250  1.00  0.00     0.100 A 
ATOM      3  C   UNL     1     126.356 128.036 129.626  1.00  0.00     0.197 A 
ATOM      4  O   UNL     1     125.634 127.549 128.718  1.00  0.00    -0.289 OA
ATOM      5  C   UNL     1     126.096 127.804 130.997  1.00  0.00     0.107 A 
ATOM      6  C   UNL     1     124.973 127.081 131.500  1.00  0.00     0.134 A 
ATOM      7  C   UNL     1     124.881 126.815 132.872  1.00  0.00     0.093 A 
ATOM      8  C   UNL     1     125.837 127.297 133.765  1.00  0.00     0.123 A 
ATOM      9  C   UNL     1     126.911 128.052 133.291  1.00  0.00     0.094 A 
ATOM     10  C   UNL     1     127.049 128.304 131.923  1.00  0.00     0.146 A 
ATOM     11  O   UNL     1     128.093 129.015 131.511  1.00  0.00    -0.456 OA
ENDROOT
BRANCH   1  12
ATOM     12  C   UNL     1     129.524 130.107 129.888  1.00  0.00     0.021 A 
ATOM     13  C   UNL     1     130.346 130.672 130.883  1.00  0.00     0.016 A 
ATOM     14  C   UNL     1     131.469 131.424 130.530  1.00  0.00     0.051 A 
ATOM     15  C   UNL     1     131.796 131.621 129.186  1.00  0.00     0.157 A 
ATOM     16  C   UNL     1     129.866 130.297 128.538  1.00  0.00     0.062 A 
ATOM     17  C   UNL     1     130.993 131.053 128.183  1.00  0.00     0.158 A 
BRANCH  15  18
ATOM     18  O   UNL     1     132.923 132.378 128.865  1.00  0.00    -0.504 OA
ATOM     19  H   UNL     1     133.854 131.980 128.856  1.00  0.00     0.293 HD
ENDBRANCH  15  18
BRANCH  17  20
ATOM     20  O   UNL     1     131.315 131.242 126.840  1.00  0.00    -0.504 OA
ATOM     21  H   UNL     1     130.689 131.724 126.206  1.00  0.00     0.293 HD
ENDBRANCH  17  20
ENDBRANCH   1  12
BRANCH   6  22
ATOM     22  O   UNL     1     123.916 126.626 130.705  1.00  0.00    -0.507 OA
ATOM     23  H   UNL     1     123.487 125.716 130.782  1.00  0.00     0.293 HD
ENDBRANCH   6  22
BRANCH   8  24
ATOM     24  O   UNL     1     125.705 127.026 135.125  1.00  0.00    -0.508 OA
ATOM     25  H   UNL     1     124.907 126.521 135.490  1.00  0.00     0.293 HD
ENDBRANCH   8  24
TORSDOF 5
ENDMDL
MODEL 8
REMARK VINA RESULT:    -6.883      5.427      6.729
REMARK INTER + INTRA:          -8.358
REMARK INTER:                  -8.040
REMARK INTRA:                  -0.318
REMARK UNBOUND:                -0.269
REMARK SMILES O=c1cc(-c2ccc(O)c(O)c2)oc2cc(O)cc(O)c12
REMARK SMILES IDX 4 1 3 2 2 3 1 4 21 5 19 6 18 7 16 8 15 9 14 10 13 11 5 12
REMARK SMILES IDX 6 13 7 14 8 15 12 16 10 17 9 18 11 20 20 22 17 24
REMARK H PARENT 9 19 11 21 20 23 17 25
REMARK Flexibility Score: inf
ROOT
ATOM      1  C   UNL     1     128.575 129.358 130.618  1.00  0.00     0.138 A 
ATOM      2  C   UNL     1     128.303 129.165 131.979  1.00  0.00     0.100 A 
ATOM      3  C   UNL     1     127.186 128.420 132.362  1.00  0.00     0.197 A 
ATOM      4  O   UNL     1     126.933 128.319 133.591  1.00  0.00    -0.289 OA
ATOM      5  C   UNL     1     126.357 127.840 131.374  1.00  0.00     0.107 A 
ATOM      6  C   UNL     1     125.216 127.027 131.647  1.00  0.00     0.134 A 
ATOM      7  C   UNL     1     124.402 126.602 130.589  1.00  0.00     0.093 A 
ATOM      8  C   UNL     1     124.721 126.909 129.266  1.00  0.00     0.123 A 
ATOM      9  C   UNL     1     125.864 127.657 128.984  1.00  0.00     0.094 A 
ATOM     10  C   UNL     1     126.677 128.125 130.020  1.00  0.00     0.146 A 
ATOM     11  O   UNL     1     127.749 128.847 129.711  1.00  0.00    -0.456 OA
ENDROOT
BRANCH   1  12
ATOM     12  C   UNL     1     129.749 130.140 130.156  1.00  0.00     0.021 A 
ATOM     13  C   UNL     1     130.666 130.705 131.063  1.00  0.00     0.016 A 
ATOM     14  C   UNL     1     131.768 131.427 130.600  1.00  0.00     0.051 A 
ATOM     15  C   UNL     1     131.980 131.594 129.229  1.00  0.00     0.157 A 
ATOM     16  C   UNL     1     129.975 130.301 128.777  1.00  0.00     0.062 A 
ATOM     17  C   UNL     1     131.080 131.027 128.311  1.00  0.00     0.158 A 
BRANCH  15  18
ATOM     18  O   UNL     1     133.088 132.322 128.797  1.00  0.00    -0.504 OA
ATOM     19  H   UNL     1     133.005 133.089 128.140  1.00  0.00     0.293 HD
ENDBRANCH  15  18
BRANCH  17  20
ATOM     20  O   UNL     1     131.287 131.187 126.941  1.00  0.00    -0.504 OA
ATOM     21  H   UNL     1     131.763 131.999 126.568  1.00  0.00     0.293 HD
ENDBRANCH  17  20
ENDBRANCH   1  12
BRANCH   6  22
ATOM     22  O   UNL     1     124.854 126.591 132.925  1.00  0.00    -0.507 OA
ATOM     23  H   UNL     1     124.119 125.928 133.122  1.00  0.00     0.293 HD
ENDBRANCH   6  22
BRANCH   8  24
ATOM     24  O   UNL     1     123.897 126.457 128.238  1.00  0.00    -0.508 OA
ATOM     25  H   UNL     1     124.271 125.961 127.438  1.00  0.00     0.293 HD
ENDBRANCH   8  24
TORSDOF 5
ENDMDL
MODEL 9
REMARK VINA RESULT:    -6.875      5.118      6.906
REMARK INTER + INTRA:          -8.349
REMARK INTER:                  -8.031
REMARK INTRA:                  -0.317
REMARK UNBOUND:                -0.269
REMARK SMILES O=c1cc(-c2ccc(O)c(O)c2)oc2cc(O)cc(O)c12
REMARK SMILES IDX 4 1 3 2 2 3 1 4 21 5 19 6 18 7 16 8 15 9 14 10 13 11 5 12
REMARK SMILES IDX 6 13 7 14 8 15 12 16 10 17 9 18 11 20 20 22 17 24
REMARK H PARENT 9 19 11 21 20 23 17 25
REMARK Flexibility Score: inf
ROOT
ATOM      1  C   UNL     1     132.625 131.797 130.570  1.00  0.00     0.138 A 
ATOM      2  C   UNL     1     132.829 132.092 131.925  1.00  0.00     0.100 A 
ATOM      3  C   UNL     1     133.925 132.866 132.307  1.00  0.00     0.197 A 
ATOM      4  O   UNL     1     134.116 133.061 133.535  1.00  0.00    -0.289 OA
ATOM      5  C   UNL     1     134.804 133.374 131.321  1.00  0.00     0.107 A 
ATOM      6  C   UNL     1     135.930 134.208 131.588  1.00  0.00     0.134 A 
ATOM      7  C   UNL     1     136.796 134.554 130.544  1.00  0.00     0.093 A 
ATOM      8  C   UNL     1     136.545 134.148 129.234  1.00  0.00     0.123 A 
ATOM      9  C   UNL     1     135.416 133.377 128.952  1.00  0.00     0.094 A 
ATOM     10  C   UNL     1     134.552 132.986 129.978  1.00  0.00     0.146 A 
ATOM     11  O   UNL     1     133.497 132.240 129.670  1.00  0.00    -0.456 OA
ENDROOT
BRANCH   1  12
ATOM     12  C   UNL     1     131.475 130.979 130.109  1.00  0.00     0.021 A 
ATOM     13  C   UNL     1     130.583 130.378 131.019  1.00  0.00     0.016 A 
ATOM     14  C   UNL     1     129.502 129.622 130.557  1.00  0.00     0.051 A 
ATOM     15  C   UNL     1     129.289 129.457 129.186  1.00  0.00     0.157 A 
ATOM     16  C   UNL     1     131.246 130.819 128.731  1.00  0.00     0.062 A 
ATOM     17  C   UNL     1     130.163 130.060 128.267  1.00  0.00     0.158 A 
BRANCH  15  18
ATOM     18  O   UNL     1     128.203 128.695 128.756  1.00  0.00    -0.504 OA
ATOM     19  H   UNL     1     127.252 128.909 129.032  1.00  0.00     0.293 HD
ENDBRANCH  15  18
BRANCH  17  20
ATOM     20  O   UNL     1     129.953 129.902 126.897  1.00  0.00    -0.504 OA
ATOM     21  H   UNL     1     129.305 129.213 126.535  1.00  0.00     0.293 HD
ENDBRANCH  17  20
ENDBRANCH   1  12
BRANCH   6  22
ATOM     22  O   UNL     1     136.228 134.740 132.848  1.00  0.00    -0.507 OA
ATOM     23  H   UNL     1     135.594 134.752 133.632  1.00  0.00     0.293 HD
ENDBRANCH   6  22
BRANCH   8  24
ATOM     24  O   UNL     1     137.420 134.524 128.218  1.00  0.00    -0.508 OA
ATOM     25  H   UNL     1     137.775 135.470 128.147  1.00  0.00     0.293 HD
ENDBRANCH   8  24
TORSDOF 5
ENDMDL
