MODEL 1
REMARK VINA RESULT:    -6.900      0.000      0.000
REMARK INTER + INTRA:          -8.897
REMARK INTER:                  -8.514
REMARK INTRA:                  -0.383
REMARK UNBOUND:                -0.383
REMARK SMILES Oc1cc(O)c2cc(O)c(-c3cc(O)c(O)c(O)c3)[o+]c2c1
REMARK SMILES IDX 10 1 20 2 21 3 22 4 2 5 3 6 4 7 6 8 7 9 8 10 11 11 12 12
REMARK SMILES IDX 13 13 19 14 15 15 17 16 14 17 16 19 18 21 9 23 1 25 5 27
REMARK H PARENT 14 18 16 20 18 22 9 24 1 26 5 28
REMARK Flexibility Score: inf
ROOT
ATOM      1  C   UNL     1     -14.295 -30.462 -11.899  1.00  0.00     0.402 A 
ATOM      2  O   UNL     1     -13.124 -31.067 -12.080  1.00  0.00    -0.202 OA
ATOM      3  C   UNL     1     -12.976 -32.167 -12.812  1.00  0.00     0.368 A 
ATOM      4  C   UNL     1     -11.704 -32.727 -12.946  1.00  0.00     0.162 A 
ATOM      5  C   UNL     1     -11.518 -33.880 -13.710  1.00  0.00     0.128 A 
ATOM      6  C   UNL     1     -12.612 -34.477 -14.347  1.00  0.00     0.093 A 
ATOM      7  C   UNL     1     -13.897 -33.934 -14.228  1.00  0.00     0.136 A 
ATOM      8  C   UNL     1     -14.090 -32.764 -13.449  1.00  0.00     0.125 A 
ATOM      9  C   UNL     1     -15.344 -32.158 -13.264  1.00  0.00     0.078 A 
ATOM     10  C   UNL     1     -15.456 -31.007 -12.477  1.00  0.00     0.223 A 
ENDROOT
BRANCH   1  11
ATOM     11  C   UNL     1     -14.329 -29.236 -11.068  1.00  0.00     0.091 A 
ATOM     12  C   UNL     1     -14.416 -29.350  -9.674  1.00  0.00     0.068 A 
ATOM     13  C   UNL     1     -14.429 -28.212  -8.857  1.00  0.00     0.162 A 
ATOM     14  C   UNL     1     -14.219 -27.960 -11.643  1.00  0.00     0.068 A 
ATOM     15  C   UNL     1     -14.341 -26.928  -9.446  1.00  0.00     0.200 A 
ATOM     16  C   UNL     1     -14.231 -26.814 -10.839  1.00  0.00     0.162 A 
BRANCH  13  17
ATOM     17  O   UNL     1     -14.529 -28.405  -7.477  1.00  0.00    -0.504 OA
ATOM     18  H   UNL     1     -14.894 -27.716  -6.835  1.00  0.00     0.293 HD
ENDBRANCH  13  17
BRANCH  15  19
ATOM     19  O   UNL     1     -14.355 -25.754  -8.690  1.00  0.00    -0.502 OA
ATOM     20  H   UNL     1     -13.528 -25.226  -8.448  1.00  0.00     0.293 HD
ENDBRANCH  15  19
BRANCH  16  21
ATOM     21  O   UNL     1     -14.129 -25.550 -11.419  1.00  0.00    -0.504 OA
ATOM     22  H   UNL     1     -13.424 -25.341 -12.115  1.00  0.00     0.293 HD
ENDBRANCH  16  21
ENDBRANCH   1  11
BRANCH  10  23
ATOM     23  O   UNL     1     -16.708 -30.433 -12.252  1.00  0.00    -0.500 OA
ATOM     24  H   UNL     1     -17.076 -30.309 -11.316  1.00  0.00     0.294 HD
ENDBRANCH  10  23
BRANCH   5  25
ATOM     25  O   UNL     1     -10.242 -34.424 -13.832  1.00  0.00    -0.507 OA
ATOM     26  H   UNL     1      -9.414 -33.891 -13.595  1.00  0.00     0.293 HD
ENDBRANCH   5  25
BRANCH   7  27
ATOM     27  O   UNL     1     -14.936 -34.588 -14.897  1.00  0.00    -0.507 OA
ATOM     28  H   UNL     1     -15.066 -35.588 -14.909  1.00  0.00     0.293 HD
ENDBRANCH   7  27
TORSDOF 7
ENDMDL
MODEL 2
REMARK VINA RESULT:    -6.721      1.131      7.131
REMARK INTER + INTRA:          -8.676
REMARK INTER:                  -8.292
REMARK INTRA:                  -0.384
REMARK UNBOUND:                -0.383
REMARK SMILES Oc1cc(O)c2cc(O)c(-c3cc(O)c(O)c(O)c3)[o+]c2c1
REMARK SMILES IDX 10 1 20 2 21 3 22 4 2 5 3 6 4 7 6 8 7 9 8 10 11 11 12 12
REMARK SMILES IDX 13 13 19 14 15 15 17 16 14 17 16 19 18 21 9 23 1 25 5 27
REMARK H PARENT 14 18 16 20 18 22 9 24 1 26 5 28
REMARK Flexibility Score: inf
ROOT
ATOM      1  C   UNL     1     -13.682 -30.697 -12.373  1.00  0.00     0.402 A 
ATOM      2  O   UNL     1     -13.814 -30.733 -11.050  1.00  0.00    -0.202 OA
ATOM      3  C   UNL     1     -13.993 -29.647 -10.304  1.00  0.00     0.368 A 
ATOM      4  C   UNL     1     -14.126 -29.787  -8.921  1.00  0.00     0.162 A 
ATOM      5  C   UNL     1     -14.317 -28.665  -8.114  1.00  0.00     0.128 A 
ATOM      6  C   UNL     1     -14.377 -27.393  -8.692  1.00  0.00     0.093 A 
ATOM      7  C   UNL     1     -14.248 -27.226 -10.077  1.00  0.00     0.136 A 
ATOM      8  C   UNL     1     -14.051 -28.365 -10.900  1.00  0.00     0.125 A 
ATOM      9  C   UNL     1     -13.897 -28.291 -12.295  1.00  0.00     0.078 A 
ATOM     10  C   UNL     1     -13.701 -29.458 -13.040  1.00  0.00     0.223 A 
ENDROOT
BRANCH   1  11
ATOM     11  C   UNL     1     -13.497 -31.977 -13.094  1.00  0.00     0.091 A 
ATOM     12  C   UNL     1     -12.213 -32.527 -13.206  1.00  0.00     0.068 A 
ATOM     13  C   UNL     1     -12.004 -33.746 -13.863  1.00  0.00     0.162 A 
ATOM     14  C   UNL     1     -14.590 -32.685 -13.619  1.00  0.00     0.068 A 
ATOM     15  C   UNL     1     -13.108 -34.443 -14.410  1.00  0.00     0.200 A 
ATOM     16  C   UNL     1     -14.397 -33.906 -14.278  1.00  0.00     0.162 A 
BRANCH  13  17
ATOM     17  O   UNL     1     -10.694 -34.224 -13.945  1.00  0.00    -0.504 OA
ATOM     18  H   UNL     1     -10.421 -35.035 -14.481  1.00  0.00     0.293 HD
ENDBRANCH  13  17
BRANCH  15  19
ATOM     19  O   UNL     1     -12.970 -35.659 -15.081  1.00  0.00    -0.502 OA
ATOM     20  H   UNL     1     -13.572 -35.962 -15.834  1.00  0.00     0.293 HD
ENDBRANCH  15  19
BRANCH  16  21
ATOM     21  O   UNL     1     -15.487 -34.598 -14.803  1.00  0.00    -0.504 OA
ATOM     22  H   UNL     1     -15.977 -35.303 -14.266  1.00  0.00     0.293 HD
ENDBRANCH  16  21
ENDBRANCH   1  11
BRANCH  10  23
ATOM     23  O   UNL     1     -13.499 -29.382 -14.419  1.00  0.00    -0.500 OA
ATOM     24  H   UNL     1     -12.590 -29.171 -14.813  1.00  0.00     0.294 HD
ENDBRANCH  10  23
BRANCH   5  25
ATOM     25  O   UNL     1     -14.447 -28.825  -6.736  1.00  0.00    -0.507 OA
ATOM     26  H   UNL     1     -15.204 -28.391  -6.221  1.00  0.00     0.293 HD
ENDBRANCH   5  25
BRANCH   7  27
ATOM     27  O   UNL     1     -14.322 -25.923 -10.578  1.00  0.00    -0.507 OA
ATOM     28  H   UNL     1     -14.869 -25.652 -11.382  1.00  0.00     0.293 HD
ENDBRANCH   7  27
TORSDOF 7
ENDMDL
MODEL 3
REMARK VINA RESULT:    -6.712      0.341      1.830
REMARK INTER + INTRA:          -8.665
REMARK INTER:                  -8.288
REMARK INTRA:                  -0.378
REMARK UNBOUND:                -0.383
REMARK SMILES Oc1cc(O)c2cc(O)c(-c3cc(O)c(O)c(O)c3)[o+]c2c1
REMARK SMILES IDX 10 1 20 2 21 3 22 4 2 5 3 6 4 7 6 8 7 9 8 10 11 11 12 12
REMARK SMILES IDX 13 13 19 14 15 15 17 16 14 17 16 19 18 21 9 23 1 25 5 27
REMARK H PARENT 14 18 16 20 18 22 9 24 1 26 5 28
REMARK Flexibility Score: inf
ROOT
ATOM      1  C   UNL     1     -14.025 -30.395 -11.699  1.00  0.00     0.402 A 
ATOM      2  O   UNL     1     -12.842 -30.984 -11.857  1.00  0.00    -0.202 OA
ATOM      3  C   UNL     1     -12.662 -32.074 -12.595  1.00  0.00     0.368 A 
ATOM      4  C   UNL     1     -11.380 -32.618 -12.704  1.00  0.00     0.162 A 
ATOM      5  C   UNL     1     -11.161 -33.760 -13.474  1.00  0.00     0.128 A 
ATOM      6  C   UNL     1     -12.231 -34.365 -14.143  1.00  0.00     0.093 A 
ATOM      7  C   UNL     1     -13.526 -33.839 -14.050  1.00  0.00     0.136 A 
ATOM      8  C   UNL     1     -13.753 -32.679 -13.266  1.00  0.00     0.125 A 
ATOM      9  C   UNL     1     -15.018 -32.091 -13.105  1.00  0.00     0.078 A 
ATOM     10  C   UNL     1     -15.164 -30.949 -12.310  1.00  0.00     0.223 A 
ENDROOT
BRANCH   1  11
ATOM     11  C   UNL     1     -14.095 -29.179 -10.858  1.00  0.00     0.091 A 
ATOM     12  C   UNL     1     -14.028 -27.916 -11.464  1.00  0.00     0.068 A 
ATOM     13  C   UNL     1     -14.112 -26.744 -10.701  1.00  0.00     0.162 A 
ATOM     14  C   UNL     1     -14.285 -29.260  -9.469  1.00  0.00     0.068 A 
ATOM     15  C   UNL     1     -14.281 -26.834  -9.299  1.00  0.00     0.200 A 
ATOM     16  C   UNL     1     -14.371 -28.096  -8.694  1.00  0.00     0.162 A 
BRANCH  13  17
ATOM     17  O   UNL     1     -14.026 -25.524 -11.375  1.00  0.00    -0.504 OA
ATOM     18  H   UNL     1     -14.370 -24.649 -11.006  1.00  0.00     0.293 HD
ENDBRANCH  13  17
BRANCH  15  19
ATOM     19  O   UNL     1     -14.366 -25.707  -8.479  1.00  0.00    -0.502 OA
ATOM     20  H   UNL     1     -14.987 -24.928  -8.650  1.00  0.00     0.293 HD
ENDBRANCH  15  19
BRANCH  16  21
ATOM     21  O   UNL     1     -14.553 -28.186  -7.315  1.00  0.00    -0.504 OA
ATOM     22  H   UNL     1     -14.910 -29.028  -6.880  1.00  0.00     0.293 HD
ENDBRANCH  16  21
ENDBRANCH   1  11
BRANCH  10  23
ATOM     23  O   UNL     1     -16.428 -30.394 -12.110  1.00  0.00    -0.500 OA
ATOM     24  H   UNL     1     -16.605 -29.727 -11.368  1.00  0.00     0.294 HD
ENDBRANCH  10  23
BRANCH   5  25
ATOM     25  O   UNL     1      -9.875 -34.287 -13.570  1.00  0.00    -0.507 OA
ATOM     26  H   UNL     1      -9.055 -33.699 -13.491  1.00  0.00     0.293 HD
ENDBRANCH   5  25
BRANCH   7  27
ATOM     27  O   UNL     1     -14.540 -34.500 -14.750  1.00  0.00    -0.507 OA
ATOM     28  H   UNL     1     -14.555 -34.623 -15.752  1.00  0.00     0.293 HD
ENDBRANCH   7  27
TORSDOF 7
ENDMDL
MODEL 4
REMARK VINA RESULT:    -6.692      1.141      7.135
REMARK INTER + INTRA:          -8.641
REMARK INTER:                  -8.265
REMARK INTRA:                  -0.375
REMARK UNBOUND:                -0.383
REMARK SMILES Oc1cc(O)c2cc(O)c(-c3cc(O)c(O)c(O)c3)[o+]c2c1
REMARK SMILES IDX 10 1 20 2 21 3 22 4 2 5 3 6 4 7 6 8 7 9 8 10 11 11 12 12
REMARK SMILES IDX 13 13 19 14 15 15 17 16 14 17 16 19 18 21 9 23 1 25 5 27
REMARK H PARENT 14 18 16 20 18 22 9 24 1 26 5 28
REMARK Flexibility Score: inf
ROOT
ATOM      1  C   UNL     1     -13.634 -30.729 -12.273  1.00  0.00     0.402 A 
ATOM      2  O   UNL     1     -13.751 -30.754 -10.947  1.00  0.00    -0.202 OA
ATOM      3  C   UNL     1     -13.956 -29.667 -10.211  1.00  0.00     0.368 A 
ATOM      4  C   UNL     1     -14.068 -29.796  -8.825  1.00  0.00     0.162 A 
ATOM      5  C   UNL     1     -14.287 -28.672  -8.027  1.00  0.00     0.128 A 
ATOM      6  C   UNL     1     -14.395 -27.409  -8.619  1.00  0.00     0.093 A 
ATOM      7  C   UNL     1     -14.286 -27.253 -10.006  1.00  0.00     0.136 A 
ATOM      8  C   UNL     1     -14.062 -28.393 -10.820  1.00  0.00     0.125 A 
ATOM      9  C   UNL     1     -13.926 -28.330 -12.217  1.00  0.00     0.078 A 
ATOM     10  C   UNL     1     -13.701 -29.499 -12.952  1.00  0.00     0.223 A 
ENDROOT
BRANCH   1  11
ATOM     11  C   UNL     1     -13.416 -32.010 -12.982  1.00  0.00     0.091 A 
ATOM     12  C   UNL     1     -14.511 -32.687 -13.536  1.00  0.00     0.068 A 
ATOM     13  C   UNL     1     -14.339 -33.890 -14.231  1.00  0.00     0.162 A 
ATOM     14  C   UNL     1     -12.127 -32.535 -13.162  1.00  0.00     0.068 A 
ATOM     15  C   UNL     1     -13.038 -34.426 -14.390  1.00  0.00     0.200 A 
ATOM     16  C   UNL     1     -11.940 -33.738 -13.856  1.00  0.00     0.162 A 
BRANCH  13  17
ATOM     17  O   UNL     1     -15.479 -34.513 -14.745  1.00  0.00    -0.504 OA
ATOM     18  H   UNL     1     -15.995 -34.177 -15.546  1.00  0.00     0.293 HD
ENDBRANCH  13  17
BRANCH  15  19
ATOM     19  O   UNL     1     -12.797 -35.623 -15.066  1.00  0.00    -0.502 OA
ATOM     20  H   UNL     1     -12.976 -36.539 -14.678  1.00  0.00     0.293 HD
ENDBRANCH  15  19
BRANCH  16  21
ATOM     21  O   UNL     1     -10.657 -34.256 -14.024  1.00  0.00    -0.504 OA
ATOM     22  H   UNL     1      -9.838 -33.661 -14.011  1.00  0.00     0.293 HD
ENDBRANCH  16  21
ENDBRANCH   1  11
BRANCH  10  23
ATOM     23  O   UNL     1     -13.517 -29.431 -14.333  1.00  0.00    -0.500 OA
ATOM     24  H   UNL     1     -12.791 -29.961 -14.801  1.00  0.00     0.294 HD
ENDBRANCH  10  23
BRANCH   5  25
ATOM     25  O   UNL     1     -14.396 -28.821  -6.646  1.00  0.00    -0.507 OA
ATOM     26  H   UNL     1     -13.860 -28.247  -6.007  1.00  0.00     0.293 HD
ENDBRANCH   5  25
BRANCH   7  27
ATOM     27  O   UNL     1     -14.409 -25.959 -10.520  1.00  0.00    -0.507 OA
ATOM     28  H   UNL     1     -15.057 -25.693 -11.246  1.00  0.00     0.293 HD
ENDBRANCH   7  27
TORSDOF 7
ENDMDL
MODEL 5
REMARK VINA RESULT:    -6.565      1.317      7.195
REMARK INTER + INTRA:          -8.484
REMARK INTER:                  -8.109
REMARK INTRA:                  -0.374
REMARK UNBOUND:                -0.383
REMARK SMILES Oc1cc(O)c2cc(O)c(-c3cc(O)c(O)c(O)c3)[o+]c2c1
REMARK SMILES IDX 10 1 20 2 21 3 22 4 2 5 3 6 4 7 6 8 7 9 8 10 11 11 12 12
REMARK SMILES IDX 13 13 19 14 15 15 17 16 14 17 16 19 18 21 9 23 1 25 5 27
REMARK H PARENT 14 18 16 20 18 22 9 24 1 26 5 28
REMARK Flexibility Score: inf
ROOT
ATOM      1  C   UNL     1     -13.781 -30.832 -12.369  1.00  0.00     0.402 A 
ATOM      2  O   UNL     1     -13.862 -29.695 -13.056  1.00  0.00    -0.202 OA
ATOM      3  C   UNL     1     -14.071 -28.512 -12.488  1.00  0.00     0.368 A 
ATOM      4  C   UNL     1     -14.137 -27.373 -13.295  1.00  0.00     0.162 A 
ATOM      5  C   UNL     1     -14.352 -26.118 -12.726  1.00  0.00     0.128 A 
ATOM      6  C   UNL     1     -14.501 -25.997 -11.339  1.00  0.00     0.093 A 
ATOM      7  C   UNL     1     -14.439 -27.123 -10.510  1.00  0.00     0.136 A 
ATOM      8  C   UNL     1     -14.223 -28.402 -11.085  1.00  0.00     0.125 A 
ATOM      9  C   UNL     1     -14.159 -29.587 -10.332  1.00  0.00     0.078 A 
ATOM     10  C   UNL     1     -13.948 -30.812 -10.972  1.00  0.00     0.223 A 
ENDROOT
BRANCH   1  11
ATOM     11  C   UNL     1     -13.536 -32.086 -13.116  1.00  0.00     0.091 A 
ATOM     12  C   UNL     1     -12.230 -32.582 -13.223  1.00  0.00     0.068 A 
ATOM     13  C   UNL     1     -11.964 -33.776 -13.905  1.00  0.00     0.162 A 
ATOM     14  C   UNL     1     -14.594 -32.824 -13.672  1.00  0.00     0.068 A 
ATOM     15  C   UNL     1     -13.033 -34.503 -14.482  1.00  0.00     0.200 A 
ATOM     16  C   UNL     1     -14.343 -34.021 -14.355  1.00  0.00     0.162 A 
BRANCH  13  17
ATOM     17  O   UNL     1     -10.636 -34.200 -13.980  1.00  0.00    -0.504 OA
ATOM     18  H   UNL     1      -9.933 -33.985 -13.287  1.00  0.00     0.293 HD
ENDBRANCH  13  17
BRANCH  15  19
ATOM     19  O   UNL     1     -12.838 -35.697 -15.180  1.00  0.00    -0.502 OA
ATOM     20  H   UNL     1     -12.074 -35.861 -15.819  1.00  0.00     0.293 HD
ENDBRANCH  15  19
BRANCH  16  21
ATOM     21  O   UNL     1     -15.398 -34.743 -14.911  1.00  0.00    -0.504 OA
ATOM     22  H   UNL     1     -16.327 -34.347 -14.995  1.00  0.00     0.293 HD
ENDBRANCH  16  21
ENDBRANCH   1  11
BRANCH  10  23
ATOM     23  O   UNL     1     -13.934 -31.994 -10.231  1.00  0.00    -0.500 OA
ATOM     24  H   UNL     1     -13.502 -32.840 -10.585  1.00  0.00     0.294 HD
ENDBRANCH  10  23
BRANCH   5  25
ATOM     25  O   UNL     1     -14.415 -24.994 -13.546  1.00  0.00    -0.507 OA
ATOM     26  H   UNL     1     -13.988 -24.116 -13.276  1.00  0.00     0.293 HD
ENDBRANCH   5  25
BRANCH   7  27
ATOM     27  O   UNL     1     -14.594 -26.919  -9.135  1.00  0.00    -0.507 OA
ATOM     28  H   UNL     1     -13.843 -26.966  -8.463  1.00  0.00     0.293 HD
ENDBRANCH   7  27
TORSDOF 7
ENDMDL
MODEL 6
REMARK VINA RESULT:    -6.539      1.316      7.185
REMARK INTER + INTRA:          -8.452
REMARK INTER:                  -8.069
REMARK INTRA:                  -0.383
REMARK UNBOUND:                -0.383
REMARK SMILES Oc1cc(O)c2cc(O)c(-c3cc(O)c(O)c(O)c3)[o+]c2c1
REMARK SMILES IDX 10 1 20 2 21 3 22 4 2 5 3 6 4 7 6 8 7 9 8 10 11 11 12 12
REMARK SMILES IDX 13 13 19 14 15 15 17 16 14 17 16 19 18 21 9 23 1 25 5 27
REMARK H PARENT 14 18 16 20 18 22 9 24 1 26 5 28
REMARK Flexibility Score: inf
ROOT
ATOM      1  C   UNL     1     -13.721 -30.762 -12.275  1.00  0.00     0.402 A 
ATOM      2  O   UNL     1     -13.810 -29.644 -12.993  1.00  0.00    -0.202 OA
ATOM      3  C   UNL     1     -14.037 -28.449 -12.457  1.00  0.00     0.368 A 
ATOM      4  C   UNL     1     -14.111 -27.333 -13.294  1.00  0.00     0.162 A 
ATOM      5  C   UNL     1     -14.345 -26.065 -12.760  1.00  0.00     0.128 A 
ATOM      6  C   UNL     1     -14.506 -25.910 -11.379  1.00  0.00     0.093 A 
ATOM      7  C   UNL     1     -14.436 -27.014 -10.519  1.00  0.00     0.136 A 
ATOM      8  C   UNL     1     -14.200 -28.304 -11.059  1.00  0.00     0.125 A 
ATOM      9  C   UNL     1     -14.128 -29.468 -10.275  1.00  0.00     0.078 A 
ATOM     10  C   UNL     1     -13.898 -30.707 -10.880  1.00  0.00     0.223 A 
ENDROOT
BRANCH   1  11
ATOM     11  C   UNL     1     -13.456 -32.032 -12.987  1.00  0.00     0.091 A 
ATOM     12  C   UNL     1     -14.522 -32.732 -13.570  1.00  0.00     0.068 A 
ATOM     13  C   UNL     1     -14.305 -33.926 -14.268  1.00  0.00     0.162 A 
ATOM     14  C   UNL     1     -12.150 -32.525 -13.142  1.00  0.00     0.068 A 
ATOM     15  C   UNL     1     -12.988 -34.429 -14.401  1.00  0.00     0.200 A 
ATOM     16  C   UNL     1     -11.918 -33.718 -13.838  1.00  0.00     0.162 A 
BRANCH  13  17
ATOM     17  O   UNL     1     -15.417 -34.573 -14.811  1.00  0.00    -0.504 OA
ATOM     18  H   UNL     1     -15.514 -35.576 -14.873  1.00  0.00     0.293 HD
ENDBRANCH  13  17
BRANCH  15  19
ATOM     19  O   UNL     1     -12.702 -35.615 -15.079  1.00  0.00    -0.502 OA
ATOM     20  H   UNL     1     -13.233 -35.959 -15.867  1.00  0.00     0.293 HD
ENDBRANCH  15  19
BRANCH  16  21
ATOM     21  O   UNL     1     -10.619 -34.204 -13.981  1.00  0.00    -0.504 OA
ATOM     22  H   UNL     1      -9.812 -33.618 -13.806  1.00  0.00     0.293 HD
ENDBRANCH  16  21
ENDBRANCH   1  11
BRANCH  10  23
ATOM     23  O   UNL     1     -13.875 -31.869 -10.108  1.00  0.00    -0.500 OA
ATOM     24  H   UNL     1     -14.616 -32.559 -10.162  1.00  0.00     0.294 HD
ENDBRANCH  10  23
BRANCH   5  25
ATOM     25  O   UNL     1     -14.415 -24.964 -13.610  1.00  0.00    -0.507 OA
ATOM     26  H   UNL     1     -15.303 -24.559 -13.880  1.00  0.00     0.293 HD
ENDBRANCH   5  25
BRANCH   7  27
ATOM     27  O   UNL     1     -14.604 -26.776  -9.151  1.00  0.00    -0.507 OA
ATOM     28  H   UNL     1     -14.769 -25.866  -8.747  1.00  0.00     0.293 HD
ENDBRANCH   7  27
TORSDOF 7
ENDMDL
MODEL 7
REMARK VINA RESULT:    -6.412      2.120      3.644
REMARK INTER + INTRA:          -8.295
REMARK INTER:                  -8.544
REMARK INTRA:                   0.250
REMARK UNBOUND:                -0.383
REMARK SMILES Oc1cc(O)c2cc(O)c(-c3cc(O)c(O)c(O)c3)[o+]c2c1
REMARK SMILES IDX 10 1 20 2 21 3 22 4 2 5 3 6 4 7 6 8 7 9 8 10 11 11 12 12
REMARK SMILES IDX 13 13 19 14 15 15 17 16 14 17 16 19 18 21 9 23 1 25 5 27
REMARK H PARENT 14 18 16 20 18 22 9 24 1 26 5 28
REMARK Flexibility Score: inf
ROOT
ATOM      1  C   UNL     1     -12.617 -30.315 -11.876  1.00  0.00     0.402 A 
ATOM      2  O   UNL     1     -12.720 -31.241 -12.826  1.00  0.00    -0.202 OA
ATOM      3  C   UNL     1     -12.328 -32.501 -12.664  1.00  0.00     0.368 A 
ATOM      4  C   UNL     1     -12.481 -33.402 -13.720  1.00  0.00     0.162 A 
ATOM      5  C   UNL     1     -12.080 -34.730 -13.577  1.00  0.00     0.128 A 
ATOM      6  C   UNL     1     -11.522 -35.164 -12.369  1.00  0.00     0.093 A 
ATOM      7  C   UNL     1     -11.359 -34.280 -11.296  1.00  0.00     0.136 A 
ATOM      8  C   UNL     1     -11.763 -32.927 -11.438  1.00  0.00     0.125 A 
ATOM      9  C   UNL     1     -11.624 -31.969 -10.421  1.00  0.00     0.078 A 
ATOM     10  C   UNL     1     -12.042 -30.652 -10.638  1.00  0.00     0.223 A 
ENDROOT
BRANCH   1  11
ATOM     11  C   UNL     1     -13.099 -28.948 -12.176  1.00  0.00     0.091 A 
ATOM     12  C   UNL     1     -13.249 -28.545 -13.510  1.00  0.00     0.068 A 
ATOM     13  C   UNL     1     -13.722 -27.266 -13.830  1.00  0.00     0.162 A 
ATOM     14  C   UNL     1     -13.465 -28.061 -11.151  1.00  0.00     0.068 A 
ATOM     15  C   UNL     1     -14.068 -26.370 -12.790  1.00  0.00     0.200 A 
ATOM     16  C   UNL     1     -13.940 -26.779 -11.455  1.00  0.00     0.162 A 
BRANCH  13  17
ATOM     17  O   UNL     1     -13.833 -26.934 -15.181  1.00  0.00    -0.504 OA
ATOM     18  H   UNL     1     -13.165 -27.208 -15.888  1.00  0.00     0.293 HD
ENDBRANCH  13  17
BRANCH  15  19
ATOM     19  O   UNL     1     -14.540 -25.079 -13.039  1.00  0.00    -0.502 OA
ATOM     20  H   UNL     1     -14.222 -24.256 -12.548  1.00  0.00     0.293 HD
ENDBRANCH  15  19
BRANCH  16  21
ATOM     21  O   UNL     1     -14.294 -25.902 -10.431  1.00  0.00    -0.504 OA
ATOM     22  H   UNL     1     -14.071 -26.098  -9.463  1.00  0.00     0.293 HD
ENDBRANCH  16  21
ENDBRANCH   1  11
BRANCH  10  23
ATOM     23  O   UNL     1     -11.859 -29.688  -9.645  1.00  0.00    -0.500 OA
ATOM     24  H   UNL     1     -12.173 -28.732  -9.767  1.00  0.00     0.294 HD
ENDBRANCH  10  23
BRANCH   5  25
ATOM     25  O   UNL     1     -12.241 -35.614 -14.642  1.00  0.00    -0.507 OA
ATOM     26  H   UNL     1     -12.624 -35.311 -15.529  1.00  0.00     0.293 HD
ENDBRANCH   5  25
BRANCH   7  27
ATOM     27  O   UNL     1     -10.797 -34.791 -10.122  1.00  0.00    -0.507 OA
ATOM     28  H   UNL     1     -10.099 -35.520 -10.093  1.00  0.00     0.293 HD
ENDBRANCH   7  27
TORSDOF 7
ENDMDL
MODEL 8
REMARK VINA RESULT:    -6.301      1.067      2.600
REMARK INTER + INTRA:          -8.157
REMARK INTER:                  -7.778
REMARK INTRA:                  -0.379
REMARK UNBOUND:                -0.383
REMARK SMILES Oc1cc(O)c2cc(O)c(-c3cc(O)c(O)c(O)c3)[o+]c2c1
REMARK SMILES IDX 10 1 20 2 21 3 22 4 2 5 3 6 4 7 6 8 7 9 8 10 11 11 12 12
REMARK SMILES IDX 13 13 19 14 15 15 17 16 14 17 16 19 18 21 9 23 1 25 5 27
REMARK H PARENT 14 18 16 20 18 22 9 24 1 26 5 28
REMARK Flexibility Score: inf
ROOT
ATOM      1  C   UNL     1     -13.065 -30.691 -11.561  1.00  0.00     0.402 A 
ATOM      2  O   UNL     1     -13.980 -31.379 -12.239  1.00  0.00    -0.202 OA
ATOM      3  C   UNL     1     -13.691 -32.441 -12.984  1.00  0.00     0.368 A 
ATOM      4  C   UNL     1     -14.722 -33.100 -13.658  1.00  0.00     0.162 A 
ATOM      5  C   UNL     1     -14.448 -34.219 -14.445  1.00  0.00     0.128 A 
ATOM      6  C   UNL     1     -13.134 -34.684 -14.560  1.00  0.00     0.093 A 
ATOM      7  C   UNL     1     -12.083 -34.041 -13.895  1.00  0.00     0.136 A 
ATOM      8  C   UNL     1     -12.357 -32.902 -13.096  1.00  0.00     0.125 A 
ATOM      9  C   UNL     1     -11.365 -32.186 -12.405  1.00  0.00     0.078 A 
ATOM     10  C   UNL     1     -11.713 -31.068 -11.640  1.00  0.00     0.223 A 
ENDROOT
BRANCH   1  11
ATOM     11  C   UNL     1     -13.514 -29.531 -10.758  1.00  0.00     0.091 A 
ATOM     12  C   UNL     1     -13.862 -29.715  -9.413  1.00  0.00     0.068 A 
ATOM     13  C   UNL     1     -14.271 -28.637  -8.618  1.00  0.00     0.162 A 
ATOM     14  C   UNL     1     -13.544 -28.235 -11.299  1.00  0.00     0.068 A 
ATOM     15  C   UNL     1     -14.321 -27.337  -9.177  1.00  0.00     0.200 A 
ATOM     16  C   UNL     1     -13.951 -27.147 -10.516  1.00  0.00     0.162 A 
BRANCH  13  17
ATOM     17  O   UNL     1     -14.614 -28.901  -7.291  1.00  0.00    -0.504 OA
ATOM     18  H   UNL     1     -15.270 -29.615  -7.007  1.00  0.00     0.293 HD
ENDBRANCH  13  17
BRANCH  15  19
ATOM     19  O   UNL     1     -14.725 -26.220  -8.443  1.00  0.00    -0.502 OA
ATOM     20  H   UNL     1     -15.575 -25.704  -8.619  1.00  0.00     0.293 HD
ENDBRANCH  15  19
BRANCH  16  21
ATOM     21  O   UNL     1     -13.985 -25.865 -11.063  1.00  0.00    -0.504 OA
ATOM     22  H   UNL     1     -13.858 -25.708 -12.056  1.00  0.00     0.293 HD
ENDBRANCH  16  21
ENDBRANCH   1  11
BRANCH  10  23
ATOM     23  O   UNL     1     -10.722 -30.328 -10.993  1.00  0.00    -0.500 OA
ATOM     24  H   UNL     1      -9.748 -30.391 -11.265  1.00  0.00     0.294 HD
ENDBRANCH  10  23
BRANCH   5  25
ATOM     25  O   UNL     1     -15.490 -34.863 -15.108  1.00  0.00    -0.507 OA
ATOM     26  H   UNL     1     -15.314 -35.541 -15.839  1.00  0.00     0.293 HD
ENDBRANCH   5  25
BRANCH   7  27
ATOM     27  O   UNL     1     -10.799 -34.569 -14.059  1.00  0.00    -0.507 OA
ATOM     28  H   UNL     1     -10.411 -34.861 -14.944  1.00  0.00     0.293 HD
ENDBRANCH   7  27
TORSDOF 7
ENDMDL
MODEL 9
REMARK VINA RESULT:    -6.154      1.968      7.075
REMARK INTER + INTRA:          -7.977
REMARK INTER:                  -8.069
REMARK INTRA:                   0.092
REMARK UNBOUND:                -0.383
REMARK SMILES Oc1cc(O)c2cc(O)c(-c3cc(O)c(O)c(O)c3)[o+]c2c1
REMARK SMILES IDX 10 1 20 2 21 3 22 4 2 5 3 6 4 7 6 8 7 9 8 10 11 11 12 12
REMARK SMILES IDX 13 13 19 14 15 15 17 16 14 17 16 19 18 21 9 23 1 25 5 27
REMARK H PARENT 14 18 16 20 18 22 9 24 1 26 5 28
REMARK Flexibility Score: inf
ROOT
ATOM      1  C   UNL     1     -12.990 -31.150 -11.766  1.00  0.00     0.402 A 
ATOM      2  O   UNL     1     -12.975 -30.270 -12.764  1.00  0.00    -0.202 OA
ATOM      3  C   UNL     1     -13.404 -29.019 -12.641  1.00  0.00     0.368 A 
ATOM      4  C   UNL     1     -13.346 -28.168 -13.747  1.00  0.00     0.162 A 
ATOM      5  C   UNL     1     -13.787 -26.848 -13.645  1.00  0.00     0.128 A 
ATOM      6  C   UNL     1     -14.290 -26.373 -12.429  1.00  0.00     0.093 A 
ATOM      7  C   UNL     1     -14.359 -27.206 -11.306  1.00  0.00     0.136 A 
ATOM      8  C   UNL     1     -13.914 -28.550 -11.406  1.00  0.00     0.125 A 
ATOM      9  C   UNL     1     -13.958 -29.459 -10.337  1.00  0.00     0.078 A 
ATOM     10  C   UNL     1     -13.505 -30.771 -10.513  1.00  0.00     0.223 A 
ENDROOT
BRANCH   1  11
ATOM     11  C   UNL     1     -12.475 -32.514 -12.026  1.00  0.00     0.091 A 
ATOM     12  C   UNL     1     -12.641 -33.083 -13.296  1.00  0.00     0.068 A 
ATOM     13  C   UNL     1     -12.148 -34.362 -13.584  1.00  0.00     0.162 A 
ATOM     14  C   UNL     1     -11.772 -33.230 -11.044  1.00  0.00     0.068 A 
ATOM     15  C   UNL     1     -11.460 -35.087 -12.581  1.00  0.00     0.200 A 
ATOM     16  C   UNL     1     -11.274 -34.510 -11.318  1.00  0.00     0.162 A 
BRANCH  13  17
ATOM     17  O   UNL     1     -12.362 -34.867 -14.868  1.00  0.00    -0.504 OA
ATOM     18  H   UNL     1     -12.741 -34.327 -15.633  1.00  0.00     0.293 HD
ENDBRANCH  13  17
BRANCH  15  19
ATOM     19  O   UNL     1     -10.949 -36.369 -12.799  1.00  0.00    -0.502 OA
ATOM     20  H   UNL     1     -11.473 -37.219 -12.651  1.00  0.00     0.293 HD
ENDBRANCH  15  19
BRANCH  16  21
ATOM     21  O   UNL     1     -10.583 -35.217 -10.334  1.00  0.00    -0.504 OA
ATOM     22  H   UNL     1     -10.816 -35.126  -9.353  1.00  0.00     0.293 HD
ENDBRANCH  16  21
ENDBRANCH   1  11
BRANCH  10  23
ATOM     23  O   UNL     1     -13.594 -31.688  -9.466  1.00  0.00    -0.500 OA
ATOM     24  H   UNL     1     -14.308 -31.612  -8.751  1.00  0.00     0.294 HD
ENDBRANCH  10  23
BRANCH   5  25
ATOM     25  O   UNL     1     -13.720 -26.014 -14.760  1.00  0.00    -0.507 OA
ATOM     26  H   UNL     1     -13.320 -25.085 -14.703  1.00  0.00     0.293 HD
ENDBRANCH   5  25
BRANCH   7  27
ATOM     27  O   UNL     1     -14.871 -26.656 -10.127  1.00  0.00    -0.507 OA
ATOM     28  H   UNL     1     -14.375 -26.001  -9.541  1.00  0.00     0.293 HD
ENDBRANCH   7  27
TORSDOF 7
ENDMDL
