MODEL 1
REMARK VINA RESULT:    -3.722      0.000      0.000
REMARK INTER + INTRA:         -13.206
REMARK INTER:                  -8.509
REMARK INTRA:                  -4.697
REMARK UNBOUND:                -4.697
REMARK SMILES CCCCCCCCCCCCCCCCCCCCCCCC(=O)[O-]
REMARK SMILES IDX 13 1 14 2 15 3 16 4 17 5 18 6 19 7 20 8 21 9 22 10 23 11
REMARK SMILES IDX 24 12 25 13 26 14 12 15 11 16 10 17 9 18 8 19 7 20 6 21 5 22
REMARK SMILES IDX 4 23 3 24 2 25 1 26
REMARK H PARENT
REMARK Flexibility Score: inf
ROOT
ATOM      1  C   UNL     1     -11.235  -8.622  26.950  1.00  0.00     0.000 C 
ENDROOT
BRANCH   1   2
ATOM      2  C   UNL     1     -11.939  -8.556  28.322  1.00  0.00     0.000 C 
BRANCH   2   3
ATOM      3  C   UNL     1     -12.113  -9.911  29.032  1.00  0.00     0.000 C 
BRANCH   3   4
ATOM      4  C   UNL     1     -13.506 -10.522  28.810  1.00  0.00     0.000 C 
BRANCH   4   5
ATOM      5  C   UNL     1     -13.453 -11.989  28.344  1.00  0.00     0.000 C 
BRANCH   5   6
ATOM      6  C   UNL     1     -13.926 -12.235  26.899  1.00  0.00     0.000 C 
BRANCH   6   7
ATOM      7  C   UNL     1     -12.833 -12.845  26.005  1.00  0.00     0.000 C 
BRANCH   7   8
ATOM      8  C   UNL     1     -11.429 -12.721  26.616  1.00  0.00     0.000 C 
BRANCH   8   9
ATOM      9  C   UNL     1     -10.453 -11.946  25.711  1.00  0.00     0.000 C 
BRANCH   9  10
ATOM     10  C   UNL     1     -10.906 -11.908  24.244  1.00  0.00     0.006 C 
BRANCH  10  11
ATOM     11  C   UNL     1     -10.206 -12.965  23.380  1.00  0.00     0.053 C 
BRANCH  11  12
ATOM     12  C   UNL     1     -11.210 -13.868  22.732  1.00  0.00     0.041 C 
ATOM     13  O   UNL     1     -11.744 -14.800  23.392  1.00  0.00    -0.550 OA
ATOM     14  O   UNL     1     -11.570 -13.671  21.403  1.00  0.00    -0.550 OA
ENDBRANCH  11  12
ENDBRANCH  10  11
ENDBRANCH   9  10
ENDBRANCH   8   9
ENDBRANCH   7   8
ENDBRANCH   6   7
ENDBRANCH   5   6
ENDBRANCH   4   5
ENDBRANCH   3   4
ENDBRANCH   2   3
ENDBRANCH   1   2
BRANCH   1  15
ATOM     15  C   UNL     1     -12.086  -8.165  25.750  1.00  0.00     0.000 C 
BRANCH  15  16
ATOM     16  C   UNL     1     -13.033  -9.238  25.183  1.00  0.00     0.000 C 
BRANCH  16  17
ATOM     17  C   UNL     1     -14.516  -8.901  25.411  1.00  0.00     0.000 C 
BRANCH  17  18
ATOM     18  C   UNL     1     -14.716  -7.484  25.971  1.00  0.00    -0.000 C 
BRANCH  18  19
ATOM     19  C   UNL     1     -15.366  -6.532  24.949  1.00  0.00    -0.000 C 
BRANCH  19  20
ATOM     20  C   UNL     1     -14.353  -5.564  24.317  1.00  0.00    -0.000 C 
BRANCH  20  21
ATOM     21  C   UNL     1     -14.237  -5.743  22.794  1.00  0.00    -0.000 C 
BRANCH  21  22
ATOM     22  C   UNL     1     -13.231  -6.838  22.398  1.00  0.00    -0.000 C 
BRANCH  22  23
ATOM     23  C   UNL     1     -13.658  -7.714  21.203  1.00  0.00    -0.000 C 
BRANCH  23  24
ATOM     24  C   UNL     1     -14.360  -9.032  21.578  1.00  0.00    -0.000 C 
BRANCH  24  25
ATOM     25  C   UNL     1     -13.378 -10.195  21.770  1.00  0.00    -0.003 C 
ATOM     26  C   UNL     1     -14.082 -11.418  22.353  1.00  0.00     0.004 C 
ENDBRANCH  24  25
ENDBRANCH  23  24
ENDBRANCH  22  23
ENDBRANCH  21  22
ENDBRANCH  20  21
ENDBRANCH  19  20
ENDBRANCH  18  19
ENDBRANCH  17  18
ENDBRANCH  16  17
ENDBRANCH  15  16
ENDBRANCH   1  15
TORSDOF 22
ENDMDL
MODEL 2
REMARK VINA RESULT:    -3.654      2.280      3.481
REMARK INTER + INTRA:         -13.049
REMARK INTER:                  -8.471
REMARK INTRA:                  -4.578
REMARK UNBOUND:                -4.697
REMARK SMILES CCCCCCCCCCCCCCCCCCCCCCCC(=O)[O-]
REMARK SMILES IDX 13 1 14 2 15 3 16 4 17 5 18 6 19 7 20 8 21 9 22 10 23 11
REMARK SMILES IDX 24 12 25 13 26 14 12 15 11 16 10 17 9 18 8 19 7 20 6 21 5 22
REMARK SMILES IDX 4 23 3 24 2 25 1 26
REMARK H PARENT
REMARK Flexibility Score: inf
ROOT
ATOM      1  C   UNL     1     -11.064 -10.442  27.885  1.00  0.00     0.000 C 
ENDROOT
BRANCH   1   2
ATOM      2  C   UNL     1     -11.807  -9.664  28.991  1.00  0.00     0.000 C 
BRANCH   2   3
ATOM      3  C   UNL     1     -12.415 -10.536  30.105  1.00  0.00     0.000 C 
BRANCH   3   4
ATOM      4  C   UNL     1     -13.598 -11.386  29.614  1.00  0.00     0.000 C 
BRANCH   4   5
ATOM      5  C   UNL     1     -13.358 -12.900  29.770  1.00  0.00     0.000 C 
BRANCH   5   6
ATOM      6  C   UNL     1     -12.594 -13.565  28.610  1.00  0.00     0.000 C 
BRANCH   6   7
ATOM      7  C   UNL     1     -11.237 -14.148  29.040  1.00  0.00     0.000 C 
BRANCH   7   8
ATOM      8  C   UNL     1     -10.224 -14.205  27.887  1.00  0.00     0.000 C 
BRANCH   8   9
ATOM      9  C   UNL     1     -10.846 -13.828  26.530  1.00  0.00     0.000 C 
BRANCH   9  10
ATOM     10  C   UNL     1     -10.850 -14.998  25.533  1.00  0.00     0.006 C 
BRANCH  10  11
ATOM     11  C   UNL     1     -10.198 -16.264  26.103  1.00  0.00     0.053 C 
BRANCH  11  12
ATOM     12  C   UNL     1     -11.232 -17.309  26.388  1.00  0.00     0.041 C 
ATOM     13  O   UNL     1     -10.930 -18.333  27.059  1.00  0.00    -0.550 OA
ATOM     14  O   UNL     1     -12.534 -17.145  25.929  1.00  0.00    -0.550 OA
ENDBRANCH  11  12
ENDBRANCH  10  11
ENDBRANCH   9  10
ENDBRANCH   8   9
ENDBRANCH   7   8
ENDBRANCH   6   7
ENDBRANCH   5   6
ENDBRANCH   4   5
ENDBRANCH   3   4
ENDBRANCH   2   3
ENDBRANCH   1   2
BRANCH   1  15
ATOM     15  C   UNL     1     -10.852  -9.672  26.566  1.00  0.00     0.000 C 
BRANCH  15  16
ATOM     16  C   UNL     1     -11.529  -8.291  26.510  1.00  0.00     0.000 C 
BRANCH  16  17
ATOM     17  C   UNL     1     -12.244  -8.035  25.173  1.00  0.00     0.000 C 
BRANCH  17  18
ATOM     18  C   UNL     1     -13.720  -7.654  25.360  1.00  0.00    -0.000 C 
BRANCH  18  19
ATOM     19  C   UNL     1     -14.316  -8.224  26.662  1.00  0.00    -0.000 C 
BRANCH  19  20
ATOM     20  C   UNL     1     -15.658  -8.936  26.434  1.00  0.00    -0.000 C 
BRANCH  20  21
ATOM     21  C   UNL     1     -15.507 -10.235  25.625  1.00  0.00    -0.000 C 
BRANCH  21  22
ATOM     22  C   UNL     1     -14.405 -11.155  26.176  1.00  0.00    -0.000 C 
BRANCH  22  23
ATOM     23  C   UNL     1     -13.438 -11.723  25.117  1.00  0.00    -0.000 C 
BRANCH  23  24
ATOM     24  C   UNL     1     -13.653 -11.191  23.688  1.00  0.00    -0.000 C 
BRANCH  24  25
ATOM     25  C   UNL     1     -12.336 -10.902  22.957  1.00  0.00    -0.003 C 
ATOM     26  C   UNL     1     -11.218 -11.812  23.457  1.00  0.00     0.004 C 
ENDBRANCH  24  25
ENDBRANCH  23  24
ENDBRANCH  22  23
ENDBRANCH  21  22
ENDBRANCH  20  21
ENDBRANCH  19  20
ENDBRANCH  18  19
ENDBRANCH  17  18
ENDBRANCH  16  17
ENDBRANCH  15  16
ENDBRANCH   1  15
TORSDOF 22
ENDMDL
MODEL 3
REMARK VINA RESULT:    -3.641      2.918      7.183
REMARK INTER + INTRA:         -13.019
REMARK INTER:                  -8.433
REMARK INTRA:                  -4.587
REMARK UNBOUND:                -4.697
REMARK SMILES CCCCCCCCCCCCCCCCCCCCCCCC(=O)[O-]
REMARK SMILES IDX 13 1 14 2 15 3 16 4 17 5 18 6 19 7 20 8 21 9 22 10 23 11
REMARK SMILES IDX 24 12 25 13 26 14 12 15 11 16 10 17 9 18 8 19 7 20 6 21 5 22
REMARK SMILES IDX 4 23 3 24 2 25 1 26
REMARK H PARENT
REMARK Flexibility Score: inf
ROOT
ATOM      1  C   UNL     1     -13.324 -10.723  29.836  1.00  0.00     0.000 C 
ENDROOT
BRANCH   1   2
ATOM      2  C   UNL     1     -11.788 -10.575  29.784  1.00  0.00     0.000 C 
BRANCH   2   3
ATOM      3  C   UNL     1     -11.218 -10.175  28.411  1.00  0.00     0.000 C 
BRANCH   3   4
ATOM      4  C   UNL     1     -11.564  -8.727  28.025  1.00  0.00     0.000 C 
BRANCH   4   5
ATOM      5  C   UNL     1     -11.538  -8.488  26.503  1.00  0.00     0.000 C 
BRANCH   5   6
ATOM      6  C   UNL     1     -12.912  -8.233  25.857  1.00  0.00     0.000 C 
BRANCH   6   7
ATOM      7  C   UNL     1     -14.083  -8.427  26.837  1.00  0.00     0.000 C 
BRANCH   7   8
ATOM      8  C   UNL     1     -14.876  -9.714  26.566  1.00  0.00     0.000 C 
BRANCH   8   9
ATOM      9  C   UNL     1     -14.301 -10.532  25.395  1.00  0.00     0.000 C 
BRANCH   9  10
ATOM     10  C   UNL     1     -13.705 -11.875  25.844  1.00  0.00     0.006 C 
BRANCH  10  11
ATOM     11  C   UNL     1     -12.248 -12.056  25.399  1.00  0.00     0.053 C 
BRANCH  11  12
ATOM     12  C   UNL     1     -12.054 -13.396  24.756  1.00  0.00     0.041 C 
ATOM     13  O   UNL     1     -10.921 -13.947  24.771  1.00  0.00    -0.550 OA
ATOM     14  O   UNL     1     -13.129 -14.043  24.157  1.00  0.00    -0.550 OA
ENDBRANCH  11  12
ENDBRANCH  10  11
ENDBRANCH   9  10
ENDBRANCH   8   9
ENDBRANCH   7   8
ENDBRANCH   6   7
ENDBRANCH   5   6
ENDBRANCH   4   5
ENDBRANCH   3   4
ENDBRANCH   2   3
ENDBRANCH   1   2
BRANCH   1  15
ATOM     15  C   UNL     1     -13.861 -12.132  29.516  1.00  0.00     0.000 C 
BRANCH  15  16
ATOM     16  C   UNL     1     -13.469 -13.219  30.534  1.00  0.00     0.000 C 
BRANCH  16  17
ATOM     17  C   UNL     1     -12.758 -14.415  29.880  1.00  0.00     0.000 C 
BRANCH  17  18
ATOM     18  C   UNL     1     -12.249 -14.093  28.466  1.00  0.00    -0.000 C 
BRANCH  18  19
ATOM     19  C   UNL     1     -10.711 -14.125  28.372  1.00  0.00    -0.000 C 
BRANCH  19  20
ATOM     20  C   UNL     1     -10.057 -14.749  29.614  1.00  0.00    -0.000 C 
BRANCH  20  21
ATOM     21  C   UNL     1      -9.474 -16.145  29.335  1.00  0.00    -0.000 C 
BRANCH  21  22
ATOM     22  C   UNL     1     -10.397 -17.281  29.809  1.00  0.00    -0.000 C 
BRANCH  22  23
ATOM     23  C   UNL     1     -11.411 -17.778  28.758  1.00  0.00    -0.000 C 
BRANCH  23  24
ATOM     24  C   UNL     1     -10.792 -18.281  27.441  1.00  0.00    -0.000 C 
BRANCH  24  25
ATOM     25  C   UNL     1     -10.970 -17.290  26.284  1.00  0.00    -0.003 C 
ATOM     26  C   UNL     1     -12.442 -16.934  26.087  1.00  0.00     0.004 C 
ENDBRANCH  24  25
ENDBRANCH  23  24
ENDBRANCH  22  23
ENDBRANCH  21  22
ENDBRANCH  20  21
ENDBRANCH  19  20
ENDBRANCH  18  19
ENDBRANCH  17  18
ENDBRANCH  16  17
ENDBRANCH  15  16
ENDBRANCH   1  15
TORSDOF 22
ENDMDL
MODEL 4
REMARK VINA RESULT:    -3.633      2.471      5.527
REMARK INTER + INTRA:         -13.003
REMARK INTER:                  -8.233
REMARK INTRA:                  -4.769
REMARK UNBOUND:                -4.697
REMARK SMILES CCCCCCCCCCCCCCCCCCCCCCCC(=O)[O-]
REMARK SMILES IDX 13 1 14 2 15 3 16 4 17 5 18 6 19 7 20 8 21 9 22 10 23 11
REMARK SMILES IDX 24 12 25 13 26 14 12 15 11 16 10 17 9 18 8 19 7 20 6 21 5 22
REMARK SMILES IDX 4 23 3 24 2 25 1 26
REMARK H PARENT
REMARK Flexibility Score: inf
ROOT
ATOM      1  C   UNL     1     -15.055 -13.525  22.786  1.00  0.00     0.000 C 
ENDROOT
BRANCH   1   2
ATOM      2  C   UNL     1     -15.764 -12.155  22.830  1.00  0.00     0.000 C 
BRANCH   2   3
ATOM      3  C   UNL     1     -14.914 -10.966  22.346  1.00  0.00     0.000 C 
BRANCH   3   4
ATOM      4  C   UNL     1     -13.456 -11.358  22.058  1.00  0.00     0.000 C 
BRANCH   4   5
ATOM      5  C   UNL     1     -12.455 -10.715  23.037  1.00  0.00     0.000 C 
BRANCH   5   6
ATOM      6  C   UNL     1     -11.417 -11.680  23.639  1.00  0.00     0.000 C 
BRANCH   6   7
ATOM      7  C   UNL     1     -11.397 -13.052  22.944  1.00  0.00     0.000 C 
BRANCH   7   8
ATOM      8  C   UNL     1     -10.386 -14.021  23.575  1.00  0.00     0.000 C 
BRANCH   8   9
ATOM      9  C   UNL     1     -11.060 -15.237  24.237  1.00  0.00     0.000 C 
BRANCH   9  10
ATOM     10  C   UNL     1     -11.017 -15.177  25.772  1.00  0.00     0.006 C 
BRANCH  10  11
ATOM     11  C   UNL     1     -12.174 -15.939  26.429  1.00  0.00     0.053 C 
BRANCH  11  12
ATOM     12  C   UNL     1     -11.660 -17.106  27.215  1.00  0.00     0.041 C 
ATOM     13  O   UNL     1     -11.001 -18.015  26.643  1.00  0.00    -0.550 OA
ATOM     14  O   UNL     1     -11.894 -17.181  28.584  1.00  0.00    -0.550 OA
ENDBRANCH  11  12
ENDBRANCH  10  11
ENDBRANCH   9  10
ENDBRANCH   8   9
ENDBRANCH   7   8
ENDBRANCH   6   7
ENDBRANCH   5   6
ENDBRANCH   4   5
ENDBRANCH   3   4
ENDBRANCH   2   3
ENDBRANCH   1   2
BRANCH   1  15
ATOM     15  C   UNL     1     -14.799 -14.178  24.159  1.00  0.00     0.000 C 
BRANCH  15  16
ATOM     16  C   UNL     1     -15.112 -13.280  25.370  1.00  0.00     0.000 C 
BRANCH  16  17
ATOM     17  C   UNL     1     -13.844 -12.724  26.039  1.00  0.00     0.000 C 
BRANCH  17  18
ATOM     18  C   UNL     1     -14.128 -11.477  26.890  1.00  0.00    -0.000 C 
BRANCH  18  19
ATOM     19  C   UNL     1     -14.620 -10.287  26.045  1.00  0.00    -0.000 C 
BRANCH  19  20
ATOM     20  C   UNL     1     -14.308  -8.931  26.698  1.00  0.00    -0.000 C 
BRANCH  20  21
ATOM     21  C   UNL     1     -13.637  -7.948  25.723  1.00  0.00    -0.000 C 
BRANCH  21  22
ATOM     22  C   UNL     1     -12.120  -8.171  25.603  1.00  0.00    -0.000 C 
BRANCH  22  23
ATOM     23  C   UNL     1     -11.412  -8.563  26.916  1.00  0.00    -0.000 C 
BRANCH  23  24
ATOM     24  C   UNL     1     -10.724  -9.940  26.899  1.00  0.00    -0.000 C 
BRANCH  24  25
ATOM     25  C   UNL     1     -10.874 -10.697  28.225  1.00  0.00    -0.003 C 
ATOM     26  C   UNL     1     -11.622  -9.856  29.256  1.00  0.00     0.004 C 
ENDBRANCH  24  25
ENDBRANCH  23  24
ENDBRANCH  22  23
ENDBRANCH  21  22
ENDBRANCH  20  21
ENDBRANCH  19  20
ENDBRANCH  18  19
ENDBRANCH  17  18
ENDBRANCH  16  17
ENDBRANCH  15  16
ENDBRANCH   1  15
TORSDOF 22
ENDMDL
MODEL 5
REMARK VINA RESULT:    -3.629      3.243      7.516
REMARK INTER + INTRA:         -12.993
REMARK INTER:                  -8.308
REMARK INTRA:                  -4.685
REMARK UNBOUND:                -4.697
REMARK SMILES CCCCCCCCCCCCCCCCCCCCCCCC(=O)[O-]
REMARK SMILES IDX 13 1 14 2 15 3 16 4 17 5 18 6 19 7 20 8 21 9 22 10 23 11
REMARK SMILES IDX 24 12 25 13 26 14 12 15 11 16 10 17 9 18 8 19 7 20 6 21 5 22
REMARK SMILES IDX 4 23 3 24 2 25 1 26
REMARK H PARENT
REMARK Flexibility Score: inf
ROOT
ATOM      1  C   UNL     1     -11.096 -12.280  25.502  1.00  0.00     0.000 C 
ENDROOT
BRANCH   1   2
ATOM      2  C   UNL     1     -11.238 -10.746  25.598  1.00  0.00     0.000 C 
BRANCH   2   3
ATOM      3  C   UNL     1     -10.621 -10.112  26.858  1.00  0.00     0.000 C 
BRANCH   3   4
ATOM      4  C   UNL     1     -11.684  -9.606  27.848  1.00  0.00     0.000 C 
BRANCH   4   5
ATOM      5  C   UNL     1     -12.406 -10.745  28.591  1.00  0.00     0.000 C 
BRANCH   5   6
ATOM      6  C   UNL     1     -13.847 -11.023  28.123  1.00  0.00     0.000 C 
BRANCH   6   7
ATOM      7  C   UNL     1     -14.473  -9.837  27.370  1.00  0.00     0.000 C 
BRANCH   7   8
ATOM      8  C   UNL     1     -14.927 -10.209  25.950  1.00  0.00     0.000 C 
BRANCH   8   9
ATOM      9  C   UNL     1     -14.487  -9.177  24.895  1.00  0.00     0.000 C 
BRANCH   9  10
ATOM     10  C   UNL     1     -13.738  -7.983  25.509  1.00  0.00     0.006 C 
BRANCH  10  11
ATOM     11  C   UNL     1     -12.665  -7.412  24.573  1.00  0.00     0.053 C 
BRANCH  11  12
ATOM     12  C   UNL     1     -13.292  -6.826  23.345  1.00  0.00     0.041 C 
ATOM     13  O   UNL     1     -13.012  -7.291  22.207  1.00  0.00    -0.550 OA
ATOM     14  O   UNL     1     -14.198  -5.778  23.458  1.00  0.00    -0.550 OA
ENDBRANCH  11  12
ENDBRANCH  10  11
ENDBRANCH   9  10
ENDBRANCH   8   9
ENDBRANCH   7   8
ENDBRANCH   6   7
ENDBRANCH   5   6
ENDBRANCH   4   5
ENDBRANCH   3   4
ENDBRANCH   2   3
ENDBRANCH   1   2
BRANCH   1  15
ATOM     15  C   UNL     1     -12.405 -13.046  25.227  1.00  0.00     0.000 C 
BRANCH  15  16
ATOM     16  C   UNL     1     -12.226 -14.550  24.947  1.00  0.00     0.000 C 
BRANCH  16  17
ATOM     17  C   UNL     1     -10.750 -14.952  24.792  1.00  0.00     0.000 C 
BRANCH  17  18
ATOM     18  C   UNL     1     -10.522 -16.452  25.034  1.00  0.00    -0.000 C 
BRANCH  18  19
ATOM     19  C   UNL     1     -11.695 -17.113  25.783  1.00  0.00    -0.000 C 
BRANCH  19  20
ATOM     20  C   UNL     1     -11.254 -17.787  27.091  1.00  0.00    -0.000 C 
BRANCH  20  21
ATOM     21  C   UNL     1     -11.128 -16.788  28.255  1.00  0.00    -0.000 C 
BRANCH  21  22
ATOM     22  C   UNL     1     -12.347 -15.858  28.375  1.00  0.00    -0.000 C 
BRANCH  22  23
ATOM     23  C   UNL     1     -12.016 -14.389  28.709  1.00  0.00    -0.000 C 
BRANCH  23  24
ATOM     24  C   UNL     1     -10.658 -14.168  29.400  1.00  0.00    -0.000 C 
BRANCH  24  25
ATOM     25  C   UNL     1      -9.709 -13.287  28.579  1.00  0.00    -0.003 C 
ATOM     26  C   UNL     1      -8.727 -14.136  27.776  1.00  0.00     0.004 C 
ENDBRANCH  24  25
ENDBRANCH  23  24
ENDBRANCH  22  23
ENDBRANCH  21  22
ENDBRANCH  20  21
ENDBRANCH  19  20
ENDBRANCH  18  19
ENDBRANCH  17  18
ENDBRANCH  16  17
ENDBRANCH  15  16
ENDBRANCH   1  15
TORSDOF 22
ENDMDL
MODEL 6
REMARK VINA RESULT:    -3.617      1.520      3.780
REMARK INTER + INTRA:         -12.965
REMARK INTER:                  -8.393
REMARK INTRA:                  -4.572
REMARK UNBOUND:                -4.697
REMARK SMILES CCCCCCCCCCCCCCCCCCCCCCCC(=O)[O-]
REMARK SMILES IDX 13 1 14 2 15 3 16 4 17 5 18 6 19 7 20 8 21 9 22 10 23 11
REMARK SMILES IDX 24 12 25 13 26 14 12 15 11 16 10 17 9 18 8 19 7 20 6 21 5 22
REMARK SMILES IDX 4 23 3 24 2 25 1 26
REMARK H PARENT
REMARK Flexibility Score: inf
ROOT
ATOM      1  C   UNL     1     -13.240 -10.990  29.614  1.00  0.00     0.000 C 
ENDROOT
BRANCH   1   2
ATOM      2  C   UNL     1     -13.867 -11.754  28.430  1.00  0.00     0.000 C 
BRANCH   2   3
ATOM      3  C   UNL     1     -12.914 -12.026  27.251  1.00  0.00     0.000 C 
BRANCH   3   4
ATOM      4  C   UNL     1     -12.225 -13.397  27.350  1.00  0.00     0.000 C 
BRANCH   4   5
ATOM      5  C   UNL     1     -10.850 -13.432  26.657  1.00  0.00     0.000 C 
BRANCH   5   6
ATOM      6  C   UNL     1     -10.330 -12.069  26.165  1.00  0.00     0.000 C 
BRANCH   6   7
ATOM      7  C   UNL     1     -10.336 -11.940  24.632  1.00  0.00     0.000 C 
BRANCH   7   8
ATOM      8  C   UNL     1     -10.493 -13.294  23.924  1.00  0.00     0.000 C 
BRANCH   8   9
ATOM      9  C   UNL     1     -11.635 -13.296  22.891  1.00  0.00     0.000 C 
BRANCH   9  10
ATOM     10  C   UNL     1     -12.868 -12.513  23.368  1.00  0.00     0.006 C 
BRANCH  10  11
ATOM     11  C   UNL     1     -14.167 -13.319  23.242  1.00  0.00     0.053 C 
BRANCH  11  12
ATOM     12  C   UNL     1     -14.410 -14.129  24.479  1.00  0.00     0.041 C 
ATOM     13  O   UNL     1     -13.667 -15.111  24.749  1.00  0.00    -0.550 OA
ATOM     14  O   UNL     1     -15.445 -13.789  25.343  1.00  0.00    -0.550 OA
ENDBRANCH  11  12
ENDBRANCH  10  11
ENDBRANCH   9  10
ENDBRANCH   8   9
ENDBRANCH   7   8
ENDBRANCH   6   7
ENDBRANCH   5   6
ENDBRANCH   4   5
ENDBRANCH   3   4
ENDBRANCH   2   3
ENDBRANCH   1   2
BRANCH   1  15
ATOM     15  C   UNL     1     -11.782 -10.536  29.408  1.00  0.00     0.000 C 
BRANCH  15  16
ATOM     16  C   UNL     1     -11.490  -9.086  29.835  1.00  0.00     0.000 C 
BRANCH  16  17
ATOM     17  C   UNL     1     -11.613  -8.089  28.670  1.00  0.00     0.000 C 
BRANCH  17  18
ATOM     18  C   UNL     1     -11.181  -8.699  27.328  1.00  0.00    -0.000 C 
BRANCH  18  19
ATOM     19  C   UNL     1     -12.273  -8.578  26.247  1.00  0.00    -0.000 C 
BRANCH  19  20
ATOM     20  C   UNL     1     -13.644  -8.207  26.832  1.00  0.00    -0.000 C 
BRANCH  20  21
ATOM     21  C   UNL     1     -14.804  -8.914  26.109  1.00  0.00    -0.000 C 
BRANCH  21  22
ATOM     22  C   UNL     1     -14.361  -9.611  24.812  1.00  0.00    -0.000 C 
BRANCH  22  23
ATOM     23  C   UNL     1     -14.686  -8.844  23.515  1.00  0.00    -0.000 C 
BRANCH  23  24
ATOM     24  C   UNL     1     -13.461  -8.373  22.711  1.00  0.00    -0.000 C 
BRANCH  24  25
ATOM     25  C   UNL     1     -12.996  -6.966  23.105  1.00  0.00    -0.003 C 
ATOM     26  C   UNL     1     -14.165  -6.120  23.603  1.00  0.00     0.004 C 
ENDBRANCH  24  25
ENDBRANCH  23  24
ENDBRANCH  22  23
ENDBRANCH  21  22
ENDBRANCH  20  21
ENDBRANCH  19  20
ENDBRANCH  18  19
ENDBRANCH  17  18
ENDBRANCH  16  17
ENDBRANCH  15  16
ENDBRANCH   1  15
TORSDOF 22
ENDMDL
MODEL 7
REMARK VINA RESULT:    -3.615      2.518      5.136
REMARK INTER + INTRA:         -12.962
REMARK INTER:                  -8.465
REMARK INTRA:                  -4.497
REMARK UNBOUND:                -4.697
REMARK SMILES CCCCCCCCCCCCCCCCCCCCCCCC(=O)[O-]
REMARK SMILES IDX 13 1 14 2 15 3 16 4 17 5 18 6 19 7 20 8 21 9 22 10 23 11
REMARK SMILES IDX 24 12 25 13 26 14 12 15 11 16 10 17 9 18 8 19 7 20 6 21 5 22
REMARK SMILES IDX 4 23 3 24 2 25 1 26
REMARK H PARENT
REMARK Flexibility Score: inf
ROOT
ATOM      1  C   UNL     1     -12.584  -8.253  27.155  1.00  0.00     0.000 C 
ENDROOT
BRANCH   1   2
ATOM      2  C   UNL     1     -12.008  -8.858  25.857  1.00  0.00     0.000 C 
BRANCH   2   3
ATOM      3  C   UNL     1     -13.038  -9.554  24.948  1.00  0.00     0.000 C 
BRANCH   3   4
ATOM      4  C   UNL     1     -14.463  -9.508  25.524  1.00  0.00     0.000 C 
BRANCH   4   5
ATOM      5  C   UNL     1     -15.000 -10.898  25.914  1.00  0.00     0.000 C 
BRANCH   5   6
ATOM      6  C   UNL     1     -14.555 -12.053  24.997  1.00  0.00     0.000 C 
BRANCH   6   7
ATOM      7  C   UNL     1     -14.311 -13.367  25.759  1.00  0.00     0.000 C 
BRANCH   7   8
ATOM      8  C   UNL     1     -14.479 -14.608  24.870  1.00  0.00     0.000 C 
BRANCH   8   9
ATOM      9  C   UNL     1     -14.051 -15.908  25.577  1.00  0.00     0.000 C 
BRANCH   9  10
ATOM     10  C   UNL     1     -12.582 -15.883  26.027  1.00  0.00     0.006 C 
BRANCH  10  11
ATOM     11  C   UNL     1     -11.941 -17.276  26.035  1.00  0.00     0.053 C 
BRANCH  11  12
ATOM     12  C   UNL     1     -10.487 -17.187  26.385  1.00  0.00     0.041 C 
ATOM     13  O   UNL     1      -9.697 -16.534  25.650  1.00  0.00    -0.550 OA
ATOM     14  O   UNL     1     -10.006 -17.809  27.532  1.00  0.00    -0.550 OA
ENDBRANCH  11  12
ENDBRANCH  10  11
ENDBRANCH   9  10
ENDBRANCH   8   9
ENDBRANCH   7   8
ENDBRANCH   6   7
ENDBRANCH   5   6
ENDBRANCH   4   5
ENDBRANCH   3   4
ENDBRANCH   2   3
ENDBRANCH   1   2
BRANCH   1  15
ATOM     15  C   UNL     1     -11.635  -8.274  28.369  1.00  0.00     0.000 C 
BRANCH  15  16
ATOM     16  C   UNL     1     -11.347  -9.674  28.940  1.00  0.00     0.000 C 
BRANCH  16  17
ATOM     17  C   UNL     1     -12.622 -10.398  29.405  1.00  0.00     0.000 C 
BRANCH  17  18
ATOM     18  C   UNL     1     -12.652 -11.871  28.968  1.00  0.00    -0.000 C 
BRANCH  18  19
ATOM     19  C   UNL     1     -11.955 -12.099  27.614  1.00  0.00    -0.000 C 
BRANCH  19  20
ATOM     20  C   UNL     1     -10.856 -13.170  27.688  1.00  0.00    -0.000 C 
BRANCH  20  21
ATOM     21  C   UNL     1      -9.882 -13.100  26.499  1.00  0.00    -0.000 C 
BRANCH  21  22
ATOM     22  C   UNL     1     -10.115 -11.866  25.611  1.00  0.00    -0.000 C 
BRANCH  22  23
ATOM     23  C   UNL     1     -10.414 -12.176  24.130  1.00  0.00    -0.000 C 
BRANCH  23  24
ATOM     24  C   UNL     1     -10.709 -13.655  23.820  1.00  0.00    -0.000 C 
BRANCH  24  25
ATOM     25  C   UNL     1     -11.681 -13.834  22.647  1.00  0.00    -0.003 C 
ATOM     26  C   UNL     1     -12.248 -12.492  22.192  1.00  0.00     0.004 C 
ENDBRANCH  24  25
ENDBRANCH  23  24
ENDBRANCH  22  23
ENDBRANCH  21  22
ENDBRANCH  20  21
ENDBRANCH  19  20
ENDBRANCH  18  19
ENDBRANCH  17  18
ENDBRANCH  16  17
ENDBRANCH  15  16
ENDBRANCH   1  15
TORSDOF 22
ENDMDL
MODEL 8
REMARK VINA RESULT:    -3.584      2.584      5.177
REMARK INTER + INTRA:         -12.890
REMARK INTER:                  -8.429
REMARK INTRA:                  -4.461
REMARK UNBOUND:                -4.697
REMARK SMILES CCCCCCCCCCCCCCCCCCCCCCCC(=O)[O-]
REMARK SMILES IDX 13 1 14 2 15 3 16 4 17 5 18 6 19 7 20 8 21 9 22 10 23 11
REMARK SMILES IDX 24 12 25 13 26 14 12 15 11 16 10 17 9 18 8 19 7 20 6 21 5 22
REMARK SMILES IDX 4 23 3 24 2 25 1 26
REMARK H PARENT
REMARK Flexibility Score: inf
ROOT
ATOM      1  C   UNL     1     -13.464  -8.996  24.703  1.00  0.00     0.000 C 
ENDROOT
BRANCH   1   2
ATOM      2  C   UNL     1     -14.735  -9.442  25.455  1.00  0.00     0.000 C 
BRANCH   2   3
ATOM      3  C   UNL     1     -15.221 -10.866  25.127  1.00  0.00     0.000 C 
BRANCH   3   4
ATOM      4  C   UNL     1     -14.542 -11.451  23.877  1.00  0.00     0.000 C 
BRANCH   4   5
ATOM      5  C   UNL     1     -14.607 -12.989  23.820  1.00  0.00     0.000 C 
BRANCH   5   6
ATOM      6  C   UNL     1     -15.297 -13.660  25.022  1.00  0.00     0.000 C 
BRANCH   6   7
ATOM      7  C   UNL     1     -14.930 -15.147  25.173  1.00  0.00     0.000 C 
BRANCH   7   8
ATOM      8  C   UNL     1     -13.413 -15.381  25.226  1.00  0.00     0.000 C 
BRANCH   8   9
ATOM      9  C   UNL     1     -13.021 -16.519  26.187  1.00  0.00     0.000 C 
BRANCH   9  10
ATOM     10  C   UNL     1     -11.704 -17.204  25.790  1.00  0.00     0.006 C 
BRANCH  10  11
ATOM     11  C   UNL     1     -10.898 -17.688  27.001  1.00  0.00     0.053 C 
BRANCH  11  12
ATOM     12  C   UNL     1      -9.773 -16.745  27.299  1.00  0.00     0.041 C 
ATOM     13  O   UNL     1      -9.100 -16.875  28.357  1.00  0.00    -0.550 OA
ATOM     14  O   UNL     1      -9.455 -15.732  26.400  1.00  0.00    -0.550 OA
ENDBRANCH  11  12
ENDBRANCH  10  11
ENDBRANCH   9  10
ENDBRANCH   8   9
ENDBRANCH   7   8
ENDBRANCH   6   7
ENDBRANCH   5   6
ENDBRANCH   4   5
ENDBRANCH   3   4
ENDBRANCH   2   3
ENDBRANCH   1   2
BRANCH   1  15
ATOM     15  C   UNL     1     -12.377  -8.340  25.578  1.00  0.00     0.000 C 
BRANCH  15  16
ATOM     16  C   UNL     1     -12.711  -8.271  27.079  1.00  0.00     0.000 C 
BRANCH  16  17
ATOM     17  C   UNL     1     -11.483  -8.516  27.972  1.00  0.00     0.000 C 
BRANCH  17  18
ATOM     18  C   UNL     1     -11.709  -9.654  28.980  1.00  0.00    -0.000 C 
BRANCH  18  19
ATOM     19  C   UNL     1     -13.002 -10.443  28.699  1.00  0.00    -0.000 C 
BRANCH  19  20
ATOM     20  C   UNL     1     -12.758 -11.956  28.596  1.00  0.00    -0.000 C 
BRANCH  20  21
ATOM     21  C   UNL     1     -12.667 -12.442  27.139  1.00  0.00    -0.000 C 
BRANCH  21  22
ATOM     22  C   UNL     1     -11.216 -12.606  26.656  1.00  0.00    -0.000 C 
BRANCH  22  23
ATOM     23  C   UNL     1     -10.740 -11.542  25.647  1.00  0.00    -0.000 C 
BRANCH  23  24
ATOM     24  C   UNL     1     -10.896 -11.933  24.166  1.00  0.00    -0.000 C 
BRANCH  24  25
ATOM     25  C   UNL     1     -10.657 -13.427  23.916  1.00  0.00    -0.003 C 
ATOM     26  C   UNL     1     -11.176 -13.845  22.543  1.00  0.00     0.004 C 
ENDBRANCH  24  25
ENDBRANCH  23  24
ENDBRANCH  22  23
ENDBRANCH  21  22
ENDBRANCH  20  21
ENDBRANCH  19  20
ENDBRANCH  18  19
ENDBRANCH  17  18
ENDBRANCH  16  17
ENDBRANCH  15  16
ENDBRANCH   1  15
TORSDOF 22
ENDMDL
MODEL 9
REMARK VINA RESULT:    -3.563      3.059      5.991
REMARK INTER + INTRA:         -12.843
REMARK INTER:                  -8.092
REMARK INTRA:                  -4.751
REMARK UNBOUND:                -4.697
REMARK SMILES CCCCCCCCCCCCCCCCCCCCCCCC(=O)[O-]
REMARK SMILES IDX 13 1 14 2 15 3 16 4 17 5 18 6 19 7 20 8 21 9 22 10 23 11
REMARK SMILES IDX 24 12 25 13 26 14 12 15 11 16 10 17 9 18 8 19 7 20 6 21 5 22
REMARK SMILES IDX 4 23 3 24 2 25 1 26
REMARK H PARENT
REMARK Flexibility Score: inf
ROOT
ATOM      1  C   UNL     1     -13.291 -13.469  26.341  1.00  0.00     0.000 C 
ENDROOT
BRANCH   1   2
ATOM      2  C   UNL     1     -14.026 -14.483  25.441  1.00  0.00     0.000 C 
BRANCH   2   3
ATOM      3  C   UNL     1     -13.794 -15.963  25.799  1.00  0.00     0.000 C 
BRANCH   3   4
ATOM      4  C   UNL     1     -13.019 -16.138  27.116  1.00  0.00     0.000 C 
BRANCH   4   5
ATOM      5  C   UNL     1     -11.666 -16.850  26.928  1.00  0.00     0.000 C 
BRANCH   5   6
ATOM      6  C   UNL     1     -11.171 -16.943  25.473  1.00  0.00     0.000 C 
BRANCH   6   7
ATOM      7  C   UNL     1      -9.792 -16.294  25.264  1.00  0.00     0.000 C 
BRANCH   7   8
ATOM      8  C   UNL     1      -9.700 -15.508  23.948  1.00  0.00     0.000 C 
BRANCH   8   9
ATOM      9  C   UNL     1     -10.715 -14.353  23.872  1.00  0.00     0.000 C 
BRANCH   9  10
ATOM     10  C   UNL     1     -11.067 -13.966  22.427  1.00  0.00     0.006 C 
BRANCH  10  11
ATOM     11  C   UNL     1     -12.579 -13.953  22.168  1.00  0.00     0.053 C 
BRANCH  11  12
ATOM     12  C   UNL     1     -12.993 -12.672  21.511  1.00  0.00     0.041 C 
ATOM     13  O   UNL     1     -12.470 -12.323  20.418  1.00  0.00    -0.550 OA
ATOM     14  O   UNL     1     -13.968 -11.872  22.096  1.00  0.00    -0.550 OA
ENDBRANCH  11  12
ENDBRANCH  10  11
ENDBRANCH   9  10
ENDBRANCH   8   9
ENDBRANCH   7   8
ENDBRANCH   6   7
ENDBRANCH   5   6
ENDBRANCH   4   5
ENDBRANCH   3   4
ENDBRANCH   2   3
ENDBRANCH   1   2
BRANCH   1  15
ATOM     15  C   UNL     1     -13.587 -11.986  26.042  1.00  0.00     0.000 C 
BRANCH  15  16
ATOM     16  C   UNL     1     -12.508 -11.266  25.214  1.00  0.00     0.000 C 
BRANCH  16  17
ATOM     17  C   UNL     1     -11.641 -10.321  26.064  1.00  0.00     0.000 C 
BRANCH  17  18
ATOM     18  C   UNL     1     -12.398  -9.764  27.279  1.00  0.00    -0.000 C 
BRANCH  18  19
ATOM     19  C   UNL     1     -11.486  -9.575  28.506  1.00  0.00    -0.000 C 
BRANCH  19  20
ATOM     20  C   UNL     1     -12.091 -10.166  29.788  1.00  0.00    -0.000 C 
BRANCH  20  21
ATOM     21  C   UNL     1     -13.437 -10.868  29.536  1.00  0.00    -0.000 C 
BRANCH  21  22
ATOM     22  C   UNL     1     -13.385 -12.377  29.830  1.00  0.00    -0.000 C 
BRANCH  22  23
ATOM     23  C   UNL     1     -12.020 -12.899  30.323  1.00  0.00    -0.000 C 
BRANCH  23  24
ATOM     24  C   UNL     1     -11.261 -13.787  29.321  1.00  0.00    -0.000 C 
BRANCH  24  25
ATOM     25  C   UNL     1      -9.962 -13.143  28.820  1.00  0.00    -0.003 C 
ATOM     26  C   UNL     1      -9.848 -13.244  27.302  1.00  0.00     0.004 C 
ENDBRANCH  24  25
ENDBRANCH  23  24
ENDBRANCH  22  23
ENDBRANCH  21  22
ENDBRANCH  20  21
ENDBRANCH  19  20
ENDBRANCH  18  19
ENDBRANCH  17  18
ENDBRANCH  16  17
ENDBRANCH  15  16
ENDBRANCH   1  15
TORSDOF 22
ENDMDL
