MODEL 1
REMARK VINA RESULT:    -3.816      0.000      0.000
REMARK INTER + INTRA:          -7.954
REMARK INTER:                  -7.162
REMARK INTRA:                  -0.792
REMARK UNBOUND:                -0.792
REMARK SMILES CCCCCCCCC=CCCCCCCCC(=O)[O-]
REMARK SMILES IDX 10 1 9 2 11 3 12 4 13 5 14 6 15 7 16 8 17 9 18 10 19 11
REMARK SMILES IDX 20 12 8 13 7 14 6 15 5 16 4 17 3 18 2 19 1 20
REMARK H PARENT
REMARK Flexibility Score: inf
ROOT
ATOM      1  C   UNL     1     414.606 -85.461 117.894  1.00  0.00    -0.031 C 
ATOM      2  C   UNL     1     413.639 -85.917 117.076  1.00  0.00    -0.031 C 
ENDROOT
BRANCH   1   3
ATOM      3  C   UNL     1     415.047 -84.019 117.976  1.00  0.00     0.027 C 
BRANCH   3   4
ATOM      4  C   UNL     1     416.501 -83.888 118.446  1.00  0.00     0.004 C 
BRANCH   4   5
ATOM      5  C   UNL     1     417.494 -83.883 117.277  1.00  0.00     0.000 C 
BRANCH   5   6
ATOM      6  C   UNL     1     418.585 -84.946 117.478  1.00  0.00     0.000 C 
BRANCH   6   7
ATOM      7  C   UNL     1     419.226 -84.895 118.874  1.00  0.00     0.000 C 
BRANCH   7   8
ATOM      8  C   UNL     1     420.097 -86.109 119.245  1.00  0.00     0.006 C 
BRANCH   8   9
ATOM      9  C   UNL     1     420.676 -86.057 120.668  1.00  0.00     0.053 C 
BRANCH   9  10
ATOM     10  C   UNL     1     420.638 -87.390 121.353  1.00  0.00     0.041 C 
ATOM     11  O   UNL     1     421.218 -87.549 122.460  1.00  0.00    -0.550 OA
ATOM     12  O   UNL     1     420.011 -88.471 120.744  1.00  0.00    -0.550 OA
ENDBRANCH   9  10
ENDBRANCH   8   9
ENDBRANCH   7   8
ENDBRANCH   6   7
ENDBRANCH   5   6
ENDBRANCH   4   5
ENDBRANCH   3   4
ENDBRANCH   1   3
BRANCH   2  13
ATOM     13  C   UNL     1     412.792 -85.046 116.180  1.00  0.00     0.027 C 
BRANCH  13  14
ATOM     14  C   UNL     1     412.461 -85.769 114.867  1.00  0.00     0.004 C 
BRANCH  14  15
ATOM     15  C   UNL     1     411.009 -85.532 114.414  1.00  0.00     0.000 C 
BRANCH  15  16
ATOM     16  C   UNL     1     410.063 -85.001 115.510  1.00  0.00     0.000 C 
BRANCH  16  17
ATOM     17  C   UNL     1     408.611 -84.762 115.054  1.00  0.00    -0.000 C 
BRANCH  17  18
ATOM     18  C   UNL     1     407.885 -86.068 114.690  1.00  0.00    -0.000 C 
BRANCH  18  19
ATOM     19  C   UNL     1     406.386 -85.857 114.441  1.00  0.00    -0.003 C 
ATOM     20  C   UNL     1     405.704 -85.111 115.587  1.00  0.00     0.004 C 
ENDBRANCH  18  19
ENDBRANCH  17  18
ENDBRANCH  16  17
ENDBRANCH  15  16
ENDBRANCH  14  15
ENDBRANCH  13  14
ENDBRANCH   2  13
TORSDOF 15
ENDMDL
MODEL 2
REMARK VINA RESULT:    -3.779      1.796      4.075
REMARK INTER + INTRA:          -7.885
REMARK INTER:                  -6.874
REMARK INTRA:                  -1.011
REMARK UNBOUND:                -0.792
REMARK SMILES CCCCCCCCC=CCCCCCCCC(=O)[O-]
REMARK SMILES IDX 10 1 9 2 11 3 12 4 13 5 14 6 15 7 16 8 17 9 18 10 19 11
REMARK SMILES IDX 20 12 8 13 7 14 6 15 5 16 4 17 3 18 2 19 1 20
REMARK H PARENT
REMARK Flexibility Score: inf
ROOT
ATOM      1  C   UNL     1     418.620 -84.949 117.808  1.00  0.00    -0.031 C 
ATOM      2  C   UNL     1     417.315 -84.810 117.510  1.00  0.00    -0.031 C 
ENDROOT
BRANCH   1   3
ATOM      3  C   UNL     1     419.353 -84.130 118.843  1.00  0.00     0.027 C 
BRANCH   3   4
ATOM      4  C   UNL     1     419.966 -85.008 119.943  1.00  0.00     0.004 C 
BRANCH   4   5
ATOM      5  C   UNL     1     419.622 -84.505 121.350  1.00  0.00     0.000 C 
BRANCH   5   6
ATOM      6  C   UNL     1     419.840 -85.608 122.396  1.00  0.00     0.000 C 
BRANCH   6   7
ATOM      7  C   UNL     1     421.309 -86.043 122.518  1.00  0.00     0.000 C 
BRANCH   7   8
ATOM      8  C   UNL     1     421.589 -87.522 122.199  1.00  0.00     0.006 C 
BRANCH   8   9
ATOM      9  C   UNL     1     420.389 -88.275 121.601  1.00  0.00     0.053 C 
BRANCH   9  10
ATOM     10  C   UNL     1     420.797 -89.520 120.873  1.00  0.00     0.041 C 
ATOM     11  O   UNL     1     422.017 -89.778 120.695  1.00  0.00    -0.550 OA
ATOM     12  O   UNL     1     419.831 -90.368 120.344  1.00  0.00    -0.550 OA
ENDBRANCH   9  10
ENDBRANCH   8   9
ENDBRANCH   7   8
ENDBRANCH   6   7
ENDBRANCH   5   6
ENDBRANCH   4   5
ENDBRANCH   3   4
ENDBRANCH   1   3
BRANCH   2  13
ATOM     13  C   UNL     1     416.368 -83.875 118.223  1.00  0.00     0.027 C 
BRANCH  13  14
ATOM     14  C   UNL     1     414.910 -84.193 117.863  1.00  0.00     0.004 C 
BRANCH  14  15
ATOM     15  C   UNL     1     414.543 -85.664 118.130  1.00  0.00     0.000 C 
BRANCH  15  16
ATOM     16  C   UNL     1     413.751 -86.354 117.000  1.00  0.00     0.000 C 
BRANCH  16  17
ATOM     17  C   UNL     1     412.668 -85.481 116.339  1.00  0.00    -0.000 C 
BRANCH  17  18
ATOM     18  C   UNL     1     412.577 -85.705 114.820  1.00  0.00    -0.000 C 
BRANCH  18  19
ATOM     19  C   UNL     1     411.140 -85.592 114.294  1.00  0.00    -0.003 C 
ATOM     20  C   UNL     1     410.164 -85.113 115.368  1.00  0.00     0.004 C 
ENDBRANCH  18  19
ENDBRANCH  17  18
ENDBRANCH  16  17
ENDBRANCH  15  16
ENDBRANCH  14  15
ENDBRANCH  13  14
ENDBRANCH   2  13
TORSDOF 15
ENDMDL
MODEL 3
REMARK VINA RESULT:    -3.736      5.009     11.067
REMARK INTER + INTRA:          -7.803
REMARK INTER:                  -7.031
REMARK INTRA:                  -0.772
REMARK UNBOUND:                -0.792
REMARK SMILES CCCCCCCCC=CCCCCCCCC(=O)[O-]
REMARK SMILES IDX 10 1 9 2 11 3 12 4 13 5 14 6 15 7 16 8 17 9 18 10 19 11
REMARK SMILES IDX 20 12 8 13 7 14 6 15 5 16 4 17 3 18 2 19 1 20
REMARK H PARENT
REMARK Flexibility Score: inf
ROOT
ATOM      1  C   UNL     1     414.460 -84.425 118.083  1.00  0.00    -0.031 C 
ATOM      2  C   UNL     1     415.709 -83.924 118.060  1.00  0.00    -0.031 C 
ENDROOT
BRANCH   1   3
ATOM      3  C   UNL     1     414.091 -85.824 117.653  1.00  0.00     0.027 C 
BRANCH   3   4
ATOM      4  C   UNL     1     413.197 -85.825 116.406  1.00  0.00     0.004 C 
BRANCH   4   5
ATOM      5  C   UNL     1     412.743 -84.414 116.012  1.00  0.00     0.000 C 
BRANCH   5   6
ATOM      6  C   UNL     1     411.514 -84.468 115.093  1.00  0.00     0.000 C 
BRANCH   6   7
ATOM      7  C   UNL     1     410.242 -84.941 115.814  1.00  0.00     0.000 C 
BRANCH   7   8
ATOM      8  C   UNL     1     409.320 -85.861 114.993  1.00  0.00     0.006 C 
BRANCH   8   9
ATOM      9  C   UNL     1     408.131 -85.139 114.339  1.00  0.00     0.053 C 
BRANCH   9  10
ATOM     10  C   UNL     1     406.811 -85.716 114.750  1.00  0.00     0.041 C 
ATOM     11  O   UNL     1     406.109 -86.347 113.916  1.00  0.00    -0.550 OA
ATOM     12  O   UNL     1     406.330 -85.511 116.039  1.00  0.00    -0.550 OA
ENDBRANCH   9  10
ENDBRANCH   8   9
ENDBRANCH   7   8
ENDBRANCH   6   7
ENDBRANCH   5   6
ENDBRANCH   4   5
ENDBRANCH   3   4
ENDBRANCH   1   3
BRANCH   2  13
ATOM     13  C   UNL     1     416.941 -84.710 117.681  1.00  0.00     0.027 C 
BRANCH  13  14
ATOM     14  C   UNL     1     418.190 -84.136 118.363  1.00  0.00     0.004 C 
BRANCH  14  15
ATOM     15  C   UNL     1     419.285 -85.196 118.579  1.00  0.00     0.000 C 
BRANCH  15  16
ATOM     16  C   UNL     1     419.952 -85.169 119.970  1.00  0.00     0.000 C 
BRANCH  16  17
ATOM     17  C   UNL     1     420.778 -86.422 120.318  1.00  0.00    -0.000 C 
BRANCH  17  18
ATOM     18  C   UNL     1     420.253 -87.145 121.569  1.00  0.00    -0.000 C 
BRANCH  18  19
ATOM     19  C   UNL     1     420.550 -88.650 121.546  1.00  0.00    -0.003 C 
ATOM     20  C   UNL     1     420.023 -89.328 120.282  1.00  0.00     0.004 C 
ENDBRANCH  18  19
ENDBRANCH  17  18
ENDBRANCH  16  17
ENDBRANCH  15  16
ENDBRANCH  14  15
ENDBRANCH  13  14
ENDBRANCH   2  13
TORSDOF 15
ENDMDL
MODEL 4
REMARK VINA RESULT:    -3.567      6.376     12.019
REMARK INTER + INTRA:          -7.487
REMARK INTER:                  -6.631
REMARK INTRA:                  -0.856
REMARK UNBOUND:                -0.792
REMARK SMILES CCCCCCCCC=CCCCCCCCC(=O)[O-]
REMARK SMILES IDX 10 1 9 2 11 3 12 4 13 5 14 6 15 7 16 8 17 9 18 10 19 11
REMARK SMILES IDX 20 12 8 13 7 14 6 15 5 16 4 17 3 18 2 19 1 20
REMARK H PARENT
REMARK Flexibility Score: inf
ROOT
ATOM      1  C   UNL     1     411.432 -84.598 115.230  1.00  0.00    -0.031 C 
ATOM      2  C   UNL     1     412.572 -84.799 115.918  1.00  0.00    -0.031 C 
ENDROOT
BRANCH   1   3
ATOM      3  C   UNL     1     410.685 -85.672 114.478  1.00  0.00     0.027 C 
BRANCH   3   4
ATOM      4  C   UNL     1     409.459 -86.171 115.254  1.00  0.00     0.004 C 
BRANCH   4   5
ATOM      5  C   UNL     1     408.146 -85.608 114.694  1.00  0.00     0.000 C 
BRANCH   5   6
ATOM      6  C   UNL     1     407.080 -85.503 115.795  1.00  0.00     0.000 C 
BRANCH   6   7
ATOM      7  C   UNL     1     405.690 -85.131 115.255  1.00  0.00     0.000 C 
BRANCH   7   8
ATOM      8  C   UNL     1     405.596 -84.971 113.727  1.00  0.00     0.006 C 
BRANCH   8   9
ATOM      9  C   UNL     1     404.889 -86.135 113.014  1.00  0.00     0.053 C 
BRANCH   9  10
ATOM     10  C   UNL     1     404.229 -85.711 111.738  1.00  0.00     0.041 C 
ATOM     11  O   UNL     1     403.947 -84.499 111.544  1.00  0.00    -0.550 OA
ATOM     12  O   UNL     1     403.875 -86.660 110.785  1.00  0.00    -0.550 OA
ENDBRANCH   9  10
ENDBRANCH   8   9
ENDBRANCH   7   8
ENDBRANCH   6   7
ENDBRANCH   5   6
ENDBRANCH   4   5
ENDBRANCH   3   4
ENDBRANCH   1   3
BRANCH   2  13
ATOM     13  C   UNL     1     413.229 -86.145 116.111  1.00  0.00     0.027 C 
BRANCH  13  14
ATOM     14  C   UNL     1     414.163 -86.128 117.329  1.00  0.00     0.004 C 
BRANCH  14  15
ATOM     15  C   UNL     1     413.914 -84.918 118.247  1.00  0.00     0.000 C 
BRANCH  15  16
ATOM     16  C   UNL     1     415.107 -83.949 118.386  1.00  0.00     0.000 C 
BRANCH  16  17
ATOM     17  C   UNL     1     416.417 -84.435 117.740  1.00  0.00    -0.000 C 
BRANCH  17  18
ATOM     18  C   UNL     1     417.664 -83.875 118.444  1.00  0.00    -0.000 C 
BRANCH  18  19
ATOM     19  C   UNL     1     418.855 -84.842 118.390  1.00  0.00    -0.003 C 
ATOM     20  C   UNL     1     419.666 -84.838 119.684  1.00  0.00     0.004 C 
ENDBRANCH  18  19
ENDBRANCH  17  18
ENDBRANCH  16  17
ENDBRANCH  15  16
ENDBRANCH  14  15
ENDBRANCH  13  14
ENDBRANCH   2  13
TORSDOF 15
ENDMDL
MODEL 5
REMARK VINA RESULT:    -3.472      7.532     10.641
REMARK INTER + INTRA:          -7.308
REMARK INTER:                  -6.074
REMARK INTRA:                  -1.234
REMARK UNBOUND:                -0.792
REMARK SMILES CCCCCCCCC=CCCCCCCCC(=O)[O-]
REMARK SMILES IDX 10 1 9 2 11 3 12 4 13 5 14 6 15 7 16 8 17 9 18 10 19 11
REMARK SMILES IDX 20 12 8 13 7 14 6 15 5 16 4 17 3 18 2 19 1 20
REMARK H PARENT
REMARK Flexibility Score: inf
ROOT
ATOM      1  C   UNL     1     419.845 -84.342 114.014  1.00  0.00    -0.031 C 
ATOM      2  C   UNL     1     419.454 -83.953 115.242  1.00  0.00    -0.031 C 
ENDROOT
BRANCH   1   3
ATOM      3  C   UNL     1     419.875 -85.775 113.540  1.00  0.00     0.027 C 
BRANCH   3   4
ATOM      4  C   UNL     1     421.195 -86.121 112.838  1.00  0.00     0.004 C 
BRANCH   4   5
ATOM      5  C   UNL     1     422.165 -84.933 112.802  1.00  0.00     0.000 C 
BRANCH   5   6
ATOM      6  C   UNL     1     422.298 -84.376 111.376  1.00  0.00     0.000 C 
BRANCH   6   7
ATOM      7  C   UNL     1     421.617 -85.257 110.318  1.00  0.00     0.000 C 
BRANCH   7   8
ATOM      8  C   UNL     1     420.457 -84.594 109.553  1.00  0.00     0.006 C 
BRANCH   8   9
ATOM      9  C   UNL     1     419.062 -85.073 109.986  1.00  0.00     0.053 C 
BRANCH   9  10
ATOM     10  C   UNL     1     418.072 -85.051 108.860  1.00  0.00     0.041 C 
ATOM     11  O   UNL     1     418.209 -84.231 107.914  1.00  0.00    -0.550 OA
ATOM     12  O   UNL     1     416.970 -85.897 108.883  1.00  0.00    -0.550 OA
ENDBRANCH   9  10
ENDBRANCH   8   9
ENDBRANCH   7   8
ENDBRANCH   6   7
ENDBRANCH   5   6
ENDBRANCH   4   5
ENDBRANCH   3   4
ENDBRANCH   1   3
BRANCH   2  13
ATOM     13  C   UNL     1     418.907 -84.880 116.301  1.00  0.00     0.027 C 
BRANCH  13  14
ATOM     14  C   UNL     1     418.094 -84.102 117.344  1.00  0.00     0.004 C 
BRANCH  14  15
ATOM     15  C   UNL     1     418.517 -84.430 118.787  1.00  0.00     0.000 C 
BRANCH  15  16
ATOM     16  C   UNL     1     419.863 -85.171 118.919  1.00  0.00     0.000 C 
BRANCH  16  17
ATOM     17  C   UNL     1     420.270 -85.527 120.361  1.00  0.00    -0.000 C 
BRANCH  17  18
ATOM     18  C   UNL     1     421.040 -86.856 120.445  1.00  0.00    -0.000 C 
BRANCH  18  19
ATOM     19  C   UNL     1     420.124 -88.077 120.280  1.00  0.00    -0.003 C 
ATOM     20  C   UNL     1     420.615 -89.284 121.078  1.00  0.00     0.004 C 
ENDBRANCH  18  19
ENDBRANCH  17  18
ENDBRANCH  16  17
ENDBRANCH  15  16
ENDBRANCH  14  15
ENDBRANCH  13  14
ENDBRANCH   2  13
TORSDOF 15
ENDMDL
MODEL 6
REMARK VINA RESULT:    -3.460      4.715     11.173
REMARK INTER + INTRA:          -7.286
REMARK INTER:                  -6.564
REMARK INTRA:                  -0.722
REMARK UNBOUND:                -0.792
REMARK SMILES CCCCCCCCC=CCCCCCCCC(=O)[O-]
REMARK SMILES IDX 10 1 9 2 11 3 12 4 13 5 14 6 15 7 16 8 17 9 18 10 19 11
REMARK SMILES IDX 20 12 8 13 7 14 6 15 5 16 4 17 3 18 2 19 1 20
REMARK H PARENT
REMARK Flexibility Score: inf
ROOT
ATOM      1  C   UNL     1     416.699 -84.474 117.598  1.00  0.00    -0.031 C 
ATOM      2  C   UNL     1     418.021 -84.491 117.851  1.00  0.00    -0.031 C 
ENDROOT
BRANCH   1   3
ATOM      3  C   UNL     1     415.637 -84.147 118.620  1.00  0.00     0.027 C 
BRANCH   3   4
ATOM      4  C   UNL     1     414.316 -84.873 118.330  1.00  0.00     0.004 C 
BRANCH   4   5
ATOM      5  C   UNL     1     413.640 -84.364 117.050  1.00  0.00     0.000 C 
BRANCH   5   6
ATOM      6  C   UNL     1     412.933 -85.509 116.310  1.00  0.00     0.000 C 
BRANCH   6   7
ATOM      7  C   UNL     1     411.982 -85.018 115.207  1.00  0.00     0.000 C 
BRANCH   7   8
ATOM      8  C   UNL     1     410.483 -85.226 115.487  1.00  0.00     0.006 C 
BRANCH   8   9
ATOM      9  C   UNL     1     409.604 -85.249 114.227  1.00  0.00     0.053 C 
BRANCH   9  10
ATOM     10  C   UNL     1     408.140 -85.275 114.547  1.00  0.00     0.041 C 
ATOM     11  O   UNL     1     407.695 -86.082 115.405  1.00  0.00    -0.550 OA
ATOM     12  O   UNL     1     407.260 -84.447 113.860  1.00  0.00    -0.550 OA
ENDBRANCH   9  10
ENDBRANCH   8   9
ENDBRANCH   7   8
ENDBRANCH   6   7
ENDBRANCH   5   6
ENDBRANCH   4   5
ENDBRANCH   3   4
ENDBRANCH   1   3
BRANCH   2  13
ATOM     13  C   UNL     1     418.646 -84.105 119.170  1.00  0.00     0.027 C 
BRANCH  13  14
ATOM     14  C   UNL     1     419.793 -85.059 119.533  1.00  0.00     0.004 C 
BRANCH  14  15
ATOM     15  C   UNL     1     419.949 -85.241 121.053  1.00  0.00     0.000 C 
BRANCH  15  16
ATOM     16  C   UNL     1     420.226 -86.688 121.511  1.00  0.00     0.000 C 
BRANCH  16  17
ATOM     17  C   UNL     1     420.240 -87.735 120.382  1.00  0.00    -0.000 C 
BRANCH  17  18
ATOM     18  C   UNL     1     420.622 -89.137 120.884  1.00  0.00    -0.000 C 
BRANCH  18  19
ATOM     19  C   UNL     1     422.103 -89.240 121.270  1.00  0.00    -0.003 C 
ATOM     20  C   UNL     1     423.029 -88.743 120.161  1.00  0.00     0.004 C 
ENDBRANCH  18  19
ENDBRANCH  17  18
ENDBRANCH  16  17
ENDBRANCH  15  16
ENDBRANCH  14  15
ENDBRANCH  13  14
ENDBRANCH   2  13
TORSDOF 15
ENDMDL
MODEL 7
REMARK VINA RESULT:    -3.434      4.892     10.997
REMARK INTER + INTRA:          -7.237
REMARK INTER:                  -6.484
REMARK INTRA:                  -0.753
REMARK UNBOUND:                -0.792
REMARK SMILES CCCCCCCCC=CCCCCCCCC(=O)[O-]
REMARK SMILES IDX 10 1 9 2 11 3 12 4 13 5 14 6 15 7 16 8 17 9 18 10 19 11
REMARK SMILES IDX 20 12 8 13 7 14 6 15 5 16 4 17 3 18 2 19 1 20
REMARK H PARENT
REMARK Flexibility Score: inf
ROOT
ATOM      1  C   UNL     1     418.139 -84.746 117.337  1.00  0.00    -0.031 C 
ATOM      2  C   UNL     1     419.231 -85.207 117.975  1.00  0.00    -0.031 C 
ENDROOT
BRANCH   1   3
ATOM      3  C   UNL     1     416.973 -84.069 118.016  1.00  0.00     0.027 C 
BRANCH   3   4
ATOM      4  C   UNL     1     415.703 -84.928 117.971  1.00  0.00     0.004 C 
BRANCH   4   5
ATOM      5  C   UNL     1     414.431 -84.101 118.197  1.00  0.00     0.000 C 
BRANCH   5   6
ATOM      6  C   UNL     1     413.601 -84.006 116.908  1.00  0.00     0.000 C 
BRANCH   6   7
ATOM      7  C   UNL     1     413.033 -85.360 116.455  1.00  0.00     0.000 C 
BRANCH   7   8
ATOM      8  C   UNL     1     411.939 -85.290 115.375  1.00  0.00     0.006 C 
BRANCH   8   9
ATOM      9  C   UNL     1     412.137 -84.161 114.351  1.00  0.00     0.053 C 
BRANCH   9  10
ATOM     10  C   UNL     1     411.238 -84.301 113.160  1.00  0.00     0.041 C 
ATOM     11  O   UNL     1     411.724 -84.310 111.998  1.00  0.00    -0.550 OA
ATOM     12  O   UNL     1     409.860 -84.367 113.329  1.00  0.00    -0.550 OA
ENDBRANCH   9  10
ENDBRANCH   8   9
ENDBRANCH   7   8
ENDBRANCH   6   7
ENDBRANCH   5   6
ENDBRANCH   4   5
ENDBRANCH   3   4
ENDBRANCH   1   3
BRANCH   2  13
ATOM     13  C   UNL     1     419.493 -85.042 119.453  1.00  0.00     0.027 C 
BRANCH  13  14
ATOM     14  C   UNL     1     420.882 -85.579 119.826  1.00  0.00     0.004 C 
BRANCH  14  15
ATOM     15  C   UNL     1     420.812 -86.784 120.781  1.00  0.00     0.000 C 
BRANCH  15  16
ATOM     16  C   UNL     1     420.091 -88.024 120.212  1.00  0.00     0.000 C 
BRANCH  16  17
ATOM     17  C   UNL     1     420.636 -89.376 120.709  1.00  0.00    -0.000 C 
BRANCH  17  18
ATOM     18  C   UNL     1     422.130 -89.314 121.067  1.00  0.00    -0.000 C 
BRANCH  18  19
ATOM     19  C   UNL     1     422.827 -90.673 120.923  1.00  0.00    -0.003 C 
ATOM     20  C   UNL     1     421.907 -91.738 120.328  1.00  0.00     0.004 C 
ENDBRANCH  18  19
ENDBRANCH  17  18
ENDBRANCH  16  17
ENDBRANCH  15  16
ENDBRANCH  14  15
ENDBRANCH  13  14
ENDBRANCH   2  13
TORSDOF 15
ENDMDL
MODEL 8
REMARK VINA RESULT:    -3.423      6.699      8.642
REMARK INTER + INTRA:          -7.217
REMARK INTER:                  -6.070
REMARK INTRA:                  -1.147
REMARK UNBOUND:                -0.792
REMARK SMILES CCCCCCCCC=CCCCCCCCC(=O)[O-]
REMARK SMILES IDX 10 1 9 2 11 3 12 4 13 5 14 6 15 7 16 8 17 9 18 10 19 11
REMARK SMILES IDX 20 12 8 13 7 14 6 15 5 16 4 17 3 18 2 19 1 20
REMARK H PARENT
REMARK Flexibility Score: inf
ROOT
ATOM      1  C   UNL     1     418.819 -85.299 117.935  1.00  0.00    -0.031 C 
ATOM      2  C   UNL     1     418.880 -85.179 116.595  1.00  0.00    -0.031 C 
ENDROOT
BRANCH   1   3
ATOM      3  C   UNL     1     419.029 -84.164 118.907  1.00  0.00     0.027 C 
BRANCH   3   4
ATOM      4  C   UNL     1     420.015 -84.537 120.022  1.00  0.00     0.004 C 
BRANCH   4   5
ATOM      5  C   UNL     1     421.108 -85.498 119.538  1.00  0.00     0.000 C 
BRANCH   5   6
ATOM      6  C   UNL     1     421.529 -86.461 120.658  1.00  0.00     0.000 C 
BRANCH   6   7
ATOM      7  C   UNL     1     420.337 -87.039 121.437  1.00  0.00     0.000 C 
BRANCH   7   8
ATOM      8  C   UNL     1     420.478 -88.511 121.864  1.00  0.00     0.006 C 
BRANCH   8   9
ATOM      9  C   UNL     1     420.699 -89.487 120.698  1.00  0.00     0.053 C 
BRANCH   9  10
ATOM     10  C   UNL     1     422.051 -90.131 120.735  1.00  0.00     0.041 C 
ATOM     11  O   UNL     1     422.249 -91.146 121.455  1.00  0.00    -0.550 OA
ATOM     12  O   UNL     1     423.108 -89.580 120.019  1.00  0.00    -0.550 OA
ENDBRANCH   9  10
ENDBRANCH   8   9
ENDBRANCH   7   8
ENDBRANCH   6   7
ENDBRANCH   5   6
ENDBRANCH   4   5
ENDBRANCH   3   4
ENDBRANCH   1   3
BRANCH   2  13
ATOM     13  C   UNL     1     419.086 -83.876 115.861  1.00  0.00     0.027 C 
BRANCH  13  14
ATOM     14  C   UNL     1     419.746 -84.114 114.496  1.00  0.00     0.004 C 
BRANCH  14  15
ATOM     15  C   UNL     1     419.489 -85.532 113.956  1.00  0.00     0.000 C 
BRANCH  15  16
ATOM     16  C   UNL     1     420.681 -86.173 113.215  1.00  0.00     0.000 C 
BRANCH  16  17
ATOM     17  C   UNL     1     421.657 -85.173 112.568  1.00  0.00    -0.000 C 
BRANCH  17  18
ATOM     18  C   UNL     1     421.428 -85.021 111.055  1.00  0.00    -0.000 C 
BRANCH  18  19
ATOM     19  C   UNL     1     422.655 -85.432 110.230  1.00  0.00    -0.003 C 
ATOM     20  C   UNL     1     423.968 -85.086 110.930  1.00  0.00     0.004 C 
ENDBRANCH  18  19
ENDBRANCH  17  18
ENDBRANCH  16  17
ENDBRANCH  15  16
ENDBRANCH  14  15
ENDBRANCH  13  14
ENDBRANCH   2  13
TORSDOF 15
ENDMDL
MODEL 9
REMARK VINA RESULT:    -3.241      1.281      2.164
REMARK INTER + INTRA:          -6.874
REMARK INTER:                  -6.131
REMARK INTRA:                  -0.743
REMARK UNBOUND:                -0.792
REMARK SMILES CCCCCCCCC=CCCCCCCCC(=O)[O-]
REMARK SMILES IDX 10 1 9 2 11 3 12 4 13 5 14 6 15 7 16 8 17 9 18 10 19 11
REMARK SMILES IDX 20 12 8 13 7 14 6 15 5 16 4 17 3 18 2 19 1 20
REMARK H PARENT
REMARK Flexibility Score: inf
ROOT
ATOM      1  C   UNL     1     415.621 -84.102 118.286  1.00  0.00    -0.031 C 
ATOM      2  C   UNL     1     414.369 -84.566 118.116  1.00  0.00    -0.031 C 
ENDROOT
BRANCH   1   3
ATOM      3  C   UNL     1     416.862 -84.764 117.738  1.00  0.00     0.027 C 
BRANCH   3   4
ATOM      4  C   UNL     1     418.103 -83.875 117.889  1.00  0.00     0.004 C 
BRANCH   4   5
ATOM      5  C   UNL     1     419.408 -84.679 117.818  1.00  0.00     0.000 C 
BRANCH   5   6
ATOM      6  C   UNL     1     419.976 -84.931 119.223  1.00  0.00     0.000 C 
BRANCH   6   7
ATOM      7  C   UNL     1     420.212 -86.419 119.520  1.00  0.00     0.000 C 
BRANCH   7   8
ATOM      8  C   UNL     1     420.811 -86.730 120.903  1.00  0.00     0.006 C 
BRANCH   8   9
ATOM      9  C   UNL     1     420.009 -86.151 122.081  1.00  0.00     0.053 C 
BRANCH   9  10
ATOM     10  C   UNL     1     420.556 -86.574 123.411  1.00  0.00     0.041 C 
ATOM     11  O   UNL     1     421.622 -86.063 123.847  1.00  0.00    -0.550 OA
ATOM     12  O   UNL     1     419.920 -87.570 124.143  1.00  0.00    -0.550 OA
ENDBRANCH   9  10
ENDBRANCH   8   9
ENDBRANCH   7   8
ENDBRANCH   6   7
ENDBRANCH   5   6
ENDBRANCH   4   5
ENDBRANCH   3   4
ENDBRANCH   1   3
BRANCH   2  13
ATOM     13  C   UNL     1     414.009 -85.771 117.281  1.00  0.00     0.027 C 
BRANCH  13  14
ATOM     14  C   UNL     1     412.580 -85.651 116.733  1.00  0.00     0.004 C 
BRANCH  14  15
ATOM     15  C   UNL     1     412.482 -84.667 115.553  1.00  0.00     0.000 C 
BRANCH  15  16
ATOM     16  C   UNL     1     412.114 -85.307 114.199  1.00  0.00     0.000 C 
BRANCH  16  17
ATOM     17  C   UNL     1     410.710 -84.954 113.674  1.00  0.00    -0.000 C 
BRANCH  17  18
ATOM     18  C   UNL     1     409.676 -84.818 114.803  1.00  0.00    -0.000 C 
BRANCH  18  19
ATOM     19  C   UNL     1     408.909 -86.122 115.058  1.00  0.00    -0.003 C 
ATOM     20  C   UNL     1     407.425 -86.001 114.714  1.00  0.00     0.004 C 
ENDBRANCH  18  19
ENDBRANCH  17  18
ENDBRANCH  16  17
ENDBRANCH  15  16
ENDBRANCH  14  15
ENDBRANCH  13  14
ENDBRANCH   2  13
TORSDOF 15
ENDMDL
