MODEL 1
REMARK VINA RESULT:    -4.230      0.000      0.000
REMARK INTER + INTRA:         -15.360
REMARK INTER:                 -10.660
REMARK INTRA:                  -4.700
REMARK UNBOUND:                -4.700
REMARK SMILES CCCCCCCCCCCCCCCCCCCCCCCCCCCC(=O)[O-]
REMARK SMILES IDX 15 1 16 2 17 3 18 4 19 5 20 6 21 7 22 8 23 9 24 10 25 11
REMARK SMILES IDX 26 12 27 13 28 14 29 15 30 16 14 17 13 18 12 19 11 20 10 21
REMARK SMILES IDX 9 22 8 23 7 24 6 25 5 26 4 27 3 28 2 29 1 30
REMARK H PARENT
REMARK Flexibility Score: inf
ROOT
ATOM      1  C   UNL     1      17.040  38.327  34.055  1.00  0.00     0.000 C 
ENDROOT
BRANCH   1   2
ATOM      2  C   UNL     1      18.288  37.476  34.350  1.00  0.00     0.000 C 
BRANCH   2   3
ATOM      3  C   UNL     1      18.595  36.436  33.249  1.00  0.00     0.000 C 
BRANCH   3   4
ATOM      4  C   UNL     1      18.685  37.076  31.852  1.00  0.00     0.000 C 
BRANCH   4   5
ATOM      5  C   UNL     1      20.087  36.957  31.218  1.00  0.00     0.000 C 
BRANCH   5   6
ATOM      6  C   UNL     1      20.859  38.281  31.069  1.00  0.00     0.000 C 
BRANCH   6   7
ATOM      7  C   UNL     1      21.954  38.467  32.134  1.00  0.00     0.000 C 
BRANCH   7   8
ATOM      8  C   UNL     1      21.431  39.136  33.417  1.00  0.00     0.000 C 
BRANCH   8   9
ATOM      9  C   UNL     1      22.197  38.721  34.691  1.00  0.00     0.000 C 
BRANCH   9  10
ATOM     10  C   UNL     1      21.922  37.257  35.077  1.00  0.00     0.000 C 
BRANCH  10  11
ATOM     11  C   UNL     1      21.213  37.125  36.433  1.00  0.00     0.000 C 
BRANCH  11  12
ATOM     12  C   UNL     1      21.061  38.475  37.156  1.00  0.00     0.006 C 
BRANCH  12  13
ATOM     13  C   UNL     1      19.609  38.751  37.567  1.00  0.00     0.053 C 
BRANCH  13  14
ATOM     14  C   UNL     1      19.419  38.632  39.048  1.00  0.00     0.041 C 
ATOM     15  O   UNL     1      20.014  39.420  39.830  1.00  0.00    -0.550 OA
ATOM     16  O   UNL     1      18.613  37.626  39.568  1.00  0.00    -0.550 OA
ENDBRANCH  13  14
ENDBRANCH  12  13
ENDBRANCH  11  12
ENDBRANCH  10  11
ENDBRANCH   9  10
ENDBRANCH   8   9
ENDBRANCH   7   8
ENDBRANCH   6   7
ENDBRANCH   5   6
ENDBRANCH   4   5
ENDBRANCH   3   4
ENDBRANCH   2   3
ENDBRANCH   1   2
BRANCH   1  17
ATOM     17  C   UNL     1      17.284  39.828  34.286  1.00  0.00     0.000 C 
BRANCH  17  18
ATOM     18  C   UNL     1      17.964  40.523  33.092  1.00  0.00     0.000 C 
BRANCH  18  19
ATOM     19  C   UNL     1      17.182  40.465  31.768  1.00  0.00     0.000 C 
BRANCH  19  20
ATOM     20  C   UNL     1      18.079  40.637  30.531  1.00  0.00     0.000 C 
BRANCH  20  21
ATOM     21  C   UNL     1      17.258  40.513  29.243  1.00  0.00     0.000 C 
BRANCH  21  22
ATOM     22  C   UNL     1      15.761  40.353  29.550  1.00  0.00    -0.000 C 
BRANCH  22  23
ATOM     23  C   UNL     1      14.874  40.710  28.347  1.00  0.00    -0.000 C 
BRANCH  23  24
ATOM     24  C   UNL     1      15.684  40.870  27.047  1.00  0.00    -0.000 C 
BRANCH  24  25
ATOM     25  C   UNL     1      15.588  39.642  26.124  1.00  0.00    -0.000 C 
BRANCH  25  26
ATOM     26  C   UNL     1      14.726  38.484  26.667  1.00  0.00    -0.000 C 
BRANCH  26  27
ATOM     27  C   UNL     1      15.508  37.220  27.074  1.00  0.00    -0.000 C 
BRANCH  27  28
ATOM     28  C   UNL     1      17.038  37.346  26.898  1.00  0.00    -0.000 C 
BRANCH  28  29
ATOM     29  C   UNL     1      17.811  36.998  28.178  1.00  0.00    -0.003 C 
ATOM     30  C   UNL     1      18.983  36.066  27.878  1.00  0.00     0.004 C 
ENDBRANCH  28  29
ENDBRANCH  27  28
ENDBRANCH  26  27
ENDBRANCH  25  26
ENDBRANCH  24  25
ENDBRANCH  23  24
ENDBRANCH  22  23
ENDBRANCH  21  22
ENDBRANCH  20  21
ENDBRANCH  19  20
ENDBRANCH  18  19
ENDBRANCH  17  18
ENDBRANCH   1  17
TORSDOF 26
ENDMDL
MODEL 2
REMARK VINA RESULT:    -4.150      4.926      9.011
REMARK INTER + INTRA:         -15.159
REMARK INTER:                 -10.710
REMARK INTRA:                  -4.448
REMARK UNBOUND:                -4.700
REMARK SMILES CCCCCCCCCCCCCCCCCCCCCCCCCCCC(=O)[O-]
REMARK SMILES IDX 15 1 16 2 17 3 18 4 19 5 20 6 21 7 22 8 23 9 24 10 25 11
REMARK SMILES IDX 26 12 27 13 28 14 29 15 30 16 14 17 13 18 12 19 11 20 10 21
REMARK SMILES IDX 9 22 8 23 7 24 6 25 5 26 4 27 3 28 2 29 1 30
REMARK H PARENT
REMARK Flexibility Score: inf
ROOT
ATOM      1  C   UNL     1      19.372  35.644  27.806  1.00  0.00     0.000 C 
ENDROOT
BRANCH   1   2
ATOM      2  C   UNL     1      19.391  34.571  26.704  1.00  0.00     0.000 C 
BRANCH   2   3
ATOM      3  C   UNL     1      19.983  35.074  25.369  1.00  0.00     0.000 C 
BRANCH   3   4
ATOM      4  C   UNL     1      20.060  33.962  24.308  1.00  0.00     0.000 C 
BRANCH   4   5
ATOM      5  C   UNL     1      21.144  32.907  24.610  1.00  0.00     0.000 C 
BRANCH   5   6
ATOM      6  C   UNL     1      20.674  31.441  24.554  1.00  0.00     0.000 C 
BRANCH   6   7
ATOM      7  C   UNL     1      19.519  31.137  25.522  1.00  0.00     0.000 C 
BRANCH   7   8
ATOM      8  C   UNL     1      18.167  30.969  24.805  1.00  0.00     0.000 C 
BRANCH   8   9
ATOM      9  C   UNL     1      16.959  31.447  25.637  1.00  0.00     0.000 C 
BRANCH   9  10
ATOM     10  C   UNL     1      16.522  32.872  25.253  1.00  0.00     0.000 C 
BRANCH  10  11
ATOM     11  C   UNL     1      15.956  33.660  26.443  1.00  0.00     0.000 C 
BRANCH  11  12
ATOM     12  C   UNL     1      14.424  33.796  26.389  1.00  0.00     0.006 C 
BRANCH  12  13
ATOM     13  C   UNL     1      13.745  33.192  27.625  1.00  0.00     0.053 C 
BRANCH  13  14
ATOM     14  C   UNL     1      13.816  31.695  27.621  1.00  0.00     0.041 C 
ATOM     15  O   UNL     1      14.256  31.077  28.626  1.00  0.00    -0.550 OA
ATOM     16  O   UNL     1      13.430  30.983  26.492  1.00  0.00    -0.550 OA
ENDBRANCH  13  14
ENDBRANCH  12  13
ENDBRANCH  11  12
ENDBRANCH  10  11
ENDBRANCH   9  10
ENDBRANCH   8   9
ENDBRANCH   7   8
ENDBRANCH   6   7
ENDBRANCH   5   6
ENDBRANCH   4   5
ENDBRANCH   3   4
ENDBRANCH   2   3
ENDBRANCH   1   2
BRANCH   1  17
ATOM     17  C   UNL     1      18.023  36.377  27.891  1.00  0.00     0.000 C 
BRANCH  17  18
ATOM     18  C   UNL     1      17.932  37.591  26.947  1.00  0.00     0.000 C 
BRANCH  18  19
ATOM     19  C   UNL     1      16.678  37.637  26.056  1.00  0.00     0.000 C 
BRANCH  19  20
ATOM     20  C   UNL     1      15.376  37.392  26.836  1.00  0.00     0.000 C 
BRANCH  20  21
ATOM     21  C   UNL     1      14.334  38.466  26.503  1.00  0.00     0.000 C 
BRANCH  21  22
ATOM     22  C   UNL     1      14.201  39.486  27.645  1.00  0.00    -0.000 C 
BRANCH  22  23
ATOM     23  C   UNL     1      14.859  40.834  27.306  1.00  0.00    -0.000 C 
BRANCH  23  24
ATOM     24  C   UNL     1      16.319  40.913  27.788  1.00  0.00    -0.000 C 
BRANCH  24  25
ATOM     25  C   UNL     1      16.535  40.250  29.161  1.00  0.00    -0.000 C 
BRANCH  25  26
ATOM     26  C   UNL     1      17.925  40.480  29.785  1.00  0.00    -0.000 C 
BRANCH  26  27
ATOM     27  C   UNL     1      18.621  39.214  30.321  1.00  0.00    -0.000 C 
BRANCH  27  28
ATOM     28  C   UNL     1      17.681  38.264  31.095  1.00  0.00    -0.000 C 
BRANCH  28  29
ATOM     29  C   UNL     1      18.370  36.952  31.502  1.00  0.00    -0.003 C 
ATOM     30  C   UNL     1      19.877  37.025  31.267  1.00  0.00     0.004 C 
ENDBRANCH  28  29
ENDBRANCH  27  28
ENDBRANCH  26  27
ENDBRANCH  25  26
ENDBRANCH  24  25
ENDBRANCH  23  24
ENDBRANCH  22  23
ENDBRANCH  21  22
ENDBRANCH  20  21
ENDBRANCH  19  20
ENDBRANCH  18  19
ENDBRANCH  17  18
ENDBRANCH   1  17
TORSDOF 26
ENDMDL
MODEL 3
REMARK VINA RESULT:    -4.113      3.220      8.856
REMARK INTER + INTRA:         -15.064
REMARK INTER:                 -10.119
REMARK INTRA:                  -4.945
REMARK UNBOUND:                -4.700
REMARK SMILES CCCCCCCCCCCCCCCCCCCCCCCCCCCC(=O)[O-]
REMARK SMILES IDX 15 1 16 2 17 3 18 4 19 5 20 6 21 7 22 8 23 9 24 10 25 11
REMARK SMILES IDX 26 12 27 13 28 14 29 15 30 16 14 17 13 18 12 19 11 20 10 21
REMARK SMILES IDX 9 22 8 23 7 24 6 25 5 26 4 27 3 28 2 29 1 30
REMARK H PARENT
REMARK Flexibility Score: inf
ROOT
ATOM      1  C   UNL     1      17.934  36.535  31.718  1.00  0.00     0.000 C 
ENDROOT
BRANCH   1   2
ATOM      2  C   UNL     1      19.239  37.077  31.108  1.00  0.00     0.000 C 
BRANCH   2   3
ATOM      3  C   UNL     1      19.022  38.285  30.170  1.00  0.00     0.000 C 
BRANCH   3   4
ATOM      4  C   UNL     1      17.540  38.481  29.804  1.00  0.00     0.000 C 
BRANCH   4   5
ATOM      5  C   UNL     1      16.971  39.835  30.275  1.00  0.00     0.000 C 
BRANCH   5   6
ATOM      6  C   UNL     1      16.317  40.696  29.178  1.00  0.00     0.000 C 
BRANCH   6   7
ATOM      7  C   UNL     1      14.792  40.514  29.093  1.00  0.00     0.000 C 
BRANCH   7   8
ATOM      8  C   UNL     1      14.313  40.143  27.678  1.00  0.00     0.000 C 
BRANCH   8   9
ATOM      9  C   UNL     1      15.424  40.211  26.608  1.00  0.00     0.000 C 
BRANCH   9  10
ATOM     10  C   UNL     1      15.871  38.811  26.152  1.00  0.00     0.000 C 
BRANCH  10  11
ATOM     11  C   UNL     1      14.767  37.755  26.312  1.00  0.00     0.000 C 
BRANCH  11  12
ATOM     12  C   UNL     1      15.257  36.491  27.039  1.00  0.00     0.006 C 
BRANCH  12  13
ATOM     13  C   UNL     1      16.778  36.319  26.939  1.00  0.00     0.053 C 
BRANCH  13  14
ATOM     14  C   UNL     1      17.307  35.420  28.016  1.00  0.00     0.041 C 
ATOM     15  O   UNL     1      16.548  35.017  28.936  1.00  0.00    -0.550 OA
ATOM     16  O   UNL     1      18.648  35.057  28.022  1.00  0.00    -0.550 OA
ENDBRANCH  13  14
ENDBRANCH  12  13
ENDBRANCH  11  12
ENDBRANCH  10  11
ENDBRANCH   9  10
ENDBRANCH   8   9
ENDBRANCH   7   8
ENDBRANCH   6   7
ENDBRANCH   5   6
ENDBRANCH   4   5
ENDBRANCH   3   4
ENDBRANCH   2   3
ENDBRANCH   1   2
BRANCH   1  17
ATOM     17  C   UNL     1      17.945  36.566  33.255  1.00  0.00     0.000 C 
BRANCH  17  18
ATOM     18  C   UNL     1      17.171  37.760  33.844  1.00  0.00     0.000 C 
BRANCH  18  19
ATOM     19  C   UNL     1      17.668  38.253  35.214  1.00  0.00     0.000 C 
BRANCH  19  20
ATOM     20  C   UNL     1      18.409  39.599  35.138  1.00  0.00     0.000 C 
BRANCH  20  21
ATOM     21  C   UNL     1      18.541  40.064  33.684  1.00  0.00     0.000 C 
BRANCH  21  22
ATOM     22  C   UNL     1      20.012  40.084  33.237  1.00  0.00    -0.000 C 
BRANCH  22  23
ATOM     23  C   UNL     1      20.958  39.518  34.308  1.00  0.00    -0.000 C 
BRANCH  23  24
ATOM     24  C   UNL     1      21.595  38.182  33.883  1.00  0.00    -0.000 C 
BRANCH  24  25
ATOM     25  C   UNL     1      21.115  36.991  34.732  1.00  0.00    -0.000 C 
BRANCH  25  26
ATOM     26  C   UNL     1      21.705  36.926  36.155  1.00  0.00    -0.000 C 
BRANCH  26  27
ATOM     27  C   UNL     1      20.724  37.287  37.288  1.00  0.00    -0.000 C 
BRANCH  27  28
ATOM     28  C   UNL     1      20.963  38.685  37.900  1.00  0.00    -0.000 C 
BRANCH  28  29
ATOM     29  C   UNL     1      19.732  39.224  38.643  1.00  0.00    -0.003 C 
ATOM     30  C   UNL     1      18.721  38.112  38.913  1.00  0.00     0.004 C 
ENDBRANCH  28  29
ENDBRANCH  27  28
ENDBRANCH  26  27
ENDBRANCH  25  26
ENDBRANCH  24  25
ENDBRANCH  23  24
ENDBRANCH  22  23
ENDBRANCH  21  22
ENDBRANCH  20  21
ENDBRANCH  19  20
ENDBRANCH  18  19
ENDBRANCH  17  18
ENDBRANCH   1  17
TORSDOF 26
ENDMDL
MODEL 4
REMARK VINA RESULT:    -4.077      2.461      5.234
REMARK INTER + INTRA:         -14.974
REMARK INTER:                  -9.915
REMARK INTRA:                  -5.059
REMARK UNBOUND:                -4.700
REMARK SMILES CCCCCCCCCCCCCCCCCCCCCCCCCCCC(=O)[O-]
REMARK SMILES IDX 15 1 16 2 17 3 18 4 19 5 20 6 21 7 22 8 23 9 24 10 25 11
REMARK SMILES IDX 26 12 27 13 28 14 29 15 30 16 14 17 13 18 12 19 11 20 10 21
REMARK SMILES IDX 9 22 8 23 7 24 6 25 5 26 4 27 3 28 2 29 1 30
REMARK H PARENT
REMARK Flexibility Score: inf
ROOT
ATOM      1  C   UNL     1      18.633  39.406  35.483  1.00  0.00     0.000 C 
ENDROOT
BRANCH   1   2
ATOM      2  C   UNL     1      18.691  38.174  36.403  1.00  0.00     0.000 C 
BRANCH   2   3
ATOM      3  C   UNL     1      19.110  38.510  37.852  1.00  0.00     0.000 C 
BRANCH   3   4
ATOM      4  C   UNL     1      20.011  39.756  37.924  1.00  0.00     0.000 C 
BRANCH   4   5
ATOM      5  C   UNL     1      20.997  39.725  39.111  1.00  0.00     0.000 C 
BRANCH   5   6
ATOM      6  C   UNL     1      21.094  38.380  39.855  1.00  0.00     0.000 C 
BRANCH   6   7
ATOM      7  C   UNL     1      22.543  37.929  40.105  1.00  0.00     0.000 C 
BRANCH   7   8
ATOM      8  C   UNL     1      23.085  37.014  38.992  1.00  0.00     0.000 C 
BRANCH   8   9
ATOM      9  C   UNL     1      22.009  36.108  38.355  1.00  0.00     0.000 C 
BRANCH   9  10
ATOM     10  C   UNL     1      21.995  36.223  36.820  1.00  0.00     0.000 C 
BRANCH  10  11
ATOM     11  C   UNL     1      22.539  37.569  36.322  1.00  0.00     0.000 C 
BRANCH  11  12
ATOM     12  C   UNL     1      22.078  37.902  34.892  1.00  0.00     0.006 C 
BRANCH  12  13
ATOM     13  C   UNL     1      22.325  39.374  34.533  1.00  0.00     0.053 C 
BRANCH  13  14
ATOM     14  C   UNL     1      21.975  39.662  33.104  1.00  0.00     0.041 C 
ATOM     15  O   UNL     1      21.007  40.417  32.828  1.00  0.00    -0.550 OA
ATOM     16  O   UNL     1      22.697  39.067  32.078  1.00  0.00    -0.550 OA
ENDBRANCH  13  14
ENDBRANCH  12  13
ENDBRANCH  11  12
ENDBRANCH  10  11
ENDBRANCH   9  10
ENDBRANCH   8   9
ENDBRANCH   7   8
ENDBRANCH   6   7
ENDBRANCH   5   6
ENDBRANCH   4   5
ENDBRANCH   3   4
ENDBRANCH   2   3
ENDBRANCH   1   2
BRANCH   1  17
ATOM     17  C   UNL     1      17.497  39.317  34.450  1.00  0.00     0.000 C 
BRANCH  17  18
ATOM     18  C   UNL     1      16.958  37.886  34.265  1.00  0.00     0.000 C 
BRANCH  18  19
ATOM     19  C   UNL     1      17.444  37.161  32.997  1.00  0.00     0.000 C 
BRANCH  19  20
ATOM     20  C   UNL     1      18.659  36.254  33.251  1.00  0.00     0.000 C 
BRANCH  20  21
ATOM     21  C   UNL     1      19.840  36.668  32.366  1.00  0.00     0.000 C 
BRANCH  21  22
ATOM     22  C   UNL     1      19.398  37.654  31.273  1.00  0.00    -0.000 C 
BRANCH  22  23
ATOM     23  C   UNL     1      19.494  37.048  29.864  1.00  0.00    -0.000 C 
BRANCH  23  24
ATOM     24  C   UNL     1      18.214  36.293  29.460  1.00  0.00    -0.000 C 
BRANCH  24  25
ATOM     25  C   UNL     1      17.487  36.942  28.267  1.00  0.00    -0.000 C 
BRANCH  25  26
ATOM     26  C   UNL     1      17.941  38.375  27.928  1.00  0.00    -0.000 C 
BRANCH  26  27
ATOM     27  C   UNL     1      16.811  39.421  27.856  1.00  0.00    -0.000 C 
BRANCH  27  28
ATOM     28  C   UNL     1      17.179  40.784  28.481  1.00  0.00    -0.000 C 
BRANCH  28  29
ATOM     29  C   UNL     1      17.743  40.650  29.903  1.00  0.00    -0.003 C 
ATOM     30  C   UNL     1      16.670  40.174  30.879  1.00  0.00     0.004 C 
ENDBRANCH  28  29
ENDBRANCH  27  28
ENDBRANCH  26  27
ENDBRANCH  25  26
ENDBRANCH  24  25
ENDBRANCH  23  24
ENDBRANCH  22  23
ENDBRANCH  21  22
ENDBRANCH  20  21
ENDBRANCH  19  20
ENDBRANCH  18  19
ENDBRANCH  17  18
ENDBRANCH   1  17
TORSDOF 26
ENDMDL
MODEL 5
REMARK VINA RESULT:    -4.075      1.679      3.439
REMARK INTER + INTRA:         -14.970
REMARK INTER:                 -10.746
REMARK INTRA:                  -4.224
REMARK UNBOUND:                -4.700
REMARK SMILES CCCCCCCCCCCCCCCCCCCCCCCCCCCC(=O)[O-]
REMARK SMILES IDX 15 1 16 2 17 3 18 4 19 5 20 6 21 7 22 8 23 9 24 10 25 11
REMARK SMILES IDX 26 12 27 13 28 14 29 15 30 16 14 17 13 18 12 19 11 20 10 21
REMARK SMILES IDX 9 22 8 23 7 24 6 25 5 26 4 27 3 28 2 29 1 30
REMARK H PARENT
REMARK Flexibility Score: inf
ROOT
ATOM      1  C   UNL     1      17.348  37.134  32.973  1.00  0.00     0.000 C 
ENDROOT
BRANCH   1   2
ATOM      2  C   UNL     1      17.018  38.132  34.097  1.00  0.00     0.000 C 
BRANCH   2   3
ATOM      3  C   UNL     1      18.020  38.084  35.272  1.00  0.00     0.000 C 
BRANCH   3   4
ATOM      4  C   UNL     1      18.738  39.430  35.481  1.00  0.00     0.000 C 
BRANCH   4   5
ATOM      5  C   UNL     1      20.005  39.584  34.615  1.00  0.00     0.000 C 
BRANCH   5   6
ATOM      6  C   UNL     1      21.338  39.314  35.338  1.00  0.00     0.000 C 
BRANCH   6   7
ATOM      7  C   UNL     1      22.025  38.017  34.879  1.00  0.00     0.000 C 
BRANCH   7   8
ATOM      8  C   UNL     1      21.475  36.766  35.588  1.00  0.00     0.000 C 
BRANCH   8   9
ATOM      9  C   UNL     1      22.327  36.309  36.791  1.00  0.00     0.000 C 
BRANCH   9  10
ATOM     10  C   UNL     1      21.874  36.974  38.103  1.00  0.00     0.000 C 
BRANCH  10  11
ATOM     11  C   UNL     1      20.410  36.665  38.449  1.00  0.00     0.000 C 
BRANCH  11  12
ATOM     12  C   UNL     1      19.588  37.933  38.737  1.00  0.00     0.006 C 
BRANCH  12  13
ATOM     13  C   UNL     1      20.477  39.174  38.898  1.00  0.00     0.053 C 
BRANCH  13  14
ATOM     14  C   UNL     1      20.622  39.570  40.336  1.00  0.00     0.041 C 
ATOM     15  O   UNL     1      20.271  40.717  40.717  1.00  0.00    -0.550 OA
ATOM     16  O   UNL     1      21.177  38.682  41.250  1.00  0.00    -0.550 OA
ENDBRANCH  13  14
ENDBRANCH  12  13
ENDBRANCH  11  12
ENDBRANCH  10  11
ENDBRANCH   9  10
ENDBRANCH   8   9
ENDBRANCH   7   8
ENDBRANCH   6   7
ENDBRANCH   5   6
ENDBRANCH   4   5
ENDBRANCH   3   4
ENDBRANCH   2   3
ENDBRANCH   1   2
BRANCH   1  17
ATOM     17  C   UNL     1      18.625  36.328  33.259  1.00  0.00     0.000 C 
BRANCH  17  18
ATOM     18  C   UNL     1      19.782  36.664  32.299  1.00  0.00     0.000 C 
BRANCH  18  19
ATOM     19  C   UNL     1      19.561  37.903  31.414  1.00  0.00     0.000 C 
BRANCH  19  20
ATOM     20  C   UNL     1      19.397  37.558  29.924  1.00  0.00     0.000 C 
BRANCH  20  21
ATOM     21  C   UNL     1      18.275  38.389  29.294  1.00  0.00     0.000 C 
BRANCH  21  22
ATOM     22  C   UNL     1      17.162  37.490  28.734  1.00  0.00    -0.000 C 
BRANCH  22  23
ATOM     23  C   UNL     1      17.715  36.328  27.892  1.00  0.00    -0.000 C 
BRANCH  23  24
ATOM     24  C   UNL     1      16.607  35.377  27.403  1.00  0.00    -0.000 C 
BRANCH  24  25
ATOM     25  C   UNL     1      15.253  36.084  27.206  1.00  0.00    -0.000 C 
BRANCH  25  26
ATOM     26  C   UNL     1      15.101  36.840  25.871  1.00  0.00    -0.000 C 
BRANCH  26  27
ATOM     27  C   UNL     1      14.533  38.267  25.987  1.00  0.00    -0.000 C 
BRANCH  27  28
ATOM     28  C   UNL     1      15.609  39.375  25.947  1.00  0.00    -0.000 C 
BRANCH  28  29
ATOM     29  C   UNL     1      15.402  40.441  27.032  1.00  0.00    -0.003 C 
ATOM     30  C   UNL     1      14.190  40.115  27.901  1.00  0.00     0.004 C 
ENDBRANCH  28  29
ENDBRANCH  27  28
ENDBRANCH  26  27
ENDBRANCH  25  26
ENDBRANCH  24  25
ENDBRANCH  23  24
ENDBRANCH  22  23
ENDBRANCH  21  22
ENDBRANCH  20  21
ENDBRANCH  19  20
ENDBRANCH  18  19
ENDBRANCH  17  18
ENDBRANCH   1  17
TORSDOF 26
ENDMDL
MODEL 6
REMARK VINA RESULT:    -4.060      3.755      8.669
REMARK INTER + INTRA:         -14.931
REMARK INTER:                 -10.187
REMARK INTRA:                  -4.744
REMARK UNBOUND:                -4.700
REMARK SMILES CCCCCCCCCCCCCCCCCCCCCCCCCCCC(=O)[O-]
REMARK SMILES IDX 15 1 16 2 17 3 18 4 19 5 20 6 21 7 22 8 23 9 24 10 25 11
REMARK SMILES IDX 26 12 27 13 28 14 29 15 30 16 14 17 13 18 12 19 11 20 10 21
REMARK SMILES IDX 9 22 8 23 7 24 6 25 5 26 4 27 3 28 2 29 1 30
REMARK H PARENT
REMARK Flexibility Score: inf
ROOT
ATOM      1  C   UNL     1      14.195  39.279  27.541  1.00  0.00     0.000 C 
ENDROOT
BRANCH   1   2
ATOM      2  C   UNL     1      14.708  38.710  26.206  1.00  0.00     0.000 C 
BRANCH   2   3
ATOM      3  C   UNL     1      15.158  37.235  26.301  1.00  0.00     0.000 C 
BRANCH   3   4
ATOM      4  C   UNL     1      16.015  36.966  27.551  1.00  0.00     0.000 C 
BRANCH   4   5
ATOM      5  C   UNL     1      17.528  36.919  27.253  1.00  0.00     0.000 C 
BRANCH   5   6
ATOM      6  C   UNL     1      18.304  35.785  27.948  1.00  0.00     0.000 C 
BRANCH   6   7
ATOM      7  C   UNL     1      18.932  34.787  26.961  1.00  0.00     0.000 C 
BRANCH   7   8
ATOM      8  C   UNL     1      18.622  35.125  25.492  1.00  0.00     0.000 C 
BRANCH   8   9
ATOM      9  C   UNL     1      17.839  34.019  24.752  1.00  0.00     0.000 C 
BRANCH   9  10
ATOM     10  C   UNL     1      16.369  33.952  25.204  1.00  0.00     0.000 C 
BRANCH  10  11
ATOM     11  C   UNL     1      16.030  32.637  25.920  1.00  0.00     0.000 C 
BRANCH  11  12
ATOM     12  C   UNL     1      14.545  32.544  26.315  1.00  0.00     0.006 C 
BRANCH  12  13
ATOM     13  C   UNL     1      14.129  33.670  27.270  1.00  0.00     0.053 C 
BRANCH  13  14
ATOM     14  C   UNL     1      14.395  33.310  28.701  1.00  0.00     0.041 C 
ATOM     15  O   UNL     1      13.793  32.341  29.234  1.00  0.00    -0.550 OA
ATOM     16  O   UNL     1      15.281  34.069  29.456  1.00  0.00    -0.550 OA
ENDBRANCH  13  14
ENDBRANCH  12  13
ENDBRANCH  11  12
ENDBRANCH  10  11
ENDBRANCH   9  10
ENDBRANCH   8   9
ENDBRANCH   7   8
ENDBRANCH   6   7
ENDBRANCH   5   6
ENDBRANCH   4   5
ENDBRANCH   3   4
ENDBRANCH   2   3
ENDBRANCH   1   2
BRANCH   1  17
ATOM     17  C   UNL     1      14.605  40.746  27.752  1.00  0.00     0.000 C 
BRANCH  17  18
ATOM     18  C   UNL     1      16.020  41.060  27.233  1.00  0.00     0.000 C 
BRANCH  18  19
ATOM     19  C   UNL     1      17.172  40.508  28.091  1.00  0.00     0.000 C 
BRANCH  19  20
ATOM     20  C   UNL     1      16.874  40.553  29.599  1.00  0.00     0.000 C 
BRANCH  20  21
ATOM     21  C   UNL     1      17.201  39.208  30.257  1.00  0.00     0.000 C 
BRANCH  21  22
ATOM     22  C   UNL     1      18.694  39.108  30.611  1.00  0.00    -0.000 C 
BRANCH  22  23
ATOM     23  C   UNL     1      19.116  37.676  30.974  1.00  0.00    -0.000 C 
BRANCH  23  24
ATOM     24  C   UNL     1      17.941  36.833  31.502  1.00  0.00    -0.000 C 
BRANCH  24  25
ATOM     25  C   UNL     1      18.179  36.296  32.926  1.00  0.00    -0.000 C 
BRANCH  25  26
ATOM     26  C   UNL     1      19.338  36.967  33.689  1.00  0.00    -0.000 C 
BRANCH  26  27
ATOM     27  C   UNL     1      18.938  37.675  34.998  1.00  0.00    -0.000 C 
BRANCH  27  28
ATOM     28  C   UNL     1      17.449  38.078  35.062  1.00  0.00    -0.000 C 
BRANCH  28  29
ATOM     29  C   UNL     1      17.187  39.472  34.474  1.00  0.00    -0.003 C 
ATOM     30  C   UNL     1      15.920  39.483  33.623  1.00  0.00     0.004 C 
ENDBRANCH  28  29
ENDBRANCH  27  28
ENDBRANCH  26  27
ENDBRANCH  25  26
ENDBRANCH  24  25
ENDBRANCH  23  24
ENDBRANCH  22  23
ENDBRANCH  21  22
ENDBRANCH  20  21
ENDBRANCH  19  20
ENDBRANCH  18  19
ENDBRANCH  17  18
ENDBRANCH   1  17
TORSDOF 26
ENDMDL
MODEL 7
REMARK VINA RESULT:    -4.045      1.352      3.277
REMARK INTER + INTRA:         -14.894
REMARK INTER:                  -9.890
REMARK INTRA:                  -5.004
REMARK UNBOUND:                -4.700
REMARK SMILES CCCCCCCCCCCCCCCCCCCCCCCCCCCC(=O)[O-]
REMARK SMILES IDX 15 1 16 2 17 3 18 4 19 5 20 6 21 7 22 8 23 9 24 10 25 11
REMARK SMILES IDX 26 12 27 13 28 14 29 15 30 16 14 17 13 18 12 19 11 20 10 21
REMARK SMILES IDX 9 22 8 23 7 24 6 25 5 26 4 27 3 28 2 29 1 30
REMARK H PARENT
REMARK Flexibility Score: inf
ROOT
ATOM      1  C   UNL     1      18.251  36.837  30.665  1.00  0.00     0.000 C 
ENDROOT
BRANCH   1   2
ATOM      2  C   UNL     1      19.241  36.949  31.838  1.00  0.00     0.000 C 
BRANCH   2   3
ATOM      3  C   UNL     1      20.671  37.333  31.398  1.00  0.00     0.000 C 
BRANCH   3   4
ATOM      4  C   UNL     1      21.143  38.652  32.035  1.00  0.00     0.000 C 
BRANCH   4   5
ATOM      5  C   UNL     1      20.220  39.846  31.715  1.00  0.00     0.000 C 
BRANCH   5   6
ATOM      6  C   UNL     1      19.562  40.519  32.935  1.00  0.00     0.000 C 
BRANCH   6   7
ATOM      7  C   UNL     1      18.093  40.906  32.695  1.00  0.00     0.000 C 
BRANCH   7   8
ATOM      8  C   UNL     1      17.148  40.366  33.782  1.00  0.00     0.000 C 
BRANCH   8   9
ATOM      9  C   UNL     1      16.560  38.976  33.459  1.00  0.00     0.000 C 
BRANCH   9  10
ATOM     10  C   UNL     1      16.874  37.947  34.560  1.00  0.00     0.000 C 
BRANCH  10  11
ATOM     11  C   UNL     1      17.920  38.455  35.563  1.00  0.00     0.000 C 
BRANCH  11  12
ATOM     12  C   UNL     1      19.276  37.741  35.419  1.00  0.00     0.006 C 
BRANCH  12  13
ATOM     13  C   UNL     1      20.405  38.494  36.134  1.00  0.00     0.053 C 
BRANCH  13  14
ATOM     14  C   UNL     1      20.428  38.196  37.602  1.00  0.00     0.041 C 
ATOM     15  O   UNL     1      20.187  37.032  38.017  1.00  0.00    -0.550 OA
ATOM     16  O   UNL     1      20.681  39.212  38.515  1.00  0.00    -0.550 OA
ENDBRANCH  13  14
ENDBRANCH  12  13
ENDBRANCH  11  12
ENDBRANCH  10  11
ENDBRANCH   9  10
ENDBRANCH   8   9
ENDBRANCH   7   8
ENDBRANCH   6   7
ENDBRANCH   5   6
ENDBRANCH   4   5
ENDBRANCH   3   4
ENDBRANCH   2   3
ENDBRANCH   1   2
BRANCH   1  17
ATOM     17  C   UNL     1      18.885  37.229  29.320  1.00  0.00     0.000 C 
BRANCH  17  18
ATOM     18  C   UNL     1      18.204  38.442  28.659  1.00  0.00     0.000 C 
BRANCH  18  19
ATOM     19  C   UNL     1      17.272  39.252  29.577  1.00  0.00     0.000 C 
BRANCH  19  20
ATOM     20  C   UNL     1      17.082  40.705  29.112  1.00  0.00     0.000 C 
BRANCH  20  21
ATOM     21  C   UNL     1      16.310  40.755  27.789  1.00  0.00     0.000 C 
BRANCH  21  22
ATOM     22  C   UNL     1      14.792  40.799  28.030  1.00  0.00    -0.000 C 
BRANCH  22  23
ATOM     23  C   UNL     1      14.059  39.624  27.365  1.00  0.00    -0.000 C 
BRANCH  23  24
ATOM     24  C   UNL     1      14.995  38.760  26.501  1.00  0.00    -0.000 C 
BRANCH  24  25
ATOM     25  C   UNL     1      15.101  37.307  27.000  1.00  0.00    -0.000 C 
BRANCH  25  26
ATOM     26  C   UNL     1      15.745  36.321  26.005  1.00  0.00    -0.000 C 
BRANCH  26  27
ATOM     27  C   UNL     1      17.139  35.802  26.407  1.00  0.00    -0.000 C 
BRANCH  27  28
ATOM     28  C   UNL     1      18.276  36.274  25.474  1.00  0.00    -0.000 C 
BRANCH  28  29
ATOM     29  C   UNL     1      19.559  35.445  25.639  1.00  0.00    -0.003 C 
ATOM     30  C   UNL     1      19.474  34.534  26.861  1.00  0.00     0.004 C 
ENDBRANCH  28  29
ENDBRANCH  27  28
ENDBRANCH  26  27
ENDBRANCH  25  26
ENDBRANCH  24  25
ENDBRANCH  23  24
ENDBRANCH  22  23
ENDBRANCH  21  22
ENDBRANCH  20  21
ENDBRANCH  19  20
ENDBRANCH  18  19
ENDBRANCH  17  18
ENDBRANCH   1  17
TORSDOF 26
ENDMDL
MODEL 8
REMARK VINA RESULT:    -4.042      4.071      9.040
REMARK INTER + INTRA:         -14.886
REMARK INTER:                 -10.805
REMARK INTRA:                  -4.081
REMARK UNBOUND:                -4.700
REMARK SMILES CCCCCCCCCCCCCCCCCCCCCCCCCCCC(=O)[O-]
REMARK SMILES IDX 15 1 16 2 17 3 18 4 19 5 20 6 21 7 22 8 23 9 24 10 25 11
REMARK SMILES IDX 26 12 27 13 28 14 29 15 30 16 14 17 13 18 12 19 11 20 10 21
REMARK SMILES IDX 9 22 8 23 7 24 6 25 5 26 4 27 3 28 2 29 1 30
REMARK H PARENT
REMARK Flexibility Score: inf
ROOT
ATOM      1  C   UNL     1      18.560  38.493  36.197  1.00  0.00     0.000 C 
ENDROOT
BRANCH   1   2
ATOM      2  C   UNL     1      17.494  38.654  35.099  1.00  0.00     0.000 C 
BRANCH   2   3
ATOM      3  C   UNL     1      17.555  40.022  34.383  1.00  0.00     0.000 C 
BRANCH   3   4
ATOM      4  C   UNL     1      16.249  40.346  33.634  1.00  0.00     0.000 C 
BRANCH   4   5
ATOM      5  C   UNL     1      16.216  39.782  32.198  1.00  0.00     0.000 C 
BRANCH   5   6
ATOM      6  C   UNL     1      17.126  40.500  31.185  1.00  0.00     0.000 C 
BRANCH   6   7
ATOM      7  C   UNL     1      16.635  40.373  29.733  1.00  0.00     0.000 C 
BRANCH   7   8
ATOM      8  C   UNL     1      15.100  40.359  29.621  1.00  0.00     0.000 C 
BRANCH   8   9
ATOM      9  C   UNL     1      14.569  40.932  28.290  1.00  0.00     0.000 C 
BRANCH   9  10
ATOM     10  C   UNL     1      15.664  40.992  27.211  1.00  0.00     0.000 C 
BRANCH  10  11
ATOM     11  C   UNL     1      15.587  39.818  26.223  1.00  0.00     0.000 C 
BRANCH  11  12
ATOM     12  C   UNL     1      14.417  38.866  26.524  1.00  0.00     0.006 C 
BRANCH  12  13
ATOM     13  C   UNL     1      14.896  37.442  26.835  1.00  0.00     0.053 C 
BRANCH  13  14
ATOM     14  C   UNL     1      14.547  36.486  25.735  1.00  0.00     0.041 C 
ATOM     15  O   UNL     1      14.659  35.245  25.912  1.00  0.00    -0.550 OA
ATOM     16  O   UNL     1      14.132  36.969  24.500  1.00  0.00    -0.550 OA
ENDBRANCH  13  14
ENDBRANCH  12  13
ENDBRANCH  11  12
ENDBRANCH  10  11
ENDBRANCH   9  10
ENDBRANCH   8   9
ENDBRANCH   7   8
ENDBRANCH   6   7
ENDBRANCH   5   6
ENDBRANCH   4   5
ENDBRANCH   3   4
ENDBRANCH   2   3
ENDBRANCH   1   2
BRANCH   1  17
ATOM     17  C   UNL     1      19.362  39.784  36.432  1.00  0.00     0.000 C 
BRANCH  17  18
ATOM     18  C   UNL     1      20.420  39.646  37.543  1.00  0.00     0.000 C 
BRANCH  18  19
ATOM     19  C   UNL     1      20.086  38.626  38.645  1.00  0.00     0.000 C 
BRANCH  19  20
ATOM     20  C   UNL     1      21.243  37.658  38.941  1.00  0.00     0.000 C 
BRANCH  20  21
ATOM     21  C   UNL     1      21.096  36.371  38.122  1.00  0.00     0.000 C 
BRANCH  21  22
ATOM     22  C   UNL     1      22.202  36.257  37.061  1.00  0.00    -0.000 C 
BRANCH  22  23
ATOM     23  C   UNL     1      21.705  36.625  35.654  1.00  0.00    -0.000 C 
BRANCH  23  24
ATOM     24  C   UNL     1      22.369  37.903  35.111  1.00  0.00    -0.000 C 
BRANCH  24  25
ATOM     25  C   UNL     1      21.738  38.395  33.795  1.00  0.00    -0.000 C 
BRANCH  25  26
ATOM     26  C   UNL     1      20.848  37.364  33.074  1.00  0.00    -0.000 C 
BRANCH  26  27
ATOM     27  C   UNL     1      19.679  37.959  32.265  1.00  0.00    -0.000 C 
BRANCH  27  28
ATOM     28  C   UNL     1      19.397  37.222  30.938  1.00  0.00    -0.000 C 
BRANCH  28  29
ATOM     29  C   UNL     1      17.975  36.644  30.872  1.00  0.00    -0.003 C 
ATOM     30  C   UNL     1      17.458  36.295  32.266  1.00  0.00     0.004 C 
ENDBRANCH  28  29
ENDBRANCH  27  28
ENDBRANCH  26  27
ENDBRANCH  25  26
ENDBRANCH  24  25
ENDBRANCH  23  24
ENDBRANCH  22  23
ENDBRANCH  21  22
ENDBRANCH  20  21
ENDBRANCH  19  20
ENDBRANCH  18  19
ENDBRANCH  17  18
ENDBRANCH   1  17
TORSDOF 26
ENDMDL
MODEL 9
REMARK VINA RESULT:    -4.039      1.113      2.242
REMARK INTER + INTRA:         -14.878
REMARK INTER:                  -9.929
REMARK INTRA:                  -4.950
REMARK UNBOUND:                -4.700
REMARK SMILES CCCCCCCCCCCCCCCCCCCCCCCCCCCC(=O)[O-]
REMARK SMILES IDX 15 1 16 2 17 3 18 4 19 5 20 6 21 7 22 8 23 9 24 10 25 11
REMARK SMILES IDX 26 12 27 13 28 14 29 15 30 16 14 17 13 18 12 19 11 20 10 21
REMARK SMILES IDX 9 22 8 23 7 24 6 25 5 26 4 27 3 28 2 29 1 30
REMARK H PARENT
REMARK Flexibility Score: inf
ROOT
ATOM      1  C   UNL     1      17.026  37.678  33.731  1.00  0.00     0.000 C 
ENDROOT
BRANCH   1   2
ATOM      2  C   UNL     1      17.592  38.121  35.091  1.00  0.00     0.000 C 
BRANCH   2   3
ATOM      3  C   UNL     1      18.000  39.611  35.129  1.00  0.00     0.000 C 
BRANCH   3   4
ATOM      4  C   UNL     1      17.679  40.337  33.811  1.00  0.00     0.000 C 
BRANCH   4   5
ATOM      5  C   UNL     1      18.935  40.856  33.081  1.00  0.00     0.000 C 
BRANCH   5   6
ATOM      6  C   UNL     1      20.264  40.667  33.835  1.00  0.00     0.000 C 
BRANCH   6   7
ATOM      7  C   UNL     1      21.228  39.696  33.131  1.00  0.00     0.000 C 
BRANCH   7   8
ATOM      8  C   UNL     1      21.908  38.719  34.106  1.00  0.00     0.000 C 
BRANCH   8   9
ATOM      9  C   UNL     1      21.265  37.316  34.130  1.00  0.00     0.000 C 
BRANCH   9  10
ATOM     10  C   UNL     1      21.326  36.678  35.529  1.00  0.00     0.000 C 
BRANCH  10  11
ATOM     11  C   UNL     1      20.875  37.639  36.639  1.00  0.00     0.000 C 
BRANCH  11  12
ATOM     12  C   UNL     1      21.201  37.112  38.047  1.00  0.00     0.006 C 
BRANCH  12  13
ATOM     13  C   UNL     1      21.420  38.250  39.054  1.00  0.00     0.053 C 
BRANCH  13  14
ATOM     14  C   UNL     1      20.153  38.609  39.768  1.00  0.00     0.041 C 
ATOM     15  O   UNL     1      20.091  39.657  40.463  1.00  0.00    -0.550 OA
ATOM     16  O   UNL     1      19.050  37.767  39.696  1.00  0.00    -0.550 OA
ENDBRANCH  13  14
ENDBRANCH  12  13
ENDBRANCH  11  12
ENDBRANCH  10  11
ENDBRANCH   9  10
ENDBRANCH   8   9
ENDBRANCH   7   8
ENDBRANCH   6   7
ENDBRANCH   5   6
ENDBRANCH   4   5
ENDBRANCH   3   4
ENDBRANCH   2   3
ENDBRANCH   1   2
BRANCH   1  17
ATOM     17  C   UNL     1      17.916  36.635  33.035  1.00  0.00     0.000 C 
BRANCH  17  18
ATOM     18  C   UNL     1      17.957  36.797  31.504  1.00  0.00     0.000 C 
BRANCH  18  19
ATOM     19  C   UNL     1      19.241  37.435  30.945  1.00  0.00     0.000 C 
BRANCH  19  20
ATOM     20  C   UNL     1      18.975  38.715  30.135  1.00  0.00     0.000 C 
BRANCH  20  21
ATOM     21  C   UNL     1      17.474  39.015  30.072  1.00  0.00     0.000 C 
BRANCH  21  22
ATOM     22  C   UNL     1      17.213  40.462  29.624  1.00  0.00    -0.000 C 
BRANCH  22  23
ATOM     23  C   UNL     1      16.945  40.568  28.114  1.00  0.00    -0.000 C 
BRANCH  23  24
ATOM     24  C   UNL     1      15.478  40.914  27.800  1.00  0.00    -0.000 C 
BRANCH  24  25
ATOM     25  C   UNL     1      14.536  39.701  27.923  1.00  0.00    -0.000 C 
BRANCH  25  26
ATOM     26  C   UNL     1      14.467  38.801  26.674  1.00  0.00    -0.000 C 
BRANCH  26  27
ATOM     27  C   UNL     1      15.261  37.483  26.770  1.00  0.00    -0.000 C 
BRANCH  27  28
ATOM     28  C   UNL     1      16.614  37.512  26.027  1.00  0.00    -0.000 C 
BRANCH  28  29
ATOM     29  C   UNL     1      17.796  37.139  26.935  1.00  0.00    -0.003 C 
ATOM     30  C   UNL     1      17.427  35.996  27.878  1.00  0.00     0.004 C 
ENDBRANCH  28  29
ENDBRANCH  27  28
ENDBRANCH  26  27
ENDBRANCH  25  26
ENDBRANCH  24  25
ENDBRANCH  23  24
ENDBRANCH  22  23
ENDBRANCH  21  22
ENDBRANCH  20  21
ENDBRANCH  19  20
ENDBRANCH  18  19
ENDBRANCH  17  18
ENDBRANCH   1  17
TORSDOF 26
ENDMDL
