MODEL 1
REMARK VINA RESULT:    -3.137      0.000      0.000
REMARK INTER + INTRA:          -8.360
REMARK INTER:                  -5.705
REMARK INTRA:                  -2.655
REMARK UNBOUND:                -2.655
REMARK SMILES CCCCCCCCCCCCCCCC(=O)[O-]
REMARK SMILES IDX 9 1 10 2 11 3 12 4 13 5 14 6 15 7 16 8 17 9 18 10 8 11 7 12
REMARK SMILES IDX 6 13 5 14 4 15 3 16 2 17 1 18
REMARK H PARENT
REMARK Flexibility Score: inf
ROOT
ATOM      1  C   UNL     1      61.575  -8.594  33.471  1.00  0.00     0.000 C 
ENDROOT
BRANCH   1   2
ATOM      2  C   UNL     1      62.548  -7.938  34.466  1.00  0.00     0.000 C 
BRANCH   2   3
ATOM      3  C   UNL     1      64.015  -8.338  34.221  1.00  0.00     0.000 C 
BRANCH   3   4
ATOM      4  C   UNL     1      64.282  -9.056  32.886  1.00  0.00     0.000 C 
BRANCH   4   5
ATOM      5  C   UNL     1      65.240 -10.253  33.029  1.00  0.00     0.000 C 
BRANCH   5   6
ATOM      6  C   UNL     1      64.910 -11.391  32.043  1.00  0.00     0.006 C 
BRANCH   6   7
ATOM      7  C   UNL     1      66.052 -11.706  31.064  1.00  0.00     0.053 C 
BRANCH   7   8
ATOM      8  C   UNL     1      65.919 -10.956  29.777  1.00  0.00     0.041 C 
ATOM      9  O   UNL     1      65.157 -11.384  28.870  1.00  0.00    -0.550 OA
ATOM     10  O   UNL     1      66.617  -9.770  29.587  1.00  0.00    -0.550 OA
ENDBRANCH   7   8
ENDBRANCH   6   7
ENDBRANCH   5   6
ENDBRANCH   4   5
ENDBRANCH   3   4
ENDBRANCH   2   3
ENDBRANCH   1   2
BRANCH   1  11
ATOM     11  C   UNL     1      60.323  -9.160  34.161  1.00  0.00     0.000 C 
BRANCH  11  12
ATOM     12  C   UNL     1      60.146 -10.668  33.924  1.00  0.00    -0.000 C 
BRANCH  12  13
ATOM     13  C   UNL     1      61.392 -11.270  33.263  1.00  0.00    -0.000 C 
BRANCH  13  14
ATOM     14  C   UNL     1      61.813 -12.571  33.963  1.00  0.00    -0.000 C 
BRANCH  14  15
ATOM     15  C   UNL     1      61.979 -12.405  35.483  1.00  0.00    -0.000 C 
BRANCH  15  16
ATOM     16  C   UNL     1      63.168 -11.524  35.919  1.00  0.00    -0.000 C 
BRANCH  16  17
ATOM     17  C   UNL     1      62.862 -10.540  37.061  1.00  0.00    -0.003 C 
ATOM     18  C   UNL     1      61.387 -10.526  37.457  1.00  0.00     0.004 C 
ENDBRANCH  16  17
ENDBRANCH  15  16
ENDBRANCH  14  15
ENDBRANCH  13  14
ENDBRANCH  12  13
ENDBRANCH  11  12
ENDBRANCH   1  11
TORSDOF 14
ENDMDL
MODEL 2
REMARK VINA RESULT:    -3.076      2.913      5.220
REMARK INTER + INTRA:          -8.248
REMARK INTER:                  -6.007
REMARK INTRA:                  -2.241
REMARK UNBOUND:                -2.655
REMARK SMILES CCCCCCCCCCCCCCCC(=O)[O-]
REMARK SMILES IDX 9 1 10 2 11 3 12 4 13 5 14 6 15 7 16 8 17 9 18 10 8 11 7 12
REMARK SMILES IDX 6 13 5 14 4 15 3 16 2 17 1 18
REMARK H PARENT
REMARK Flexibility Score: inf
ROOT
ATOM      1  C   UNL     1      60.493 -11.378  37.183  1.00  0.00     0.000 C 
ENDROOT
BRANCH   1   2
ATOM      2  C   UNL     1      61.801 -11.641  37.949  1.00  0.00     0.000 C 
BRANCH   2   3
ATOM      3  C   UNL     1      62.994 -10.845  37.388  1.00  0.00     0.000 C 
BRANCH   3   4
ATOM      4  C   UNL     1      64.048 -11.684  36.643  1.00  0.00     0.000 C 
BRANCH   4   5
ATOM      5  C   UNL     1      63.793 -13.198  36.748  1.00  0.00     0.000 C 
BRANCH   5   6
ATOM      6  C   UNL     1      63.476 -13.837  35.381  1.00  0.00     0.006 C 
BRANCH   6   7
ATOM      7  C   UNL     1      62.643 -15.125  35.483  1.00  0.00     0.053 C 
BRANCH   7   8
ATOM      8  C   UNL     1      61.766 -15.329  34.289  1.00  0.00     0.041 C 
ATOM      9  O   UNL     1      61.619 -14.407  33.445  1.00  0.00    -0.550 OA
ATOM     10  O   UNL     1      61.131 -16.550  34.093  1.00  0.00    -0.550 OA
ENDBRANCH   7   8
ENDBRANCH   6   7
ENDBRANCH   5   6
ENDBRANCH   4   5
ENDBRANCH   3   4
ENDBRANCH   2   3
ENDBRANCH   1   2
BRANCH   1  11
ATOM     11  C   UNL     1      60.722 -10.597  35.879  1.00  0.00     0.000 C 
BRANCH  11  12
ATOM     12  C   UNL     1      60.482 -11.453  34.625  1.00  0.00    -0.000 C 
BRANCH  12  13
ATOM     13  C   UNL     1      61.163 -10.833  33.398  1.00  0.00    -0.000 C 
BRANCH  13  14
ATOM     14  C   UNL     1      61.997  -9.606  33.793  1.00  0.00    -0.000 C 
BRANCH  14  15
ATOM     15  C   UNL     1      63.497  -9.784  33.503  1.00  0.00    -0.000 C 
BRANCH  15  16
ATOM     16  C   UNL     1      63.897 -11.167  32.947  1.00  0.00    -0.000 C 
BRANCH  16  17
ATOM     17  C   UNL     1      65.145 -11.168  32.046  1.00  0.00    -0.003 C 
ATOM     18  C   UNL     1      65.619  -9.762  31.682  1.00  0.00     0.004 C 
ENDBRANCH  16  17
ENDBRANCH  15  16
ENDBRANCH  14  15
ENDBRANCH  13  14
ENDBRANCH  12  13
ENDBRANCH  11  12
ENDBRANCH   1  11
TORSDOF 14
ENDMDL
MODEL 3
REMARK VINA RESULT:    -3.049      3.330      6.048
REMARK INTER + INTRA:          -8.199
REMARK INTER:                  -6.246
REMARK INTRA:                  -1.953
REMARK UNBOUND:                -2.655
REMARK SMILES CCCCCCCCCCCCCCCC(=O)[O-]
REMARK SMILES IDX 9 1 10 2 11 3 12 4 13 5 14 6 15 7 16 8 17 9 18 10 8 11 7 12
REMARK SMILES IDX 6 13 5 14 4 15 3 16 2 17 1 18
REMARK H PARENT
REMARK Flexibility Score: inf
ROOT
ATOM      1  C   UNL     1      61.826  -8.682  34.195  1.00  0.00     0.000 C 
ENDROOT
BRANCH   1   2
ATOM      2  C   UNL     1      60.422  -9.132  33.757  1.00  0.00     0.000 C 
BRANCH   2   3
ATOM      3  C   UNL     1      60.277 -10.664  33.691  1.00  0.00     0.000 C 
BRANCH   3   4
ATOM      4  C   UNL     1      61.542 -11.421  33.248  1.00  0.00     0.000 C 
BRANCH   4   5
ATOM      5  C   UNL     1      61.740 -12.749  34.001  1.00  0.00     0.000 C 
BRANCH   5   6
ATOM      6  C   UNL     1      62.956 -12.712  34.948  1.00  0.00     0.006 C 
BRANCH   6   7
ATOM      7  C   UNL     1      62.763 -11.785  36.159  1.00  0.00     0.053 C 
BRANCH   7   8
ATOM      8  C   UNL     1      61.604 -12.197  37.010  1.00  0.00     0.041 C 
ATOM      9  O   UNL     1      61.650 -13.269  37.668  1.00  0.00    -0.550 OA
ATOM     10  O   UNL     1      60.481 -11.382  37.097  1.00  0.00    -0.550 OA
ENDBRANCH   7   8
ENDBRANCH   6   7
ENDBRANCH   5   6
ENDBRANCH   4   5
ENDBRANCH   3   4
ENDBRANCH   2   3
ENDBRANCH   1   2
BRANCH   1  11
ATOM     11  C   UNL     1      62.517  -7.802  33.141  1.00  0.00     0.000 C 
BRANCH  11  12
ATOM     12  C   UNL     1      63.973  -8.221  32.881  1.00  0.00    -0.000 C 
BRANCH  12  13
ATOM     13  C   UNL     1      64.451  -9.228  33.935  1.00  0.00    -0.000 C 
BRANCH  13  14
ATOM     14  C   UNL     1      65.125 -10.438  33.273  1.00  0.00    -0.000 C 
BRANCH  14  15
ATOM     15  C   UNL     1      65.517 -10.179  31.808  1.00  0.00    -0.000 C 
BRANCH  15  16
ATOM     16  C   UNL     1      65.511 -11.425  30.899  1.00  0.00    -0.000 C 
BRANCH  16  17
ATOM     17  C   UNL     1      66.282 -11.266  29.576  1.00  0.00    -0.003 C 
ATOM     18  C   UNL     1      65.524 -10.440  28.539  1.00  0.00     0.004 C 
ENDBRANCH  16  17
ENDBRANCH  15  16
ENDBRANCH  14  15
ENDBRANCH  13  14
ENDBRANCH  12  13
ENDBRANCH  11  12
ENDBRANCH   1  11
TORSDOF 14
ENDMDL
MODEL 4
REMARK VINA RESULT:    -2.998      3.933      5.254
REMARK INTER + INTRA:          -8.107
REMARK INTER:                  -5.744
REMARK INTRA:                  -2.363
REMARK UNBOUND:                -2.655
REMARK SMILES CCCCCCCCCCCCCCCC(=O)[O-]
REMARK SMILES IDX 9 1 10 2 11 3 12 4 13 5 14 6 15 7 16 8 17 9 18 10 8 11 7 12
REMARK SMILES IDX 6 13 5 14 4 15 3 16 2 17 1 18
REMARK H PARENT
REMARK Flexibility Score: inf
ROOT
ATOM      1  C   UNL     1      61.822  -8.335  33.462  1.00  0.00     0.000 C 
ENDROOT
BRANCH   1   2
ATOM      2  C   UNL     1      60.583  -8.980  34.106  1.00  0.00     0.000 C 
BRANCH   2   3
ATOM      3  C   UNL     1      60.353 -10.431  33.641  1.00  0.00     0.000 C 
BRANCH   3   4
ATOM      4  C   UNL     1      60.650 -11.510  34.698  1.00  0.00     0.000 C 
BRANCH   4   5
ATOM      5  C   UNL     1      61.736 -12.505  34.251  1.00  0.00     0.000 C 
BRANCH   5   6
ATOM      6  C   UNL     1      62.430 -13.192  35.444  1.00  0.00     0.006 C 
BRANCH   6   7
ATOM      7  C   UNL     1      62.672 -14.696  35.231  1.00  0.00     0.053 C 
BRANCH   7   8
ATOM      8  C   UNL     1      62.850 -15.430  36.522  1.00  0.00     0.041 C 
ATOM      9  O   UNL     1      62.674 -14.837  37.618  1.00  0.00    -0.550 OA
ATOM     10  O   UNL     1      63.187 -16.778  36.514  1.00  0.00    -0.550 OA
ENDBRANCH   7   8
ENDBRANCH   6   7
ENDBRANCH   5   6
ENDBRANCH   4   5
ENDBRANCH   3   4
ENDBRANCH   2   3
ENDBRANCH   1   2
BRANCH   1  11
ATOM     11  C   UNL     1      62.985  -8.177  34.456  1.00  0.00     0.000 C 
BRANCH  11  12
ATOM     12  C   UNL     1      63.859  -9.438  34.551  1.00  0.00    -0.000 C 
BRANCH  12  13
ATOM     13  C   UNL     1      64.058  -9.857  36.013  1.00  0.00    -0.000 C 
BRANCH  13  14
ATOM     14  C   UNL     1      63.184  -9.014  36.952  1.00  0.00    -0.000 C 
BRANCH  14  15
ATOM     15  C   UNL     1      62.062  -9.829  37.619  1.00  0.00    -0.000 C 
BRANCH  15  16
ATOM     16  C   UNL     1      62.540 -11.017  38.479  1.00  0.00    -0.000 C 
BRANCH  16  17
ATOM     17  C   UNL     1      61.422 -11.778  39.212  1.00  0.00    -0.003 C 
ATOM     18  C   UNL     1      60.216 -12.073  38.321  1.00  0.00     0.004 C 
ENDBRANCH  16  17
ENDBRANCH  15  16
ENDBRANCH  14  15
ENDBRANCH  13  14
ENDBRANCH  12  13
ENDBRANCH  11  12
ENDBRANCH   1  11
TORSDOF 14
ENDMDL
MODEL 5
REMARK VINA RESULT:    -2.975      1.590      2.669
REMARK INTER + INTRA:          -8.064
REMARK INTER:                  -5.170
REMARK INTRA:                  -2.893
REMARK UNBOUND:                -2.655
REMARK SMILES CCCCCCCCCCCCCCCC(=O)[O-]
REMARK SMILES IDX 9 1 10 2 11 3 12 4 13 5 14 6 15 7 16 8 17 9 18 10 8 11 7 12
REMARK SMILES IDX 6 13 5 14 4 15 3 16 2 17 1 18
REMARK H PARENT
REMARK Flexibility Score: inf
ROOT
ATOM      1  C   UNL     1      60.288 -10.960  34.201  1.00  0.00     0.000 C 
ENDROOT
BRANCH   1   2
ATOM      2  C   UNL     1      60.354  -9.604  34.925  1.00  0.00     0.000 C 
BRANCH   2   3
ATOM      3  C   UNL     1      61.778  -9.021  34.976  1.00  0.00     0.000 C 
BRANCH   3   4
ATOM      4  C   UNL     1      62.612  -9.437  36.201  1.00  0.00     0.000 C 
BRANCH   4   5
ATOM      5  C   UNL     1      64.073  -9.767  35.849  1.00  0.00     0.000 C 
BRANCH   5   6
ATOM      6  C   UNL     1      64.412  -9.444  34.380  1.00  0.00     0.006 C 
BRANCH   6   7
ATOM      7  C   UNL     1      65.245 -10.535  33.688  1.00  0.00     0.053 C 
BRANCH   7   8
ATOM      8  C   UNL     1      65.244 -10.390  32.199  1.00  0.00     0.041 C 
ATOM      9  O   UNL     1      65.316 -11.410  31.463  1.00  0.00    -0.550 OA
ATOM     10  O   UNL     1      65.138  -9.131  31.623  1.00  0.00    -0.550 OA
ENDBRANCH   7   8
ENDBRANCH   6   7
ENDBRANCH   5   6
ENDBRANCH   4   5
ENDBRANCH   3   4
ENDBRANCH   2   3
ENDBRANCH   1   2
BRANCH   1  11
ATOM     11  C   UNL     1      61.346 -11.086  33.093  1.00  0.00     0.000 C 
BRANCH  11  12
ATOM     12  C   UNL     1      62.189 -12.365  33.221  1.00  0.00    -0.000 C 
BRANCH  12  13
ATOM     13  C   UNL     1      62.015 -13.000  34.606  1.00  0.00    -0.000 C 
BRANCH  13  14
ATOM     14  C   UNL     1      63.368 -13.440  35.184  1.00  0.00    -0.000 C 
BRANCH  14  15
ATOM     15  C   UNL     1      63.450 -13.271  36.711  1.00  0.00    -0.000 C 
BRANCH  15  16
ATOM     16  C   UNL     1      62.127 -13.510  37.467  1.00  0.00    -0.000 C 
BRANCH  16  17
ATOM     17  C   UNL     1      61.647 -12.326  38.326  1.00  0.00    -0.003 C 
ATOM     18  C   UNL     1      60.263 -11.820  37.923  1.00  0.00     0.004 C 
ENDBRANCH  16  17
ENDBRANCH  15  16
ENDBRANCH  14  15
ENDBRANCH  13  14
ENDBRANCH  12  13
ENDBRANCH  11  12
ENDBRANCH   1  11
TORSDOF 14
ENDMDL
MODEL 6
REMARK VINA RESULT:    -2.962      3.000      5.618
REMARK INTER + INTRA:          -8.041
REMARK INTER:                  -5.891
REMARK INTRA:                  -2.150
REMARK UNBOUND:                -2.655
REMARK SMILES CCCCCCCCCCCCCCCC(=O)[O-]
REMARK SMILES IDX 9 1 10 2 11 3 12 4 13 5 14 6 15 7 16 8 17 9 18 10 8 11 7 12
REMARK SMILES IDX 6 13 5 14 4 15 3 16 2 17 1 18
REMARK H PARENT
REMARK Flexibility Score: inf
ROOT
ATOM      1  C   UNL     1      61.422  -9.788  33.751  1.00  0.00     0.000 C 
ENDROOT
BRANCH   1   2
ATOM      2  C   UNL     1      60.469  -9.502  34.924  1.00  0.00     0.000 C 
BRANCH   2   3
ATOM      3  C   UNL     1      60.790 -10.341  36.175  1.00  0.00     0.000 C 
BRANCH   3   4
ATOM      4  C   UNL     1      62.241 -10.232  36.679  1.00  0.00     0.000 C 
BRANCH   4   5
ATOM      5  C   UNL     1      62.769 -11.549  37.276  1.00  0.00     0.000 C 
BRANCH   5   6
ATOM      6  C   UNL     1      62.205 -12.790  36.555  1.00  0.00     0.006 C 
BRANCH   6   7
ATOM      7  C   UNL     1      63.290 -13.770  36.081  1.00  0.00     0.053 C 
BRANCH   7   8
ATOM      8  C   UNL     1      62.710 -15.014  35.485  1.00  0.00     0.041 C 
ATOM      9  O   UNL     1      62.941 -16.135  36.009  1.00  0.00    -0.550 OA
ATOM     10  O   UNL     1      61.891 -14.932  34.365  1.00  0.00    -0.550 OA
ENDBRANCH   7   8
ENDBRANCH   6   7
ENDBRANCH   5   6
ENDBRANCH   4   5
ENDBRANCH   3   4
ENDBRANCH   2   3
ENDBRANCH   1   2
BRANCH   1  11
ATOM     11  C   UNL     1      61.392 -11.262  33.315  1.00  0.00     0.000 C 
BRANCH  11  12
ATOM     12  C   UNL     1      62.785 -11.799  32.947  1.00  0.00    -0.000 C 
BRANCH  12  13
ATOM     13  C   UNL     1      63.882 -10.813  33.367  1.00  0.00    -0.000 C 
BRANCH  13  14
ATOM     14  C   UNL     1      65.169 -11.555  33.755  1.00  0.00    -0.000 C 
BRANCH  14  15
ATOM     15  C   UNL     1      66.348 -11.238  32.818  1.00  0.00    -0.000 C 
BRANCH  15  16
ATOM     16  C   UNL     1      66.391 -12.066  31.517  1.00  0.00    -0.000 C 
BRANCH  16  17
ATOM     17  C   UNL     1      65.786 -11.370  30.285  1.00  0.00    -0.003 C 
ATOM     18  C   UNL     1      65.956  -9.852  30.314  1.00  0.00     0.004 C 
ENDBRANCH  16  17
ENDBRANCH  15  16
ENDBRANCH  14  15
ENDBRANCH  13  14
ENDBRANCH  12  13
ENDBRANCH  11  12
ENDBRANCH   1  11
TORSDOF 14
ENDMDL
MODEL 7
REMARK VINA RESULT:    -2.948      3.657      5.517
REMARK INTER + INTRA:          -8.016
REMARK INTER:                  -5.351
REMARK INTRA:                  -2.665
REMARK UNBOUND:                -2.655
REMARK SMILES CCCCCCCCCCCCCCCC(=O)[O-]
REMARK SMILES IDX 9 1 10 2 11 3 12 4 13 5 14 6 15 7 16 8 17 9 18 10 8 11 7 12
REMARK SMILES IDX 6 13 5 14 4 15 3 16 2 17 1 18
REMARK H PARENT
REMARK Flexibility Score: inf
ROOT
ATOM      1  C   UNL     1      60.442  -9.164  34.316  1.00  0.00     0.000 C 
ENDROOT
BRANCH   1   2
ATOM      2  C   UNL     1      60.631  -9.516  35.802  1.00  0.00     0.000 C 
BRANCH   2   3
ATOM      3  C   UNL     1      62.107  -9.488  36.241  1.00  0.00     0.000 C 
BRANCH   3   4
ATOM      4  C   UNL     1      62.510 -10.579  37.249  1.00  0.00     0.000 C 
BRANCH   4   5
ATOM      5  C   UNL     1      61.307 -11.381  37.778  1.00  0.00     0.000 C 
BRANCH   5   6
ATOM      6  C   UNL     1      61.554 -12.903  37.741  1.00  0.00     0.006 C 
BRANCH   6   7
ATOM      7  C   UNL     1      62.994 -13.282  37.357  1.00  0.00     0.053 C 
BRANCH   7   8
ATOM      8  C   UNL     1      63.332 -14.688  37.742  1.00  0.00     0.041 C 
ATOM      9  O   UNL     1      63.737 -14.946  38.906  1.00  0.00    -0.550 OA
ATOM     10  O   UNL     1      63.175 -15.717  36.822  1.00  0.00    -0.550 OA
ENDBRANCH   7   8
ENDBRANCH   6   7
ENDBRANCH   5   6
ENDBRANCH   4   5
ENDBRANCH   3   4
ENDBRANCH   2   3
ENDBRANCH   1   2
BRANCH   1  11
ATOM     11  C   UNL     1      60.629 -10.381  33.396  1.00  0.00     0.000 C 
BRANCH  11  12
ATOM     12  C   UNL     1      60.307 -11.710  34.097  1.00  0.00    -0.000 C 
BRANCH  12  13
ATOM     13  C   UNL     1      61.513 -12.657  34.057  1.00  0.00    -0.000 C 
BRANCH  13  14
ATOM     14  C   UNL     1      62.652 -12.063  33.217  1.00  0.00    -0.000 C 
BRANCH  14  15
ATOM     15  C   UNL     1      63.944 -11.852  34.024  1.00  0.00    -0.000 C 
BRANCH  15  16
ATOM     16  C   UNL     1      64.938 -10.841  33.416  1.00  0.00    -0.000 C 
BRANCH  16  17
ATOM     17  C   UNL     1      64.805  -9.402  33.944  1.00  0.00    -0.003 C 
ATOM     18  C   UNL     1      63.926  -8.520  33.058  1.00  0.00     0.004 C 
ENDBRANCH  16  17
ENDBRANCH  15  16
ENDBRANCH  14  15
ENDBRANCH  13  14
ENDBRANCH  12  13
ENDBRANCH  11  12
ENDBRANCH   1  11
TORSDOF 14
ENDMDL
MODEL 8
REMARK VINA RESULT:    -2.916      3.523      6.175
REMARK INTER + INTRA:          -7.957
REMARK INTER:                  -5.497
REMARK INTRA:                  -2.460
REMARK UNBOUND:                -2.655
REMARK SMILES CCCCCCCCCCCCCCCC(=O)[O-]
REMARK SMILES IDX 9 1 10 2 11 3 12 4 13 5 14 6 15 7 16 8 17 9 18 10 8 11 7 12
REMARK SMILES IDX 6 13 5 14 4 15 3 16 2 17 1 18
REMARK H PARENT
REMARK Flexibility Score: inf
ROOT
ATOM      1  C   UNL     1      60.212 -10.797  33.867  1.00  0.00     0.000 C 
ENDROOT
BRANCH   1   2
ATOM      2  C   UNL     1      61.510 -11.396  33.297  1.00  0.00     0.000 C 
BRANCH   2   3
ATOM      3  C   UNL     1      62.127 -12.469  34.213  1.00  0.00     0.000 C 
BRANCH   3   4
ATOM      4  C   UNL     1      62.699 -11.944  35.542  1.00  0.00     0.000 C 
BRANCH   4   5
ATOM      5  C   UNL     1      62.095 -12.642  36.774  1.00  0.00     0.000 C 
BRANCH   5   6
ATOM      6  C   UNL     1      60.895 -11.870  37.359  1.00  0.00     0.006 C 
BRANCH   6   7
ATOM      7  C   UNL     1      61.158 -10.365  37.530  1.00  0.00     0.053 C 
BRANCH   7   8
ATOM      8  C   UNL     1      62.183 -10.085  38.583  1.00  0.00     0.041 C 
ATOM      9  O   UNL     1      63.057  -9.198  38.397  1.00  0.00    -0.550 OA
ATOM     10  O   UNL     1      62.157 -10.785  39.783  1.00  0.00    -0.550 OA
ENDBRANCH   7   8
ENDBRANCH   6   7
ENDBRANCH   5   6
ENDBRANCH   4   5
ENDBRANCH   3   4
ENDBRANCH   2   3
ENDBRANCH   1   2
BRANCH   1  11
ATOM     11  C   UNL     1      60.304  -9.275  34.063  1.00  0.00     0.000 C 
BRANCH  11  12
ATOM     12  C   UNL     1      61.650  -8.698  33.597  1.00  0.00    -0.000 C 
BRANCH  12  13
ATOM     13  C   UNL     1      62.451  -8.148  34.783  1.00  0.00    -0.000 C 
BRANCH  13  14
ATOM     14  C   UNL     1      63.910  -8.625  34.731  1.00  0.00    -0.000 C 
BRANCH  14  15
ATOM     15  C   UNL     1      64.432  -8.798  33.294  1.00  0.00    -0.000 C 
BRANCH  15  16
ATOM     16  C   UNL     1      65.446  -9.944  33.100  1.00  0.00    -0.000 C 
BRANCH  16  17
ATOM     17  C   UNL     1      64.956 -11.099  32.209  1.00  0.00    -0.003 C 
ATOM     18  C   UNL     1      66.087 -11.780  31.440  1.00  0.00     0.004 C 
ENDBRANCH  16  17
ENDBRANCH  15  16
ENDBRANCH  14  15
ENDBRANCH  13  14
ENDBRANCH  12  13
ENDBRANCH  11  12
ENDBRANCH   1  11
TORSDOF 14
ENDMDL
MODEL 9
REMARK VINA RESULT:    -2.896      3.881      5.550
REMARK INTER + INTRA:          -7.920
REMARK INTER:                  -5.118
REMARK INTRA:                  -2.803
REMARK UNBOUND:                -2.655
REMARK SMILES CCCCCCCCCCCCCCCC(=O)[O-]
REMARK SMILES IDX 9 1 10 2 11 3 12 4 13 5 14 6 15 7 16 8 17 9 18 10 8 11 7 12
REMARK SMILES IDX 6 13 5 14 4 15 3 16 2 17 1 18
REMARK H PARENT
REMARK Flexibility Score: inf
ROOT
ATOM      1  C   UNL     1      61.741  -7.893  33.659  1.00  0.00     0.000 C 
ENDROOT
BRANCH   1   2
ATOM      2  C   UNL     1      63.140  -8.501  33.457  1.00  0.00     0.000 C 
BRANCH   2   3
ATOM      3  C   UNL     1      64.154  -8.039  34.520  1.00  0.00     0.000 C 
BRANCH   3   4
ATOM      4  C   UNL     1      64.354  -9.010  35.697  1.00  0.00     0.000 C 
BRANCH   4   5
ATOM      5  C   UNL     1      63.286  -8.851  36.795  1.00  0.00     0.000 C 
BRANCH   5   6
ATOM      6  C   UNL     1      62.805 -10.208  37.347  1.00  0.00     0.006 C 
BRANCH   6   7
ATOM      7  C   UNL     1      61.347 -10.191  37.834  1.00  0.00     0.053 C 
BRANCH   7   8
ATOM      8  C   UNL     1      60.982 -11.436  38.578  1.00  0.00     0.041 C 
ATOM      9  O   UNL     1      61.691 -11.830  39.541  1.00  0.00    -0.550 OA
ATOM     10  O   UNL     1      59.844 -12.150  38.224  1.00  0.00    -0.550 OA
ENDBRANCH   7   8
ENDBRANCH   6   7
ENDBRANCH   5   6
ENDBRANCH   4   5
ENDBRANCH   3   4
ENDBRANCH   2   3
ENDBRANCH   1   2
BRANCH   1  11
ATOM     11  C   UNL     1      60.698  -8.944  34.072  1.00  0.00     0.000 C 
BRANCH  11  12
ATOM     12  C   UNL     1      61.036 -10.351  33.553  1.00  0.00    -0.000 C 
BRANCH  12  13
ATOM     13  C   UNL     1      60.548 -11.429  34.529  1.00  0.00    -0.000 C 
BRANCH  13  14
ATOM     14  C   UNL     1      61.613 -12.518  34.723  1.00  0.00    -0.000 C 
BRANCH  14  15
ATOM     15  C   UNL     1      62.962 -12.157  34.080  1.00  0.00    -0.000 C 
BRANCH  15  16
ATOM     16  C   UNL     1      64.206 -12.658  34.844  1.00  0.00    -0.000 C 
BRANCH  16  17
ATOM     17  C   UNL     1      65.551 -12.138  34.307  1.00  0.00    -0.003 C 
ATOM     18  C   UNL     1      65.426 -11.457  32.945  1.00  0.00     0.004 C 
ENDBRANCH  16  17
ENDBRANCH  15  16
ENDBRANCH  14  15
ENDBRANCH  13  14
ENDBRANCH  12  13
ENDBRANCH  11  12
ENDBRANCH   1  11
TORSDOF 14
ENDMDL
