MODEL 1
REMARK VINA RESULT:    -4.201      0.000      0.000
REMARK INTER + INTRA:         -10.539
REMARK INTER:                  -7.885
REMARK INTRA:                  -2.654
REMARK UNBOUND:                -2.654
REMARK SMILES CCCCCCCCC=CCCCCCCCC(=O)[O-]
REMARK SMILES IDX 10 1 9 2 11 3 12 4 13 5 14 6 15 7 16 8 17 9 18 10 19 11
REMARK SMILES IDX 20 12 8 13 7 14 6 15 5 16 4 17 3 18 2 19 1 20
REMARK H PARENT
REMARK Flexibility Score: inf
ROOT
ATOM      1  C   UNL     1      12.090  97.291  20.134  1.00  0.00    -0.031 C 
ATOM      2  C   UNL     1      11.658  98.343  20.855  1.00  0.00    -0.031 C 
ENDROOT
BRANCH   1   3
ATOM      3  C   UNL     1      13.046  96.231  20.621  1.00  0.00     0.027 C 
BRANCH   3   4
ATOM      4  C   UNL     1      14.496  96.691  20.418  1.00  0.00     0.004 C 
BRANCH   4   5
ATOM      5  C   UNL     1      15.361  96.513  21.679  1.00  0.00     0.000 C 
BRANCH   5   6
ATOM      6  C   UNL     1      14.715  95.670  22.797  1.00  0.00     0.000 C 
BRANCH   6   7
ATOM      7  C   UNL     1      14.707  96.328  24.189  1.00  0.00     0.000 C 
BRANCH   7   8
ATOM      8  C   UNL     1      14.843  95.311  25.332  1.00  0.00     0.006 C 
BRANCH   8   9
ATOM      9  C   UNL     1      16.021  95.668  26.244  1.00  0.00     0.053 C 
BRANCH   9  10
ATOM     10  C   UNL     1      16.559  94.440  26.908  1.00  0.00     0.041 C 
ATOM     11  O   UNL     1      15.805  93.457  27.129  1.00  0.00    -0.550 OA
ATOM     12  O   UNL     1      17.906  94.364  27.240  1.00  0.00    -0.550 OA
ENDBRANCH   9  10
ENDBRANCH   8   9
ENDBRANCH   7   8
ENDBRANCH   6   7
ENDBRANCH   5   6
ENDBRANCH   4   5
ENDBRANCH   3   4
ENDBRANCH   1   3
BRANCH   2  13
ATOM     13  C   UNL     1      12.073  98.655  22.272  1.00  0.00     0.027 C 
BRANCH  13  14
ATOM     14  C   UNL     1      13.266  99.625  22.363  1.00  0.00     0.004 C 
BRANCH  14  15
ATOM     15  C   UNL     1      13.664 100.004  23.800  1.00  0.00     0.000 C 
BRANCH  15  16
ATOM     16  C   UNL     1      15.156  99.771  24.092  1.00  0.00     0.000 C 
BRANCH  16  17
ATOM     17  C   UNL     1      16.037  99.979  22.849  1.00  0.00    -0.000 C 
BRANCH  17  18
ATOM     18  C   UNL     1      17.522  99.698  23.131  1.00  0.00    -0.000 C 
BRANCH  18  19
ATOM     19  C   UNL     1      17.725  98.685  24.269  1.00  0.00    -0.003 C 
ATOM     20  C   UNL     1      18.307  97.356  23.785  1.00  0.00     0.004 C 
ENDBRANCH  18  19
ENDBRANCH  17  18
ENDBRANCH  16  17
ENDBRANCH  15  16
ENDBRANCH  14  15
ENDBRANCH  13  14
ENDBRANCH   2  13
TORSDOF 15
ENDMDL
MODEL 2
REMARK VINA RESULT:    -4.021      2.957      5.427
REMARK INTER + INTRA:         -10.200
REMARK INTER:                  -7.311
REMARK INTRA:                  -2.890
REMARK UNBOUND:                -2.654
REMARK SMILES CCCCCCCCC=CCCCCCCCC(=O)[O-]
REMARK SMILES IDX 10 1 9 2 11 3 12 4 13 5 14 6 15 7 16 8 17 9 18 10 19 11
REMARK SMILES IDX 20 12 8 13 7 14 6 15 5 16 4 17 3 18 2 19 1 20
REMARK H PARENT
REMARK Flexibility Score: inf
ROOT
ATOM      1  C   UNL     1      13.988  99.660  23.786  1.00  0.00    -0.031 C 
ATOM      2  C   UNL     1      15.288  99.814  24.103  1.00  0.00    -0.031 C 
ENDROOT
BRANCH   1   3
ATOM      3  C   UNL     1      13.430  99.616  22.385  1.00  0.00     0.027 C 
BRANCH   3   4
ATOM      4  C   UNL     1      12.439  98.452  22.246  1.00  0.00     0.004 C 
BRANCH   4   5
ATOM      5  C   UNL     1      11.620  98.519  20.945  1.00  0.00     0.000 C 
BRANCH   5   6
ATOM      6  C   UNL     1      11.786  97.306  20.008  1.00  0.00     0.000 C 
BRANCH   6   7
ATOM      7  C   UNL     1      11.885  95.943  20.718  1.00  0.00     0.000 C 
BRANCH   7   8
ATOM      8  C   UNL     1      12.643  94.893  19.893  1.00  0.00     0.006 C 
BRANCH   8   9
ATOM      9  C   UNL     1      12.932  93.644  20.730  1.00  0.00     0.053 C 
BRANCH   9  10
ATOM     10  C   UNL     1      12.479  92.413  20.010  1.00  0.00     0.041 C 
ATOM     11  O   UNL     1      11.424  92.433  19.323  1.00  0.00    -0.550 OA
ATOM     12  O   UNL     1      13.246  91.256  20.061  1.00  0.00    -0.550 OA
ENDBRANCH   9  10
ENDBRANCH   8   9
ENDBRANCH   7   8
ENDBRANCH   6   7
ENDBRANCH   5   6
ENDBRANCH   4   5
ENDBRANCH   3   4
ENDBRANCH   1   3
BRANCH   2  13
ATOM     13  C   UNL     1      16.411  99.989  23.111  1.00  0.00     0.027 C 
BRANCH  13  14
ATOM     14  C   UNL     1      17.638  99.106  23.411  1.00  0.00     0.004 C 
BRANCH  14  15
ATOM     15  C   UNL     1      17.415  98.077  24.534  1.00  0.00     0.000 C 
BRANCH  15  16
ATOM     16  C   UNL     1      17.206  96.647  24.006  1.00  0.00     0.000 C 
BRANCH  16  17
ATOM     17  C   UNL     1      15.766  96.149  24.215  1.00  0.00    -0.000 C 
BRANCH  17  18
ATOM     18  C   UNL     1      15.011  95.971  22.887  1.00  0.00    -0.000 C 
BRANCH  18  19
ATOM     19  C   UNL     1      15.940  96.048  21.665  1.00  0.00    -0.003 C 
ATOM     20  C   UNL     1      15.429  97.006  20.589  1.00  0.00     0.004 C 
ENDBRANCH  18  19
ENDBRANCH  17  18
ENDBRANCH  16  17
ENDBRANCH  15  16
ENDBRANCH  14  15
ENDBRANCH  13  14
ENDBRANCH   2  13
TORSDOF 15
ENDMDL
MODEL 3
REMARK VINA RESULT:    -3.988      1.617      3.597
REMARK INTER + INTRA:         -10.138
REMARK INTER:                  -7.092
REMARK INTRA:                  -3.046
REMARK UNBOUND:                -2.654
REMARK SMILES CCCCCCCCC=CCCCCCCCC(=O)[O-]
REMARK SMILES IDX 10 1 9 2 11 3 12 4 13 5 14 6 15 7 16 8 17 9 18 10 19 11
REMARK SMILES IDX 20 12 8 13 7 14 6 15 5 16 4 17 3 18 2 19 1 20
REMARK H PARENT
REMARK Flexibility Score: inf
ROOT
ATOM      1  C   UNL     1      15.030  97.277  20.765  1.00  0.00    -0.031 C 
ATOM      2  C   UNL     1      13.758  96.926  20.493  1.00  0.00    -0.031 C 
ENDROOT
BRANCH   1   3
ATOM      3  C   UNL     1      15.517  97.851  22.071  1.00  0.00     0.027 C 
BRANCH   3   4
ATOM      4  C   UNL     1      15.599  99.381  21.980  1.00  0.00     0.004 C 
BRANCH   4   5
ATOM      5  C   UNL     1      16.443 100.001  23.108  1.00  0.00     0.000 C 
BRANCH   5   6
ATOM      6  C   UNL     1      17.720  99.217  23.471  1.00  0.00     0.000 C 
BRANCH   6   7
ATOM      7  C   UNL     1      17.839  98.813  24.952  1.00  0.00     0.000 C 
BRANCH   7   8
ATOM      8  C   UNL     1      18.544  97.463  25.149  1.00  0.00     0.006 C 
BRANCH   8   9
ATOM      9  C   UNL     1      18.623  96.690  23.829  1.00  0.00     0.053 C 
BRANCH   9  10
ATOM     10  C   UNL     1      17.859  95.408  23.926  1.00  0.00     0.041 C 
ATOM     11  O   UNL     1      17.730  94.829  25.037  1.00  0.00    -0.550 OA
ATOM     12  O   UNL     1      17.248  94.875  22.798  1.00  0.00    -0.550 OA
ENDBRANCH   9  10
ENDBRANCH   8   9
ENDBRANCH   7   8
ENDBRANCH   6   7
ENDBRANCH   5   6
ENDBRANCH   4   5
ENDBRANCH   3   4
ENDBRANCH   1   3
BRANCH   2  13
ATOM     13  C   UNL     1      12.594  97.067  21.444  1.00  0.00     0.027 C 
BRANCH  13  14
ATOM     14  C   UNL     1      11.984  98.481  21.462  1.00  0.00     0.004 C 
BRANCH  14  15
ATOM     15  C   UNL     1      11.517  98.949  22.851  1.00  0.00     0.000 C 
BRANCH  15  16
ATOM     16  C   UNL     1      12.377 100.089  23.422  1.00  0.00     0.000 C 
BRANCH  16  17
ATOM     17  C   UNL     1      13.097  99.687  24.720  1.00  0.00    -0.000 C 
BRANCH  17  18
ATOM     18  C   UNL     1      12.982  98.180  25.008  1.00  0.00    -0.000 C 
BRANCH  18  19
ATOM     19  C   UNL     1      14.351  97.514  25.214  1.00  0.00    -0.003 C 
ATOM     20  C   UNL     1      14.322  96.006  24.958  1.00  0.00     0.004 C 
ENDBRANCH  18  19
ENDBRANCH  17  18
ENDBRANCH  16  17
ENDBRANCH  15  16
ENDBRANCH  14  15
ENDBRANCH  13  14
ENDBRANCH   2  13
TORSDOF 15
ENDMDL
MODEL 4
REMARK VINA RESULT:    -3.984      2.309      3.996
REMARK INTER + INTRA:         -10.132
REMARK INTER:                  -7.709
REMARK INTRA:                  -2.423
REMARK UNBOUND:                -2.654
REMARK SMILES CCCCCCCCC=CCCCCCCCC(=O)[O-]
REMARK SMILES IDX 10 1 9 2 11 3 12 4 13 5 14 6 15 7 16 8 17 9 18 10 19 11
REMARK SMILES IDX 20 12 8 13 7 14 6 15 5 16 4 17 3 18 2 19 1 20
REMARK H PARENT
REMARK Flexibility Score: inf
ROOT
ATOM      1  C   UNL     1      14.836  96.620  20.717  1.00  0.00    -0.031 C 
ATOM      2  C   UNL     1      13.659  96.956  20.157  1.00  0.00    -0.031 C 
ENDROOT
BRANCH   1   3
ATOM      3  C   UNL     1      15.019  96.109  22.125  1.00  0.00     0.027 C 
BRANCH   3   4
ATOM      4  C   UNL     1      16.505  96.132  22.508  1.00  0.00     0.004 C 
BRANCH   4   5
ATOM      5  C   UNL     1      16.752  96.726  23.906  1.00  0.00     0.000 C 
BRANCH   5   6
ATOM      6  C   UNL     1      18.144  97.355  24.109  1.00  0.00     0.000 C 
BRANCH   6   7
ATOM      7  C   UNL     1      18.136  98.800  24.643  1.00  0.00     0.000 C 
BRANCH   7   8
ATOM      8  C   UNL     1      18.245  98.872  26.173  1.00  0.00     0.006 C 
BRANCH   8   9
ATOM      9  C   UNL     1      19.545  99.562  26.597  1.00  0.00     0.053 C 
BRANCH   9  10
ATOM     10  C   UNL     1      20.490  98.573  27.202  1.00  0.00     0.041 C 
ATOM     11  O   UNL     1      20.813  97.535  26.568  1.00  0.00    -0.550 OA
ATOM     12  O   UNL     1      21.052  98.821  28.448  1.00  0.00    -0.550 OA
ENDBRANCH   9  10
ENDBRANCH   8   9
ENDBRANCH   7   8
ENDBRANCH   6   7
ENDBRANCH   5   6
ENDBRANCH   4   5
ENDBRANCH   3   4
ENDBRANCH   1   3
BRANCH   2  13
ATOM     13  C   UNL     1      12.318  96.900  20.847  1.00  0.00     0.027 C 
BRANCH  13  14
ATOM     14  C   UNL     1      11.629  98.273  20.963  1.00  0.00     0.004 C 
BRANCH  14  15
ATOM     15  C   UNL     1      10.963  98.532  22.325  1.00  0.00     0.000 C 
BRANCH  15  16
ATOM     16  C   UNL     1      11.771  99.490  23.218  1.00  0.00     0.000 C 
BRANCH  16  17
ATOM     17  C   UNL     1      12.856  98.762  24.027  1.00  0.00    -0.000 C 
BRANCH  17  18
ATOM     18  C   UNL     1      14.241  99.410  23.861  1.00  0.00    -0.000 C 
BRANCH  18  19
ATOM     19  C   UNL     1      14.523  99.839  22.413  1.00  0.00    -0.003 C 
ATOM     20  C   UNL     1      16.017  99.956  22.107  1.00  0.00     0.004 C 
ENDBRANCH  18  19
ENDBRANCH  17  18
ENDBRANCH  16  17
ENDBRANCH  15  16
ENDBRANCH  14  15
ENDBRANCH  13  14
ENDBRANCH   2  13
TORSDOF 15
ENDMDL
MODEL 5
REMARK VINA RESULT:    -3.979      2.064      4.536
REMARK INTER + INTRA:         -10.121
REMARK INTER:                  -7.382
REMARK INTRA:                  -2.739
REMARK UNBOUND:                -2.654
REMARK SMILES CCCCCCCCC=CCCCCCCCC(=O)[O-]
REMARK SMILES IDX 10 1 9 2 11 3 12 4 13 5 14 6 15 7 16 8 17 9 18 10 19 11
REMARK SMILES IDX 20 12 8 13 7 14 6 15 5 16 4 17 3 18 2 19 1 20
REMARK H PARENT
REMARK Flexibility Score: inf
ROOT
ATOM      1  C   UNL     1      11.636  97.523  20.057  1.00  0.00    -0.031 C 
ATOM      2  C   UNL     1      12.620  96.650  19.769  1.00  0.00    -0.031 C 
ENDROOT
BRANCH   1   3
ATOM      3  C   UNL     1      11.324  98.065  21.430  1.00  0.00     0.027 C 
BRANCH   3   4
ATOM      4  C   UNL     1      12.214  99.278  21.735  1.00  0.00     0.004 C 
BRANCH   4   5
ATOM      5  C   UNL     1      12.580  99.389  23.226  1.00  0.00     0.000 C 
BRANCH   5   6
ATOM      6  C   UNL     1      14.083  99.247  23.539  1.00  0.00     0.000 C 
BRANCH   6   7
ATOM      7  C   UNL     1      15.030  99.786  22.450  1.00  0.00     0.000 C 
BRANCH   7   8
ATOM      8  C   UNL     1      16.508  99.726  22.861  1.00  0.00     0.006 C 
BRANCH   8   9
ATOM      9  C   UNL     1      16.654  99.262  24.313  1.00  0.00     0.053 C 
BRANCH   9  10
ATOM     10  C   UNL     1      17.986  98.613  24.525  1.00  0.00     0.041 C 
ATOM     11  O   UNL     1      18.440  97.805  23.672  1.00  0.00    -0.550 OA
ATOM     12  O   UNL     1      18.747  98.936  25.641  1.00  0.00    -0.550 OA
ENDBRANCH   9  10
ENDBRANCH   8   9
ENDBRANCH   7   8
ENDBRANCH   6   7
ENDBRANCH   5   6
ENDBRANCH   4   5
ENDBRANCH   3   4
ENDBRANCH   1   3
BRANCH   2  13
ATOM     13  C   UNL     1      13.570  96.046  20.774  1.00  0.00     0.027 C 
BRANCH  13  14
ATOM     14  C   UNL     1      15.049  96.371  20.491  1.00  0.00     0.004 C 
BRANCH  14  15
ATOM     15  C   UNL     1      15.968  96.248  21.719  1.00  0.00     0.000 C 
BRANCH  15  16
ATOM     16  C   UNL     1      15.460  95.227  22.751  1.00  0.00     0.000 C 
BRANCH  16  17
ATOM     17  C   UNL     1      15.241  95.854  24.138  1.00  0.00    -0.000 C 
BRANCH  17  18
ATOM     18  C   UNL     1      14.559  94.882  25.116  1.00  0.00    -0.000 C 
BRANCH  18  19
ATOM     19  C   UNL     1      13.062  94.700  24.820  1.00  0.00    -0.003 C 
ATOM     20  C   UNL     1      12.348  96.022  24.533  1.00  0.00     0.004 C 
ENDBRANCH  18  19
ENDBRANCH  17  18
ENDBRANCH  16  17
ENDBRANCH  15  16
ENDBRANCH  14  15
ENDBRANCH  13  14
ENDBRANCH   2  13
TORSDOF 15
ENDMDL
MODEL 6
REMARK VINA RESULT:    -3.969      1.946      4.241
REMARK INTER + INTRA:         -10.104
REMARK INTER:                  -7.327
REMARK INTRA:                  -2.777
REMARK UNBOUND:                -2.654
REMARK SMILES CCCCCCCCC=CCCCCCCCC(=O)[O-]
REMARK SMILES IDX 10 1 9 2 11 3 12 4 13 5 14 6 15 7 16 8 17 9 18 10 19 11
REMARK SMILES IDX 20 12 8 13 7 14 6 15 5 16 4 17 3 18 2 19 1 20
REMARK H PARENT
REMARK Flexibility Score: inf
ROOT
ATOM      1  C   UNL     1      12.201  98.990  21.615  1.00  0.00    -0.031 C 
ATOM      2  C   UNL     1      11.566  98.012  20.940  1.00  0.00    -0.031 C 
ENDROOT
BRANCH   1   3
ATOM      3  C   UNL     1      12.324  99.076  23.116  1.00  0.00     0.027 C 
BRANCH   3   4
ATOM      4  C   UNL     1      13.768  99.417  23.511  1.00  0.00     0.004 C 
BRANCH   4   5
ATOM      5  C   UNL     1      14.634  99.827  22.306  1.00  0.00     0.000 C 
BRANCH   5   6
ATOM      6  C   UNL     1      16.139  99.970  22.606  1.00  0.00     0.000 C 
BRANCH   6   7
ATOM      7  C   UNL     1      16.601  99.351  23.938  1.00  0.00     0.000 C 
BRANCH   7   8
ATOM      8  C   UNL     1      18.069  98.902  23.912  1.00  0.00     0.006 C 
BRANCH   8   9
ATOM      9  C   UNL     1      18.286  97.686  24.818  1.00  0.00     0.053 C 
BRANCH   9  10
ATOM     10  C   UNL     1      19.197  98.034  25.953  1.00  0.00     0.041 C 
ATOM     11  O   UNL     1      19.939  97.154  26.462  1.00  0.00    -0.550 OA
ATOM     12  O   UNL     1      19.260  99.342  26.418  1.00  0.00    -0.550 OA
ENDBRANCH   9  10
ENDBRANCH   8   9
ENDBRANCH   7   8
ENDBRANCH   6   7
ENDBRANCH   5   6
ENDBRANCH   4   5
ENDBRANCH   3   4
ENDBRANCH   1   3
BRANCH   2  13
ATOM     13  C   UNL     1      10.850  96.843  21.569  1.00  0.00     0.027 C 
BRANCH  13  14
ATOM     14  C   UNL     1      11.591  95.503  21.393  1.00  0.00     0.004 C 
BRANCH  14  15
ATOM     15  C   UNL     1      12.508  95.447  20.158  1.00  0.00     0.000 C 
BRANCH  15  16
ATOM     16  C   UNL     1      13.967  95.108  20.508  1.00  0.00     0.000 C 
BRANCH  16  17
ATOM     17  C   UNL     1      14.866  96.355  20.544  1.00  0.00    -0.000 C 
BRANCH  17  18
ATOM     18  C   UNL     1      15.790  96.373  21.773  1.00  0.00    -0.000 C 
BRANCH  18  19
ATOM     19  C   UNL     1      15.041  96.062  23.078  1.00  0.00    -0.003 C 
ATOM     20  C   UNL     1      15.709  94.956  23.897  1.00  0.00     0.004 C 
ENDBRANCH  18  19
ENDBRANCH  17  18
ENDBRANCH  16  17
ENDBRANCH  15  16
ENDBRANCH  14  15
ENDBRANCH  13  14
ENDBRANCH   2  13
TORSDOF 15
ENDMDL
MODEL 7
REMARK VINA RESULT:    -3.930      3.149      4.912
REMARK INTER + INTRA:         -10.030
REMARK INTER:                  -7.447
REMARK INTRA:                  -2.583
REMARK UNBOUND:                -2.654
REMARK SMILES CCCCCCCCC=CCCCCCCCC(=O)[O-]
REMARK SMILES IDX 10 1 9 2 11 3 12 4 13 5 14 6 15 7 16 8 17 9 18 10 19 11
REMARK SMILES IDX 20 12 8 13 7 14 6 15 5 16 4 17 3 18 2 19 1 20
REMARK H PARENT
REMARK Flexibility Score: inf
ROOT
ATOM      1  C   UNL     1      14.868  96.426  24.321  1.00  0.00    -0.031 C 
ATOM      2  C   UNL     1      14.342  97.575  24.787  1.00  0.00    -0.031 C 
ENDROOT
BRANCH   1   3
ATOM      3  C   UNL     1      14.581  95.819  22.971  1.00  0.00     0.027 C 
BRANCH   3   4
ATOM      4  C   UNL     1      15.606  96.312  21.940  1.00  0.00     0.004 C 
BRANCH   4   5
ATOM      5  C   UNL     1      14.959  96.715  20.602  1.00  0.00     0.000 C 
BRANCH   5   6
ATOM      6  C   UNL     1      13.451  97.027  20.676  1.00  0.00     0.000 C 
BRANCH   6   7
ATOM      7  C   UNL     1      12.559  96.155  19.773  1.00  0.00     0.000 C 
BRANCH   7   8
ATOM      8  C   UNL     1      12.323  94.749  20.345  1.00  0.00     0.006 C 
BRANCH   8   9
ATOM      9  C   UNL     1      12.820  93.674  19.374  1.00  0.00     0.053 C 
BRANCH   9  10
ATOM     10  C   UNL     1      12.031  92.413  19.541  1.00  0.00     0.041 C 
ATOM     11  O   UNL     1      12.614  91.335  19.830  1.00  0.00    -0.550 OA
ATOM     12  O   UNL     1      10.647  92.438  19.424  1.00  0.00    -0.550 OA
ENDBRANCH   9  10
ENDBRANCH   8   9
ENDBRANCH   7   8
ENDBRANCH   6   7
ENDBRANCH   5   6
ENDBRANCH   4   5
ENDBRANCH   3   4
ENDBRANCH   1   3
BRANCH   2  13
ATOM     13  C   UNL     1      13.358  98.446  24.045  1.00  0.00     0.027 C 
BRANCH  13  14
ATOM     14  C   UNL     1      14.016  99.641  23.329  1.00  0.00     0.004 C 
BRANCH  14  15
ATOM     15  C   UNL     1      15.414 100.003  23.859  1.00  0.00     0.000 C 
BRANCH  15  16
ATOM     16  C   UNL     1      16.521  99.832  22.804  1.00  0.00     0.000 C 
BRANCH  16  17
ATOM     17  C   UNL     1      17.904  99.606  23.437  1.00  0.00    -0.000 C 
BRANCH  17  18
ATOM     18  C   UNL     1      18.115  98.146  23.873  1.00  0.00    -0.000 C 
BRANCH  18  19
ATOM     19  C   UNL     1      18.106  97.980  25.400  1.00  0.00    -0.003 C 
ATOM     20  C   UNL     1      18.909  99.064  26.121  1.00  0.00     0.004 C 
ENDBRANCH  18  19
ENDBRANCH  17  18
ENDBRANCH  16  17
ENDBRANCH  15  16
ENDBRANCH  14  15
ENDBRANCH  13  14
ENDBRANCH   2  13
TORSDOF 15
ENDMDL
MODEL 8
REMARK VINA RESULT:    -3.914      1.797      2.352
REMARK INTER + INTRA:         -10.000
REMARK INTER:                  -7.474
REMARK INTRA:                  -2.526
REMARK UNBOUND:                -2.654
REMARK SMILES CCCCCCCCC=CCCCCCCCC(=O)[O-]
REMARK SMILES IDX 10 1 9 2 11 3 12 4 13 5 14 6 15 7 16 8 17 9 18 10 19 11
REMARK SMILES IDX 20 12 8 13 7 14 6 15 5 16 4 17 3 18 2 19 1 20
REMARK H PARENT
REMARK Flexibility Score: inf
ROOT
ATOM      1  C   UNL     1      12.117  97.350  19.780  1.00  0.00    -0.031 C 
ATOM      2  C   UNL     1      11.235  98.066  20.503  1.00  0.00    -0.031 C 
ENDROOT
BRANCH   1   3
ATOM      3  C   UNL     1      13.073  96.324  20.337  1.00  0.00     0.027 C 
BRANCH   3   4
ATOM      4  C   UNL     1      14.481  96.923  20.459  1.00  0.00     0.004 C 
BRANCH   4   5
ATOM      5  C   UNL     1      15.432  96.046  21.293  1.00  0.00     0.000 C 
BRANCH   5   6
ATOM      6  C   UNL     1      15.517  96.419  22.787  1.00  0.00     0.000 C 
BRANCH   6   7
ATOM      7  C   UNL     1      15.729  95.231  23.744  1.00  0.00     0.000 C 
BRANCH   7   8
ATOM      8  C   UNL     1      14.846  95.308  24.998  1.00  0.00     0.006 C 
BRANCH   8   9
ATOM      9  C   UNL     1      13.379  95.530  24.620  1.00  0.00     0.053 C 
BRANCH   9  10
ATOM     10  C   UNL     1      12.559  94.328  24.970  1.00  0.00     0.041 C 
ATOM     11  O   UNL     1      13.089  93.187  24.999  1.00  0.00    -0.550 OA
ATOM     12  O   UNL     1      11.221  94.474  25.311  1.00  0.00    -0.550 OA
ENDBRANCH   9  10
ENDBRANCH   8   9
ENDBRANCH   7   8
ENDBRANCH   6   7
ENDBRANCH   5   6
ENDBRANCH   4   5
ENDBRANCH   3   4
ENDBRANCH   1   3
BRANCH   2  13
ATOM     13  C   UNL     1      11.063  97.982  22.000  1.00  0.00     0.027 C 
BRANCH  13  14
ATOM     14  C   UNL     1      11.613  99.209  22.750  1.00  0.00     0.004 C 
BRANCH  14  15
ATOM     15  C   UNL     1      12.993  98.989  23.394  1.00  0.00     0.000 C 
BRANCH  15  16
ATOM     16  C   UNL     1      14.090  99.878  22.784  1.00  0.00     0.000 C 
BRANCH  16  17
ATOM     17  C   UNL     1      15.353  99.935  23.659  1.00  0.00    -0.000 C 
BRANCH  17  18
ATOM     18  C   UNL     1      16.644  99.920  22.822  1.00  0.00    -0.000 C 
BRANCH  18  19
ATOM     19  C   UNL     1      17.826  99.288  23.573  1.00  0.00    -0.003 C 
ATOM     20  C   UNL     1      17.436  98.748  24.949  1.00  0.00     0.004 C 
ENDBRANCH  18  19
ENDBRANCH  17  18
ENDBRANCH  16  17
ENDBRANCH  15  16
ENDBRANCH  14  15
ENDBRANCH  13  14
ENDBRANCH   2  13
TORSDOF 15
ENDMDL
MODEL 9
REMARK VINA RESULT:    -3.914      2.092      4.605
REMARK INTER + INTRA:          -9.999
REMARK INTER:                  -7.835
REMARK INTRA:                  -2.165
REMARK UNBOUND:                -2.654
REMARK SMILES CCCCCCCCC=CCCCCCCCC(=O)[O-]
REMARK SMILES IDX 10 1 9 2 11 3 12 4 13 5 14 6 15 7 16 8 17 9 18 10 19 11
REMARK SMILES IDX 20 12 8 13 7 14 6 15 5 16 4 17 3 18 2 19 1 20
REMARK H PARENT
REMARK Flexibility Score: inf
ROOT
ATOM      1  C   UNL     1      15.498  96.598  21.330  1.00  0.00    -0.031 C 
ATOM      2  C   UNL     1      14.664  95.875  20.558  1.00  0.00    -0.031 C 
ENDROOT
BRANCH   1   3
ATOM      3  C   UNL     1      15.076  97.513  22.452  1.00  0.00     0.027 C 
BRANCH   3   4
ATOM      4  C   UNL     1      15.406  98.971  22.100  1.00  0.00     0.004 C 
BRANCH   4   5
ATOM      5  C   UNL     1      15.919  99.774  23.309  1.00  0.00     0.000 C 
BRANCH   5   6
ATOM      6  C   UNL     1      16.202  98.938  24.573  1.00  0.00     0.000 C 
BRANCH   6   7
ATOM      7  C   UNL     1      17.692  98.781  24.931  1.00  0.00     0.000 C 
BRANCH   7   8
ATOM      8  C   UNL     1      18.481  97.995  23.874  1.00  0.00     0.006 C 
BRANCH   8   9
ATOM      9  C   UNL     1      18.260  96.488  24.036  1.00  0.00     0.053 C 
BRANCH   9  10
ATOM     10  C   UNL     1      19.424  95.860  24.737  1.00  0.00     0.041 C 
ATOM     11  O   UNL     1      20.303  96.582  25.276  1.00  0.00    -0.550 OA
ATOM     12  O   UNL     1      19.512  94.478  24.836  1.00  0.00    -0.550 OA
ENDBRANCH   9  10
ENDBRANCH   8   9
ENDBRANCH   7   8
ENDBRANCH   6   7
ENDBRANCH   5   6
ENDBRANCH   4   5
ENDBRANCH   3   4
ENDBRANCH   1   3
BRANCH   2  13
ATOM     13  C   UNL     1      13.159  95.871  20.669  1.00  0.00     0.027 C 
BRANCH  13  14
ATOM     14  C   UNL     1      12.474  96.910  19.762  1.00  0.00     0.004 C 
BRANCH  14  15
ATOM     15  C   UNL     1      11.337  97.692  20.444  1.00  0.00     0.000 C 
BRANCH  15  16
ATOM     16  C   UNL     1      11.840  98.896  21.258  1.00  0.00     0.000 C 
BRANCH  16  17
ATOM     17  C   UNL     1      11.560  98.745  22.762  1.00  0.00    -0.000 C 
BRANCH  17  18
ATOM     18  C   UNL     1      12.211  99.864  23.593  1.00  0.00    -0.000 C 
BRANCH  18  19
ATOM     19  C   UNL     1      11.280 100.403  24.689  1.00  0.00    -0.003 C 
ATOM     20  C   UNL     1       9.816 100.017  24.469  1.00  0.00     0.004 C 
ENDBRANCH  18  19
ENDBRANCH  17  18
ENDBRANCH  16  17
ENDBRANCH  15  16
ENDBRANCH  14  15
ENDBRANCH  13  14
ENDBRANCH   2  13
TORSDOF 15
ENDMDL
