MODEL 1
REMARK VINA RESULT:    -3.049      0.000      0.000
REMARK INTER + INTRA:          -9.715
REMARK INTER:                  -6.971
REMARK INTRA:                  -2.744
REMARK UNBOUND:                -2.744
REMARK SMILES CCCCCCCCCCCCCCCCCCCCCCCC(=O)[O-]
REMARK SMILES IDX 13 1 14 2 15 3 16 4 17 5 18 6 19 7 20 8 21 9 22 10 23 11
REMARK SMILES IDX 24 12 25 13 26 14 12 15 11 16 10 17 9 18 8 19 7 20 6 21 5 22
REMARK SMILES IDX 4 23 3 24 2 25 1 26
REMARK H PARENT
REMARK Flexibility Score: inf
ROOT
ATOM      1  C   UNL     1      14.908   4.264  17.199  1.00  0.00     0.000 C 
ENDROOT
BRANCH   1   2
ATOM      2  C   UNL     1      15.243   3.961  15.724  1.00  0.00     0.000 C 
BRANCH   2   3
ATOM      3  C   UNL     1      16.707   4.209  15.317  1.00  0.00     0.000 C 
BRANCH   3   4
ATOM      4  C   UNL     1      17.414   5.224  16.229  1.00  0.00     0.000 C 
BRANCH   4   5
ATOM      5  C   UNL     1      18.910   4.897  16.354  1.00  0.00     0.000 C 
BRANCH   5   6
ATOM      6  C   UNL     1      19.809   5.967  15.712  1.00  0.00     0.000 C 
BRANCH   6   7
ATOM      7  C   UNL     1      19.052   7.269  15.402  1.00  0.00     0.000 C 
BRANCH   7   8
ATOM      8  C   UNL     1      19.085   7.634  13.909  1.00  0.00     0.000 C 
BRANCH   8   9
ATOM      9  C   UNL     1      19.141   6.406  12.974  1.00  0.00     0.000 C 
BRANCH   9  10
ATOM     10  C   UNL     1      18.747   6.760  11.528  1.00  0.00     0.006 C 
BRANCH  10  11
ATOM     11  C   UNL     1      18.953   5.585  10.564  1.00  0.00     0.053 C 
BRANCH  11  12
ATOM     12  C   UNL     1      17.654   4.943  10.185  1.00  0.00     0.041 C 
ATOM     13  O   UNL     1      16.920   4.425  11.067  1.00  0.00    -0.550 OA
ATOM     14  O   UNL     1      17.273   4.883   8.850  1.00  0.00    -0.550 OA
ENDBRANCH  11  12
ENDBRANCH  10  11
ENDBRANCH   9  10
ENDBRANCH   8   9
ENDBRANCH   7   8
ENDBRANCH   6   7
ENDBRANCH   5   6
ENDBRANCH   4   5
ENDBRANCH   3   4
ENDBRANCH   2   3
ENDBRANCH   1   2
BRANCH   1  15
ATOM     15  C   UNL     1      13.466   3.939  17.629  1.00  0.00     0.000 C 
BRANCH  15  16
ATOM     16  C   UNL     1      12.520   5.147  17.512  1.00  0.00     0.000 C 
BRANCH  16  17
ATOM     17  C   UNL     1      11.612   5.312  18.741  1.00  0.00     0.000 C 
BRANCH  17  18
ATOM     18  C   UNL     1      12.056   6.464  19.659  1.00  0.00    -0.000 C 
BRANCH  18  19
ATOM     19  C   UNL     1      12.285   6.009  21.113  1.00  0.00    -0.000 C 
BRANCH  19  20
ATOM     20  C   UNL     1      13.078   4.698  21.264  1.00  0.00    -0.000 C 
BRANCH  20  21
ATOM     21  C   UNL     1      14.134   4.765  22.378  1.00  0.00    -0.000 C 
BRANCH  21  22
ATOM     22  C   UNL     1      15.460   4.139  21.919  1.00  0.00    -0.000 C 
BRANCH  22  23
ATOM     23  C   UNL     1      15.860   4.560  20.493  1.00  0.00    -0.000 C 
BRANCH  23  24
ATOM     24  C   UNL     1      16.786   5.789  20.415  1.00  0.00    -0.000 C 
BRANCH  24  25
ATOM     25  C   UNL     1      16.404   6.755  19.285  1.00  0.00    -0.003 C 
ATOM     26  C   UNL     1      17.591   7.629  18.886  1.00  0.00     0.004 C 
ENDBRANCH  24  25
ENDBRANCH  23  24
ENDBRANCH  22  23
ENDBRANCH  21  22
ENDBRANCH  20  21
ENDBRANCH  19  20
ENDBRANCH  18  19
ENDBRANCH  17  18
ENDBRANCH  16  17
ENDBRANCH  15  16
ENDBRANCH   1  15
TORSDOF 22
ENDMDL
MODEL 2
REMARK VINA RESULT:    -2.886      1.670      4.435
REMARK INTER + INTRA:          -9.341
REMARK INTER:                  -7.277
REMARK INTRA:                  -2.064
REMARK UNBOUND:                -2.744
REMARK SMILES CCCCCCCCCCCCCCCCCCCCCCCC(=O)[O-]
REMARK SMILES IDX 13 1 14 2 15 3 16 4 17 5 18 6 19 7 20 8 21 9 22 10 23 11
REMARK SMILES IDX 24 12 25 13 26 14 12 15 11 16 10 17 9 18 8 19 7 20 6 21 5 22
REMARK SMILES IDX 4 23 3 24 2 25 1 26
REMARK H PARENT
REMARK Flexibility Score: inf
ROOT
ATOM      1  C   UNL     1      17.634   7.549  18.080  1.00  0.00     0.000 C 
ENDROOT
BRANCH   1   2
ATOM      2  C   UNL     1      19.114   7.840  18.402  1.00  0.00     0.000 C 
BRANCH   2   3
ATOM      3  C   UNL     1      20.089   7.677  17.222  1.00  0.00     0.000 C 
BRANCH   3   4
ATOM      4  C   UNL     1      19.431   7.034  15.990  1.00  0.00     0.000 C 
BRANCH   4   5
ATOM      5  C   UNL     1      19.659   5.516  15.978  1.00  0.00     0.000 C 
BRANCH   5   6
ATOM      6  C   UNL     1      18.347   4.717  15.908  1.00  0.00     0.000 C 
BRANCH   6   7
ATOM      7  C   UNL     1      18.155   4.009  14.557  1.00  0.00     0.000 C 
BRANCH   7   8
ATOM      8  C   UNL     1      19.426   4.031  13.690  1.00  0.00     0.000 C 
BRANCH   8   9
ATOM      9  C   UNL     1      19.207   4.646  12.290  1.00  0.00     0.000 C 
BRANCH   9  10
ATOM     10  C   UNL     1      19.052   6.176  12.347  1.00  0.00     0.006 C 
BRANCH  10  11
ATOM     11  C   UNL     1      19.743   6.876  11.169  1.00  0.00     0.053 C 
BRANCH  11  12
ATOM     12  C   UNL     1      18.812   7.067  10.012  1.00  0.00     0.041 C 
ATOM     13  O   UNL     1      18.045   6.135   9.654  1.00  0.00    -0.550 OA
ATOM     14  O   UNL     1      18.817   8.264   9.306  1.00  0.00    -0.550 OA
ENDBRANCH  11  12
ENDBRANCH  10  11
ENDBRANCH   9  10
ENDBRANCH   8   9
ENDBRANCH   7   8
ENDBRANCH   6   7
ENDBRANCH   5   6
ENDBRANCH   4   5
ENDBRANCH   3   4
ENDBRANCH   2   3
ENDBRANCH   1   2
BRANCH   1  15
ATOM     15  C   UNL     1      16.789   7.036  19.261  1.00  0.00     0.000 C 
BRANCH  15  16
ATOM     16  C   UNL     1      17.640   6.392  20.369  1.00  0.00     0.000 C 
BRANCH  16  17
ATOM     17  C   UNL     1      16.887   5.290  21.131  1.00  0.00     0.000 C 
BRANCH  17  18
ATOM     18  C   UNL     1      15.935   4.485  20.228  1.00  0.00    -0.000 C 
BRANCH  18  19
ATOM     19  C   UNL     1      14.521   4.357  20.823  1.00  0.00    -0.000 C 
BRANCH  19  20
ATOM     20  C   UNL     1      13.379   4.375  19.790  1.00  0.00    -0.000 C 
BRANCH  20  21
ATOM     21  C   UNL     1      13.465   5.569  18.827  1.00  0.00    -0.000 C 
BRANCH  21  22
ATOM     22  C   UNL     1      12.536   6.707  19.276  1.00  0.00    -0.000 C 
BRANCH  22  23
ATOM     23  C   UNL     1      11.489   6.254  20.312  1.00  0.00    -0.000 C 
BRANCH  23  24
ATOM     24  C   UNL     1      10.206   7.104  20.351  1.00  0.00    -0.000 C 
BRANCH  24  25
ATOM     25  C   UNL     1       9.022   6.436  19.639  1.00  0.00    -0.003 C 
ATOM     26  C   UNL     1       9.243   4.931  19.502  1.00  0.00     0.004 C 
ENDBRANCH  24  25
ENDBRANCH  23  24
ENDBRANCH  22  23
ENDBRANCH  21  22
ENDBRANCH  20  21
ENDBRANCH  19  20
ENDBRANCH  18  19
ENDBRANCH  17  18
ENDBRANCH  16  17
ENDBRANCH  15  16
ENDBRANCH   1  15
TORSDOF 22
ENDMDL
MODEL 3
REMARK VINA RESULT:    -2.819      1.484      2.683
REMARK INTER + INTRA:          -9.188
REMARK INTER:                  -6.177
REMARK INTRA:                  -3.011
REMARK UNBOUND:                -2.744
REMARK SMILES CCCCCCCCCCCCCCCCCCCCCCCC(=O)[O-]
REMARK SMILES IDX 13 1 14 2 15 3 16 4 17 5 18 6 19 7 20 8 21 9 22 10 23 11
REMARK SMILES IDX 24 12 25 13 26 14 12 15 11 16 10 17 9 18 8 19 7 20 6 21 5 22
REMARK SMILES IDX 4 23 3 24 2 25 1 26
REMARK H PARENT
REMARK Flexibility Score: inf
ROOT
ATOM      1  C   UNL     1      12.251   5.212  17.535  1.00  0.00     0.000 C 
ENDROOT
BRANCH   1   2
ATOM      2  C   UNL     1      13.047   3.891  17.594  1.00  0.00     0.000 C 
BRANCH   2   3
ATOM      3  C   UNL     1      14.355   3.875  16.783  1.00  0.00     0.000 C 
BRANCH   3   4
ATOM      4  C   UNL     1      15.324   4.995  17.193  1.00  0.00     0.000 C 
BRANCH   4   5
ATOM      5  C   UNL     1      16.769   4.633  16.817  1.00  0.00     0.000 C 
BRANCH   5   6
ATOM      6  C   UNL     1      17.448   5.711  15.956  1.00  0.00     0.000 C 
BRANCH   6   7
ATOM      7  C   UNL     1      18.766   5.226  15.330  1.00  0.00     0.000 C 
BRANCH   7   8
ATOM      8  C   UNL     1      18.592   3.942  14.500  1.00  0.00     0.000 C 
BRANCH   8   9
ATOM      9  C   UNL     1      19.205   4.033  13.086  1.00  0.00     0.000 C 
BRANCH   9  10
ATOM     10  C   UNL     1      18.143   3.876  11.983  1.00  0.00     0.006 C 
BRANCH  10  11
ATOM     11  C   UNL     1      17.589   5.226  11.511  1.00  0.00     0.053 C 
BRANCH  11  12
ATOM     12  C   UNL     1      18.679   6.232  11.303  1.00  0.00     0.041 C 
ATOM     13  O   UNL     1      18.871   7.144  12.149  1.00  0.00    -0.550 OA
ATOM     14  O   UNL     1      19.460   6.182  10.154  1.00  0.00    -0.550 OA
ENDBRANCH  11  12
ENDBRANCH  10  11
ENDBRANCH   9  10
ENDBRANCH   8   9
ENDBRANCH   7   8
ENDBRANCH   6   7
ENDBRANCH   5   6
ENDBRANCH   4   5
ENDBRANCH   3   4
ENDBRANCH   2   3
ENDBRANCH   1   2
BRANCH   1  15
ATOM     15  C   UNL     1      11.452   5.559  18.805  1.00  0.00     0.000 C 
BRANCH  15  16
ATOM     16  C   UNL     1      12.247   6.431  19.792  1.00  0.00     0.000 C 
BRANCH  16  17
ATOM     17  C   UNL     1      12.312   5.825  21.203  1.00  0.00     0.000 C 
BRANCH  17  18
ATOM     18  C   UNL     1      13.079   4.491  21.244  1.00  0.00    -0.000 C 
BRANCH  18  19
ATOM     19  C   UNL     1      14.582   4.681  21.521  1.00  0.00    -0.000 C 
BRANCH  19  20
ATOM     20  C   UNL     1      15.519   4.054  20.471  1.00  0.00    -0.000 C 
BRANCH  20  21
ATOM     21  C   UNL     1      16.987   4.462  20.663  1.00  0.00    -0.000 C 
BRANCH  21  22
ATOM     22  C   UNL     1      17.103   5.692  21.576  1.00  0.00    -0.000 C 
BRANCH  22  23
ATOM     23  C   UNL     1      18.070   6.758  21.028  1.00  0.00    -0.000 C 
BRANCH  23  24
ATOM     24  C   UNL     1      17.641   7.399  19.695  1.00  0.00    -0.000 C 
BRANCH  24  25
ATOM     25  C   UNL     1      18.796   7.530  18.694  1.00  0.00    -0.003 C 
ATOM     26  C   UNL     1      19.721   6.317  18.762  1.00  0.00     0.004 C 
ENDBRANCH  24  25
ENDBRANCH  23  24
ENDBRANCH  22  23
ENDBRANCH  21  22
ENDBRANCH  20  21
ENDBRANCH  19  20
ENDBRANCH  18  19
ENDBRANCH  17  18
ENDBRANCH  16  17
ENDBRANCH  15  16
ENDBRANCH   1  15
TORSDOF 22
ENDMDL
MODEL 4
REMARK VINA RESULT:    -2.794      3.826      7.504
REMARK INTER + INTRA:          -9.132
REMARK INTER:                  -6.590
REMARK INTRA:                  -2.542
REMARK UNBOUND:                -2.744
REMARK SMILES CCCCCCCCCCCCCCCCCCCCCCCC(=O)[O-]
REMARK SMILES IDX 13 1 14 2 15 3 16 4 17 5 18 6 19 7 20 8 21 9 22 10 23 11
REMARK SMILES IDX 24 12 25 13 26 14 12 15 11 16 10 17 9 18 8 19 7 20 6 21 5 22
REMARK SMILES IDX 4 23 3 24 2 25 1 26
REMARK H PARENT
REMARK Flexibility Score: inf
ROOT
ATOM      1  C   UNL     1      19.755   6.152  13.939  1.00  0.00     0.000 C 
ENDROOT
BRANCH   1   2
ATOM      2  C   UNL     1      18.903   4.866  13.979  1.00  0.00     0.000 C 
BRANCH   2   3
ATOM      3  C   UNL     1      18.036   4.690  15.239  1.00  0.00     0.000 C 
BRANCH   3   4
ATOM      4  C   UNL     1      16.602   4.241  14.917  1.00  0.00     0.000 C 
BRANCH   4   5
ATOM      5  C   UNL     1      15.783   4.065  16.204  1.00  0.00     0.000 C 
BRANCH   5   6
ATOM      6  C   UNL     1      15.838   5.300  17.119  1.00  0.00     0.000 C 
BRANCH   6   7
ATOM      7  C   UNL     1      14.915   5.172  18.342  1.00  0.00     0.000 C 
BRANCH   7   8
ATOM      8  C   UNL     1      13.490   4.731  17.967  1.00  0.00     0.000 C 
BRANCH   8   9
ATOM      9  C   UNL     1      12.405   5.765  18.341  1.00  0.00     0.000 C 
BRANCH   9  10
ATOM     10  C   UNL     1      12.074   5.741  19.844  1.00  0.00     0.006 C 
BRANCH  10  11
ATOM     11  C   UNL     1      11.016   6.784  20.225  1.00  0.00     0.053 C 
BRANCH  11  12
ATOM     12  C   UNL     1       9.632   6.319  19.890  1.00  0.00     0.041 C 
ATOM     13  O   UNL     1       8.674   7.137  19.873  1.00  0.00    -0.550 OA
ATOM     14  O   UNL     1       9.394   4.974  19.634  1.00  0.00    -0.550 OA
ENDBRANCH  11  12
ENDBRANCH  10  11
ENDBRANCH   9  10
ENDBRANCH   8   9
ENDBRANCH   7   8
ENDBRANCH   6   7
ENDBRANCH   5   6
ENDBRANCH   4   5
ENDBRANCH   3   4
ENDBRANCH   2   3
ENDBRANCH   1   2
BRANCH   1  15
ATOM     15  C   UNL     1      19.064   7.418  14.478  1.00  0.00     0.000 C 
BRANCH  15  16
ATOM     16  C   UNL     1      19.920   8.171  15.511  1.00  0.00     0.000 C 
BRANCH  16  17
ATOM     17  C   UNL     1      19.345   8.085  16.935  1.00  0.00     0.000 C 
BRANCH  17  18
ATOM     18  C   UNL     1      19.815   6.831  17.692  1.00  0.00    -0.000 C 
BRANCH  18  19
ATOM     19  C   UNL     1      18.800   6.365  18.754  1.00  0.00    -0.000 C 
BRANCH  19  20
ATOM     20  C   UNL     1      18.270   7.478  19.676  1.00  0.00    -0.000 C 
BRANCH  20  21
ATOM     21  C   UNL     1      19.055   7.586  20.992  1.00  0.00    -0.000 C 
BRANCH  21  22
ATOM     22  C   UNL     1      18.112   7.844  22.177  1.00  0.00    -0.000 C 
BRANCH  22  23
ATOM     23  C   UNL     1      17.792   6.568  22.978  1.00  0.00    -0.000 C 
BRANCH  23  24
ATOM     24  C   UNL     1      18.482   5.290  22.465  1.00  0.00    -0.000 C 
BRANCH  24  25
ATOM     25  C   UNL     1      17.496   4.270  21.880  1.00  0.00    -0.003 C 
ATOM     26  C   UNL     1      16.097   4.868  21.757  1.00  0.00     0.004 C 
ENDBRANCH  24  25
ENDBRANCH  23  24
ENDBRANCH  22  23
ENDBRANCH  21  22
ENDBRANCH  20  21
ENDBRANCH  19  20
ENDBRANCH  18  19
ENDBRANCH  17  18
ENDBRANCH  16  17
ENDBRANCH  15  16
ENDBRANCH   1  15
TORSDOF 22
ENDMDL
MODEL 5
REMARK VINA RESULT:    -2.752      3.650      8.546
REMARK INTER + INTRA:          -9.036
REMARK INTER:                  -6.834
REMARK INTRA:                  -2.202
REMARK UNBOUND:                -2.744
REMARK SMILES CCCCCCCCCCCCCCCCCCCCCCCC(=O)[O-]
REMARK SMILES IDX 13 1 14 2 15 3 16 4 17 5 18 6 19 7 20 8 21 9 22 10 23 11
REMARK SMILES IDX 24 12 25 13 26 14 12 15 11 16 10 17 9 18 8 19 7 20 6 21 5 22
REMARK SMILES IDX 4 23 3 24 2 25 1 26
REMARK H PARENT
REMARK Flexibility Score: inf
ROOT
ATOM      1  C   UNL     1      13.061   5.307  18.167  1.00  0.00     0.000 C 
ENDROOT
BRANCH   1   2
ATOM      2  C   UNL     1      13.114   6.709  18.808  1.00  0.00     0.000 C 
BRANCH   2   3
ATOM      3  C   UNL     1      12.077   6.965  19.917  1.00  0.00     0.000 C 
BRANCH   3   4
ATOM      4  C   UNL     1      11.746   5.701  20.726  1.00  0.00     0.000 C 
BRANCH   4   5
ATOM      5  C   UNL     1      12.753   5.505  21.869  1.00  0.00     0.000 C 
BRANCH   5   6
ATOM      6  C   UNL     1      13.608   4.239  21.700  1.00  0.00     0.000 C 
BRANCH   6   7
ATOM      7  C   UNL     1      14.876   4.260  22.569  1.00  0.00     0.000 C 
BRANCH   7   8
ATOM      8  C   UNL     1      16.167   4.328  21.735  1.00  0.00     0.000 C 
BRANCH   8   9
ATOM      9  C   UNL     1      16.159   5.451  20.674  1.00  0.00     0.000 C 
BRANCH   9  10
ATOM     10  C   UNL     1      17.565   5.728  20.112  1.00  0.00     0.006 C 
BRANCH  10  11
ATOM     11  C   UNL     1      17.954   7.208  20.219  1.00  0.00     0.053 C 
BRANCH  11  12
ATOM     12  C   UNL     1      18.987   7.436  21.279  1.00  0.00     0.041 C 
ATOM     13  O   UNL     1      19.474   6.461  21.910  1.00  0.00    -0.550 OA
ATOM     14  O   UNL     1      19.385   8.729  21.594  1.00  0.00    -0.550 OA
ENDBRANCH  11  12
ENDBRANCH  10  11
ENDBRANCH   9  10
ENDBRANCH   8   9
ENDBRANCH   7   8
ENDBRANCH   6   7
ENDBRANCH   5   6
ENDBRANCH   4   5
ENDBRANCH   3   4
ENDBRANCH   2   3
ENDBRANCH   1   2
BRANCH   1  15
ATOM     15  C   UNL     1      14.428   4.647  17.909  1.00  0.00     0.000 C 
BRANCH  15  16
ATOM     16  C   UNL     1      14.477   3.875  16.579  1.00  0.00     0.000 C 
BRANCH  16  17
ATOM     17  C   UNL     1      15.724   4.208  15.744  1.00  0.00     0.000 C 
BRANCH  17  18
ATOM     18  C   UNL     1      16.766   5.025  16.529  1.00  0.00    -0.000 C 
BRANCH  18  19
ATOM     19  C   UNL     1      18.212   4.708  16.102  1.00  0.00    -0.000 C 
BRANCH  19  20
ATOM     20  C   UNL     1      18.391   4.392  14.606  1.00  0.00    -0.000 C 
BRANCH  20  21
ATOM     21  C   UNL     1      19.297   5.404  13.888  1.00  0.00    -0.000 C 
BRANCH  21  22
ATOM     22  C   UNL     1      20.000   4.758  12.685  1.00  0.00    -0.000 C 
BRANCH  22  23
ATOM     23  C   UNL     1      19.993   5.654  11.432  1.00  0.00    -0.000 C 
BRANCH  23  24
ATOM     24  C   UNL     1      18.712   6.488  11.239  1.00  0.00    -0.000 C 
BRANCH  24  25
ATOM     25  C   UNL     1      18.683   7.239   9.901  1.00  0.00    -0.003 C 
ATOM     26  C   UNL     1      19.955   8.061   9.706  1.00  0.00     0.004 C 
ENDBRANCH  24  25
ENDBRANCH  23  24
ENDBRANCH  22  23
ENDBRANCH  21  22
ENDBRANCH  20  21
ENDBRANCH  19  20
ENDBRANCH  18  19
ENDBRANCH  17  18
ENDBRANCH  16  17
ENDBRANCH  15  16
ENDBRANCH   1  15
TORSDOF 22
ENDMDL
MODEL 6
REMARK VINA RESULT:    -2.503      2.770      5.015
REMARK INTER + INTRA:          -8.465
REMARK INTER:                  -6.365
REMARK INTRA:                  -2.100
REMARK UNBOUND:                -2.744
REMARK SMILES CCCCCCCCCCCCCCCCCCCCCCCC(=O)[O-]
REMARK SMILES IDX 13 1 14 2 15 3 16 4 17 5 18 6 19 7 20 8 21 9 22 10 23 11
REMARK SMILES IDX 24 12 25 13 26 14 12 15 11 16 10 17 9 18 8 19 7 20 6 21 5 22
REMARK SMILES IDX 4 23 3 24 2 25 1 26
REMARK H PARENT
REMARK Flexibility Score: inf
ROOT
ATOM      1  C   UNL     1      15.884   4.234  15.548  1.00  0.00     0.000 C 
ENDROOT
BRANCH   1   2
ATOM      2  C   UNL     1      16.919   4.108  14.412  1.00  0.00     0.000 C 
BRANCH   2   3
ATOM      3  C   UNL     1      16.330   3.912  13.004  1.00  0.00     0.000 C 
BRANCH   3   4
ATOM      4  C   UNL     1      17.379   4.070  11.891  1.00  0.00     0.000 C 
BRANCH   4   5
ATOM      5  C   UNL     1      18.801   3.943  12.459  1.00  0.00     0.000 C 
BRANCH   5   6
ATOM      6  C   UNL     1      19.712   5.113  12.051  1.00  0.00     0.000 C 
BRANCH   6   7
ATOM      7  C   UNL     1      18.976   6.462  12.044  1.00  0.00     0.000 C 
BRANCH   7   8
ATOM      8  C   UNL     1      19.519   7.441  13.098  1.00  0.00     0.000 C 
BRANCH   8   9
ATOM      9  C   UNL     1      19.700   6.806  14.495  1.00  0.00     0.000 C 
BRANCH   9  10
ATOM     10  C   UNL     1      18.905   7.555  15.579  1.00  0.00     0.006 C 
BRANCH  10  11
ATOM     11  C   UNL     1      19.724   7.766  16.860  1.00  0.00     0.053 C 
BRANCH  11  12
ATOM     12  C   UNL     1      18.879   7.627  18.088  1.00  0.00     0.041 C 
ATOM     13  O   UNL     1      17.624   7.563  17.992  1.00  0.00    -0.550 OA
ATOM     14  O   UNL     1      19.475   7.604  19.343  1.00  0.00    -0.550 OA
ENDBRANCH  11  12
ENDBRANCH  10  11
ENDBRANCH   9  10
ENDBRANCH   8   9
ENDBRANCH   7   8
ENDBRANCH   6   7
ENDBRANCH   5   6
ENDBRANCH   4   5
ENDBRANCH   3   4
ENDBRANCH   2   3
ENDBRANCH   1   2
BRANCH   1  15
ATOM     15  C   UNL     1      16.469   4.485  16.951  1.00  0.00     0.000 C 
BRANCH  15  16
ATOM     16  C   UNL     1      15.607   3.885  18.074  1.00  0.00     0.000 C 
BRANCH  16  17
ATOM     17  C   UNL     1      15.201   4.924  19.132  1.00  0.00     0.000 C 
BRANCH  17  18
ATOM     18  C   UNL     1      16.307   5.179  20.172  1.00  0.00    -0.000 C 
BRANCH  18  19
ATOM     19  C   UNL     1      15.808   5.015  21.620  1.00  0.00    -0.000 C 
BRANCH  19  20
ATOM     20  C   UNL     1      14.569   4.114  21.780  1.00  0.00    -0.000 C 
BRANCH  20  21
ATOM     21  C   UNL     1      13.379   4.846  22.419  1.00  0.00    -0.000 C 
BRANCH  21  22
ATOM     22  C   UNL     1      12.657   5.727  21.389  1.00  0.00    -0.000 C 
BRANCH  22  23
ATOM     23  C   UNL     1      11.634   4.946  20.542  1.00  0.00    -0.000 C 
BRANCH  23  24
ATOM     24  C   UNL     1      10.942   5.770  19.440  1.00  0.00    -0.000 C 
BRANCH  24  25
ATOM     25  C   UNL     1       9.421   5.859  19.626  1.00  0.00    -0.003 C 
ATOM     26  C   UNL     1       8.975   7.306  19.820  1.00  0.00     0.004 C 
ENDBRANCH  24  25
ENDBRANCH  23  24
ENDBRANCH  22  23
ENDBRANCH  21  22
ENDBRANCH  20  21
ENDBRANCH  19  20
ENDBRANCH  18  19
ENDBRANCH  17  18
ENDBRANCH  16  17
ENDBRANCH  15  16
ENDBRANCH   1  15
TORSDOF 22
ENDMDL
MODEL 7
REMARK VINA RESULT:    -2.458      3.403      8.570
REMARK INTER + INTRA:          -8.362
REMARK INTER:                  -6.056
REMARK INTRA:                  -2.306
REMARK UNBOUND:                -2.744
REMARK SMILES CCCCCCCCCCCCCCCCCCCCCCCC(=O)[O-]
REMARK SMILES IDX 13 1 14 2 15 3 16 4 17 5 18 6 19 7 20 8 21 9 22 10 23 11
REMARK SMILES IDX 24 12 25 13 26 14 12 15 11 16 10 17 9 18 8 19 7 20 6 21 5 22
REMARK SMILES IDX 4 23 3 24 2 25 1 26
REMARK H PARENT
REMARK Flexibility Score: inf
ROOT
ATOM      1  C   UNL     1      14.558   3.875  17.068  1.00  0.00     0.000 C 
ENDROOT
BRANCH   1   2
ATOM      2  C   UNL     1      13.595   4.980  17.548  1.00  0.00     0.000 C 
BRANCH   2   3
ATOM      3  C   UNL     1      12.184   4.501  17.936  1.00  0.00     0.000 C 
BRANCH   3   4
ATOM      4  C   UNL     1      11.372   5.575  18.677  1.00  0.00     0.000 C 
BRANCH   4   5
ATOM      5  C   UNL     1      12.295   6.486  19.501  1.00  0.00     0.000 C 
BRANCH   5   6
ATOM      6  C   UNL     1      12.367   6.079  20.982  1.00  0.00     0.000 C 
BRANCH   6   7
ATOM      7  C   UNL     1      12.646   4.579  21.171  1.00  0.00     0.000 C 
BRANCH   7   8
ATOM      8  C   UNL     1      14.031   4.305  21.783  1.00  0.00     0.000 C 
BRANCH   8   9
ATOM      9  C   UNL     1      15.192   4.455  20.775  1.00  0.00     0.000 C 
BRANCH   9  10
ATOM     10  C   UNL     1      16.566   4.431  21.468  1.00  0.00     0.006 C 
BRANCH  10  11
ATOM     11  C   UNL     1      16.850   5.722  22.246  1.00  0.00     0.053 C 
BRANCH  11  12
ATOM     12  C   UNL     1      18.044   6.446  21.704  1.00  0.00     0.041 C 
ATOM     13  O   UNL     1      19.206   6.054  21.988  1.00  0.00    -0.550 OA
ATOM     14  O   UNL     1      17.872   7.576  20.915  1.00  0.00    -0.550 OA
ENDBRANCH  11  12
ENDBRANCH  10  11
ENDBRANCH   9  10
ENDBRANCH   8   9
ENDBRANCH   7   8
ENDBRANCH   6   7
ENDBRANCH   5   6
ENDBRANCH   4   5
ENDBRANCH   3   4
ENDBRANCH   2   3
ENDBRANCH   1   2
BRANCH   1  15
ATOM     15  C   UNL     1      16.055   4.171  17.271  1.00  0.00     0.000 C 
BRANCH  15  16
ATOM     16  C   UNL     1      16.344   5.663  17.505  1.00  0.00     0.000 C 
BRANCH  16  17
ATOM     17  C   UNL     1      17.823   5.940  17.819  1.00  0.00     0.000 C 
BRANCH  17  18
ATOM     18  C   UNL     1      18.480   6.891  16.802  1.00  0.00    -0.000 C 
BRANCH  18  19
ATOM     19  C   UNL     1      19.491   6.173  15.888  1.00  0.00    -0.000 C 
BRANCH  19  20
ATOM     20  C   UNL     1      19.348   4.641  15.842  1.00  0.00    -0.000 C 
BRANCH  20  21
ATOM     21  C   UNL     1      19.405   4.080  14.412  1.00  0.00    -0.000 C 
BRANCH  21  22
ATOM     22  C   UNL     1      18.605   4.961  13.442  1.00  0.00    -0.000 C 
BRANCH  22  23
ATOM     23  C   UNL     1      18.904   4.652  11.963  1.00  0.00    -0.000 C 
BRANCH  23  24
ATOM     24  C   UNL     1      17.807   5.089  10.975  1.00  0.00    -0.000 C 
BRANCH  24  25
ATOM     25  C   UNL     1      18.286   6.161   9.986  1.00  0.00    -0.003 C 
ATOM     26  C   UNL     1      19.249   7.137  10.657  1.00  0.00     0.004 C 
ENDBRANCH  24  25
ENDBRANCH  23  24
ENDBRANCH  22  23
ENDBRANCH  21  22
ENDBRANCH  20  21
ENDBRANCH  19  20
ENDBRANCH  18  19
ENDBRANCH  17  18
ENDBRANCH  16  17
ENDBRANCH  15  16
ENDBRANCH   1  15
TORSDOF 22
ENDMDL
MODEL 8
REMARK VINA RESULT:    -2.386      1.888      3.814
REMARK INTER + INTRA:          -8.199
REMARK INTER:                  -5.595
REMARK INTRA:                  -2.604
REMARK UNBOUND:                -2.744
REMARK SMILES CCCCCCCCCCCCCCCCCCCCCCCC(=O)[O-]
REMARK SMILES IDX 13 1 14 2 15 3 16 4 17 5 18 6 19 7 20 8 21 9 22 10 23 11
REMARK SMILES IDX 24 12 25 13 26 14 12 15 11 16 10 17 9 18 8 19 7 20 6 21 5 22
REMARK SMILES IDX 4 23 3 24 2 25 1 26
REMARK H PARENT
REMARK Flexibility Score: inf
ROOT
ATOM      1  C   UNL     1      15.670   6.106  17.943  1.00  0.00     0.000 C 
ENDROOT
BRANCH   1   2
ATOM      2  C   UNL     1      16.919   5.621  17.179  1.00  0.00     0.000 C 
BRANCH   2   3
ATOM      3  C   UNL     1      17.250   4.126  17.343  1.00  0.00     0.000 C 
BRANCH   3   4
ATOM      4  C   UNL     1      18.736   3.875  17.645  1.00  0.00     0.000 C 
BRANCH   4   5
ATOM      5  C   UNL     1      19.630   4.758  16.761  1.00  0.00     0.000 C 
BRANCH   5   6
ATOM      6  C   UNL     1      19.984   4.094  15.420  1.00  0.00     0.000 C 
BRANCH   6   7
ATOM      7  C   UNL     1      19.524   4.924  14.210  1.00  0.00     0.000 C 
BRANCH   7   8
ATOM      8  C   UNL     1      19.098   4.050  13.018  1.00  0.00     0.000 C 
BRANCH   8   9
ATOM      9  C   UNL     1      17.583   4.105  12.721  1.00  0.00     0.000 C 
BRANCH   9  10
ATOM     10  C   UNL     1      17.274   4.881  11.428  1.00  0.00     0.006 C 
BRANCH  10  11
ATOM     11  C   UNL     1      18.547   5.311  10.688  1.00  0.00     0.053 C 
BRANCH  11  12
ATOM     12  C   UNL     1      18.757   6.792  10.758  1.00  0.00     0.041 C 
ATOM     13  O   UNL     1      19.012   7.346  11.861  1.00  0.00    -0.550 OA
ATOM     14  O   UNL     1      18.635   7.566   9.611  1.00  0.00    -0.550 OA
ENDBRANCH  11  12
ENDBRANCH  10  11
ENDBRANCH   9  10
ENDBRANCH   8   9
ENDBRANCH   7   8
ENDBRANCH   6   7
ENDBRANCH   5   6
ENDBRANCH   4   5
ENDBRANCH   3   4
ENDBRANCH   2   3
ENDBRANCH   1   2
BRANCH   1  15
ATOM     15  C   UNL     1      15.906   6.501  19.413  1.00  0.00     0.000 C 
BRANCH  15  16
ATOM     16  C   UNL     1      17.396   6.690  19.748  1.00  0.00     0.000 C 
BRANCH  16  17
ATOM     17  C   UNL     1      17.763   6.158  21.143  1.00  0.00     0.000 C 
BRANCH  17  18
ATOM     18  C   UNL     1      17.854   4.622  21.190  1.00  0.00    -0.000 C 
BRANCH  18  19
ATOM     19  C   UNL     1      16.487   3.955  21.434  1.00  0.00    -0.000 C 
BRANCH  19  20
ATOM     20  C   UNL     1      15.702   4.508  22.637  1.00  0.00    -0.000 C 
BRANCH  20  21
ATOM     21  C   UNL     1      14.230   4.798  22.306  1.00  0.00    -0.000 C 
BRANCH  21  22
ATOM     22  C   UNL     1      13.784   4.025  21.056  1.00  0.00    -0.000 C 
BRANCH  22  23
ATOM     23  C   UNL     1      12.463   4.551  20.464  1.00  0.00    -0.000 C 
BRANCH  23  24
ATOM     24  C   UNL     1      12.205   6.053  20.686  1.00  0.00    -0.000 C 
BRANCH  24  25
ATOM     25  C   UNL     1      10.752   6.459  20.405  1.00  0.00    -0.003 C 
ATOM     26  C   UNL     1      10.210   5.741  19.172  1.00  0.00     0.004 C 
ENDBRANCH  24  25
ENDBRANCH  23  24
ENDBRANCH  22  23
ENDBRANCH  21  22
ENDBRANCH  20  21
ENDBRANCH  19  20
ENDBRANCH  18  19
ENDBRANCH  17  18
ENDBRANCH  16  17
ENDBRANCH  15  16
ENDBRANCH   1  15
TORSDOF 22
ENDMDL
