MODEL 1
REMARK VINA RESULT:    -5.496      0.000      0.000
REMARK INTER + INTRA:          -6.723
REMARK INTER:                  -6.460
REMARK INTRA:                  -0.263
REMARK UNBOUND:                -0.263
REMARK SMILES O=c1cc(-c2ccc(O)c(O)c2)oc2cc(O)cc(O)c12
REMARK SMILES IDX 4 1 3 2 2 3 1 4 21 5 19 6 18 7 16 8 15 9 14 10 13 11 5 12
REMARK SMILES IDX 6 13 7 14 8 15 12 16 10 17 9 18 11 20 20 22 17 24
REMARK H PARENT 9 19 11 21 20 23 17 25
REMARK Flexibility Score: inf
ROOT
ATOM      1  C   UNL     1       5.285  12.010   8.427  1.00  0.00     0.138 A 
ATOM      2  C   UNL     1       6.403  12.376   9.189  1.00  0.00     0.100 A 
ATOM      3  C   UNL     1       7.633  12.572   8.560  1.00  0.00     0.197 A 
ATOM      4  O   UNL     1       8.630  12.845   9.278  1.00  0.00    -0.289 OA
ATOM      5  C   UNL     1       7.735  12.436   7.154  1.00  0.00     0.107 A 
ATOM      6  C   UNL     1       8.929  12.645   6.400  1.00  0.00     0.134 A 
ATOM      7  C   UNL     1       8.931  12.384   5.023  1.00  0.00     0.093 A 
ATOM      8  C   UNL     1       7.770  11.978   4.366  1.00  0.00     0.123 A 
ATOM      9  C   UNL     1       6.585  11.819   5.084  1.00  0.00     0.094 A 
ATOM     10  C   UNL     1       6.559  12.038   6.463  1.00  0.00     0.146 A 
ATOM     11  O   UNL     1       5.414  11.858   7.112  1.00  0.00    -0.456 OA
ENDROOT
BRANCH   1  12
ATOM     12  C   UNL     1       3.953  11.792   9.043  1.00  0.00     0.021 A 
ATOM     13  C   UNL     1       3.007  12.832   9.030  1.00  0.00     0.016 A 
ATOM     14  C   UNL     1       1.743  12.651   9.597  1.00  0.00     0.051 A 
ATOM     15  C   UNL     1       1.398  11.423  10.177  1.00  0.00     0.157 A 
ATOM     16  C   UNL     1       3.594  10.556   9.617  1.00  0.00     0.062 A 
ATOM     17  C   UNL     1       2.327  10.371  10.184  1.00  0.00     0.158 A 
BRANCH  15  18
ATOM     18  O   UNL     1       0.136  11.246  10.743  1.00  0.00    -0.504 OA
ATOM     19  H   UNL     1      -0.082  10.441  11.317  1.00  0.00     0.293 HD
ENDBRANCH  15  18
BRANCH  17  20
ATOM     20  O   UNL     1       2.011   9.134  10.744  1.00  0.00    -0.504 OA
ATOM     21  H   UNL     1       1.847   8.312  10.176  1.00  0.00     0.293 HD
ENDBRANCH  17  20
ENDBRANCH   1  12
BRANCH   6  22
ATOM     22  O   UNL     1      10.125  13.125   6.943  1.00  0.00    -0.507 OA
ATOM     23  H   UNL     1      10.197  13.713   7.757  1.00  0.00     0.293 HD
ENDBRANCH   6  22
BRANCH   8  24
ATOM     24  O   UNL     1       7.806  11.743   2.993  1.00  0.00    -0.508 OA
ATOM     25  H   UNL     1       8.650  11.426   2.530  1.00  0.00     0.293 HD
ENDBRANCH   8  24
TORSDOF 5
ENDMDL
MODEL 2
REMARK VINA RESULT:    -5.279      1.639      7.146
REMARK INTER + INTRA:          -6.467
REMARK INTER:                  -6.195
REMARK INTRA:                  -0.273
REMARK UNBOUND:                -0.263
REMARK SMILES O=c1cc(-c2ccc(O)c(O)c2)oc2cc(O)cc(O)c12
REMARK SMILES IDX 4 1 3 2 2 3 1 4 21 5 19 6 18 7 16 8 15 9 14 10 13 11 5 12
REMARK SMILES IDX 6 13 7 14 8 15 12 16 10 17 9 18 11 20 20 22 17 24
REMARK H PARENT 9 19 11 21 20 23 17 25
REMARK Flexibility Score: inf
ROOT
ATOM      1  C   UNL     1       5.416  10.798   7.212  1.00  0.00     0.138 A 
ATOM      2  C   UNL     1       5.434   9.513   7.770  1.00  0.00     0.100 A 
ATOM      3  C   UNL     1       4.477   9.160   8.723  1.00  0.00     0.197 A 
ATOM      4  O   UNL     1       4.553   8.019   9.246  1.00  0.00    -0.289 OA
ATOM      5  C   UNL     1       3.476  10.090   9.092  1.00  0.00     0.107 A 
ATOM      6  C   UNL     1       2.428   9.831  10.028  1.00  0.00     0.134 A 
ATOM      7  C   UNL     1       1.552  10.864  10.387  1.00  0.00     0.093 A 
ATOM      8  C   UNL     1       1.649  12.127   9.804  1.00  0.00     0.123 A 
ATOM      9  C   UNL     1       2.637  12.377   8.851  1.00  0.00     0.094 A 
ATOM     10  C   UNL     1       3.548  11.378   8.497  1.00  0.00     0.146 A 
ATOM     11  O   UNL     1       4.484  11.664   7.599  1.00  0.00    -0.456 OA
ENDROOT
BRANCH   1  12
ATOM     12  C   UNL     1       6.407  11.225   6.192  1.00  0.00     0.021 A 
ATOM     13  C   UNL     1       5.957  11.791   4.986  1.00  0.00     0.016 A 
ATOM     14  C   UNL     1       6.868  12.208   4.013  1.00  0.00     0.051 A 
ATOM     15  C   UNL     1       8.246  12.076   4.232  1.00  0.00     0.157 A 
ATOM     16  C   UNL     1       7.794  11.107   6.410  1.00  0.00     0.062 A 
ATOM     17  C   UNL     1       8.709  11.526   5.438  1.00  0.00     0.158 A 
BRANCH  15  18
ATOM     18  O   UNL     1       9.152  12.491   3.257  1.00  0.00    -0.504 OA
ATOM     19  H   UNL     1       9.532  11.846   2.575  1.00  0.00     0.293 HD
ENDBRANCH  15  18
BRANCH  17  20
ATOM     20  O   UNL     1      10.074  11.391   5.690  1.00  0.00    -0.504 OA
ATOM     21  H   UNL     1      10.437  10.695   6.329  1.00  0.00     0.293 HD
ENDBRANCH  17  20
ENDBRANCH   1  12
BRANCH   6  22
ATOM     22  O   UNL     1       2.191   8.584  10.613  1.00  0.00    -0.507 OA
ATOM     23  H   UNL     1       2.282   7.697  10.143  1.00  0.00     0.293 HD
ENDBRANCH   6  22
BRANCH   8  24
ATOM     24  O   UNL     1       0.751  13.125  10.174  1.00  0.00    -0.508 OA
ATOM     25  H   UNL     1       0.160  13.587   9.492  1.00  0.00     0.293 HD
ENDBRANCH   8  24
TORSDOF 5
ENDMDL
MODEL 3
REMARK VINA RESULT:    -4.652      0.608      1.444
REMARK INTER + INTRA:          -5.731
REMARK INTER:                  -5.463
REMARK INTRA:                  -0.268
REMARK UNBOUND:                -0.263
REMARK SMILES O=c1cc(-c2ccc(O)c(O)c2)oc2cc(O)cc(O)c12
REMARK SMILES IDX 4 1 3 2 2 3 1 4 21 5 19 6 18 7 16 8 15 9 14 10 13 11 5 12
REMARK SMILES IDX 6 13 7 14 8 15 12 16 10 17 9 18 11 20 20 22 17 24
REMARK H PARENT 9 19 11 21 20 23 17 25
REMARK Flexibility Score: inf
ROOT
ATOM      1  C   UNL     1       5.396  11.728   8.400  1.00  0.00     0.138 A 
ATOM      2  C   UNL     1       6.512  12.147   9.137  1.00  0.00     0.100 A 
ATOM      3  C   UNL     1       7.712  12.418   8.478  1.00  0.00     0.197 A 
ATOM      4  O   UNL     1       8.710  12.739   9.173  1.00  0.00    -0.289 OA
ATOM      5  C   UNL     1       7.783  12.302   7.069  1.00  0.00     0.107 A 
ATOM      6  C   UNL     1       8.944  12.585   6.287  1.00  0.00     0.134 A 
ATOM      7  C   UNL     1       8.923  12.338   4.908  1.00  0.00     0.093 A 
ATOM      8  C   UNL     1       7.770  11.874   4.276  1.00  0.00     0.123 A 
ATOM      9  C   UNL     1       6.615  11.642   5.023  1.00  0.00     0.094 A 
ATOM     10  C   UNL     1       6.614  11.846   6.405  1.00  0.00     0.146 A 
ATOM     11  O   UNL     1       5.498  11.596   7.081  1.00  0.00    -0.456 OA
ENDROOT
BRANCH   1  12
ATOM     12  C   UNL     1       4.094  11.429   9.048  1.00  0.00     0.021 A 
ATOM     13  C   UNL     1       3.936  10.226   9.758  1.00  0.00     0.016 A 
ATOM     14  C   UNL     1       2.723   9.923  10.383  1.00  0.00     0.051 A 
ATOM     15  C   UNL     1       1.650  10.823  10.318  1.00  0.00     0.157 A 
ATOM     16  C   UNL     1       3.015  12.334   8.998  1.00  0.00     0.062 A 
ATOM     17  C   UNL     1       1.800  12.035   9.625  1.00  0.00     0.158 A 
BRANCH  15  18
ATOM     18  O   UNL     1       0.442  10.516  10.941  1.00  0.00    -0.504 OA
ATOM     19  H   UNL     1       0.311   9.652  11.452  1.00  0.00     0.293 HD
ENDBRANCH  15  18
BRANCH  17  20
ATOM     20  O   UNL     1       0.755  12.955   9.551  1.00  0.00    -0.504 OA
ATOM     21  H   UNL     1       0.817  13.875   9.970  1.00  0.00     0.293 HD
ENDBRANCH  17  20
ENDBRANCH   1  12
BRANCH   6  22
ATOM     22  O   UNL     1      10.125  13.125   6.804  1.00  0.00    -0.507 OA
ATOM     23  H   UNL     1      10.626  13.906   6.410  1.00  0.00     0.293 HD
ENDBRANCH   6  22
BRANCH   8  24
ATOM     24  O   UNL     1       7.782  11.655   2.900  1.00  0.00    -0.508 OA
ATOM     25  H   UNL     1       7.074  11.089   2.446  1.00  0.00     0.293 HD
ENDBRANCH   8  24
TORSDOF 5
ENDMDL
MODEL 4
REMARK VINA RESULT:    -3.472      1.325      3.063
REMARK INTER + INTRA:          -4.344
REMARK INTER:                  -4.069
REMARK INTRA:                  -0.275
REMARK UNBOUND:                -0.263
REMARK SMILES O=c1cc(-c2ccc(O)c(O)c2)oc2cc(O)cc(O)c12
REMARK SMILES IDX 4 1 3 2 2 3 1 4 21 5 19 6 18 7 16 8 15 9 14 10 13 11 5 12
REMARK SMILES IDX 6 13 7 14 8 15 12 16 10 17 9 18 11 20 20 22 17 24
REMARK H PARENT 9 19 11 21 20 23 17 25
REMARK Flexibility Score: inf
ROOT
ATOM      1  C   UNL     1       4.461  11.165   7.464  1.00  0.00     0.138 A 
ATOM      2  C   UNL     1       4.357  10.860   6.100  1.00  0.00     0.100 A 
ATOM      3  C   UNL     1       5.458  11.051   5.264  1.00  0.00     0.197 A 
ATOM      4  O   UNL     1       5.316  10.821   4.035  1.00  0.00    -0.289 OA
ATOM      5  C   UNL     1       6.680  11.516   5.805  1.00  0.00     0.107 A 
ATOM      6  C   UNL     1       7.879  11.716   5.055  1.00  0.00     0.134 A 
ATOM      7  C   UNL     1       9.001  12.274   5.683  1.00  0.00     0.093 A 
ATOM      8  C   UNL     1       8.986  12.586   7.042  1.00  0.00     0.123 A 
ATOM      9  C   UNL     1       7.836  12.348   7.795  1.00  0.00     0.094 A 
ATOM     10  C   UNL     1       6.690  11.824   7.192  1.00  0.00     0.146 A 
ATOM     11  O   UNL     1       5.611  11.630   7.942  1.00  0.00    -0.456 OA
ENDROOT
BRANCH   1  12
ATOM     12  C   UNL     1       3.323  10.978   8.399  1.00  0.00     0.021 A 
ATOM     13  C   UNL     1       3.535  10.317   9.621  1.00  0.00     0.016 A 
ATOM     14  C   UNL     1       2.483  10.134  10.522  1.00  0.00     0.051 A 
ATOM     15  C   UNL     1       1.203  10.619  10.223  1.00  0.00     0.157 A 
ATOM     16  C   UNL     1       2.036  11.474   8.110  1.00  0.00     0.062 A 
ATOM     17  C   UNL     1       0.981  11.294   9.012  1.00  0.00     0.158 A 
BRANCH  15  18
ATOM     18  O   UNL     1       0.156  10.433  11.123  1.00  0.00    -0.504 OA
ATOM     19  H   UNL     1      -0.775  10.786  10.938  1.00  0.00     0.293 HD
ENDBRANCH  15  18
BRANCH  17  20
ATOM     20  O   UNL     1      -0.279  11.798   8.689  1.00  0.00    -0.504 OA
ATOM     21  H   UNL     1      -1.014  11.210   8.315  1.00  0.00     0.293 HD
ENDBRANCH  17  20
ENDBRANCH   1  12
BRANCH   6  22
ATOM     22  O   UNL     1       8.030  11.366   3.710  1.00  0.00    -0.507 OA
ATOM     23  H   UNL     1       7.444  11.690   2.958  1.00  0.00     0.293 HD
ENDBRANCH   6  22
BRANCH   8  24
ATOM     24  O   UNL     1      10.125  13.125   7.635  1.00  0.00    -0.508 OA
ATOM     25  H   UNL     1      11.000  13.205   7.129  1.00  0.00     0.293 HD
ENDBRANCH   8  24
TORSDOF 5
ENDMDL
