MODEL 1
REMARK VINA RESULT:    -4.899      0.000      0.000
REMARK INTER + INTRA:          -8.561
REMARK INTER:                  -7.763
REMARK INTRA:                  -0.798
REMARK UNBOUND:                -0.798
REMARK SMILES CCCCCCCCCCCC(=O)[O-]
REMARK SMILES IDX 7 1 8 2 9 3 10 4 11 5 12 6 13 7 14 8 6 9 5 10 4 11 3 12 2 13
REMARK SMILES IDX 1 14
REMARK H PARENT
REMARK Flexibility Score: inf
ROOT
ATOM      1  C   UNL     1      -2.534  11.810  -8.828  1.00  0.00     0.000 C 
ENDROOT
BRANCH   1   2
ATOM      2  C   UNL     1      -1.173  12.024  -8.147  1.00  0.00     0.000 C 
BRANCH   2   3
ATOM      3  C   UNL     1      -0.839  10.920  -7.132  1.00  0.00     0.000 C 
BRANCH   3   4
ATOM      4  C   UNL     1       0.676  10.697  -6.977  1.00  0.00     0.006 C 
BRANCH   4   5
ATOM      5  C   UNL     1       1.284   9.986  -8.192  1.00  0.00     0.053 C 
BRANCH   5   6
ATOM      6  C   UNL     1       2.766  10.191  -8.270  1.00  0.00     0.041 C 
ATOM      7  O   UNL     1       3.385  10.715  -7.308  1.00  0.00    -0.550 OA
ATOM      8  O   UNL     1       3.467   9.772  -9.394  1.00  0.00    -0.550 OA
ENDBRANCH   5   6
ENDBRANCH   4   5
ENDBRANCH   3   4
ENDBRANCH   2   3
ENDBRANCH   1   2
BRANCH   1   9
ATOM      9  C   UNL     1      -3.090  10.412  -8.517  1.00  0.00     0.000 C 
BRANCH   9  10
ATOM     10  C   UNL     1      -3.854   9.805  -9.703  1.00  0.00    -0.000 C 
BRANCH  10  11
ATOM     11  C   UNL     1      -4.527  10.872 -10.584  1.00  0.00    -0.000 C 
BRANCH  11  12
ATOM     12  C   UNL     1      -6.059  10.890 -10.434  1.00  0.00    -0.000 C 
BRANCH  12  13
ATOM     13  C   UNL     1      -6.565  11.265  -9.030  1.00  0.00    -0.003 C 
ATOM     14  C   UNL     1      -6.189  12.688  -8.619  1.00  0.00     0.004 C 
ENDBRANCH  12  13
ENDBRANCH  11  12
ENDBRANCH  10  11
ENDBRANCH   9  10
ENDBRANCH   1   9
TORSDOF 10
ENDMDL
MODEL 2
REMARK VINA RESULT:    -4.802      1.239      2.075
REMARK INTER + INTRA:          -8.408
REMARK INTER:                  -7.915
REMARK INTRA:                  -0.492
REMARK UNBOUND:                -0.798
REMARK SMILES CCCCCCCCCCCC(=O)[O-]
REMARK SMILES IDX 7 1 8 2 9 3 10 4 11 5 12 6 13 7 14 8 6 9 5 10 4 11 3 12 2 13
REMARK SMILES IDX 1 14
REMARK H PARENT
REMARK Flexibility Score: inf
ROOT
ATOM      1  C   UNL     1      -2.167  11.188  -8.805  1.00  0.00     0.000 C 
ENDROOT
BRANCH   1   2
ATOM      2  C   UNL     1      -1.555  12.278  -7.912  1.00  0.00     0.000 C 
BRANCH   2   3
ATOM      3  C   UNL     1      -0.022  12.195  -7.843  1.00  0.00     0.000 C 
BRANCH   3   4
ATOM      4  C   UNL     1       0.472  10.898  -7.177  1.00  0.00     0.006 C 
BRANCH   4   5
ATOM      5  C   UNL     1       1.192   9.977  -8.169  1.00  0.00     0.053 C 
BRANCH   5   6
ATOM      6  C   UNL     1       2.671  10.219  -8.176  1.00  0.00     0.041 C 
ATOM      7  O   UNL     1       3.220  10.821  -7.216  1.00  0.00    -0.550 OA
ATOM      8  O   UNL     1       3.447   9.748  -9.228  1.00  0.00    -0.550 OA
ENDBRANCH   5   6
ENDBRANCH   4   5
ENDBRANCH   3   4
ENDBRANCH   2   3
ENDBRANCH   1   2
BRANCH   1   9
ATOM      9  C   UNL     1      -3.612  11.542  -9.191  1.00  0.00     0.000 C 
BRANCH   9  10
ATOM     10  C   UNL     1      -4.115  10.734 -10.397  1.00  0.00    -0.000 C 
BRANCH  10  11
ATOM     11  C   UNL     1      -5.651  10.669 -10.468  1.00  0.00    -0.000 C 
BRANCH  11  12
ATOM     12  C   UNL     1      -6.211   9.306 -10.026  1.00  0.00    -0.000 C 
BRANCH  12  13
ATOM     13  C   UNL     1      -5.153   8.205  -9.834  1.00  0.00    -0.003 C 
ATOM     14  C   UNL     1      -5.168   7.159 -10.948  1.00  0.00     0.004 C 
ENDBRANCH  12  13
ENDBRANCH  11  12
ENDBRANCH  10  11
ENDBRANCH   9  10
ENDBRANCH   1   9
TORSDOF 10
ENDMDL
MODEL 3
REMARK VINA RESULT:    -4.761      3.607      7.015
REMARK INTER + INTRA:          -8.341
REMARK INTER:                  -7.891
REMARK INTRA:                  -0.451
REMARK UNBOUND:                -0.798
REMARK SMILES CCCCCCCCCCCC(=O)[O-]
REMARK SMILES IDX 7 1 8 2 9 3 10 4 11 5 12 6 13 7 14 8 6 9 5 10 4 11 3 12 2 13
REMARK SMILES IDX 1 14
REMARK H PARENT
REMARK Flexibility Score: inf
ROOT
ATOM      1  C   UNL     1      -2.780  11.736  -8.971  1.00  0.00     0.000 C 
ENDROOT
BRANCH   1   2
ATOM      2  C   UNL     1      -3.333  10.883 -10.123  1.00  0.00     0.000 C 
BRANCH   2   3
ATOM      3  C   UNL     1      -4.862  10.745 -10.077  1.00  0.00     0.000 C 
BRANCH   3   4
ATOM      4  C   UNL     1      -5.321   9.476  -9.336  1.00  0.00     0.006 C 
BRANCH   4   5
ATOM      5  C   UNL     1      -5.992   8.467 -10.276  1.00  0.00     0.053 C 
BRANCH   5   6
ATOM      6  C   UNL     1      -5.071   7.340 -10.629  1.00  0.00     0.041 C 
ATOM      7  O   UNL     1      -3.865   7.370 -10.268  1.00  0.00    -0.550 OA
ATOM      8  O   UNL     1      -5.553   6.241 -11.328  1.00  0.00    -0.550 OA
ENDBRANCH   5   6
ENDBRANCH   4   5
ENDBRANCH   3   4
ENDBRANCH   2   3
ENDBRANCH   1   2
BRANCH   1   9
ATOM      9  C   UNL     1      -1.479  11.136  -8.418  1.00  0.00     0.000 C 
BRANCH   9  10
ATOM     10  C   UNL     1      -0.626  12.169  -7.666  1.00  0.00    -0.000 C 
BRANCH  10  11
ATOM     11  C   UNL     1       0.880  11.862  -7.741  1.00  0.00    -0.000 C 
BRANCH  11  12
ATOM     12  C   UNL     1       1.175  10.368  -7.958  1.00  0.00    -0.000 C 
BRANCH  12  13
ATOM     13  C   UNL     1       2.669   9.998  -7.958  1.00  0.00    -0.003 C 
ATOM     14  C   UNL     1       3.183   9.588  -9.338  1.00  0.00     0.004 C 
ENDBRANCH  12  13
ENDBRANCH  11  12
ENDBRANCH  10  11
ENDBRANCH   9  10
ENDBRANCH   1   9
TORSDOF 10
ENDMDL
MODEL 4
REMARK VINA RESULT:    -4.585      2.243      3.216
REMARK INTER + INTRA:          -8.063
REMARK INTER:                  -7.550
REMARK INTRA:                  -0.513
REMARK UNBOUND:                -0.798
REMARK SMILES CCCCCCCCCCCC(=O)[O-]
REMARK SMILES IDX 7 1 8 2 9 3 10 4 11 5 12 6 13 7 14 8 6 9 5 10 4 11 3 12 2 13
REMARK SMILES IDX 1 14
REMARK H PARENT
REMARK Flexibility Score: inf
ROOT
ATOM      1  C   UNL     1      -4.232  11.454  -8.954  1.00  0.00     0.000 C 
ENDROOT
BRANCH   1   2
ATOM      2  C   UNL     1      -2.705  11.492  -9.117  1.00  0.00     0.000 C 
BRANCH   2   3
ATOM      3  C   UNL     1      -2.047  12.591  -8.269  1.00  0.00     0.000 C 
BRANCH   3   4
ATOM      4  C   UNL     1      -0.593  12.255  -7.888  1.00  0.00     0.006 C 
BRANCH   4   5
ATOM      5  C   UNL     1      -0.286  10.760  -8.044  1.00  0.00     0.053 C 
BRANCH   5   6
ATOM      6  C   UNL     1       1.183  10.483  -7.943  1.00  0.00     0.041 C 
ATOM      7  O   UNL     1       1.699   9.546  -8.607  1.00  0.00    -0.550 OA
ATOM      8  O   UNL     1       1.987  11.282  -7.140  1.00  0.00    -0.550 OA
ENDBRANCH   5   6
ENDBRANCH   4   5
ENDBRANCH   3   4
ENDBRANCH   2   3
ENDBRANCH   1   2
BRANCH   1   9
ATOM      9  C   UNL     1      -4.877  10.560 -10.026  1.00  0.00     0.000 C 
BRANCH   9  10
ATOM     10  C   UNL     1      -3.888   9.546 -10.620  1.00  0.00    -0.000 C 
BRANCH  10  11
ATOM     11  C   UNL     1      -4.132   8.114 -10.114  1.00  0.00    -0.000 C 
BRANCH  11  12
ATOM     12  C   UNL     1      -5.143   7.340 -10.978  1.00  0.00    -0.000 C 
BRANCH  12  13
ATOM     13  C   UNL     1      -6.368   6.806 -10.215  1.00  0.00    -0.003 C 
ATOM     14  C   UNL     1      -6.874   5.469 -10.756  1.00  0.00     0.004 C 
ENDBRANCH  12  13
ENDBRANCH  11  12
ENDBRANCH  10  11
ENDBRANCH   9  10
ENDBRANCH   1   9
TORSDOF 10
ENDMDL
MODEL 5
REMARK VINA RESULT:    -4.555      1.182      2.523
REMARK INTER + INTRA:          -8.015
REMARK INTER:                  -6.874
REMARK INTRA:                  -1.141
REMARK UNBOUND:                -0.798
REMARK SMILES CCCCCCCCCCCC(=O)[O-]
REMARK SMILES IDX 7 1 8 2 9 3 10 4 11 5 12 6 13 7 14 8 6 9 5 10 4 11 3 12 2 13
REMARK SMILES IDX 1 14
REMARK H PARENT
REMARK Flexibility Score: inf
ROOT
ATOM      1  C   UNL     1      -3.937  11.566  -7.096  1.00  0.00     0.000 C 
ENDROOT
BRANCH   1   2
ATOM      2  C   UNL     1      -2.744  10.827  -7.721  1.00  0.00     0.000 C 
BRANCH   2   3
ATOM      3  C   UNL     1      -1.884  11.737  -8.611  1.00  0.00     0.000 C 
BRANCH   3   4
ATOM      4  C   UNL     1      -0.474  11.967  -8.037  1.00  0.00     0.006 C 
BRANCH   4   5
ATOM      5  C   UNL     1       0.058  10.732  -7.301  1.00  0.00     0.053 C 
BRANCH   5   6
ATOM      6  C   UNL     1       1.482  10.441  -7.665  1.00  0.00     0.041 C 
ATOM      7  O   UNL     1       1.746   9.653  -8.611  1.00  0.00    -0.550 OA
ATOM      8  O   UNL     1       2.517  11.066  -6.980  1.00  0.00    -0.550 OA
ENDBRANCH   5   6
ENDBRANCH   4   5
ENDBRANCH   3   4
ENDBRANCH   2   3
ENDBRANCH   1   2
BRANCH   1   9
ATOM      9  C   UNL     1      -4.146  12.935  -7.763  1.00  0.00     0.000 C 
BRANCH   9  10
ATOM     10  C   UNL     1      -5.498  13.038  -8.486  1.00  0.00    -0.000 C 
BRANCH  10  11
ATOM     11  C   UNL     1      -6.214  11.681  -8.601  1.00  0.00    -0.000 C 
BRANCH  11  12
ATOM     12  C   UNL     1      -6.319  11.184 -10.054  1.00  0.00    -0.000 C 
BRANCH  12  13
ATOM     13  C   UNL     1      -4.979  10.785 -10.698  1.00  0.00    -0.003 C 
ATOM     14  C   UNL     1      -4.617   9.319 -10.463  1.00  0.00     0.004 C 
ENDBRANCH  12  13
ENDBRANCH  11  12
ENDBRANCH  10  11
ENDBRANCH   9  10
ENDBRANCH   1   9
TORSDOF 10
ENDMDL
MODEL 6
REMARK VINA RESULT:    -4.502      1.182      1.865
REMARK INTER + INTRA:          -7.932
REMARK INTER:                  -7.111
REMARK INTRA:                  -0.821
REMARK UNBOUND:                -0.798
REMARK SMILES CCCCCCCCCCCC(=O)[O-]
REMARK SMILES IDX 7 1 8 2 9 3 10 4 11 5 12 6 13 7 14 8 6 9 5 10 4 11 3 12 2 13
REMARK SMILES IDX 1 14
REMARK H PARENT
REMARK Flexibility Score: inf
ROOT
ATOM      1  C   UNL     1      -2.492  11.638  -6.751  1.00  0.00     0.000 C 
ENDROOT
BRANCH   1   2
ATOM      2  C   UNL     1      -1.260  10.892  -6.215  1.00  0.00     0.000 C 
BRANCH   2   3
ATOM      3  C   UNL     1       0.022  11.735  -6.293  1.00  0.00     0.000 C 
BRANCH   3   4
ATOM      4  C   UNL     1       0.662  11.713  -7.693  1.00  0.00     0.006 C 
BRANCH   4   5
ATOM      5  C   UNL     1       1.039  10.293  -8.134  1.00  0.00     0.053 C 
BRANCH   5   6
ATOM      6  C   UNL     1       2.522  10.128  -8.262  1.00  0.00     0.041 C 
ATOM      7  O   UNL     1       3.012   9.563  -9.275  1.00  0.00    -0.550 OA
ATOM      8  O   UNL     1       3.365  10.629  -7.278  1.00  0.00    -0.550 OA
ENDBRANCH   5   6
ENDBRANCH   4   5
ENDBRANCH   3   4
ENDBRANCH   2   3
ENDBRANCH   1   2
BRANCH   1   9
ATOM      9  C   UNL     1      -3.227  10.798  -7.807  1.00  0.00     0.000 C 
BRANCH   9  10
ATOM     10  C   UNL     1      -2.711  11.058  -9.230  1.00  0.00    -0.000 C 
BRANCH  10  11
ATOM     11  C   UNL     1      -3.787  10.820 -10.304  1.00  0.00    -0.000 C 
BRANCH  11  12
ATOM     12  C   UNL     1      -4.197   9.341 -10.420  1.00  0.00    -0.000 C 
BRANCH  12  13
ATOM     13  C   UNL     1      -5.711   9.083 -10.323  1.00  0.00    -0.003 C 
ATOM     14  C   UNL     1      -6.510  10.335  -9.964  1.00  0.00     0.004 C 
ENDBRANCH  12  13
ENDBRANCH  11  12
ENDBRANCH  10  11
ENDBRANCH   9  10
ENDBRANCH   1   9
TORSDOF 10
ENDMDL
MODEL 7
REMARK VINA RESULT:    -4.500     13.312     15.163
REMARK INTER + INTRA:          -7.929
REMARK INTER:                  -7.326
REMARK INTRA:                  -0.603
REMARK UNBOUND:                -0.798
REMARK SMILES CCCCCCCCCCCC(=O)[O-]
REMARK SMILES IDX 7 1 8 2 9 3 10 4 11 5 12 6 13 7 14 8 6 9 5 10 4 11 3 12 2 13
REMARK SMILES IDX 1 14
REMARK H PARENT
REMARK Flexibility Score: inf
ROOT
ATOM      1  C   UNL     1       0.448   5.153 -19.073  1.00  0.00     0.000 C 
ENDROOT
BRANCH   1   2
ATOM      2  C   UNL     1      -0.964   5.131 -19.679  1.00  0.00     0.000 C 
BRANCH   2   3
ATOM      3  C   UNL     1      -1.907   6.150 -19.021  1.00  0.00     0.000 C 
BRANCH   3   4
ATOM      4  C   UNL     1      -2.722   6.953 -20.050  1.00  0.00     0.006 C 
BRANCH   4   5
ATOM      5  C   UNL     1      -2.728   6.286 -21.431  1.00  0.00     0.053 C 
BRANCH   5   6
ATOM      6  C   UNL     1      -3.907   5.377 -21.602  1.00  0.00     0.041 C 
ATOM      7  O   UNL     1      -3.735   4.153 -21.837  1.00  0.00    -0.550 OA
ATOM      8  O   UNL     1      -5.196   5.878 -21.469  1.00  0.00    -0.550 OA
ENDBRANCH   5   6
ENDBRANCH   4   5
ENDBRANCH   3   4
ENDBRANCH   2   3
ENDBRANCH   1   2
BRANCH   1   9
ATOM      9  C   UNL     1       1.519   5.104 -20.173  1.00  0.00     0.000 C 
BRANCH   9  10
ATOM     10  C   UNL     1       1.640   3.714 -20.816  1.00  0.00    -0.000 C 
BRANCH  10  11
ATOM     11  C   UNL     1       2.107   2.638 -19.820  1.00  0.00    -0.000 C 
BRANCH  11  12
ATOM     12  C   UNL     1       1.197   1.397 -19.813  1.00  0.00    -0.000 C 
BRANCH  12  13
ATOM     13  C   UNL     1       1.517   0.358 -20.903  1.00  0.00    -0.003 C 
ATOM     14  C   UNL     1       3.002   0.002 -20.972  1.00  0.00     0.004 C 
ENDBRANCH  12  13
ENDBRANCH  11  12
ENDBRANCH  10  11
ENDBRANCH   9  10
ENDBRANCH   1   9
TORSDOF 10
ENDMDL
MODEL 8
REMARK VINA RESULT:    -4.365      3.858      7.254
REMARK INTER + INTRA:          -7.715
REMARK INTER:                  -7.114
REMARK INTRA:                  -0.601
REMARK UNBOUND:                -0.798
REMARK SMILES CCCCCCCCCCCC(=O)[O-]
REMARK SMILES IDX 7 1 8 2 9 3 10 4 11 5 12 6 13 7 14 8 6 9 5 10 4 11 3 12 2 13
REMARK SMILES IDX 1 14
REMARK H PARENT
REMARK Flexibility Score: inf
ROOT
ATOM      1  C   UNL     1      -2.969  11.310  -9.642  1.00  0.00     0.000 C 
ENDROOT
BRANCH   1   2
ATOM      2  C   UNL     1      -3.930  10.120  -9.494  1.00  0.00     0.000 C 
BRANCH   2   3
ATOM      3  C   UNL     1      -5.046  10.126 -10.550  1.00  0.00     0.000 C 
BRANCH   3   4
ATOM      4  C   UNL     1      -6.172  11.123 -10.218  1.00  0.00     0.006 C 
BRANCH   4   5
ATOM      5  C   UNL     1      -6.623  11.018  -8.756  1.00  0.00     0.053 C 
BRANCH   5   6
ATOM      6  C   UNL     1      -6.438  12.312  -8.024  1.00  0.00     0.041 C 
ATOM      7  O   UNL     1      -6.994  12.496  -6.910  1.00  0.00    -0.550 OA
ATOM      8  O   UNL     1      -5.623  13.302  -8.559  1.00  0.00    -0.550 OA
ENDBRANCH   5   6
ENDBRANCH   4   5
ENDBRANCH   3   4
ENDBRANCH   2   3
ENDBRANCH   1   2
BRANCH   1   9
ATOM      9  C   UNL     1      -2.343  11.681  -8.289  1.00  0.00     0.000 C 
BRANCH   9  10
ATOM     10  C   UNL     1      -1.007  10.964  -8.041  1.00  0.00    -0.000 C 
BRANCH  10  11
ATOM     11  C   UNL     1       0.186  11.934  -7.988  1.00  0.00    -0.000 C 
BRANCH  11  12
ATOM     12  C   UNL     1       1.438  11.307  -7.350  1.00  0.00    -0.000 C 
BRANCH  12  13
ATOM     13  C   UNL     1       1.787   9.899  -7.864  1.00  0.00    -0.003 C 
ATOM     14  C   UNL     1       2.956   9.895  -8.849  1.00  0.00     0.004 C 
ENDBRANCH  12  13
ENDBRANCH  11  12
ENDBRANCH  10  11
ENDBRANCH   9  10
ENDBRANCH   1   9
TORSDOF 10
ENDMDL
MODEL 9
REMARK VINA RESULT:    -4.276      3.646      6.623
REMARK INTER + INTRA:          -7.573
REMARK INTER:                  -6.532
REMARK INTRA:                  -1.041
REMARK UNBOUND:                -0.798
REMARK SMILES CCCCCCCCCCCC(=O)[O-]
REMARK SMILES IDX 7 1 8 2 9 3 10 4 11 5 12 6 13 7 14 8 6 9 5 10 4 11 3 12 2 13
REMARK SMILES IDX 1 14
REMARK H PARENT
REMARK Flexibility Score: inf
ROOT
ATOM      1  C   UNL     1      -1.821  12.444  -6.010  1.00  0.00     0.000 C 
ENDROOT
BRANCH   1   2
ATOM      2  C   UNL     1      -2.471  13.141  -7.215  1.00  0.00     0.000 C 
BRANCH   2   3
ATOM      3  C   UNL     1      -2.338  12.327  -8.512  1.00  0.00     0.000 C 
BRANCH   3   4
ATOM      4  C   UNL     1      -2.542  10.818  -8.287  1.00  0.00     0.006 C 
BRANCH   4   5
ATOM      5  C   UNL     1      -3.253  10.148  -9.470  1.00  0.00     0.053 C 
BRANCH   5   6
ATOM      6  C   UNL     1      -4.650  10.663  -9.639  1.00  0.00     0.041 C 
ATOM      7  O   UNL     1      -5.087  10.946 -10.786  1.00  0.00    -0.550 OA
ATOM      8  O   UNL     1      -5.480  10.798  -8.534  1.00  0.00    -0.550 OA
ENDBRANCH   5   6
ENDBRANCH   4   5
ENDBRANCH   3   4
ENDBRANCH   2   3
ENDBRANCH   1   2
BRANCH   1   9
ATOM      9  C   UNL     1      -0.740  13.334  -5.377  1.00  0.00     0.000 C 
BRANCH   9  10
ATOM     10  C   UNL     1       0.663  13.039  -5.928  1.00  0.00    -0.000 C 
BRANCH  10  11
ATOM     11  C   UNL     1       0.833  11.574  -6.365  1.00  0.00    -0.000 C 
BRANCH  11  12
ATOM     12  C   UNL     1       1.196  11.433  -7.853  1.00  0.00    -0.000 C 
BRANCH  12  13
ATOM     13  C   UNL     1       1.614  10.015  -8.284  1.00  0.00    -0.003 C 
ATOM     14  C   UNL     1       3.074   9.932  -8.728  1.00  0.00     0.004 C 
ENDBRANCH  12  13
ENDBRANCH  11  12
ENDBRANCH  10  11
ENDBRANCH   9  10
ENDBRANCH   1   9
TORSDOF 10
ENDMDL
