MODEL 1
REMARK VINA RESULT:     1.309      0.000      0.000
REMARK INTER + INTRA:           1.413
REMARK INTER:                   1.539
REMARK INTRA:                  -0.126
REMARK UNBOUND:                -0.126
REMARK SMILES O=C([O-])C=Cc1ccc(O)c(O)c1
REMARK SMILES IDX 6 1 13 2 7 3 11 4 8 5 9 6 5 7 4 8 2 9 1 10 3 11 12 12 10 14
REMARK H PARENT 12 13 10 15
REMARK Flexibility Score: inf
ROOT
ATOM      1  C   UNL     1       9.746   6.262  11.604  1.00  0.00    -0.022 A 
ATOM      2  C   UNL     1       8.667   5.490  12.062  1.00  0.00     0.058 A 
ATOM      3  C   UNL     1      10.065   6.238  10.231  1.00  0.00     0.012 A 
ATOM      4  C   UNL     1       7.930   4.688  11.178  1.00  0.00     0.157 A 
ATOM      5  C   UNL     1       9.330   5.440   9.349  1.00  0.00     0.051 A 
ATOM      6  C   UNL     1       8.267   4.662   9.815  1.00  0.00     0.157 A 
ENDROOT
BRANCH   1   7
ATOM      7  C   UNL     1      10.487   7.100  12.579  1.00  0.00     0.010 C 
ATOM      8  C   UNL     1       9.982   8.204  13.150  1.00  0.00     0.025 C 
BRANCH   8   9
ATOM      9  C   UNL     1      10.751   9.018  14.105  1.00  0.00     0.064 C 
ATOM     10  O   UNL     1      11.104  10.194  13.824  1.00  0.00    -0.545 OA
ATOM     11  O   UNL     1      11.098   8.478  15.336  1.00  0.00    -0.545 OA
ENDBRANCH   8   9
ENDBRANCH   1   7
BRANCH   4  12
ATOM     12  O   UNL     1       6.866   3.921  11.649  1.00  0.00    -0.504 OA
ATOM     13  H   UNL     1       6.455   3.183  11.089  1.00  0.00     0.293 HD
ENDBRANCH   4  12
BRANCH   6  14
ATOM     14  O   UNL     1       7.555   3.875   8.911  1.00  0.00    -0.504 OA
ATOM     15  H   UNL     1       6.862   4.268   8.285  1.00  0.00     0.293 HD
ENDBRANCH   6  14
TORSDOF 4
ENDMDL
MODEL 2
REMARK VINA RESULT:     2.008      1.483      5.830
REMARK INTER + INTRA:           2.235
REMARK INTER:                   2.368
REMARK INTRA:                  -0.133
REMARK UNBOUND:                -0.126
REMARK SMILES O=C([O-])C=Cc1ccc(O)c(O)c1
REMARK SMILES IDX 6 1 13 2 7 3 11 4 8 5 9 6 5 7 4 8 2 9 1 10 3 11 12 12 10 14
REMARK H PARENT 12 13 10 15
REMARK Flexibility Score: inf
ROOT
ATOM      1  C   UNL     1      10.374   6.779  12.313  1.00  0.00    -0.022 A 
ATOM      2  C   UNL     1       9.602   7.912  12.010  1.00  0.00     0.058 A 
ATOM      3  C   UNL     1      11.125   6.767  13.506  1.00  0.00     0.012 A 
ATOM      4  C   UNL     1       9.595   9.025  12.864  1.00  0.00     0.157 A 
ATOM      5  C   UNL     1      11.117   7.875  14.358  1.00  0.00     0.051 A 
ATOM      6  C   UNL     1      10.359   9.006  14.042  1.00  0.00     0.157 A 
ENDROOT
BRANCH   1   7
ATOM      7  C   UNL     1      10.339   5.624  11.381  1.00  0.00     0.010 C 
ATOM      8  C   UNL     1       9.577   5.578  10.279  1.00  0.00     0.025 C 
BRANCH   8   9
ATOM      9  C   UNL     1       9.559   4.410   9.384  1.00  0.00     0.064 C 
ATOM     10  O   UNL     1       8.474   3.882   9.021  1.00  0.00    -0.545 OA
ATOM     11  O   UNL     1      10.760   3.877   8.934  1.00  0.00    -0.545 OA
ENDBRANCH   8   9
ENDBRANCH   1   7
BRANCH   4  12
ATOM     12  O   UNL     1       8.831  10.147  12.546  1.00  0.00    -0.504 OA
ATOM     13  H   UNL     1       8.663  10.420  11.584  1.00  0.00     0.293 HD
ENDBRANCH   4  12
BRANCH   6  14
ATOM     14  O   UNL     1      10.374  10.096  14.911  1.00  0.00    -0.504 OA
ATOM     15  H   UNL     1      10.868  10.953  14.690  1.00  0.00     0.293 HD
ENDBRANCH   6  14
TORSDOF 4
ENDMDL
MODEL 3
REMARK VINA RESULT:     2.129      0.971      1.803
REMARK INTER + INTRA:           2.377
REMARK INTER:                   2.512
REMARK INTRA:                  -0.135
REMARK UNBOUND:                -0.126
REMARK SMILES O=C([O-])C=Cc1ccc(O)c(O)c1
REMARK SMILES IDX 6 1 13 2 7 3 11 4 8 5 9 6 5 7 4 8 2 9 1 10 3 11 12 12 10 14
REMARK H PARENT 12 13 10 15
REMARK Flexibility Score: inf
ROOT
ATOM      1  C   UNL     1       9.708   6.278  11.818  1.00  0.00    -0.022 A 
ATOM      2  C   UNL     1      10.441   5.601  10.831  1.00  0.00     0.058 A 
ATOM      3  C   UNL     1       8.308   6.120  11.853  1.00  0.00     0.012 A 
ATOM      4  C   UNL     1       9.794   4.800   9.878  1.00  0.00     0.157 A 
ATOM      5  C   UNL     1       7.662   5.321  10.905  1.00  0.00     0.051 A 
ATOM      6  C   UNL     1       8.397   4.663   9.915  1.00  0.00     0.157 A 
ENDROOT
BRANCH   1   7
ATOM      7  C   UNL     1      10.442   7.105  12.808  1.00  0.00     0.010 C 
ATOM      8  C   UNL     1       9.950   8.225  13.355  1.00  0.00     0.025 C 
BRANCH   8   9
ATOM      9  C   UNL     1      10.713   9.027  14.326  1.00  0.00     0.064 C 
ATOM     10  O   UNL     1      11.112  10.188  14.043  1.00  0.00    -0.545 OA
ATOM     11  O   UNL     1      11.002   8.492  15.575  1.00  0.00    -0.545 OA
ENDBRANCH   8   9
ENDBRANCH   1   7
BRANCH   4  12
ATOM     12  O   UNL     1      10.535   4.140   8.898  1.00  0.00    -0.504 OA
ATOM     13  H   UNL     1      10.356   4.284   7.911  1.00  0.00     0.293 HD
ENDBRANCH   4  12
BRANCH   6  14
ATOM     14  O   UNL     1       7.724   3.875   8.982  1.00  0.00    -0.504 OA
ATOM     15  H   UNL     1       7.440   2.924   9.186  1.00  0.00     0.293 HD
ENDBRANCH   6  14
TORSDOF 4
ENDMDL
MODEL 4
REMARK VINA RESULT:     3.555      1.465      5.811
REMARK INTER + INTRA:           4.053
REMARK INTER:                   4.191
REMARK INTRA:                  -0.138
REMARK UNBOUND:                -0.126
REMARK SMILES O=C([O-])C=Cc1ccc(O)c(O)c1
REMARK SMILES IDX 6 1 13 2 7 3 11 4 8 5 9 6 5 7 4 8 2 9 1 10 3 11 12 12 10 14
REMARK H PARENT 12 13 10 15
REMARK Flexibility Score: inf
ROOT
ATOM      1  C   UNL     1      10.198   7.002  12.216  1.00  0.00    -0.022 A 
ATOM      2  C   UNL     1      10.545   6.921  13.574  1.00  0.00     0.058 A 
ATOM      3  C   UNL     1       9.944   8.269  11.653  1.00  0.00     0.012 A 
ATOM      4  C   UNL     1      10.616   8.076  14.366  1.00  0.00     0.157 A 
ATOM      5  C   UNL     1      10.016   9.420  12.442  1.00  0.00     0.051 A 
ATOM      6  C   UNL     1      10.347   9.331  13.797  1.00  0.00     0.157 A 
ENDROOT
BRANCH   1   7
ATOM      7  C   UNL     1      10.146   5.751  11.419  1.00  0.00     0.010 C 
ATOM      8  C   UNL     1       9.849   5.710  10.112  1.00  0.00     0.025 C 
BRANCH   8   9
ATOM      9  C   UNL     1       9.796   4.447   9.357  1.00  0.00     0.064 C 
ATOM     10  O   UNL     1       8.699   3.875   9.119  1.00  0.00    -0.545 OA
ATOM     11  O   UNL     1      10.976   3.875   8.901  1.00  0.00    -0.545 OA
ENDBRANCH   8   9
ENDBRANCH   1   7
BRANCH   4  12
ATOM     12  O   UNL     1      10.954   7.980  15.716  1.00  0.00    -0.504 OA
ATOM     13  H   UNL     1      10.264   7.743  16.420  1.00  0.00     0.293 HD
ENDBRANCH   4  12
BRANCH   6  14
ATOM     14  O   UNL     1      10.408  10.498  14.558  1.00  0.00    -0.504 OA
ATOM     15  H   UNL     1      10.978  11.290  14.284  1.00  0.00     0.293 HD
ENDBRANCH   6  14
TORSDOF 4
ENDMDL
