MODEL 1
REMARK VINA RESULT:    -4.390      0.000      0.000
REMARK INTER + INTRA:          -9.476
REMARK INTER:                  -7.470
REMARK INTRA:                  -2.006
REMARK UNBOUND:                -2.006
REMARK SMILES CCCCCCCCCCCCCC(=O)[O-]
REMARK SMILES IDX 8 1 9 2 10 3 11 4 12 5 13 6 14 7 15 8 16 9 7 10 6 11 5 12
REMARK SMILES IDX 4 13 3 14 2 15 1 16
REMARK H PARENT
REMARK Flexibility Score: inf
ROOT
ATOM      1  C   UNL     1       4.748   3.233  13.574  1.00  0.00     0.000 C 
ENDROOT
BRANCH   1   2
ATOM      2  C   UNL     1       3.434   3.398  14.355  1.00  0.00     0.000 C 
BRANCH   2   3
ATOM      3  C   UNL     1       3.281   2.368  15.488  1.00  0.00     0.000 C 
BRANCH   3   4
ATOM      4  C   UNL     1       4.362   2.440  16.585  1.00  0.00     0.000 C 
BRANCH   4   5
ATOM      5  C   UNL     1       4.393   1.241  17.550  1.00  0.00     0.006 C 
BRANCH   5   6
ATOM      6  C   UNL     1       5.675   0.409  17.425  1.00  0.00     0.053 C 
BRANCH   6   7
ATOM      7  C   UNL     1       5.617  -0.779  18.332  1.00  0.00     0.041 C 
ATOM      8  O   UNL     1       4.776  -1.694  18.126  1.00  0.00    -0.550 OA
ATOM      9  O   UNL     1       6.525  -0.902  19.375  1.00  0.00    -0.550 OA
ENDBRANCH   6   7
ENDBRANCH   5   6
ENDBRANCH   4   5
ENDBRANCH   3   4
ENDBRANCH   2   3
ENDBRANCH   1   2
BRANCH   1  10
ATOM     10  C   UNL     1       4.849   1.868  12.875  1.00  0.00     0.000 C 
BRANCH  10  11
ATOM     11  C   UNL     1       6.092   1.073  13.312  1.00  0.00    -0.000 C 
BRANCH  11  12
ATOM     12  C   UNL     1       5.739  -0.309  13.881  1.00  0.00    -0.000 C 
BRANCH  12  13
ATOM     13  C   UNL     1       4.270  -0.693  13.634  1.00  0.00    -0.000 C 
BRANCH  13  14
ATOM     14  C   UNL     1       3.782  -1.787  14.609  1.00  0.00    -0.000 C 
BRANCH  14  15
ATOM     15  C   UNL     1       2.598  -1.344  15.485  1.00  0.00    -0.003 C 
ATOM     16  C   UNL     1       1.481  -0.676  14.687  1.00  0.00     0.004 C 
ENDBRANCH  14  15
ENDBRANCH  13  14
ENDBRANCH  12  13
ENDBRANCH  11  12
ENDBRANCH  10  11
ENDBRANCH   1  10
TORSDOF 12
ENDMDL
MODEL 2
REMARK VINA RESULT:    -4.246      1.371      2.992
REMARK INTER + INTRA:          -9.231
REMARK INTER:                  -7.524
REMARK INTRA:                  -1.707
REMARK UNBOUND:                -2.006
REMARK SMILES CCCCCCCCCCCCCC(=O)[O-]
REMARK SMILES IDX 8 1 9 2 10 3 11 4 12 5 13 6 14 7 15 8 16 9 7 10 6 11 5 12
REMARK SMILES IDX 4 13 3 14 2 15 1 16
REMARK H PARENT
REMARK Flexibility Score: inf
ROOT
ATOM      1  C   UNL     1       6.088   1.262  12.899  1.00  0.00     0.000 C 
ENDROOT
BRANCH   1   2
ATOM      2  C   UNL     1       6.266   0.475  14.208  1.00  0.00     0.000 C 
BRANCH   2   3
ATOM      3  C   UNL     1       6.489  -1.029  13.974  1.00  0.00     0.000 C 
BRANCH   3   4
ATOM      4  C   UNL     1       6.351  -1.911  15.232  1.00  0.00     0.000 C 
BRANCH   4   5
ATOM      5  C   UNL     1       5.201  -1.522  16.179  1.00  0.00     0.006 C 
BRANCH   5   6
ATOM      6  C   UNL     1       5.597  -1.599  17.658  1.00  0.00     0.053 C 
BRANCH   6   7
ATOM      7  C   UNL     1       5.511  -0.246  18.293  1.00  0.00     0.041 C 
ATOM      8  O   UNL     1       5.780   0.787  17.624  1.00  0.00    -0.550 OA
ATOM      9  O   UNL     1       5.083  -0.122  19.608  1.00  0.00    -0.550 OA
ENDBRANCH   6   7
ENDBRANCH   5   6
ENDBRANCH   4   5
ENDBRANCH   3   4
ENDBRANCH   2   3
ENDBRANCH   1   2
BRANCH   1  10
ATOM     10  C   UNL     1       5.003   2.345  13.006  1.00  0.00     0.000 C 
BRANCH  10  11
ATOM     11  C   UNL     1       4.687   2.720  14.464  1.00  0.00    -0.000 C 
BRANCH  11  12
ATOM     12  C   UNL     1       3.195   2.574  14.802  1.00  0.00    -0.000 C 
BRANCH  12  13
ATOM     13  C   UNL     1       2.915   1.397  15.751  1.00  0.00    -0.000 C 
BRANCH  13  14
ATOM     14  C   UNL     1       1.871   0.418  15.173  1.00  0.00    -0.000 C 
BRANCH  14  15
ATOM     15  C   UNL     1       2.406  -0.434  14.010  1.00  0.00    -0.003 C 
ATOM     16  C   UNL     1       2.333  -1.934  14.285  1.00  0.00     0.004 C 
ENDBRANCH  14  15
ENDBRANCH  13  14
ENDBRANCH  12  13
ENDBRANCH  11  12
ENDBRANCH  10  11
ENDBRANCH   1  10
TORSDOF 12
ENDMDL
MODEL 3
REMARK VINA RESULT:    -4.199      2.188      4.047
REMARK INTER + INTRA:          -9.151
REMARK INTER:                  -7.549
REMARK INTRA:                  -1.602
REMARK UNBOUND:                -2.006
REMARK SMILES CCCCCCCCCCCCCC(=O)[O-]
REMARK SMILES IDX 8 1 9 2 10 3 11 4 12 5 13 6 14 7 15 8 16 9 7 10 6 11 5 12
REMARK SMILES IDX 4 13 3 14 2 15 1 16
REMARK H PARENT
REMARK Flexibility Score: inf
ROOT
ATOM      1  C   UNL     1       6.570   0.485  13.846  1.00  0.00     0.000 C 
ENDROOT
BRANCH   1   2
ATOM      2  C   UNL     1       5.906   1.514  12.917  1.00  0.00     0.000 C 
BRANCH   2   3
ATOM      3  C   UNL     1       4.825   2.348  13.626  1.00  0.00     0.000 C 
BRANCH   3   4
ATOM      4  C   UNL     1       4.487   1.892  15.060  1.00  0.00     0.000 C 
BRANCH   4   5
ATOM      5  C   UNL     1       3.057   1.358  15.256  1.00  0.00     0.006 C 
BRANCH   5   6
ATOM      6  C   UNL     1       2.715   0.210  14.299  1.00  0.00     0.053 C 
BRANCH   6   7
ATOM      7  C   UNL     1       1.667  -0.674  14.899  1.00  0.00     0.041 C 
ATOM      8  O   UNL     1       1.974  -1.814  15.338  1.00  0.00    -0.550 OA
ATOM      9  O   UNL     1       0.360  -0.219  15.020  1.00  0.00    -0.550 OA
ENDBRANCH   6   7
ENDBRANCH   5   6
ENDBRANCH   4   5
ENDBRANCH   3   4
ENDBRANCH   2   3
ENDBRANCH   1   2
BRANCH   1  10
ATOM     10  C   UNL     1       6.478  -0.948  13.298  1.00  0.00     0.000 C 
BRANCH  10  11
ATOM     11  C   UNL     1       5.541  -1.839  14.133  1.00  0.00    -0.000 C 
BRANCH  11  12
ATOM     12  C   UNL     1       6.092  -2.120  15.539  1.00  0.00    -0.000 C 
BRANCH  12  13
ATOM     13  C   UNL     1       5.286  -1.414  16.643  1.00  0.00    -0.000 C 
BRANCH  13  14
ATOM     14  C   UNL     1       5.825  -1.734  18.053  1.00  0.00    -0.000 C 
BRANCH  14  15
ATOM     15  C   UNL     1       5.843  -0.518  18.995  1.00  0.00    -0.003 C 
ATOM     16  C   UNL     1       4.866   0.577  18.574  1.00  0.00     0.004 C 
ENDBRANCH  14  15
ENDBRANCH  13  14
ENDBRANCH  12  13
ENDBRANCH  11  12
ENDBRANCH  10  11
ENDBRANCH   1  10
TORSDOF 12
ENDMDL
MODEL 4
REMARK VINA RESULT:    -4.158      1.658      4.291
REMARK INTER + INTRA:          -9.081
REMARK INTER:                  -7.244
REMARK INTRA:                  -1.836
REMARK UNBOUND:                -2.006
REMARK SMILES CCCCCCCCCCCCCC(=O)[O-]
REMARK SMILES IDX 8 1 9 2 10 3 11 4 12 5 13 6 14 7 15 8 16 9 7 10 6 11 5 12
REMARK SMILES IDX 4 13 3 14 2 15 1 16
REMARK H PARENT
REMARK Flexibility Score: inf
ROOT
ATOM      1  C   UNL     1       4.739   2.709  14.515  1.00  0.00     0.000 C 
ENDROOT
BRANCH   1   2
ATOM      2  C   UNL     1       5.047   2.237  13.085  1.00  0.00     0.000 C 
BRANCH   2   3
ATOM      3  C   UNL     1       5.930   0.977  13.050  1.00  0.00     0.000 C 
BRANCH   3   4
ATOM      4  C   UNL     1       6.266   0.378  14.431  1.00  0.00     0.000 C 
BRANCH   4   5
ATOM      5  C   UNL     1       5.892  -1.105  14.607  1.00  0.00     0.006 C 
BRANCH   5   6
ATOM      6  C   UNL     1       4.651  -1.505  13.803  1.00  0.00     0.053 C 
BRANCH   6   7
ATOM      7  C   UNL     1       3.409  -1.251  14.598  1.00  0.00     0.041 C 
ATOM      8  O   UNL     1       3.391  -1.479  15.836  1.00  0.00    -0.550 OA
ATOM      9  O   UNL     1       2.287  -0.713  13.981  1.00  0.00    -0.550 OA
ENDBRANCH   6   7
ENDBRANCH   5   6
ENDBRANCH   4   5
ENDBRANCH   3   4
ENDBRANCH   2   3
ENDBRANCH   1   2
BRANCH   1  10
ATOM     10  C   UNL     1       3.251   2.574  14.871  1.00  0.00     0.000 C 
BRANCH  10  11
ATOM     11  C   UNL     1       3.031   1.943  16.257  1.00  0.00    -0.000 C 
BRANCH  11  12
ATOM     12  C   UNL     1       4.329   1.845  17.074  1.00  0.00    -0.000 C 
BRANCH  12  13
ATOM     13  C   UNL     1       4.070   1.688  18.582  1.00  0.00    -0.000 C 
BRANCH  13  14
ATOM     14  C   UNL     1       4.726   0.415  19.157  1.00  0.00    -0.000 C 
BRANCH  14  15
ATOM     15  C   UNL     1       5.854  -0.147  18.275  1.00  0.00    -0.003 C 
ATOM     16  C   UNL     1       5.928  -1.672  18.299  1.00  0.00     0.004 C 
ENDBRANCH  14  15
ENDBRANCH  13  14
ENDBRANCH  12  13
ENDBRANCH  11  12
ENDBRANCH  10  11
ENDBRANCH   1  10
TORSDOF 12
ENDMDL
MODEL 5
REMARK VINA RESULT:    -3.965      2.120      4.315
REMARK INTER + INTRA:          -8.753
REMARK INTER:                  -6.925
REMARK INTRA:                  -1.828
REMARK UNBOUND:                -2.006
REMARK SMILES CCCCCCCCCCCCCC(=O)[O-]
REMARK SMILES IDX 8 1 9 2 10 3 11 4 12 5 13 6 14 7 15 8 16 9 7 10 6 11 5 12
REMARK SMILES IDX 4 13 3 14 2 15 1 16
REMARK H PARENT
REMARK Flexibility Score: inf
ROOT
ATOM      1  C   UNL     1       5.687  -0.078  17.839  1.00  0.00     0.000 C 
ENDROOT
BRANCH   1   2
ATOM      2  C   UNL     1       4.777   0.671  18.826  1.00  0.00     0.000 C 
BRANCH   2   3
ATOM      3  C   UNL     1       3.848   1.682  18.131  1.00  0.00     0.000 C 
BRANCH   3   4
ATOM      4  C   UNL     1       4.062   1.826  16.611  1.00  0.00     0.000 C 
BRANCH   4   5
ATOM      5  C   UNL     1       2.791   1.676  15.755  1.00  0.00     0.006 C 
BRANCH   5   6
ATOM      6  C   UNL     1       2.845   0.466  14.817  1.00  0.00     0.053 C 
BRANCH   6   7
ATOM      7  C   UNL     1       1.761  -0.508  15.159  1.00  0.00     0.041 C 
ATOM      8  O   UNL     1       0.552  -0.199  14.984  1.00  0.00    -0.550 OA
ATOM      9  O   UNL     1       2.087  -1.776  15.623  1.00  0.00    -0.550 OA
ENDBRANCH   6   7
ENDBRANCH   5   6
ENDBRANCH   4   5
ENDBRANCH   3   4
ENDBRANCH   2   3
ENDBRANCH   1   2
BRANCH   1  10
ATOM     10  C   UNL     1       5.234  -1.528  17.605  1.00  0.00     0.000 C 
BRANCH  10  11
ATOM     11  C   UNL     1       5.700  -2.079  16.246  1.00  0.00    -0.000 C 
BRANCH  11  12
ATOM     12  C   UNL     1       6.197  -0.975  15.300  1.00  0.00    -0.000 C 
BRANCH  12  13
ATOM     13  C   UNL     1       6.129  -1.388  13.820  1.00  0.00    -0.000 C 
BRANCH  13  14
ATOM     14  C   UNL     1       6.099  -0.168  12.875  1.00  0.00    -0.000 C 
BRANCH  14  15
ATOM     15  C   UNL     1       6.149   1.181  13.612  1.00  0.00    -0.003 C 
ATOM     16  C   UNL     1       5.387   2.287  12.885  1.00  0.00     0.004 C 
ENDBRANCH  14  15
ENDBRANCH  13  14
ENDBRANCH  12  13
ENDBRANCH  11  12
ENDBRANCH  10  11
ENDBRANCH   1  10
TORSDOF 12
ENDMDL
MODEL 6
REMARK VINA RESULT:    -3.946      1.284      3.836
REMARK INTER + INTRA:          -8.721
REMARK INTER:                  -6.991
REMARK INTRA:                  -1.730
REMARK UNBOUND:                -2.006
REMARK SMILES CCCCCCCCCCCCCC(=O)[O-]
REMARK SMILES IDX 8 1 9 2 10 3 11 4 12 5 13 6 14 7 15 8 16 9 7 10 6 11 5 12
REMARK SMILES IDX 4 13 3 14 2 15 1 16
REMARK H PARENT
REMARK Flexibility Score: inf
ROOT
ATOM      1  C   UNL     1       4.178   0.078  13.056  1.00  0.00     0.000 C 
ENDROOT
BRANCH   1   2
ATOM      2  C   UNL     1       5.462  -0.757  12.926  1.00  0.00     0.000 C 
BRANCH   2   3
ATOM      3  C   UNL     1       6.313  -0.747  14.208  1.00  0.00     0.000 C 
BRANCH   3   4
ATOM      4  C   UNL     1       6.229  -2.033  15.055  1.00  0.00     0.000 C 
BRANCH   4   5
ATOM      5  C   UNL     1       5.910  -1.814  16.545  1.00  0.00     0.006 C 
BRANCH   5   6
ATOM      6  C   UNL     1       5.756  -0.334  16.909  1.00  0.00     0.053 C 
BRANCH   6   7
ATOM      7  C   UNL     1       5.634  -0.171  18.392  1.00  0.00     0.041 C 
ATOM      8  O   UNL     1       4.833   0.674  18.874  1.00  0.00    -0.550 OA
ATOM      9  O   UNL     1       6.366  -0.988  19.243  1.00  0.00    -0.550 OA
ENDBRANCH   6   7
ENDBRANCH   5   6
ENDBRANCH   4   5
ENDBRANCH   3   4
ENDBRANCH   2   3
ENDBRANCH   1   2
BRANCH   1  10
ATOM     10  C   UNL     1       3.000  -0.737  13.612  1.00  0.00     0.000 C 
BRANCH  10  11
ATOM     11  C   UNL     1       2.685  -0.394  15.078  1.00  0.00    -0.000 C 
BRANCH  11  12
ATOM     12  C   UNL     1       2.137   1.032  15.246  1.00  0.00    -0.000 C 
BRANCH  12  13
ATOM     13  C   UNL     1       2.931   1.855  16.274  1.00  0.00    -0.000 C 
BRANCH  13  14
ATOM     14  C   UNL     1       4.065   2.671  15.617  1.00  0.00    -0.000 C 
BRANCH  14  15
ATOM     15  C   UNL     1       3.597   3.526  14.428  1.00  0.00    -0.003 C 
ATOM     16  C   UNL     1       4.554   3.473  13.240  1.00  0.00     0.004 C 
ENDBRANCH  14  15
ENDBRANCH  13  14
ENDBRANCH  12  13
ENDBRANCH  11  12
ENDBRANCH  10  11
ENDBRANCH   1  10
TORSDOF 12
ENDMDL
MODEL 7
REMARK VINA RESULT:    -3.930      2.195      4.469
REMARK INTER + INTRA:          -8.693
REMARK INTER:                  -6.846
REMARK INTRA:                  -1.847
REMARK UNBOUND:                -2.006
REMARK SMILES CCCCCCCCCCCCCC(=O)[O-]
REMARK SMILES IDX 8 1 9 2 10 3 11 4 12 5 13 6 14 7 15 8 16 9 7 10 6 11 5 12
REMARK SMILES IDX 4 13 3 14 2 15 1 16
REMARK H PARENT
REMARK Flexibility Score: inf
ROOT
ATOM      1  C   UNL     1       6.483   0.774  13.381  1.00  0.00     0.000 C 
ENDROOT
BRANCH   1   2
ATOM      2  C   UNL     1       6.527  -0.677  12.877  1.00  0.00     0.000 C 
BRANCH   2   3
ATOM      3  C   UNL     1       6.888  -1.683  13.984  1.00  0.00     0.000 C 
BRANCH   3   4
ATOM      4  C   UNL     1       5.866  -1.780  15.134  1.00  0.00     0.000 C 
BRANCH   4   5
ATOM      5  C   UNL     1       4.391  -1.839  14.695  1.00  0.00     0.006 C 
BRANCH   5   6
ATOM      6  C   UNL     1       3.426  -1.367  15.787  1.00  0.00     0.053 C 
BRANCH   6   7
ATOM      7  C   UNL     1       2.075  -1.089  15.205  1.00  0.00     0.041 C 
ATOM      8  O   UNL     1       1.529   0.033  15.378  1.00  0.00    -0.550 OA
ATOM      9  O   UNL     1       1.442  -2.051  14.429  1.00  0.00    -0.550 OA
ENDBRANCH   6   7
ENDBRANCH   5   6
ENDBRANCH   4   5
ENDBRANCH   3   4
ENDBRANCH   2   3
ENDBRANCH   1   2
BRANCH   1  10
ATOM     10  C   UNL     1       5.212   1.514  12.935  1.00  0.00     0.000 C 
BRANCH  10  11
ATOM     11  C   UNL     1       4.339   1.955  14.123  1.00  0.00    -0.000 C 
BRANCH  11  12
ATOM     12  C   UNL     1       5.101   1.928  15.458  1.00  0.00    -0.000 C 
BRANCH  12  13
ATOM     13  C   UNL     1       4.218   2.332  16.651  1.00  0.00    -0.000 C 
BRANCH  13  14
ATOM     14  C   UNL     1       4.390   1.377  17.852  1.00  0.00    -0.000 C 
BRANCH  14  15
ATOM     15  C   UNL     1       5.640   0.488  17.756  1.00  0.00    -0.003 C 
ATOM     16  C   UNL     1       5.690  -0.591  18.836  1.00  0.00     0.004 C 
ENDBRANCH  14  15
ENDBRANCH  13  14
ENDBRANCH  12  13
ENDBRANCH  11  12
ENDBRANCH  10  11
ENDBRANCH   1  10
TORSDOF 12
ENDMDL
MODEL 8
REMARK VINA RESULT:    -3.911      1.915      4.479
REMARK INTER + INTRA:          -8.661
REMARK INTER:                  -7.388
REMARK INTRA:                  -1.273
REMARK UNBOUND:                -2.006
REMARK SMILES CCCCCCCCCCCCCC(=O)[O-]
REMARK SMILES IDX 8 1 9 2 10 3 11 4 12 5 13 6 14 7 15 8 16 9 7 10 6 11 5 12
REMARK SMILES IDX 4 13 3 14 2 15 1 16
REMARK H PARENT
REMARK Flexibility Score: inf
ROOT
ATOM      1  C   UNL     1       4.099   3.045  15.098  1.00  0.00     0.000 C 
ENDROOT
BRANCH   1   2
ATOM      2  C   UNL     1       4.830   3.058  13.745  1.00  0.00     0.000 C 
BRANCH   2   3
ATOM      3  C   UNL     1       4.514   1.822  12.885  1.00  0.00     0.000 C 
BRANCH   3   4
ATOM      4  C   UNL     1       5.123   0.500  13.396  1.00  0.00     0.000 C 
BRANCH   4   5
ATOM      5  C   UNL     1       4.103  -0.608  13.717  1.00  0.00     0.006 C 
BRANCH   5   6
ATOM      6  C   UNL     1       2.654  -0.112  13.676  1.00  0.00     0.053 C 
BRANCH   6   7
ATOM      7  C   UNL     1       1.858  -0.734  14.780  1.00  0.00     0.041 C 
ATOM      8  O   UNL     1       2.357  -1.653  15.482  1.00  0.00    -0.550 OA
ATOM      9  O   UNL     1       0.583  -0.264  15.068  1.00  0.00    -0.550 OA
ENDBRANCH   6   7
ENDBRANCH   5   6
ENDBRANCH   4   5
ENDBRANCH   3   4
ENDBRANCH   2   3
ENDBRANCH   1   2
BRANCH   1  10
ATOM     10  C   UNL     1       4.857   2.243  16.167  1.00  0.00     0.000 C 
BRANCH  10  11
ATOM     11  C   UNL     1       3.915   1.430  17.072  1.00  0.00    -0.000 C 
BRANCH  11  12
ATOM     12  C   UNL     1       4.193   1.653  18.567  1.00  0.00    -0.000 C 
BRANCH  12  13
ATOM     13  C   UNL     1       4.611   0.362  19.291  1.00  0.00    -0.000 C 
BRANCH  13  14
ATOM     14  C   UNL     1       5.937  -0.209  18.745  1.00  0.00    -0.000 C 
BRANCH  14  15
ATOM     15  C   UNL     1       5.815  -1.649  18.219  1.00  0.00    -0.003 C 
ATOM     16  C   UNL     1       5.784  -1.728  16.694  1.00  0.00     0.004 C 
ENDBRANCH  14  15
ENDBRANCH  13  14
ENDBRANCH  12  13
ENDBRANCH  11  12
ENDBRANCH  10  11
ENDBRANCH   1  10
TORSDOF 12
ENDMDL
