MODEL 1
REMARK VINA RESULT:    -3.998      0.000      0.000
REMARK INTER + INTRA:          -8.484
REMARK INTER:                  -7.504
REMARK INTRA:                  -0.980
REMARK UNBOUND:                -0.980
REMARK SMILES CCCCCCCCC=CCCCCCCCC(=O)[O-]
REMARK SMILES IDX 10 1 9 2 11 3 12 4 13 5 14 6 15 7 16 8 17 9 18 10 19 11
REMARK SMILES IDX 20 12 8 13 7 14 6 15 5 16 4 17 3 18 2 19 1 20
REMARK H PARENT
REMARK Flexibility Score: inf
ROOT
ATOM      1  C   UNL     1      -2.517 -51.102   2.729  1.00  0.00    -0.031 C 
ATOM      2  C   UNL     1      -1.794 -51.760   3.646  1.00  0.00    -0.031 C 
ENDROOT
BRANCH   1   3
ATOM      3  C   UNL     1      -1.961 -50.782   1.369  1.00  0.00     0.027 C 
BRANCH   3   4
ATOM      4  C   UNL     1      -3.088 -50.563   0.348  1.00  0.00     0.004 C 
BRANCH   4   5
ATOM      5  C   UNL     1      -4.122 -51.700   0.357  1.00  0.00     0.000 C 
BRANCH   5   6
ATOM      6  C   UNL     1      -5.561 -51.188   0.175  1.00  0.00     0.000 C 
BRANCH   6   7
ATOM      7  C   UNL     1      -6.607 -52.124   0.800  1.00  0.00     0.000 C 
BRANCH   7   8
ATOM      8  C   UNL     1      -6.815 -51.858   2.302  1.00  0.00     0.006 C 
BRANCH   8   9
ATOM      9  C   UNL     1      -8.274 -51.520   2.634  1.00  0.00     0.053 C 
BRANCH   9  10
ATOM     10  C   UNL     1      -8.440 -51.107   4.065  1.00  0.00     0.041 C 
ATOM     11  O   UNL     1      -8.980 -51.890   4.892  1.00  0.00    -0.550 OA
ATOM     12  O   UNL     1      -8.024 -49.848   4.479  1.00  0.00    -0.550 OA
ENDBRANCH   9  10
ENDBRANCH   8   9
ENDBRANCH   7   8
ENDBRANCH   6   7
ENDBRANCH   5   6
ENDBRANCH   4   5
ENDBRANCH   3   4
ENDBRANCH   1   3
BRANCH   2  13
ATOM     13  C   UNL     1      -2.376 -52.083   4.996  1.00  0.00     0.027 C 
BRANCH  13  14
ATOM     14  C   UNL     1      -1.512 -51.503   6.123  1.00  0.00     0.004 C 
BRANCH  14  15
ATOM     15  C   UNL     1      -2.341 -51.007   7.323  1.00  0.00     0.000 C 
BRANCH  15  16
ATOM     16  C   UNL     1      -3.029 -52.112   8.144  1.00  0.00     0.000 C 
BRANCH  16  17
ATOM     17  C   UNL     1      -4.527 -51.845   8.372  1.00  0.00    -0.000 C 
BRANCH  17  18
ATOM     18  C   UNL     1      -4.802 -51.118   9.698  1.00  0.00    -0.000 C 
BRANCH  18  19
ATOM     19  C   UNL     1      -6.286 -51.152  10.094  1.00  0.00    -0.003 C 
ATOM     20  C   UNL     1      -7.179 -50.810   8.905  1.00  0.00     0.004 C 
ENDBRANCH  18  19
ENDBRANCH  17  18
ENDBRANCH  16  17
ENDBRANCH  15  16
ENDBRANCH  14  15
ENDBRANCH  13  14
ENDBRANCH   2  13
TORSDOF 15
ENDMDL
MODEL 2
REMARK VINA RESULT:    -3.910      0.945      1.513
REMARK INTER + INTRA:          -8.319
REMARK INTER:                  -7.387
REMARK INTRA:                  -0.933
REMARK UNBOUND:                -0.980
REMARK SMILES CCCCCCCCC=CCCCCCCCC(=O)[O-]
REMARK SMILES IDX 10 1 9 2 11 3 12 4 13 5 14 6 15 7 16 8 17 9 18 10 19 11
REMARK SMILES IDX 20 12 8 13 7 14 6 15 5 16 4 17 3 18 2 19 1 20
REMARK H PARENT
REMARK Flexibility Score: inf
ROOT
ATOM      1  C   UNL     1      -2.739 -50.790   2.000  1.00  0.00    -0.031 C 
ATOM      2  C   UNL     1      -1.441 -50.697   2.321  1.00  0.00    -0.031 C 
ENDROOT
BRANCH   1   3
ATOM      3  C   UNL     1      -3.260 -50.300   0.677  1.00  0.00     0.027 C 
BRANCH   3   4
ATOM      4  C   UNL     1      -3.791 -51.464  -0.173  1.00  0.00     0.004 C 
BRANCH   4   5
ATOM      5  C   UNL     1      -5.035 -52.125   0.443  1.00  0.00     0.000 C 
BRANCH   5   6
ATOM      6  C   UNL     1      -6.206 -51.140   0.603  1.00  0.00     0.000 C 
BRANCH   6   7
ATOM      7  C   UNL     1      -7.574 -51.839   0.584  1.00  0.00     0.000 C 
BRANCH   7   8
ATOM      8  C   UNL     1      -8.594 -51.166   1.521  1.00  0.00     0.006 C 
BRANCH   8   9
ATOM      9  C   UNL     1      -8.464 -51.658   2.968  1.00  0.00     0.053 C 
BRANCH   9  10
ATOM     10  C   UNL     1      -8.435 -50.519   3.943  1.00  0.00     0.041 C 
ATOM     11  O   UNL     1      -9.083 -49.465   3.705  1.00  0.00    -0.550 OA
ATOM     12  O   UNL     1      -7.671 -50.611   5.100  1.00  0.00    -0.550 OA
ENDBRANCH   9  10
ENDBRANCH   8   9
ENDBRANCH   7   8
ENDBRANCH   6   7
ENDBRANCH   5   6
ENDBRANCH   4   5
ENDBRANCH   3   4
ENDBRANCH   1   3
BRANCH   2  13
ATOM     13  C   UNL     1      -0.939 -51.208   3.645  1.00  0.00     0.027 C 
BRANCH  13  14
ATOM     14  C   UNL     1      -1.981 -52.110   4.320  1.00  0.00     0.004 C 
BRANCH  14  15
ATOM     15  C   UNL     1      -1.920 -52.053   5.858  1.00  0.00     0.000 C 
BRANCH  15  16
ATOM     16  C   UNL     1      -3.211 -51.578   6.547  1.00  0.00     0.000 C 
BRANCH  16  17
ATOM     17  C   UNL     1      -3.034 -51.344   8.057  1.00  0.00    -0.000 C 
BRANCH  17  18
ATOM     18  C   UNL     1      -4.278 -51.750   8.866  1.00  0.00    -0.000 C 
BRANCH  18  19
ATOM     19  C   UNL     1      -4.952 -50.553   9.555  1.00  0.00    -0.003 C 
ATOM     20  C   UNL     1      -6.460 -50.759   9.658  1.00  0.00     0.004 C 
ENDBRANCH  18  19
ENDBRANCH  17  18
ENDBRANCH  16  17
ENDBRANCH  15  16
ENDBRANCH  14  15
ENDBRANCH  13  14
ENDBRANCH   2  13
TORSDOF 15
ENDMDL
MODEL 3
REMARK VINA RESULT:    -3.673      1.535      6.391
REMARK INTER + INTRA:          -7.874
REMARK INTER:                  -7.116
REMARK INTRA:                  -0.757
REMARK UNBOUND:                -0.980
REMARK SMILES CCCCCCCCC=CCCCCCCCC(=O)[O-]
REMARK SMILES IDX 10 1 9 2 11 3 12 4 13 5 14 6 15 7 16 8 17 9 18 10 19 11
REMARK SMILES IDX 20 12 8 13 7 14 6 15 5 16 4 17 3 18 2 19 1 20
REMARK H PARENT
REMARK Flexibility Score: inf
ROOT
ATOM      1  C   UNL     1      -3.169 -51.428   3.280  1.00  0.00    -0.031 C 
ATOM      2  C   UNL     1      -2.315 -51.223   2.267  1.00  0.00    -0.031 C 
ENDROOT
BRANCH   1   3
ATOM      3  C   UNL     1      -2.739 -52.119   4.544  1.00  0.00     0.027 C 
BRANCH   3   4
ATOM      4  C   UNL     1      -1.473 -51.470   5.125  1.00  0.00     0.004 C 
BRANCH   4   5
ATOM      5  C   UNL     1      -1.424 -51.543   6.660  1.00  0.00     0.000 C 
BRANCH   5   6
ATOM      6  C   UNL     1      -2.769 -51.970   7.272  1.00  0.00     0.000 C 
BRANCH   6   7
ATOM      7  C   UNL     1      -3.126 -51.169   8.533  1.00  0.00     0.000 C 
BRANCH   7   8
ATOM      8  C   UNL     1      -4.276 -51.807   9.333  1.00  0.00     0.006 C 
BRANCH   8   9
ATOM      9  C   UNL     1      -5.322 -50.774   9.771  1.00  0.00     0.053 C 
BRANCH   9  10
ATOM     10  C   UNL     1      -6.543 -50.813   8.902  1.00  0.00     0.041 C 
ATOM     11  O   UNL     1      -7.569 -50.156   9.222  1.00  0.00    -0.550 OA
ATOM     12  O   UNL     1      -6.557 -51.598   7.755  1.00  0.00    -0.550 OA
ENDBRANCH   9  10
ENDBRANCH   8   9
ENDBRANCH   7   8
ENDBRANCH   6   7
ENDBRANCH   5   6
ENDBRANCH   4   5
ENDBRANCH   3   4
ENDBRANCH   1   3
BRANCH   2  13
ATOM     13  C   UNL     1      -2.763 -50.516   1.016  1.00  0.00     0.027 C 
BRANCH  13  14
ATOM     14  C   UNL     1      -3.398 -51.499   0.023  1.00  0.00     0.004 C 
BRANCH  14  15
ATOM     15  C   UNL     1      -4.716 -52.107   0.537  1.00  0.00     0.000 C 
BRANCH  15  16
ATOM     16  C   UNL     1      -5.993 -51.382   0.078  1.00  0.00     0.000 C 
BRANCH  16  17
ATOM     17  C   UNL     1      -7.281 -52.125   0.476  1.00  0.00    -0.000 C 
BRANCH  17  18
ATOM     18  C   UNL     1      -7.536 -52.091   1.992  1.00  0.00    -0.000 C 
BRANCH  18  19
ATOM     19  C   UNL     1      -8.348 -50.861   2.428  1.00  0.00    -0.003 C 
ATOM     20  C   UNL     1      -8.422 -50.764   3.949  1.00  0.00     0.004 C 
ENDBRANCH  18  19
ENDBRANCH  17  18
ENDBRANCH  16  17
ENDBRANCH  15  16
ENDBRANCH  14  15
ENDBRANCH  13  14
ENDBRANCH   2  13
TORSDOF 15
ENDMDL
MODEL 4
REMARK VINA RESULT:    -3.016      2.966      4.324
REMARK INTER + INTRA:          -6.642
REMARK INTER:                  -5.313
REMARK INTRA:                  -1.329
REMARK UNBOUND:                -0.980
REMARK SMILES CCCCCCCCC=CCCCCCCCC(=O)[O-]
REMARK SMILES IDX 10 1 9 2 11 3 12 4 13 5 14 6 15 7 16 8 17 9 18 10 19 11
REMARK SMILES IDX 20 12 8 13 7 14 6 15 5 16 4 17 3 18 2 19 1 20
REMARK H PARENT
REMARK Flexibility Score: inf
ROOT
ATOM      1  C   UNL     1      -5.936 -51.181   3.598  1.00  0.00    -0.031 C 
ATOM      2  C   UNL     1      -5.081 -51.840   4.393  1.00  0.00    -0.031 C 
ENDROOT
BRANCH   1   3
ATOM      3  C   UNL     1      -7.299 -51.732   3.281  1.00  0.00     0.027 C 
BRANCH   3   4
ATOM      4  C   UNL     1      -7.533 -51.789   1.764  1.00  0.00     0.004 C 
BRANCH   4   5
ATOM      5  C   UNL     1      -6.499 -50.969   0.976  1.00  0.00     0.000 C 
BRANCH   5   6
ATOM      6  C   UNL     1      -6.014 -51.695  -0.291  1.00  0.00     0.000 C 
BRANCH   6   7
ATOM      7  C   UNL     1      -4.542 -52.125  -0.201  1.00  0.00     0.000 C 
BRANCH   7   8
ATOM      8  C   UNL     1      -3.852 -51.606   1.073  1.00  0.00     0.006 C 
BRANCH   8   9
ATOM      9  C   UNL     1      -2.701 -50.641   0.757  1.00  0.00     0.053 C 
BRANCH   9  10
ATOM     10  C   UNL     1      -1.441 -51.372   0.405  1.00  0.00     0.041 C 
ATOM     11  O   UNL     1      -1.174 -51.631  -0.799  1.00  0.00    -0.550 OA
ATOM     12  O   UNL     1      -0.576 -51.794   1.408  1.00  0.00    -0.550 OA
ENDBRANCH   9  10
ENDBRANCH   8   9
ENDBRANCH   7   8
ENDBRANCH   6   7
ENDBRANCH   5   6
ENDBRANCH   4   5
ENDBRANCH   3   4
ENDBRANCH   1   3
BRANCH   2  13
ATOM     13  C   UNL     1      -3.727 -51.262   4.709  1.00  0.00     0.027 C 
BRANCH  13  14
ATOM     14  C   UNL     1      -2.984 -52.125   5.738  1.00  0.00     0.004 C 
BRANCH  14  15
ATOM     15  C   UNL     1      -2.101 -51.298   6.691  1.00  0.00     0.000 C 
BRANCH  15  16
ATOM     16  C   UNL     1      -2.709 -51.030   8.079  1.00  0.00     0.000 C 
BRANCH  16  17
ATOM     17  C   UNL     1      -3.843 -52.006   8.436  1.00  0.00    -0.000 C 
BRANCH  17  18
ATOM     18  C   UNL     1      -5.186 -51.293   8.659  1.00  0.00    -0.000 C 
BRANCH  18  19
ATOM     19  C   UNL     1      -5.728 -51.486  10.085  1.00  0.00    -0.003 C 
ATOM     20  C   UNL     1      -7.254 -51.464  10.098  1.00  0.00     0.004 C 
ENDBRANCH  18  19
ENDBRANCH  17  18
ENDBRANCH  16  17
ENDBRANCH  15  16
ENDBRANCH  14  15
ENDBRANCH  13  14
ENDBRANCH   2  13
TORSDOF 15
ENDMDL
MODEL 5
REMARK VINA RESULT:    -2.907      4.204      5.240
REMARK INTER + INTRA:          -6.437
REMARK INTER:                  -5.703
REMARK INTRA:                  -0.734
REMARK UNBOUND:                -0.980
REMARK SMILES CCCCCCCCC=CCCCCCCCC(=O)[O-]
REMARK SMILES IDX 10 1 9 2 11 3 12 4 13 5 14 6 15 7 16 8 17 9 18 10 19 11
REMARK SMILES IDX 20 12 8 13 7 14 6 15 5 16 4 17 3 18 2 19 1 20
REMARK H PARENT
REMARK Flexibility Score: inf
ROOT
ATOM      1  C   UNL     1      -1.663 -51.803   4.906  1.00  0.00    -0.031 C 
ATOM      2  C   UNL     1      -1.045 -50.975   5.761  1.00  0.00    -0.031 C 
ENDROOT
BRANCH   1   3
ATOM      3  C   UNL     1      -1.304 -51.837   3.446  1.00  0.00     0.027 C 
BRANCH   3   4
ATOM      4  C   UNL     1      -2.564 -51.821   2.567  1.00  0.00     0.004 C 
BRANCH   4   5
ATOM      5  C   UNL     1      -2.916 -50.411   2.067  1.00  0.00     0.000 C 
BRANCH   5   6
ATOM      6  C   UNL     1      -3.258 -50.388   0.567  1.00  0.00     0.000 C 
BRANCH   6   7
ATOM      7  C   UNL     1      -3.397 -51.796  -0.031  1.00  0.00     0.000 C 
BRANCH   7   8
ATOM      8  C   UNL     1      -2.278 -52.125  -1.036  1.00  0.00     0.006 C 
BRANCH   8   9
ATOM      9  C   UNL     1      -0.883 -51.856  -0.457  1.00  0.00     0.053 C 
BRANCH   9  10
ATOM     10  C   UNL     1       0.188 -51.992  -1.497  1.00  0.00     0.041 C 
ATOM     11  O   UNL     1      -0.120 -52.060  -2.717  1.00  0.00    -0.550 OA
ATOM     12  O   UNL     1       1.522 -52.073  -1.118  1.00  0.00    -0.550 OA
ENDBRANCH   9  10
ENDBRANCH   8   9
ENDBRANCH   7   8
ENDBRANCH   6   7
ENDBRANCH   5   6
ENDBRANCH   4   5
ENDBRANCH   3   4
ENDBRANCH   1   3
BRANCH   2  13
ATOM     13  C   UNL     1      -1.410 -50.968   7.221  1.00  0.00     0.027 C 
BRANCH  13  14
ATOM     14  C   UNL     1      -2.371 -52.117   7.556  1.00  0.00     0.004 C 
BRANCH  14  15
ATOM     15  C   UNL     1      -3.170 -51.874   8.851  1.00  0.00     0.000 C 
BRANCH  15  16
ATOM     16  C   UNL     1      -4.700 -51.869   8.684  1.00  0.00     0.000 C 
BRANCH  16  17
ATOM     17  C   UNL     1      -5.369 -50.642   9.328  1.00  0.00    -0.000 C 
BRANCH  17  18
ATOM     18  C   UNL     1      -6.842 -50.895   9.687  1.00  0.00    -0.000 C 
BRANCH  18  19
ATOM     19  C   UNL     1      -7.795 -49.897   9.011  1.00  0.00    -0.003 C 
ATOM     20  C   UNL     1      -8.878 -49.430   9.981  1.00  0.00     0.004 C 
ENDBRANCH  18  19
ENDBRANCH  17  18
ENDBRANCH  16  17
ENDBRANCH  15  16
ENDBRANCH  14  15
ENDBRANCH  13  14
ENDBRANCH   2  13
TORSDOF 15
ENDMDL
MODEL 6
REMARK VINA RESULT:    -2.671      1.585      3.347
REMARK INTER + INTRA:          -5.994
REMARK INTER:                  -4.826
REMARK INTRA:                  -1.168
REMARK UNBOUND:                -0.980
REMARK SMILES CCCCCCCCC=CCCCCCCCC(=O)[O-]
REMARK SMILES IDX 10 1 9 2 11 3 12 4 13 5 14 6 15 7 16 8 17 9 18 10 19 11
REMARK SMILES IDX 20 12 8 13 7 14 6 15 5 16 4 17 3 18 2 19 1 20
REMARK H PARENT
REMARK Flexibility Score: inf
ROOT
ATOM      1  C   UNL     1      -3.913 -51.043   0.847  1.00  0.00    -0.031 C 
ATOM      2  C   UNL     1      -2.810 -50.281   0.876  1.00  0.00    -0.031 C 
ENDROOT
BRANCH   1   3
ATOM      3  C   UNL     1      -5.137 -50.628   0.078  1.00  0.00     0.027 C 
BRANCH   3   4
ATOM      4  C   UNL     1      -6.067 -51.825  -0.169  1.00  0.00     0.004 C 
BRANCH   4   5
ATOM      5  C   UNL     1      -7.548 -51.418  -0.236  1.00  0.00     0.000 C 
BRANCH   5   6
ATOM      6  C   UNL     1      -8.348 -51.905   0.984  1.00  0.00     0.000 C 
BRANCH   6   7
ATOM      7  C   UNL     1      -9.002 -50.752   1.762  1.00  0.00     0.000 C 
BRANCH   7   8
ATOM      8  C   UNL     1      -9.091 -51.034   3.272  1.00  0.00     0.006 C 
BRANCH   8   9
ATOM      9  C   UNL     1      -8.057 -52.071   3.730  1.00  0.00     0.053 C 
BRANCH   9  10
ATOM     10  C   UNL     1      -7.153 -51.525   4.795  1.00  0.00     0.041 C 
ATOM     11  O   UNL     1      -7.633 -51.127   5.890  1.00  0.00    -0.550 OA
ATOM     12  O   UNL     1      -5.787 -51.429   4.566  1.00  0.00    -0.550 OA
ENDBRANCH   9  10
ENDBRANCH   8   9
ENDBRANCH   7   8
ENDBRANCH   6   7
ENDBRANCH   5   6
ENDBRANCH   4   5
ENDBRANCH   3   4
ENDBRANCH   1   3
BRANCH   2  13
ATOM     13  C   UNL     1      -1.592 -50.724   1.641  1.00  0.00     0.027 C 
BRANCH  13  14
ATOM     14  C   UNL     1      -1.797 -52.119   2.248  1.00  0.00     0.004 C 
BRANCH  14  15
ATOM     15  C   UNL     1      -1.701 -52.125   3.785  1.00  0.00     0.000 C 
BRANCH  15  16
ATOM     16  C   UNL     1      -0.943 -50.935   4.398  1.00  0.00     0.000 C 
BRANCH  16  17
ATOM     17  C   UNL     1      -0.953 -50.945   5.937  1.00  0.00    -0.000 C 
BRANCH  17  18
ATOM     18  C   UNL     1      -1.952 -51.962   6.513  1.00  0.00    -0.000 C 
BRANCH  18  19
ATOM     19  C   UNL     1      -3.278 -51.312   6.939  1.00  0.00    -0.003 C 
ATOM     20  C   UNL     1      -3.767 -51.885   8.266  1.00  0.00     0.004 C 
ENDBRANCH  18  19
ENDBRANCH  17  18
ENDBRANCH  16  17
ENDBRANCH  15  16
ENDBRANCH  14  15
ENDBRANCH  13  14
ENDBRANCH   2  13
TORSDOF 15
ENDMDL
MODEL 7
REMARK VINA RESULT:    -2.661      2.156      6.146
REMARK INTER + INTRA:          -5.975
REMARK INTER:                  -4.586
REMARK INTRA:                  -1.389
REMARK UNBOUND:                -0.980
REMARK SMILES CCCCCCCCC=CCCCCCCCC(=O)[O-]
REMARK SMILES IDX 10 1 9 2 11 3 12 4 13 5 14 6 15 7 16 8 17 9 18 10 19 11
REMARK SMILES IDX 20 12 8 13 7 14 6 15 5 16 4 17 3 18 2 19 1 20
REMARK H PARENT
REMARK Flexibility Score: inf
ROOT
ATOM      1  C   UNL     1      -3.373 -50.816   2.089  1.00  0.00    -0.031 C 
ATOM      2  C   UNL     1      -3.885 -51.586   1.118  1.00  0.00    -0.031 C 
ENDROOT
BRANCH   1   3
ATOM      3  C   UNL     1      -1.981 -50.255   1.996  1.00  0.00     0.027 C 
BRANCH   3   4
ATOM      4  C   UNL     1      -1.224 -50.434   3.321  1.00  0.00     0.004 C 
BRANCH   4   5
ATOM      5  C   UNL     1      -1.187 -51.898   3.787  1.00  0.00     0.000 C 
BRANCH   5   6
ATOM      6  C   UNL     1      -1.979 -52.122   5.087  1.00  0.00     0.000 C 
BRANCH   6   7
ATOM      7  C   UNL     1      -1.264 -51.552   6.322  1.00  0.00     0.000 C 
BRANCH   7   8
ATOM      8  C   UNL     1      -1.825 -52.114   7.641  1.00  0.00     0.006 C 
BRANCH   8   9
ATOM      9  C   UNL     1      -2.545 -51.041   8.468  1.00  0.00     0.053 C 
BRANCH   9  10
ATOM     10  C   UNL     1      -3.977 -51.403   8.726  1.00  0.00     0.041 C 
ATOM     11  O   UNL     1      -4.823 -51.341   7.794  1.00  0.00    -0.550 OA
ATOM     12  O   UNL     1      -4.382 -51.780  10.000  1.00  0.00    -0.550 OA
ENDBRANCH   9  10
ENDBRANCH   8   9
ENDBRANCH   7   8
ENDBRANCH   6   7
ENDBRANCH   5   6
ENDBRANCH   4   5
ENDBRANCH   3   4
ENDBRANCH   1   3
BRANCH   2  13
ATOM     13  C   UNL     1      -5.287 -52.124   1.225  1.00  0.00     0.027 C 
BRANCH  13  14
ATOM     14  C   UNL     1      -6.320 -51.055   0.844  1.00  0.00     0.004 C 
BRANCH  14  15
ATOM     15  C   UNL     1      -7.656 -51.653   0.364  1.00  0.00     0.000 C 
BRANCH  15  16
ATOM     16  C   UNL     1      -8.847 -51.438   1.313  1.00  0.00     0.000 C 
BRANCH  16  17
ATOM     17  C   UNL     1      -8.604 -52.010   2.720  1.00  0.00    -0.000 C 
BRANCH  17  18
ATOM     18  C   UNL     1      -8.639 -50.927   3.811  1.00  0.00    -0.000 C 
BRANCH  18  19
ATOM     19  C   UNL     1      -7.843 -51.325   5.064  1.00  0.00    -0.003 C 
ATOM     20  C   UNL     1      -6.477 -51.894   4.688  1.00  0.00     0.004 C 
ENDBRANCH  18  19
ENDBRANCH  17  18
ENDBRANCH  16  17
ENDBRANCH  15  16
ENDBRANCH  14  15
ENDBRANCH  13  14
ENDBRANCH   2  13
TORSDOF 15
ENDMDL
MODEL 8
REMARK VINA RESULT:    -2.302      2.154      5.783
REMARK INTER + INTRA:          -5.302
REMARK INTER:                  -4.927
REMARK INTRA:                  -0.375
REMARK UNBOUND:                -0.980
REMARK SMILES CCCCCCCCC=CCCCCCCCC(=O)[O-]
REMARK SMILES IDX 10 1 9 2 11 3 12 4 13 5 14 6 15 7 16 8 17 9 18 10 19 11
REMARK SMILES IDX 20 12 8 13 7 14 6 15 5 16 4 17 3 18 2 19 1 20
REMARK H PARENT
REMARK Flexibility Score: inf
ROOT
ATOM      1  C   UNL     1      -4.275 -51.990   3.825  1.00  0.00    -0.031 C 
ATOM      2  C   UNL     1      -3.547 -51.074   4.480  1.00  0.00    -0.031 C 
ENDROOT
BRANCH   1   3
ATOM      3  C   UNL     1      -5.433 -51.597   2.950  1.00  0.00     0.027 C 
BRANCH   3   4
ATOM      4  C   UNL     1      -6.759 -52.124   3.518  1.00  0.00     0.004 C 
BRANCH   4   5
ATOM      5  C   UNL     1      -7.937 -51.176   3.244  1.00  0.00     0.000 C 
BRANCH   5   6
ATOM      6  C   UNL     1      -8.989 -51.206   4.366  1.00  0.00     0.000 C 
BRANCH   6   7
ATOM      7  C   UNL     1      -8.568 -52.092   5.549  1.00  0.00     0.000 C 
BRANCH   7   8
ATOM      8  C   UNL     1      -7.458 -51.451   6.402  1.00  0.00     0.006 C 
BRANCH   8   9
ATOM      9  C   UNL     1      -7.319 -52.124   7.774  1.00  0.00     0.053 C 
BRANCH   9  10
ATOM     10  C   UNL     1      -6.798 -51.175   8.810  1.00  0.00     0.041 C 
ATOM     11  O   UNL     1      -7.579 -50.682   9.667  1.00  0.00    -0.550 OA
ATOM     12  O   UNL     1      -5.457 -50.813   8.813  1.00  0.00    -0.550 OA
ENDBRANCH   9  10
ENDBRANCH   8   9
ENDBRANCH   7   8
ENDBRANCH   6   7
ENDBRANCH   5   6
ENDBRANCH   4   5
ENDBRANCH   3   4
ENDBRANCH   1   3
BRANCH   2  13
ATOM     13  C   UNL     1      -2.383 -51.489   5.339  1.00  0.00     0.027 C 
BRANCH  13  14
ATOM     14  C   UNL     1      -1.254 -52.086   4.489  1.00  0.00     0.004 C 
BRANCH  14  15
ATOM     15  C   UNL     1      -0.671 -51.084   3.474  1.00  0.00     0.000 C 
BRANCH  15  16
ATOM     16  C   UNL     1      -1.620 -50.682   2.332  1.00  0.00     0.000 C 
BRANCH  16  17
ATOM     17  C   UNL     1      -1.338 -51.440   1.023  1.00  0.00    -0.000 C 
BRANCH  17  18
ATOM     18  C   UNL     1      -2.619 -51.984   0.369  1.00  0.00    -0.000 C 
BRANCH  18  19
ATOM     19  C   UNL     1      -3.635 -50.877   0.049  1.00  0.00    -0.003 C 
ATOM     20  C   UNL     1      -4.952 -51.469  -0.446  1.00  0.00     0.004 C 
ENDBRANCH  18  19
ENDBRANCH  17  18
ENDBRANCH  16  17
ENDBRANCH  15  16
ENDBRANCH  14  15
ENDBRANCH  13  14
ENDBRANCH   2  13
TORSDOF 15
ENDMDL
