MODEL 1
REMARK VINA RESULT:    -4.176      0.000      0.000
REMARK INTER + INTRA:          -8.647
REMARK INTER:                  -7.105
REMARK INTRA:                  -1.541
REMARK UNBOUND:                -1.541
REMARK SMILES CCCCCCCCCCCCCC(=O)[O-]
REMARK SMILES IDX 8 1 9 2 10 3 11 4 12 5 13 6 14 7 15 8 16 9 7 10 6 11 5 12
REMARK SMILES IDX 4 13 3 14 2 15 1 16
REMARK H PARENT
REMARK Flexibility Score: inf
ROOT
ATOM      1  C   UNL     1     -11.734   3.700  19.053  1.00  0.00     0.000 C 
ENDROOT
BRANCH   1   2
ATOM      2  C   UNL     1     -12.924   3.613  18.076  1.00  0.00     0.000 C 
BRANCH   2   3
ATOM      3  C   UNL     1     -12.571   3.147  16.650  1.00  0.00     0.000 C 
BRANCH   3   4
ATOM      4  C   UNL     1     -11.323   3.811  16.041  1.00  0.00     0.000 C 
BRANCH   4   5
ATOM      5  C   UNL     1     -10.265   2.789  15.590  1.00  0.00     0.006 C 
BRANCH   5   6
ATOM      6  C   UNL     1     -10.783   1.347  15.669  1.00  0.00     0.053 C 
BRANCH   6   7
ATOM      7  C   UNL     1     -10.653   0.638  14.357  1.00  0.00     0.041 C 
ATOM      8  O   UNL     1     -11.681   0.239  13.748  1.00  0.00    -0.550 OA
ATOM      9  O   UNL     1      -9.396   0.385  13.822  1.00  0.00    -0.550 OA
ENDBRANCH   6   7
ENDBRANCH   5   6
ENDBRANCH   4   5
ENDBRANCH   3   4
ENDBRANCH   2   3
ENDBRANCH   1   2
BRANCH   1  10
ATOM     10  C   UNL     1     -11.300   2.363  19.679  1.00  0.00     0.000 C 
BRANCH  10  11
ATOM     11  C   UNL     1      -9.800   2.319  20.014  1.00  0.00    -0.000 C 
BRANCH  11  12
ATOM     12  C   UNL     1      -8.926   1.922  18.810  1.00  0.00    -0.000 C 
BRANCH  12  13
ATOM     13  C   UNL     1      -7.850   2.948  18.408  1.00  0.00    -0.000 C 
BRANCH  13  14
ATOM     14  C   UNL     1      -7.848   4.199  19.303  1.00  0.00    -0.000 C 
BRANCH  14  15
ATOM     15  C   UNL     1      -6.447   4.813  19.453  1.00  0.00    -0.003 C 
ATOM     16  C   UNL     1      -5.375   4.036  18.691  1.00  0.00     0.004 C 
ENDBRANCH  14  15
ENDBRANCH  13  14
ENDBRANCH  12  13
ENDBRANCH  11  12
ENDBRANCH  10  11
ENDBRANCH   1  10
TORSDOF 12
ENDMDL
MODEL 2
REMARK VINA RESULT:    -4.160      2.131      3.556
REMARK INTER + INTRA:          -8.619
REMARK INTER:                  -7.450
REMARK INTRA:                  -1.169
REMARK UNBOUND:                -1.541
REMARK SMILES CCCCCCCCCCCCCC(=O)[O-]
REMARK SMILES IDX 8 1 9 2 10 3 11 4 12 5 13 6 14 7 15 8 16 9 7 10 6 11 5 12
REMARK SMILES IDX 4 13 3 14 2 15 1 16
REMARK H PARENT
REMARK Flexibility Score: inf
ROOT
ATOM      1  C   UNL     1     -11.427   1.834  19.317  1.00  0.00     0.000 C 
ENDROOT
BRANCH   1   2
ATOM      2  C   UNL     1     -11.856   3.265  18.935  1.00  0.00     0.000 C 
BRANCH   2   3
ATOM      3  C   UNL     1     -12.608   3.390  17.595  1.00  0.00     0.000 C 
BRANCH   3   4
ATOM      4  C   UNL     1     -12.266   2.308  16.556  1.00  0.00     0.000 C 
BRANCH   4   5
ATOM      5  C   UNL     1     -11.019   2.653  15.725  1.00  0.00     0.006 C 
BRANCH   5   6
ATOM      6  C   UNL     1     -10.020   1.490  15.669  1.00  0.00     0.053 C 
BRANCH   6   7
ATOM      7  C   UNL     1     -10.154   0.705  14.400  1.00  0.00     0.041 C 
ATOM      8  O   UNL     1      -9.136   0.444  13.707  1.00  0.00    -0.550 OA
ATOM      9  O   UNL     1     -11.407   0.292  13.965  1.00  0.00    -0.550 OA
ENDBRANCH   6   7
ENDBRANCH   5   6
ENDBRANCH   4   5
ENDBRANCH   3   4
ENDBRANCH   2   3
ENDBRANCH   1   2
BRANCH   1  10
ATOM     10  C   UNL     1      -9.986   1.698  19.838  1.00  0.00     0.000 C 
BRANCH  10  11
ATOM     11  C   UNL     1      -9.126   0.755  18.980  1.00  0.00    -0.000 C 
BRANCH  11  12
ATOM     12  C   UNL     1      -8.687  -0.513  19.736  1.00  0.00    -0.000 C 
BRANCH  12  13
ATOM     13  C   UNL     1      -9.531  -0.868  20.974  1.00  0.00    -0.000 C 
BRANCH  13  14
ATOM     14  C   UNL     1      -8.691  -1.001  22.256  1.00  0.00    -0.000 C 
BRANCH  14  15
ATOM     15  C   UNL     1      -9.097   0.017  23.334  1.00  0.00    -0.003 C 
ATOM     16  C   UNL     1     -10.584   0.366  23.289  1.00  0.00     0.004 C 
ENDBRANCH  14  15
ENDBRANCH  13  14
ENDBRANCH  12  13
ENDBRANCH  11  12
ENDBRANCH  10  11
ENDBRANCH   1  10
TORSDOF 12
ENDMDL
MODEL 3
REMARK VINA RESULT:    -4.014      1.482      3.680
REMARK INTER + INTRA:          -8.372
REMARK INTER:                  -6.601
REMARK INTRA:                  -1.771
REMARK UNBOUND:                -1.541
REMARK SMILES CCCCCCCCCCCCCC(=O)[O-]
REMARK SMILES IDX 8 1 9 2 10 3 11 4 12 5 13 6 14 7 15 8 16 9 7 10 6 11 5 12
REMARK SMILES IDX 4 13 3 14 2 15 1 16
REMARK H PARENT
REMARK Flexibility Score: inf
ROOT
ATOM      1  C   UNL     1      -9.188   3.976  17.663  1.00  0.00     0.000 C 
ENDROOT
BRANCH   1   2
ATOM      2  C   UNL     1     -10.574   4.652  17.660  1.00  0.00     0.000 C 
BRANCH   2   3
ATOM      3  C   UNL     1     -11.550   4.145  16.579  1.00  0.00     0.000 C 
BRANCH   3   4
ATOM      4  C   UNL     1     -12.336   2.878  16.959  1.00  0.00     0.000 C 
BRANCH   4   5
ATOM      5  C   UNL     1     -12.227   1.769  15.898  1.00  0.00     0.006 C 
BRANCH   5   6
ATOM      6  C   UNL     1     -10.769   1.395  15.600  1.00  0.00     0.053 C 
BRANCH   6   7
ATOM      7  C   UNL     1     -10.648   0.599  14.337  1.00  0.00     0.041 C 
ATOM      8  O   UNL     1      -9.515   0.382  13.832  1.00  0.00    -0.550 OA
ATOM      9  O   UNL     1     -11.787   0.128  13.698  1.00  0.00    -0.550 OA
ENDBRANCH   6   7
ENDBRANCH   5   6
ENDBRANCH   4   5
ENDBRANCH   3   4
ENDBRANCH   2   3
ENDBRANCH   1   2
BRANCH   1  10
ATOM     10  C   UNL     1      -8.829   3.222  18.956  1.00  0.00     0.000 C 
BRANCH  10  11
ATOM     11  C   UNL     1      -9.288   1.755  18.940  1.00  0.00    -0.000 C 
BRANCH  11  12
ATOM     12  C   UNL     1     -10.032   1.344  20.225  1.00  0.00    -0.000 C 
BRANCH  12  13
ATOM     13  C   UNL     1     -11.552   1.590  20.215  1.00  0.00    -0.000 C 
BRANCH  13  14
ATOM     14  C   UNL     1     -11.938   2.981  20.747  1.00  0.00    -0.000 C 
BRANCH  14  15
ATOM     15  C   UNL     1     -13.461   3.174  20.837  1.00  0.00    -0.003 C 
ATOM     16  C   UNL     1     -13.962   4.341  19.986  1.00  0.00     0.004 C 
ENDBRANCH  14  15
ENDBRANCH  13  14
ENDBRANCH  12  13
ENDBRANCH  11  12
ENDBRANCH  10  11
ENDBRANCH   1  10
TORSDOF 12
ENDMDL
MODEL 4
REMARK VINA RESULT:    -3.980      1.805      2.911
REMARK INTER + INTRA:          -8.313
REMARK INTER:                  -6.913
REMARK INTRA:                  -1.399
REMARK UNBOUND:                -1.541
REMARK SMILES CCCCCCCCCCCCCC(=O)[O-]
REMARK SMILES IDX 8 1 9 2 10 3 11 4 12 5 13 6 14 7 15 8 16 9 7 10 6 11 5 12
REMARK SMILES IDX 4 13 3 14 2 15 1 16
REMARK H PARENT
REMARK Flexibility Score: inf
ROOT
ATOM      1  C   UNL     1     -11.850   4.431  18.682  1.00  0.00     0.000 C 
ENDROOT
BRANCH   1   2
ATOM      2  C   UNL     1     -12.897   3.728  17.794  1.00  0.00     0.000 C 
BRANCH   2   3
ATOM      3  C   UNL     1     -12.332   3.019  16.547  1.00  0.00     0.000 C 
BRANCH   3   4
ATOM      4  C   UNL     1     -11.072   3.668  15.948  1.00  0.00     0.000 C 
BRANCH   4   5
ATOM      5  C   UNL     1      -9.894   2.686  15.833  1.00  0.00     0.006 C 
BRANCH   5   6
ATOM      6  C   UNL     1     -10.358   1.224  15.819  1.00  0.00     0.053 C 
BRANCH   6   7
ATOM      7  C   UNL     1     -10.339   0.649  14.436  1.00  0.00     0.041 C 
ATOM      8  O   UNL     1      -9.290   0.704  13.742  1.00  0.00    -0.550 OA
ATOM      9  O   UNL     1     -11.490   0.085  13.900  1.00  0.00    -0.550 OA
ENDBRANCH   6   7
ENDBRANCH   5   6
ENDBRANCH   4   5
ENDBRANCH   3   4
ENDBRANCH   2   3
ENDBRANCH   1   2
BRANCH   1  10
ATOM     10  C   UNL     1     -11.906   4.066  20.176  1.00  0.00     0.000 C 
BRANCH  10  11
ATOM     11  C   UNL     1     -10.581   3.488  20.700  1.00  0.00    -0.000 C 
BRANCH  11  12
ATOM     12  C   UNL     1      -9.712   2.873  19.587  1.00  0.00    -0.000 C 
BRANCH  12  13
ATOM     13  C   UNL     1      -9.906   1.363  19.357  1.00  0.00    -0.000 C 
BRANCH  13  14
ATOM     14  C   UNL     1     -10.100   0.576  20.664  1.00  0.00    -0.000 C 
BRANCH  14  15
ATOM     15  C   UNL     1      -9.268  -0.716  20.703  1.00  0.00    -0.003 C 
ATOM     16  C   UNL     1      -8.683  -1.003  22.085  1.00  0.00     0.004 C 
ENDBRANCH  14  15
ENDBRANCH  13  14
ENDBRANCH  12  13
ENDBRANCH  11  12
ENDBRANCH  10  11
ENDBRANCH   1  10
TORSDOF 12
ENDMDL
MODEL 5
REMARK VINA RESULT:    -3.871      1.594      3.179
REMARK INTER + INTRA:          -8.127
REMARK INTER:                  -6.601
REMARK INTRA:                  -1.526
REMARK UNBOUND:                -1.541
REMARK SMILES CCCCCCCCCCCCCC(=O)[O-]
REMARK SMILES IDX 8 1 9 2 10 3 11 4 12 5 13 6 14 7 15 8 16 9 7 10 6 11 5 12
REMARK SMILES IDX 4 13 3 14 2 15 1 16
REMARK H PARENT
REMARK Flexibility Score: inf
ROOT
ATOM      1  C   UNL     1      -9.817   4.794  17.376  1.00  0.00     0.000 C 
ENDROOT
BRANCH   1   2
ATOM      2  C   UNL     1     -11.313   5.052  17.100  1.00  0.00     0.000 C 
BRANCH   2   3
ATOM      3  C   UNL     1     -12.257   3.885  17.454  1.00  0.00     0.000 C 
BRANCH   3   4
ATOM      4  C   UNL     1     -12.585   2.939  16.285  1.00  0.00     0.000 C 
BRANCH   4   5
ATOM      5  C   UNL     1     -11.749   1.648  16.311  1.00  0.00     0.006 C 
BRANCH   5   6
ATOM      6  C   UNL     1     -10.492   1.755  15.438  1.00  0.00     0.053 C 
BRANCH   6   7
ATOM      7  C   UNL     1     -10.475   0.714  14.361  1.00  0.00     0.041 C 
ATOM      8  O   UNL     1      -9.381   0.313  13.884  1.00  0.00    -0.550 OA
ATOM      9  O   UNL     1     -11.669   0.214  13.856  1.00  0.00    -0.550 OA
ENDBRANCH   6   7
ENDBRANCH   5   6
ENDBRANCH   4   5
ENDBRANCH   3   4
ENDBRANCH   2   3
ENDBRANCH   1   2
BRANCH   1  10
ATOM     10  C   UNL     1      -9.478   4.379  18.818  1.00  0.00     0.000 C 
BRANCH  10  11
ATOM     11  C   UNL     1      -8.440   3.247  18.887  1.00  0.00    -0.000 C 
BRANCH  11  12
ATOM     12  C   UNL     1      -9.077   1.845  18.870  1.00  0.00    -0.000 C 
BRANCH  12  13
ATOM     13  C   UNL     1     -10.355   1.691  19.715  1.00  0.00    -0.000 C 
BRANCH  13  14
ATOM     14  C   UNL     1     -10.074   1.204  21.146  1.00  0.00    -0.000 C 
BRANCH  14  15
ATOM     15  C   UNL     1     -10.269  -0.314  21.301  1.00  0.00    -0.003 C 
ATOM     16  C   UNL     1      -8.950  -1.066  21.468  1.00  0.00     0.004 C 
ENDBRANCH  14  15
ENDBRANCH  13  14
ENDBRANCH  12  13
ENDBRANCH  11  12
ENDBRANCH  10  11
ENDBRANCH   1  10
TORSDOF 12
ENDMDL
MODEL 6
REMARK VINA RESULT:    -3.869      1.162      2.792
REMARK INTER + INTRA:          -8.124
REMARK INTER:                  -6.283
REMARK INTRA:                  -1.841
REMARK UNBOUND:                -1.541
REMARK SMILES CCCCCCCCCCCCCC(=O)[O-]
REMARK SMILES IDX 8 1 9 2 10 3 11 4 12 5 13 6 14 7 15 8 16 9 7 10 6 11 5 12
REMARK SMILES IDX 4 13 3 14 2 15 1 16
REMARK H PARENT
REMARK Flexibility Score: inf
ROOT
ATOM      1  C   UNL     1     -11.599   5.718  18.346  1.00  0.00     0.000 C 
ENDROOT
BRANCH   1   2
ATOM      2  C   UNL     1     -12.464   4.491  18.699  1.00  0.00     0.000 C 
BRANCH   2   3
ATOM      3  C   UNL     1     -12.912   3.635  17.497  1.00  0.00     0.000 C 
BRANCH   3   4
ATOM      4  C   UNL     1     -11.835   3.416  16.420  1.00  0.00     0.000 C 
BRANCH   4   5
ATOM      5  C   UNL     1     -11.692   1.940  16.013  1.00  0.00     0.006 C 
BRANCH   5   6
ATOM      6  C   UNL     1     -10.374   1.668  15.277  1.00  0.00     0.053 C 
BRANCH   6   7
ATOM      7  C   UNL     1     -10.505   0.537  14.304  1.00  0.00     0.041 C 
ATOM      8  O   UNL     1      -9.483  -0.091  13.920  1.00  0.00    -0.550 OA
ATOM      9  O   UNL     1     -11.751   0.199  13.792  1.00  0.00    -0.550 OA
ENDBRANCH   6   7
ENDBRANCH   5   6
ENDBRANCH   4   5
ENDBRANCH   3   4
ENDBRANCH   2   3
ENDBRANCH   1   2
BRANCH   1  10
ATOM     10  C   UNL     1     -10.423   5.988  19.301  1.00  0.00     0.000 C 
BRANCH  10  11
ATOM     11  C   UNL     1      -9.062   5.604  18.696  1.00  0.00    -0.000 C 
BRANCH  11  12
ATOM     12  C   UNL     1      -8.373   4.451  19.449  1.00  0.00    -0.000 C 
BRANCH  12  13
ATOM     13  C   UNL     1      -8.092   3.190  18.610  1.00  0.00    -0.000 C 
BRANCH  13  14
ATOM     14  C   UNL     1      -9.197   2.128  18.732  1.00  0.00    -0.000 C 
BRANCH  14  15
ATOM     15  C   UNL     1      -9.873   2.138  20.113  1.00  0.00    -0.003 C 
ATOM     16  C   UNL     1     -11.165   1.322  20.146  1.00  0.00     0.004 C 
ENDBRANCH  14  15
ENDBRANCH  13  14
ENDBRANCH  12  13
ENDBRANCH  11  12
ENDBRANCH  10  11
ENDBRANCH   1  10
TORSDOF 12
ENDMDL
MODEL 7
REMARK VINA RESULT:    -3.857      0.936      2.201
REMARK INTER + INTRA:          -8.104
REMARK INTER:                  -6.825
REMARK INTRA:                  -1.280
REMARK UNBOUND:                -1.541
REMARK SMILES CCCCCCCCCCCCCC(=O)[O-]
REMARK SMILES IDX 8 1 9 2 10 3 11 4 12 5 13 6 14 7 15 8 16 9 7 10 6 11 5 12
REMARK SMILES IDX 4 13 3 14 2 15 1 16
REMARK H PARENT
REMARK Flexibility Score: inf
ROOT
ATOM      1  C   UNL     1      -9.869   2.212  19.315  1.00  0.00     0.000 C 
ENDROOT
BRANCH   1   2
ATOM      2  C   UNL     1     -11.148   2.940  18.855  1.00  0.00     0.000 C 
BRANCH   2   3
ATOM      3  C   UNL     1     -11.751   2.434  17.530  1.00  0.00     0.000 C 
BRANCH   3   4
ATOM      4  C   UNL     1     -11.435   3.303  16.300  1.00  0.00     0.000 C 
BRANCH   4   5
ATOM      5  C   UNL     1     -10.193   2.820  15.532  1.00  0.00     0.006 C 
BRANCH   5   6
ATOM      6  C   UNL     1      -9.973   1.309  15.680  1.00  0.00     0.053 C 
BRANCH   6   7
ATOM      7  C   UNL     1     -10.151   0.592  14.376  1.00  0.00     0.041 C 
ATOM      8  O   UNL     1      -9.148   0.287  13.680  1.00  0.00    -0.550 OA
ATOM      9  O   UNL     1     -11.426   0.295  13.913  1.00  0.00    -0.550 OA
ENDBRANCH   6   7
ENDBRANCH   5   6
ENDBRANCH   4   5
ENDBRANCH   3   4
ENDBRANCH   2   3
ENDBRANCH   1   2
BRANCH   1  10
ATOM     10  C   UNL     1      -8.548   2.829  18.820  1.00  0.00     0.000 C 
BRANCH  10  11
ATOM     11  C   UNL     1      -8.585   4.365  18.779  1.00  0.00    -0.000 C 
BRANCH  11  12
ATOM     12  C   UNL     1      -7.811   5.016  19.941  1.00  0.00    -0.000 C 
BRANCH  12  13
ATOM     13  C   UNL     1      -6.590   5.860  19.530  1.00  0.00    -0.000 C 
BRANCH  13  14
ATOM     14  C   UNL     1      -5.282   5.384  20.185  1.00  0.00    -0.000 C 
BRANCH  14  15
ATOM     15  C   UNL     1      -4.216   4.986  19.152  1.00  0.00    -0.003 C 
ATOM     16  C   UNL     1      -4.647   3.805  18.282  1.00  0.00     0.004 C 
ENDBRANCH  14  15
ENDBRANCH  13  14
ENDBRANCH  12  13
ENDBRANCH  11  12
ENDBRANCH  10  11
ENDBRANCH   1  10
TORSDOF 12
ENDMDL
MODEL 8
REMARK VINA RESULT:    -3.818      3.058      6.085
REMARK INTER + INTRA:          -8.038
REMARK INTER:                  -6.403
REMARK INTRA:                  -1.635
REMARK UNBOUND:                -1.541
REMARK SMILES CCCCCCCCCCCCCC(=O)[O-]
REMARK SMILES IDX 8 1 9 2 10 3 11 4 12 5 13 6 14 7 15 8 16 9 7 10 6 11 5 12
REMARK SMILES IDX 4 13 3 14 2 15 1 16
REMARK H PARENT
REMARK Flexibility Score: inf
ROOT
ATOM      1  C   UNL     1      -9.650   4.634  17.396  1.00  0.00     0.000 C 
ENDROOT
BRANCH   1   2
ATOM      2  C   UNL     1      -9.068   3.920  18.633  1.00  0.00     0.000 C 
BRANCH   2   3
ATOM      3  C   UNL     1      -8.566   2.483  18.385  1.00  0.00     0.000 C 
BRANCH   3   4
ATOM      4  C   UNL     1      -9.343   1.386  19.134  1.00  0.00     0.000 C 
BRANCH   4   5
ATOM      5  C   UNL     1     -10.215   1.945  20.271  1.00  0.00     0.006 C 
BRANCH   5   6
ATOM      6  C   UNL     1     -11.711   1.725  20.014  1.00  0.00     0.053 C 
BRANCH   6   7
ATOM      7  C   UNL     1     -12.531   2.889  20.481  1.00  0.00     0.041 C 
ATOM      8  O   UNL     1     -13.400   2.732  21.379  1.00  0.00    -0.550 OA
ATOM      9  O   UNL     1     -12.362   4.138  19.898  1.00  0.00    -0.550 OA
ENDBRANCH   6   7
ENDBRANCH   5   6
ENDBRANCH   4   5
ENDBRANCH   3   4
ENDBRANCH   2   3
ENDBRANCH   1   2
BRANCH   1  10
ATOM     10  C   UNL     1     -10.170   3.704  16.285  1.00  0.00     0.000 C 
BRANCH  10  11
ATOM     11  C   UNL     1     -11.597   3.196  16.550  1.00  0.00    -0.000 C 
BRANCH  11  12
ATOM     12  C   UNL     1     -11.841   1.778  15.999  1.00  0.00    -0.000 C 
BRANCH  12  13
ATOM     13  C   UNL     1     -10.599   1.067  15.432  1.00  0.00    -0.000 C 
BRANCH  13  14
ATOM     14  C   UNL     1     -10.875   0.346  14.102  1.00  0.00    -0.000 C 
BRANCH  14  15
ATOM     15  C   UNL     1     -12.377   0.170  13.828  1.00  0.00    -0.003 C 
ATOM     16  C   UNL     1     -12.794  -1.298  13.730  1.00  0.00     0.004 C 
ENDBRANCH  14  15
ENDBRANCH  13  14
ENDBRANCH  12  13
ENDBRANCH  11  12
ENDBRANCH  10  11
ENDBRANCH   1  10
TORSDOF 12
ENDMDL
MODEL 9
REMARK VINA RESULT:    -3.795      1.446      2.563
REMARK INTER + INTRA:          -7.999
REMARK INTER:                  -6.399
REMARK INTRA:                  -1.600
REMARK UNBOUND:                -1.541
REMARK SMILES CCCCCCCCCCCCCC(=O)[O-]
REMARK SMILES IDX 8 1 9 2 10 3 11 4 12 5 13 6 14 7 15 8 16 9 7 10 6 11 5 12
REMARK SMILES IDX 4 13 3 14 2 15 1 16
REMARK H PARENT
REMARK Flexibility Score: inf
ROOT
ATOM      1  C   UNL     1     -11.350   1.350  20.492  1.00  0.00     0.000 C 
ENDROOT
BRANCH   1   2
ATOM      2  C   UNL     1     -12.381   2.449  20.823  1.00  0.00     0.000 C 
BRANCH   2   3
ATOM      3  C   UNL     1     -11.969   3.879  20.420  1.00  0.00     0.000 C 
BRANCH   3   4
ATOM      4  C   UNL     1     -12.702   4.442  19.190  1.00  0.00     0.000 C 
BRANCH   4   5
ATOM      5  C   UNL     1     -11.937   4.199  17.878  1.00  0.00     0.006 C 
BRANCH   5   6
ATOM      6  C   UNL     1     -12.582   3.098  17.027  1.00  0.00     0.053 C 
BRANCH   6   7
ATOM      7  C   UNL     1     -11.629   2.554  16.008  1.00  0.00     0.041 C 
ATOM      8  O   UNL     1     -10.640   3.239  15.636  1.00  0.00    -0.550 OA
ATOM      9  O   UNL     1     -11.852   1.305  15.442  1.00  0.00    -0.550 OA
ENDBRANCH   6   7
ENDBRANCH   5   6
ENDBRANCH   4   5
ENDBRANCH   3   4
ENDBRANCH   2   3
ENDBRANCH   1   2
BRANCH   1  10
ATOM     10  C   UNL     1      -9.896   1.836  20.352  1.00  0.00     0.000 C 
BRANCH  10  11
ATOM     11  C   UNL     1      -9.362   1.718  18.915  1.00  0.00    -0.000 C 
BRANCH  11  12
ATOM     12  C   UNL     1      -8.442   2.889  18.518  1.00  0.00    -0.000 C 
BRANCH  12  13
ATOM     13  C   UNL     1      -8.265   3.981  19.589  1.00  0.00    -0.000 C 
BRANCH  13  14
ATOM     14  C   UNL     1      -6.978   4.802  19.402  1.00  0.00    -0.000 C 
BRANCH  14  15
ATOM     15  C   UNL     1      -5.890   4.027  18.641  1.00  0.00    -0.003 C 
ATOM     16  C   UNL     1      -4.476   4.454  19.030  1.00  0.00     0.004 C 
ENDBRANCH  14  15
ENDBRANCH  13  14
ENDBRANCH  12  13
ENDBRANCH  11  12
ENDBRANCH  10  11
ENDBRANCH   1  10
TORSDOF 12
ENDMDL
