MODEL 1
REMARK VINA RESULT:    -7.351      0.000      0.000
REMARK INTER + INTRA:          -8.911
REMARK INTER:                  -8.640
REMARK INTRA:                  -0.271
REMARK UNBOUND:                -0.271
REMARK SMILES O=c1cc(-c2ccc(O)c(O)c2)oc2cc(O)cc(O)c12
REMARK SMILES IDX 4 1 3 2 2 3 1 4 21 5 19 6 18 7 16 8 15 9 14 10 13 11 5 12
REMARK SMILES IDX 6 13 7 14 8 15 12 16 10 17 9 18 11 20 20 22 17 24
REMARK H PARENT 9 19 11 21 20 23 17 25
REMARK Flexibility Score: inf
ROOT
ATOM      1  C   UNL     1     -21.411  34.496 -38.845  1.00  0.00     0.138 A 
ATOM      2  C   UNL     1     -20.994  33.667 -39.895  1.00  0.00     0.100 A 
ATOM      3  C   UNL     1     -21.233  32.294 -39.829  1.00  0.00     0.197 A 
ATOM      4  O   UNL     1     -20.793  31.569 -40.757  1.00  0.00    -0.289 OA
ATOM      5  C   UNL     1     -21.925  31.754 -38.719  1.00  0.00     0.107 A 
ATOM      6  C   UNL     1     -22.262  30.376 -38.564  1.00  0.00     0.134 A 
ATOM      7  C   UNL     1     -22.844  29.938 -37.367  1.00  0.00     0.093 A 
ATOM      8  C   UNL     1     -23.156  30.835 -36.347  1.00  0.00     0.123 A 
ATOM      9  C   UNL     1     -22.880  32.194 -36.510  1.00  0.00     0.094 A 
ATOM     10  C   UNL     1     -22.268  32.656 -37.677  1.00  0.00     0.146 A 
ATOM     11  O   UNL     1     -22.009  33.955 -37.788  1.00  0.00    -0.456 OA
ENDROOT
BRANCH   1  12
ATOM     12  C   UNL     1     -21.182  35.963 -38.864  1.00  0.00     0.021 A 
ATOM     13  C   UNL     1     -20.543  36.625 -37.798  1.00  0.00     0.016 A 
ATOM     14  C   UNL     1     -20.332  38.006 -37.847  1.00  0.00     0.051 A 
ATOM     15  C   UNL     1     -20.745  38.745 -38.962  1.00  0.00     0.157 A 
ATOM     16  C   UNL     1     -21.582  36.712 -39.985  1.00  0.00     0.062 A 
ATOM     17  C   UNL     1     -21.370  38.097 -40.033  1.00  0.00     0.158 A 
BRANCH  15  18
ATOM     18  O   UNL     1     -20.537  40.123 -39.012  1.00  0.00    -0.504 OA
ATOM     19  H   UNL     1     -20.273  40.588 -39.873  1.00  0.00     0.293 HD
ENDBRANCH  15  18
BRANCH  17  20
ATOM     20  O   UNL     1     -21.778  38.835 -41.143  1.00  0.00    -0.504 OA
ATOM     21  H   UNL     1     -21.776  39.848 -41.137  1.00  0.00     0.293 HD
ENDBRANCH  17  20
ENDBRANCH   1  12
BRANCH   6  22
ATOM     22  O   UNL     1     -22.071  29.408 -39.554  1.00  0.00    -0.507 OA
ATOM     23  H   UNL     1     -22.580  29.366 -40.425  1.00  0.00     0.293 HD
ENDBRANCH   6  22
BRANCH   8  24
ATOM     24  O   UNL     1     -23.749  30.367 -35.177  1.00  0.00    -0.508 OA
ATOM     25  H   UNL     1     -23.481  29.482 -34.763  1.00  0.00     0.293 HD
ENDBRANCH   8  24
TORSDOF 5
ENDMDL
MODEL 2
REMARK VINA RESULT:    -7.168      1.501      7.272
REMARK INTER + INTRA:          -8.696
REMARK INTER:                  -8.427
REMARK INTRA:                  -0.269
REMARK UNBOUND:                -0.271
REMARK SMILES O=c1cc(-c2ccc(O)c(O)c2)oc2cc(O)cc(O)c12
REMARK SMILES IDX 4 1 3 2 2 3 1 4 21 5 19 6 18 7 16 8 15 9 14 10 13 11 5 12
REMARK SMILES IDX 6 13 7 14 8 15 12 16 10 17 9 18 11 20 20 22 17 24
REMARK H PARENT 9 19 11 21 20 23 17 25
REMARK Flexibility Score: inf
ROOT
ATOM      1  C   UNL     1     -21.187  35.996 -38.770  1.00  0.00     0.138 A 
ATOM      2  C   UNL     1     -21.580  36.748 -39.886  1.00  0.00     0.100 A 
ATOM      3  C   UNL     1     -21.309  38.116 -39.928  1.00  0.00     0.197 A 
ATOM      4  O   UNL     1     -21.728  38.775 -40.914  1.00  0.00    -0.289 OA
ATOM      5  C   UNL     1     -20.612  38.728 -38.858  1.00  0.00     0.107 A 
ATOM      6  C   UNL     1     -20.244  40.105 -38.811  1.00  0.00     0.134 A 
ATOM      7  C   UNL     1     -19.659  40.624 -37.649  1.00  0.00     0.093 A 
ATOM      8  C   UNL     1     -19.373  39.804 -36.559  1.00  0.00     0.123 A 
ATOM      9  C   UNL     1     -19.679  38.443 -36.615  1.00  0.00     0.094 A 
ATOM     10  C   UNL     1     -20.295  37.903 -37.746  1.00  0.00     0.146 A 
ATOM     11  O   UNL     1     -20.583  36.605 -37.755  1.00  0.00    -0.456 OA
ENDROOT
BRANCH   1  12
ATOM     12  C   UNL     1     -21.450  34.538 -38.674  1.00  0.00     0.021 A 
ATOM     13  C   UNL     1     -22.153  33.983 -37.588  1.00  0.00     0.016 A 
ATOM     14  C   UNL     1     -22.394  32.608 -37.528  1.00  0.00     0.051 A 
ATOM     15  C   UNL     1     -21.947  31.767 -38.554  1.00  0.00     0.157 A 
ATOM     16  C   UNL     1     -21.016  33.687 -39.707  1.00  0.00     0.062 A 
ATOM     17  C   UNL     1     -21.259  32.307 -39.646  1.00  0.00     0.158 A 
BRANCH  15  18
ATOM     18  O   UNL     1     -22.186  30.395 -38.496  1.00  0.00    -0.504 OA
ATOM     19  H   UNL     1     -21.547  29.727 -38.911  1.00  0.00     0.293 HD
ENDBRANCH  15  18
BRANCH  17  20
ATOM     20  O   UNL     1     -20.818  31.468 -40.668  1.00  0.00    -0.504 OA
ATOM     21  H   UNL     1     -20.139  30.735 -40.497  1.00  0.00     0.293 HD
ENDBRANCH  17  20
ENDBRANCH   1  12
BRANCH   6  22
ATOM     22  O   UNL     1     -20.407  40.995 -39.877  1.00  0.00    -0.507 OA
ATOM     23  H   UNL     1     -19.675  41.270 -40.515  1.00  0.00     0.293 HD
ENDBRANCH   6  22
BRANCH   8  24
ATOM     24  O   UNL     1     -18.775  40.350 -35.425  1.00  0.00    -0.508 OA
ATOM     25  H   UNL     1     -17.781  40.258 -35.253  1.00  0.00     0.293 HD
ENDBRANCH   8  24
TORSDOF 5
ENDMDL
MODEL 3
REMARK VINA RESULT:    -7.107      1.000      2.619
REMARK INTER + INTRA:          -8.624
REMARK INTER:                  -8.334
REMARK INTRA:                  -0.291
REMARK UNBOUND:                -0.271
REMARK SMILES O=c1cc(-c2ccc(O)c(O)c2)oc2cc(O)cc(O)c12
REMARK SMILES IDX 4 1 3 2 2 3 1 4 21 5 19 6 18 7 16 8 15 9 14 10 13 11 5 12
REMARK SMILES IDX 6 13 7 14 8 15 12 16 10 17 9 18 11 20 20 22 17 24
REMARK H PARENT 9 19 11 21 20 23 17 25
REMARK Flexibility Score: inf
ROOT
ATOM      1  C   UNL     1     -21.829  34.709 -38.115  1.00  0.00     0.138 A 
ATOM      2  C   UNL     1     -22.400  34.366 -36.881  1.00  0.00     0.100 A 
ATOM      3  C   UNL     1     -22.720  33.035 -36.613  1.00  0.00     0.197 A 
ATOM      4  O   UNL     1     -23.287  32.768 -35.523  1.00  0.00    -0.289 OA
ATOM      5  C   UNL     1     -22.435  32.036 -37.575  1.00  0.00     0.107 A 
ATOM      6  C   UNL     1     -22.679  30.642 -37.394  1.00  0.00     0.134 A 
ATOM      7  C   UNL     1     -22.465  29.760 -38.461  1.00  0.00     0.093 A 
ATOM      8  C   UNL     1     -21.960  30.212 -39.680  1.00  0.00     0.123 A 
ATOM      9  C   UNL     1     -21.667  31.566 -39.850  1.00  0.00     0.094 A 
ATOM     10  C   UNL     1     -21.902  32.476 -38.816  1.00  0.00     0.146 A 
ATOM     11  O   UNL     1     -21.623  33.759 -39.022  1.00  0.00    -0.456 OA
ENDROOT
BRANCH   1  12
ATOM     12  C   UNL     1     -21.470  36.109 -38.452  1.00  0.00     0.021 A 
ATOM     13  C   UNL     1     -20.723  36.913 -37.570  1.00  0.00     0.016 A 
ATOM     14  C   UNL     1     -20.391  38.225 -37.918  1.00  0.00     0.051 A 
ATOM     15  C   UNL     1     -20.789  38.753 -39.152  1.00  0.00     0.157 A 
ATOM     16  C   UNL     1     -21.855  36.643 -39.695  1.00  0.00     0.062 A 
ATOM     17  C   UNL     1     -21.521  37.959 -40.042  1.00  0.00     0.158 A 
BRANCH  15  18
ATOM     18  O   UNL     1     -20.460  40.062 -39.500  1.00  0.00    -0.504 OA
ATOM     19  H   UNL     1     -19.636  40.272 -40.050  1.00  0.00     0.293 HD
ENDBRANCH  15  18
BRANCH  17  20
ATOM     20  O   UNL     1     -21.914  38.486 -41.272  1.00  0.00    -0.504 OA
ATOM     21  H   UNL     1     -22.503  37.963 -41.909  1.00  0.00     0.293 HD
ENDBRANCH  17  20
ENDBRANCH   1  12
BRANCH   6  22
ATOM     22  O   UNL     1     -23.104  30.072 -36.191  1.00  0.00    -0.507 OA
ATOM     23  H   UNL     1     -23.505  30.585 -35.420  1.00  0.00     0.293 HD
ENDBRANCH   6  22
BRANCH   8  24
ATOM     24  O   UNL     1     -21.745  29.304 -40.714  1.00  0.00    -0.508 OA
ATOM     25  H   UNL     1     -21.648  29.609 -41.676  1.00  0.00     0.293 HD
ENDBRANCH   8  24
TORSDOF 5
ENDMDL
MODEL 4
REMARK VINA RESULT:    -6.999      1.860      7.071
REMARK INTER + INTRA:          -8.497
REMARK INTER:                  -8.182
REMARK INTRA:                  -0.315
REMARK UNBOUND:                -0.271
REMARK SMILES O=c1cc(-c2ccc(O)c(O)c2)oc2cc(O)cc(O)c12
REMARK SMILES IDX 4 1 3 2 2 3 1 4 21 5 19 6 18 7 16 8 15 9 14 10 13 11 5 12
REMARK SMILES IDX 6 13 7 14 8 15 12 16 10 17 9 18 11 20 20 22 17 24
REMARK H PARENT 9 19 11 21 20 23 17 25
REMARK Flexibility Score: inf
ROOT
ATOM      1  C   UNL     1     -21.315  33.821 -38.805  1.00  0.00     0.138 A 
ATOM      2  C   UNL     1     -20.743  34.047 -37.545  1.00  0.00     0.100 A 
ATOM      3  C   UNL     1     -20.415  35.347 -37.159  1.00  0.00     0.197 A 
ATOM      4  O   UNL     1     -19.847  35.511 -36.049  1.00  0.00    -0.289 OA
ATOM      5  C   UNL     1     -20.690  36.430 -38.028  1.00  0.00     0.107 A 
ATOM      6  C   UNL     1     -20.437  37.800 -37.724  1.00  0.00     0.134 A 
ATOM      7  C   UNL     1     -20.642  38.775 -38.709  1.00  0.00     0.093 A 
ATOM      8  C   UNL     1     -21.148  38.437 -39.963  1.00  0.00     0.123 A 
ATOM      9  C   UNL     1     -21.451  37.106 -40.253  1.00  0.00     0.094 A 
ATOM     10  C   UNL     1     -21.224  36.107 -39.304  1.00  0.00     0.146 A 
ATOM     11  O   UNL     1     -21.512  34.849 -39.624  1.00  0.00    -0.456 OA
ENDROOT
BRANCH   1  12
ATOM     12  C   UNL     1     -21.684  32.459 -39.265  1.00  0.00     0.021 A 
ATOM     13  C   UNL     1     -21.806  31.382 -38.367  1.00  0.00     0.016 A 
ATOM     14  C   UNL     1     -22.165  30.112 -38.827  1.00  0.00     0.051 A 
ATOM     15  C   UNL     1     -22.416  29.898 -40.188  1.00  0.00     0.157 A 
ATOM     16  C   UNL     1     -21.951  32.237 -40.629  1.00  0.00     0.062 A 
ATOM     17  C   UNL     1     -22.311  30.963 -41.090  1.00  0.00     0.158 A 
BRANCH  15  18
ATOM     18  O   UNL     1     -22.772  28.632 -40.649  1.00  0.00    -0.504 OA
ATOM     19  H   UNL     1     -23.345  28.007 -40.095  1.00  0.00     0.293 HD
ENDBRANCH  15  18
BRANCH  17  20
ATOM     20  O   UNL     1     -22.564  30.748 -42.444  1.00  0.00    -0.504 OA
ATOM     21  H   UNL     1     -22.117  31.305 -43.162  1.00  0.00     0.293 HD
ENDBRANCH  17  20
ENDBRANCH   1  12
BRANCH   6  22
ATOM     22  O   UNL     1     -20.009  38.258 -36.474  1.00  0.00    -0.507 OA
ATOM     23  H   UNL     1     -20.414  37.984 -35.591  1.00  0.00     0.293 HD
ENDBRANCH   6  22
BRANCH   8  24
ATOM     24  O   UNL     1     -21.355  39.435 -40.913  1.00  0.00    -0.508 OA
ATOM     25  H   UNL     1     -20.583  39.961 -41.307  1.00  0.00     0.293 HD
ENDBRANCH   8  24
TORSDOF 5
ENDMDL
MODEL 5
REMARK VINA RESULT:    -6.948      3.641      8.000
REMARK INTER + INTRA:          -8.437
REMARK INTER:                  -8.151
REMARK INTRA:                  -0.287
REMARK UNBOUND:                -0.271
REMARK SMILES O=c1cc(-c2ccc(O)c(O)c2)oc2cc(O)cc(O)c12
REMARK SMILES IDX 4 1 3 2 2 3 1 4 21 5 19 6 18 7 16 8 15 9 14 10 13 11 5 12
REMARK SMILES IDX 6 13 7 14 8 15 12 16 10 17 9 18 11 20 20 22 17 24
REMARK H PARENT 9 19 11 21 20 23 17 25
REMARK Flexibility Score: inf
ROOT
ATOM      1  C   UNL     1     -22.066  30.030 -36.218  1.00  0.00     0.138 A 
ATOM      2  C   UNL     1     -21.520  31.318 -36.119  1.00  0.00     0.100 A 
ATOM      3  C   UNL     1     -21.345  32.085 -37.271  1.00  0.00     0.197 A 
ATOM      4  O   UNL     1     -20.796  33.211 -37.157  1.00  0.00    -0.289 OA
ATOM      5  C   UNL     1     -21.750  31.571 -38.526  1.00  0.00     0.107 A 
ATOM      6  C   UNL     1     -21.659  32.279 -39.762  1.00  0.00     0.134 A 
ATOM      7  C   UNL     1     -21.981  31.625 -40.958  1.00  0.00     0.093 A 
ATOM      8  C   UNL     1     -22.450  30.312 -40.957  1.00  0.00     0.123 A 
ATOM      9  C   UNL     1     -22.595  29.628 -39.749  1.00  0.00     0.094 A 
ATOM     10  C   UNL     1     -22.248  30.241 -38.543  1.00  0.00     0.146 A 
ATOM     11  O   UNL     1     -22.387  29.551 -37.416  1.00  0.00    -0.456 OA
ENDROOT
BRANCH   1  12
ATOM     12  C   UNL     1     -22.274  29.172 -35.025  1.00  0.00     0.021 A 
ATOM     13  C   UNL     1     -21.251  28.957 -34.082  1.00  0.00     0.016 A 
ATOM     14  C   UNL     1     -21.478  28.151 -32.963  1.00  0.00     0.051 A 
ATOM     15  C   UNL     1     -22.729  27.556 -32.762  1.00  0.00     0.157 A 
ATOM     16  C   UNL     1     -23.531  28.581 -34.808  1.00  0.00     0.062 A 
ATOM     17  C   UNL     1     -23.758  27.773 -33.685  1.00  0.00     0.158 A 
BRANCH  15  18
ATOM     18  O   UNL     1     -22.957  26.752 -31.646  1.00  0.00    -0.504 OA
ATOM     19  H   UNL     1     -23.779  26.871 -31.066  1.00  0.00     0.293 HD
ENDBRANCH  15  18
BRANCH  17  20
ATOM     20  O   UNL     1     -25.004  27.182 -33.481  1.00  0.00    -0.504 OA
ATOM     21  H   UNL     1     -25.126  26.410 -32.836  1.00  0.00     0.293 HD
ENDBRANCH  17  20
ENDBRANCH   1  12
BRANCH   6  22
ATOM     22  O   UNL     1     -21.283  33.621 -39.868  1.00  0.00    -0.507 OA
ATOM     23  H   UNL     1     -21.876  34.405 -39.639  1.00  0.00     0.293 HD
ENDBRANCH   6  22
BRANCH   8  24
ATOM     24  O   UNL     1     -22.777  29.698 -42.164  1.00  0.00    -0.508 OA
ATOM     25  H   UNL     1     -23.732  29.442 -42.387  1.00  0.00     0.293 HD
ENDBRANCH   8  24
TORSDOF 5
ENDMDL
MODEL 6
REMARK VINA RESULT:    -6.943      3.880      7.312
REMARK INTER + INTRA:          -8.431
REMARK INTER:                  -8.138
REMARK INTRA:                  -0.292
REMARK UNBOUND:                -0.271
REMARK SMILES O=c1cc(-c2ccc(O)c(O)c2)oc2cc(O)cc(O)c12
REMARK SMILES IDX 4 1 3 2 2 3 1 4 21 5 19 6 18 7 16 8 15 9 14 10 13 11 5 12
REMARK SMILES IDX 6 13 7 14 8 15 12 16 10 17 9 18 11 20 20 22 17 24
REMARK H PARENT 9 19 11 21 20 23 17 25
REMARK Flexibility Score: inf
ROOT
ATOM      1  C   UNL     1     -20.027  40.111 -36.494  1.00  0.00     0.138 A 
ATOM      2  C   UNL     1     -19.781  40.829 -37.672  1.00  0.00     0.100 A 
ATOM      3  C   UNL     1     -20.111  40.268 -38.906  1.00  0.00     0.197 A 
ATOM      4  O   UNL     1     -19.821  40.910 -39.948  1.00  0.00    -0.289 OA
ATOM      5  C   UNL     1     -20.721  38.991 -38.957  1.00  0.00     0.107 A 
ATOM      6  C   UNL     1     -21.139  38.338 -40.155  1.00  0.00     0.134 A 
ATOM      7  C   UNL     1     -21.625  37.026 -40.092  1.00  0.00     0.093 A 
ATOM      8  C   UNL     1     -21.765  36.368 -38.871  1.00  0.00     0.123 A 
ATOM      9  C   UNL     1     -21.410  37.017 -37.688  1.00  0.00     0.094 A 
ATOM     10  C   UNL     1     -20.890  38.313 -37.721  1.00  0.00     0.146 A 
ATOM     11  O   UNL     1     -20.551  38.892 -36.573  1.00  0.00    -0.456 OA
ENDROOT
BRANCH   1  12
ATOM     12  C   UNL     1     -19.696  40.661 -35.156  1.00  0.00     0.021 A 
ATOM     13  C   UNL     1     -20.167  40.061 -33.972  1.00  0.00     0.016 A 
ATOM     14  C   UNL     1     -19.831  40.595 -32.725  1.00  0.00     0.051 A 
ATOM     15  C   UNL     1     -19.015  41.729 -32.638  1.00  0.00     0.157 A 
ATOM     16  C   UNL     1     -18.865  41.792 -35.058  1.00  0.00     0.062 A 
ATOM     17  C   UNL     1     -18.529  42.327 -33.806  1.00  0.00     0.158 A 
BRANCH  15  18
ATOM     18  O   UNL     1     -18.679  42.263 -31.395  1.00  0.00    -0.504 OA
ATOM     19  H   UNL     1     -19.257  42.965 -30.947  1.00  0.00     0.293 HD
ENDBRANCH  15  18
BRANCH  17  20
ATOM     20  O   UNL     1     -17.714  43.454 -33.717  1.00  0.00    -0.504 OA
ATOM     21  H   UNL     1     -16.990  43.641 -34.400  1.00  0.00     0.293 HD
ENDBRANCH  17  20
ENDBRANCH   1  12
BRANCH   6  22
ATOM     22  O   UNL     1     -21.121  38.936 -41.418  1.00  0.00    -0.507 OA
ATOM     23  H   UNL     1     -20.292  39.084 -41.974  1.00  0.00     0.293 HD
ENDBRANCH   6  22
BRANCH   8  24
ATOM     24  O   UNL     1     -22.267  35.068 -38.844  1.00  0.00    -0.508 OA
ATOM     25  H   UNL     1     -22.374  34.523 -39.691  1.00  0.00     0.293 HD
ENDBRANCH   8  24
TORSDOF 5
ENDMDL
MODEL 7
REMARK VINA RESULT:    -6.869      5.201      8.228
REMARK INTER + INTRA:          -8.345
REMARK INTER:                  -8.028
REMARK INTRA:                  -0.317
REMARK UNBOUND:                -0.271
REMARK SMILES O=c1cc(-c2ccc(O)c(O)c2)oc2cc(O)cc(O)c12
REMARK SMILES IDX 4 1 3 2 2 3 1 4 21 5 19 6 18 7 16 8 15 9 14 10 13 11 5 12
REMARK SMILES IDX 6 13 7 14 8 15 12 16 10 17 9 18 11 20 20 22 17 24
REMARK H PARENT 9 19 11 21 20 23 17 25
REMARK Flexibility Score: inf
ROOT
ATOM      1  C   UNL     1     -20.121  40.057 -35.921  1.00  0.00     0.138 A 
ATOM      2  C   UNL     1     -20.799  38.830 -35.928  1.00  0.00     0.100 A 
ATOM      3  C   UNL     1     -21.153  38.243 -37.143  1.00  0.00     0.197 A 
ATOM      4  O   UNL     1     -21.814  37.174 -37.116  1.00  0.00    -0.289 OA
ATOM      5  C   UNL     1     -20.795  38.874 -38.359  1.00  0.00     0.107 A 
ATOM      6  C   UNL     1     -21.066  38.347 -39.657  1.00  0.00     0.134 A 
ATOM      7  C   UNL     1     -20.769  39.117 -40.789  1.00  0.00     0.093 A 
ATOM      8  C   UNL     1     -20.157  40.364 -40.673  1.00  0.00     0.123 A 
ATOM      9  C   UNL     1     -19.838  40.865 -39.410  1.00  0.00     0.094 A 
ATOM     10  C   UNL     1     -20.153  40.137 -38.260  1.00  0.00     0.146 A 
ATOM     11  O   UNL     1     -19.846  40.655 -37.075  1.00  0.00    -0.456 OA
ENDROOT
BRANCH   1  12
ATOM     12  C   UNL     1     -19.721  40.725 -34.657  1.00  0.00     0.021 A 
ATOM     13  C   UNL     1     -20.141  40.245 -33.401  1.00  0.00     0.016 A 
ATOM     14  C   UNL     1     -19.742  40.888 -32.227  1.00  0.00     0.051 A 
ATOM     15  C   UNL     1     -18.911  42.014 -32.285  1.00  0.00     0.157 A 
ATOM     16  C   UNL     1     -18.876  41.848 -34.704  1.00  0.00     0.062 A 
ATOM     17  C   UNL     1     -18.476  42.493 -33.525  1.00  0.00     0.158 A 
BRANCH  15  18
ATOM     18  O   UNL     1     -18.512  42.658 -31.115  1.00  0.00    -0.504 OA
ATOM     19  H   UNL     1     -17.707  43.273 -31.096  1.00  0.00     0.293 HD
ENDBRANCH  15  18
BRANCH  17  20
ATOM     20  O   UNL     1     -17.646  43.613 -33.580  1.00  0.00    -0.504 OA
ATOM     21  H   UNL     1     -16.686  43.546 -33.896  1.00  0.00     0.293 HD
ENDBRANCH  17  20
ENDBRANCH   1  12
BRANCH   6  22
ATOM     22  O   UNL     1     -21.598  37.076 -39.890  1.00  0.00    -0.507 OA
ATOM     23  H   UNL     1     -22.418  36.702 -39.435  1.00  0.00     0.293 HD
ENDBRANCH   6  22
BRANCH   8  24
ATOM     24  O   UNL     1     -19.861  41.095 -41.822  1.00  0.00    -0.508 OA
ATOM     25  H   UNL     1     -20.306  41.985 -42.013  1.00  0.00     0.293 HD
ENDBRANCH   8  24
TORSDOF 5
ENDMDL
MODEL 8
REMARK VINA RESULT:    -6.774      2.506      7.517
REMARK INTER + INTRA:          -8.233
REMARK INTER:                  -7.940
REMARK INTRA:                  -0.293
REMARK UNBOUND:                -0.271
REMARK SMILES O=c1cc(-c2ccc(O)c(O)c2)oc2cc(O)cc(O)c12
REMARK SMILES IDX 4 1 3 2 2 3 1 4 21 5 19 6 18 7 16 8 15 9 14 10 13 11 5 12
REMARK SMILES IDX 6 13 7 14 8 15 12 16 10 17 9 18 11 20 20 22 17 24
REMARK H PARENT 9 19 11 21 20 23 17 25
REMARK Flexibility Score: inf
ROOT
ATOM      1  C   UNL     1     -22.458  30.477 -36.404  1.00  0.00     0.138 A 
ATOM      2  C   UNL     1     -22.674  29.746 -37.580  1.00  0.00     0.100 A 
ATOM      3  C   UNL     1     -22.321  30.297 -38.812  1.00  0.00     0.197 A 
ATOM      4  O   UNL     1     -22.583  29.643 -39.853  1.00  0.00    -0.289 OA
ATOM      5  C   UNL     1     -21.719  31.578 -38.862  1.00  0.00     0.107 A 
ATOM      6  C   UNL     1     -21.280  32.222 -40.057  1.00  0.00     0.134 A 
ATOM      7  C   UNL     1     -20.805  33.538 -39.997  1.00  0.00     0.093 A 
ATOM      8  C   UNL     1     -20.696  34.210 -38.780  1.00  0.00     0.123 A 
ATOM      9  C   UNL     1     -21.072  33.570 -37.598  1.00  0.00     0.094 A 
ATOM     10  C   UNL     1     -21.582  32.270 -37.630  1.00  0.00     0.146 A 
ATOM     11  O   UNL     1     -21.942  31.700 -36.484  1.00  0.00    -0.456 OA
ENDROOT
BRANCH   1  12
ATOM     12  C   UNL     1     -22.814  29.938 -35.067  1.00  0.00     0.021 A 
ATOM     13  C   UNL     1     -22.381  30.559 -33.880  1.00  0.00     0.016 A 
ATOM     14  C   UNL     1     -22.739  30.035 -32.635  1.00  0.00     0.051 A 
ATOM     15  C   UNL     1     -23.541  28.890 -32.554  1.00  0.00     0.157 A 
ATOM     16  C   UNL     1     -23.630  28.796 -34.976  1.00  0.00     0.062 A 
ATOM     17  C   UNL     1     -23.989  28.271 -33.727  1.00  0.00     0.158 A 
BRANCH  15  18
ATOM     18  O   UNL     1     -23.899  28.365 -31.314  1.00  0.00    -0.504 OA
ATOM     19  H   UNL     1     -24.377  27.476 -31.232  1.00  0.00     0.293 HD
ENDBRANCH  15  18
BRANCH  17  20
ATOM     20  O   UNL     1     -24.790  27.133 -33.644  1.00  0.00    -0.504 OA
ATOM     21  H   UNL     1     -24.797  26.548 -32.817  1.00  0.00     0.293 HD
ENDBRANCH  17  20
ENDBRANCH   1  12
BRANCH   6  22
ATOM     22  O   UNL     1     -21.266  31.612 -41.315  1.00  0.00    -0.507 OA
ATOM     23  H   UNL     1     -21.807  31.918 -42.110  1.00  0.00     0.293 HD
ENDBRANCH   6  22
BRANCH   8  24
ATOM     24  O   UNL     1     -20.204  35.513 -38.756  1.00  0.00    -0.508 OA
ATOM     25  H   UNL     1     -20.281  36.094 -37.929  1.00  0.00     0.293 HD
ENDBRANCH   8  24
TORSDOF 5
ENDMDL
MODEL 9
REMARK VINA RESULT:    -6.749      1.783      7.504
REMARK INTER + INTRA:          -8.203
REMARK INTER:                  -7.902
REMARK INTRA:                  -0.300
REMARK UNBOUND:                -0.271
REMARK SMILES O=c1cc(-c2ccc(O)c(O)c2)oc2cc(O)cc(O)c12
REMARK SMILES IDX 4 1 3 2 2 3 1 4 21 5 19 6 18 7 16 8 15 9 14 10 13 11 5 12
REMARK SMILES IDX 6 13 7 14 8 15 12 16 10 17 9 18 11 20 20 22 17 24
REMARK H PARENT 9 19 11 21 20 23 17 25
REMARK Flexibility Score: inf
ROOT
ATOM      1  C   UNL     1     -20.855  35.711 -38.260  1.00  0.00     0.138 A 
ATOM      2  C   UNL     1     -20.404  36.116 -36.996  1.00  0.00     0.100 A 
ATOM      3  C   UNL     1     -20.114  37.461 -36.764  1.00  0.00     0.197 A 
ATOM      4  O   UNL     1     -19.653  37.784 -35.640  1.00  0.00    -0.289 OA
ATOM      5  C   UNL     1     -20.308  38.410 -37.796  1.00  0.00     0.107 A 
ATOM      6  C   UNL     1     -20.085  39.813 -37.662  1.00  0.00     0.134 A 
ATOM      7  C   UNL     1     -20.198  40.641 -38.786  1.00  0.00     0.093 A 
ATOM      8  C   UNL     1     -20.585  40.127 -40.023  1.00  0.00     0.123 A 
ATOM      9  C   UNL     1     -20.858  38.764 -40.154  1.00  0.00     0.094 A 
ATOM     10  C   UNL     1     -20.720  37.908 -39.059  1.00  0.00     0.146 A 
ATOM     11  O   UNL     1     -20.976  36.614 -39.228  1.00  0.00    -0.456 OA
ENDROOT
BRANCH   1  12
ATOM     12  C   UNL     1     -21.178  34.294 -38.561  1.00  0.00     0.021 A 
ATOM     13  C   UNL     1     -21.811  33.463 -37.616  1.00  0.00     0.016 A 
ATOM     14  C   UNL     1     -22.112  32.135 -37.930  1.00  0.00     0.051 A 
ATOM     15  C   UNL     1     -21.796  31.617 -39.192  1.00  0.00     0.157 A 
ATOM     16  C   UNL     1     -20.876  33.769 -39.830  1.00  0.00     0.062 A 
ATOM     17  C   UNL     1     -21.179  32.436 -40.144  1.00  0.00     0.158 A 
BRANCH  15  18
ATOM     18  O   UNL     1     -22.095  30.292 -39.506  1.00  0.00    -0.504 OA
ATOM     19  H   UNL     1     -22.412  30.026 -40.431  1.00  0.00     0.293 HD
ENDBRANCH  15  18
BRANCH  17  20
ATOM     20  O   UNL     1     -20.867  31.919 -41.401  1.00  0.00    -0.504 OA
ATOM     21  H   UNL     1     -21.092  32.421 -42.251  1.00  0.00     0.293 HD
ENDBRANCH  17  20
ENDBRANCH   1  12
BRANCH   6  22
ATOM     22  O   UNL     1     -19.777  40.443 -36.453  1.00  0.00    -0.507 OA
ATOM     23  H   UNL     1     -20.136  40.167 -35.551  1.00  0.00     0.293 HD
ENDBRANCH   6  22
BRANCH   8  24
ATOM     24  O   UNL     1     -20.703  40.982 -41.116  1.00  0.00    -0.508 OA
ATOM     25  H   UNL     1     -19.923  41.161 -41.737  1.00  0.00     0.293 HD
ENDBRANCH   8  24
TORSDOF 5
ENDMDL
