MODEL 1
REMARK VINA RESULT:    52.534      0.000      0.000
REMARK INTER + INTRA:          75.896
REMARK INTER:                  74.033
REMARK INTRA:                   1.863
REMARK UNBOUND:                 1.863
REMARK SMILES O=c1cc(-c2ccc(O)c(O)c2)oc2cc(O)c([C@H]3O[C@H](CO)[C@H](O)[C@@H](O)[C@H]3O)c(O)c12
REMARK SMILES IDX 4 1 3 2 2 3 1 4 32 5 14 6 13 7 15 8 16 9 18 10 30 11 5 12
REMARK SMILES IDX 6 13 7 14 8 15 12 16 10 17 9 18 11 20 31 22 17 24 19 26
REMARK SMILES IDX 28 27 20 28 26 29 21 30 24 31 29 32 27 34 22 36 23 37 25 39
REMARK H PARENT 9 19 11 21 31 23 17 25 29 33 27 35 23 38 25 40
REMARK Flexibility Score: inf
ROOT
ATOM      1  C   UNL     1       6.700  -2.256   3.110  1.00  0.00     0.138 A 
ATOM      2  C   UNL     1       6.981  -1.751   1.832  1.00  0.00     0.100 A 
ATOM      3  C   UNL     1       5.927  -1.428   0.975  1.00  0.00     0.197 A 
ATOM      4  O   UNL     1       6.199  -0.891  -0.131  1.00  0.00    -0.289 OA
ATOM      5  C   UNL     1       4.592  -1.660   1.386  1.00  0.00     0.107 A 
ATOM      6  C   UNL     1       4.400  -2.180   2.683  1.00  0.00     0.146 A 
ATOM      7  O   UNL     1       5.436  -2.460   3.468  1.00  0.00    -0.456 OA
ATOM      8  C   UNL     1       3.113  -2.396   3.165  1.00  0.00     0.094 A 
ATOM      9  C   UNL     1       2.003  -1.961   2.439  1.00  0.00     0.128 A 
ATOM     10  C   UNL     1       2.170  -1.296   1.200  1.00  0.00     0.068 A 
ATOM     11  C   UNL     1       3.453  -1.351   0.591  1.00  0.00     0.140 A 
ENDROOT
BRANCH   1  12
ATOM     12  C   UNL     1       7.773  -2.533   4.095  1.00  0.00     0.021 A 
ATOM     13  C   UNL     1       8.362  -3.808   4.137  1.00  0.00     0.016 A 
ATOM     14  C   UNL     1       9.312  -4.118   5.113  1.00  0.00     0.051 A 
ATOM     15  C   UNL     1       9.672  -3.169   6.077  1.00  0.00     0.157 A 
ATOM     16  C   UNL     1       8.144  -1.580   5.063  1.00  0.00     0.062 A 
ATOM     17  C   UNL     1       9.083  -1.894   6.051  1.00  0.00     0.158 A 
BRANCH  15  18
ATOM     18  O   UNL     1      10.590  -3.496   7.071  1.00  0.00    -0.504 OA
ATOM     19  H   UNL     1      10.496  -3.147   8.017  1.00  0.00     0.293 HD
ENDBRANCH  15  18
BRANCH  17  20
ATOM     20  O   UNL     1       9.402  -0.933   7.011  1.00  0.00    -0.504 OA
ATOM     21  H   UNL     1       9.106   0.030   6.927  1.00  0.00     0.293 HD
ENDBRANCH  17  20
ENDBRANCH   1  12
BRANCH  11  22
ATOM     22  O   UNL     1       3.566  -1.176  -0.785  1.00  0.00    -0.506 OA
ATOM     23  H   UNL     1       4.320  -0.675  -1.229  1.00  0.00     0.293 HD
ENDBRANCH  11  22
BRANCH   9  24
ATOM     24  O   UNL     1       0.724  -2.196   2.946  1.00  0.00    -0.507 OA
ATOM     25  H   UNL     1       0.192  -1.470   3.409  1.00  0.00     0.293 HD
ENDBRANCH   9  24
BRANCH  10  26
ATOM     26  C   UNL     1       0.934  -0.577   0.603  1.00  0.00     0.188 C 
ATOM     27  C   UNL     1      -0.513  -0.927   1.053  1.00  0.00     0.179 C 
ATOM     28  O   UNL     1       0.937  -0.695  -0.812  1.00  0.00    -0.362 OA
ATOM     29  C   UNL     1      -0.937  -2.360   0.644  1.00  0.00     0.177 C 
ATOM     30  C   UNL     1       0.756  -2.033  -1.290  1.00  0.00     0.176 C 
ATOM     31  C   UNL     1       0.103  -3.041  -0.279  1.00  0.00     0.177 C 
BRANCH  27  32
ATOM     32  O   UNL     1      -0.765  -0.648   2.404  1.00  0.00    -0.387 OA
ATOM     33  H   UNL     1      -1.597  -1.132   2.653  1.00  0.00     0.211 HD
ENDBRANCH  27  32
BRANCH  29  34
ATOM     34  O   UNL     1      -1.222  -3.166   1.761  1.00  0.00    -0.387 OA
ATOM     35  H   UNL     1      -1.993  -3.743   1.540  1.00  0.00     0.211 HD
ENDBRANCH  29  34
BRANCH  30  36
ATOM     36  C   UNL     1       0.010  -1.968  -2.634  1.00  0.00     0.191 C 
BRANCH  36  37
ATOM     37  O   UNL     1      -1.377  -1.999  -2.434  1.00  0.00    -0.394 OA
ATOM     38  H   UNL     1      -1.538  -1.588  -1.542  1.00  0.00     0.210 HD
ENDBRANCH  36  37
ENDBRANCH  30  36
BRANCH  31  39
ATOM     39  O   UNL     1      -0.483  -4.123  -0.956  1.00  0.00    -0.388 OA
ATOM     40  H   UNL     1      -1.402  -4.227  -0.600  1.00  0.00     0.211 HD
ENDBRANCH  31  39
ENDBRANCH  10  26
TORSDOF 11
ENDMDL
