MODEL 1
REMARK VINA RESULT:    -6.144      0.000      0.000
REMARK INTER + INTRA:          -7.485
REMARK INTER:                  -7.222
REMARK INTRA:                  -0.263
REMARK UNBOUND:                -0.263
REMARK SMILES O=c1cc(-c2ccc(O)c(O)c2)oc2cc(O)cc(O)c12
REMARK SMILES IDX 4 1 3 2 2 3 1 4 21 5 19 6 18 7 16 8 15 9 14 10 13 11 5 12
REMARK SMILES IDX 6 13 7 14 8 15 12 16 10 17 9 18 11 20 20 22 17 24
REMARK H PARENT 9 19 11 21 20 23 17 25
REMARK Flexibility Score: inf
ROOT
ATOM      1  C   UNL     1     -33.876  10.401 -39.137  1.00  0.00     0.138 A 
ATOM      2  C   UNL     1     -32.868   9.817 -39.917  1.00  0.00     0.100 A 
ATOM      3  C   UNL     1     -33.141   9.447 -41.235  1.00  0.00     0.197 A 
ATOM      4  O   UNL     1     -32.233   8.876 -41.890  1.00  0.00    -0.289 OA
ATOM      5  C   UNL     1     -34.422   9.697 -41.785  1.00  0.00     0.107 A 
ATOM      6  C   UNL     1     -34.805   9.394 -43.127  1.00  0.00     0.134 A 
ATOM      7  C   UNL     1     -36.132   9.597 -43.527  1.00  0.00     0.093 A 
ATOM      8  C   UNL     1     -37.074  10.145 -42.653  1.00  0.00     0.123 A 
ATOM      9  C   UNL     1     -36.697  10.491 -41.358  1.00  0.00     0.094 A 
ATOM     10  C   UNL     1     -35.391  10.269 -40.917  1.00  0.00     0.146 A 
ATOM     11  O   UNL     1     -35.079  10.596 -39.667  1.00  0.00    -0.456 OA
ENDROOT
BRANCH   1  12
ATOM     12  C   UNL     1     -33.639  10.816 -37.732  1.00  0.00     0.021 A 
ATOM     13  C   UNL     1     -33.484  12.181 -37.432  1.00  0.00     0.016 A 
ATOM     14  C   UNL     1     -33.268  12.600 -36.118  1.00  0.00     0.051 A 
ATOM     15  C   UNL     1     -33.211  11.668 -35.079  1.00  0.00     0.157 A 
ATOM     16  C   UNL     1     -33.594   9.881 -36.679  1.00  0.00     0.062 A 
ATOM     17  C   UNL     1     -33.378  10.302 -35.358  1.00  0.00     0.158 A 
BRANCH  15  18
ATOM     18  O   UNL     1     -32.991  12.115 -33.776  1.00  0.00    -0.504 OA
ATOM     19  H   UNL     1     -32.154  11.878 -33.259  1.00  0.00     0.293 HD
ENDBRANCH  15  18
BRANCH  17  20
ATOM     20  O   UNL     1     -33.334   9.368 -34.325  1.00  0.00    -0.504 OA
ATOM     21  H   UNL     1     -33.872   8.510 -34.360  1.00  0.00     0.293 HD
ENDBRANCH  17  20
ENDBRANCH   1  12
BRANCH   6  22
ATOM     22  O   UNL     1     -33.927   8.918 -44.105  1.00  0.00    -0.507 OA
ATOM     23  H   UNL     1     -34.079   8.096 -44.670  1.00  0.00     0.293 HD
ENDBRANCH   6  22
BRANCH   8  24
ATOM     24  O   UNL     1     -38.387  10.357 -43.067  1.00  0.00    -0.508 OA
ATOM     25  H   UNL     1     -38.959   9.602 -43.425  1.00  0.00     0.293 HD
ENDBRANCH   8  24
TORSDOF 5
ENDMDL
MODEL 2
REMARK VINA RESULT:    -4.907      1.480      6.895
REMARK INTER + INTRA:          -6.031
REMARK INTER:                  -5.734
REMARK INTRA:                  -0.297
REMARK UNBOUND:                -0.263
REMARK SMILES O=c1cc(-c2ccc(O)c(O)c2)oc2cc(O)cc(O)c12
REMARK SMILES IDX 4 1 3 2 2 3 1 4 21 5 19 6 18 7 16 8 15 9 14 10 13 11 5 12
REMARK SMILES IDX 6 13 7 14 8 15 12 16 10 17 9 18 11 20 20 22 17 24
REMARK H PARENT 9 19 11 21 20 23 17 25
REMARK Flexibility Score: inf
ROOT
ATOM      1  C   UNL     1     -33.924  10.292 -39.441  1.00  0.00     0.138 A 
ATOM      2  C   UNL     1     -32.769   9.508 -39.321  1.00  0.00     0.100 A 
ATOM      3  C   UNL     1     -32.025   9.550 -38.141  1.00  0.00     0.197 A 
ATOM      4  O   UNL     1     -30.963   8.877 -38.086  1.00  0.00    -0.289 OA
ATOM      5  C   UNL     1     -32.462  10.355 -37.061  1.00  0.00     0.107 A 
ATOM      6  C   UNL     1     -31.803  10.450 -35.798  1.00  0.00     0.134 A 
ATOM      7  C   UNL     1     -32.275  11.357 -34.841  1.00  0.00     0.093 A 
ATOM      8  C   UNL     1     -33.415  12.128 -35.079  1.00  0.00     0.123 A 
ATOM      9  C   UNL     1     -34.094  12.006 -36.288  1.00  0.00     0.094 A 
ATOM     10  C   UNL     1     -33.628  11.136 -37.277  1.00  0.00     0.146 A 
ATOM     11  O   UNL     1     -34.296  11.064 -38.424  1.00  0.00    -0.456 OA
ENDROOT
BRANCH   1  12
ATOM     12  C   UNL     1     -34.754  10.284 -40.671  1.00  0.00     0.021 A 
ATOM     13  C   UNL     1     -35.945  11.030 -40.705  1.00  0.00     0.016 A 
ATOM     14  C   UNL     1     -36.741  11.047 -41.853  1.00  0.00     0.051 A 
ATOM     15  C   UNL     1     -36.360  10.327 -42.988  1.00  0.00     0.157 A 
ATOM     16  C   UNL     1     -34.367   9.571 -41.823  1.00  0.00     0.062 A 
ATOM     17  C   UNL     1     -35.166   9.588 -42.976  1.00  0.00     0.158 A 
BRANCH  15  18
ATOM     18  O   UNL     1     -37.176  10.361 -44.119  1.00  0.00    -0.504 OA
ATOM     19  H   UNL     1     -36.837  10.092 -45.035  1.00  0.00     0.293 HD
ENDBRANCH  15  18
BRANCH  17  20
ATOM     20  O   UNL     1     -34.773   8.878 -44.109  1.00  0.00    -0.504 OA
ATOM     21  H   UNL     1     -34.995   7.896 -44.226  1.00  0.00     0.293 HD
ENDBRANCH  17  20
ENDBRANCH   1  12
BRANCH   6  22
ATOM     22  O   UNL     1     -30.704   9.669 -35.426  1.00  0.00    -0.507 OA
ATOM     23  H   UNL     1     -30.478   9.400 -34.480  1.00  0.00     0.293 HD
ENDBRANCH   6  22
BRANCH   8  24
ATOM     24  O   UNL     1     -33.886  13.016 -34.113  1.00  0.00    -0.508 OA
ATOM     25  H   UNL     1     -34.866  13.266 -34.055  1.00  0.00     0.293 HD
ENDBRANCH   8  24
TORSDOF 5
ENDMDL
MODEL 3
REMARK VINA RESULT:    -4.304      1.914      3.038
REMARK INTER + INTRA:          -5.322
REMARK INTER:                  -5.005
REMARK INTRA:                  -0.317
REMARK UNBOUND:                -0.263
REMARK SMILES O=c1cc(-c2ccc(O)c(O)c2)oc2cc(O)cc(O)c12
REMARK SMILES IDX 4 1 3 2 2 3 1 4 21 5 19 6 18 7 16 8 15 9 14 10 13 11 5 12
REMARK SMILES IDX 6 13 7 14 8 15 12 16 10 17 9 18 11 20 20 22 17 24
REMARK H PARENT 9 19 11 21 20 23 17 25
REMARK Flexibility Score: inf
ROOT
ATOM      1  C   UNL     1     -32.835  10.946 -36.662  1.00  0.00     0.138 A 
ATOM      2  C   UNL     1     -31.798  10.133 -37.139  1.00  0.00     0.100 A 
ATOM      3  C   UNL     1     -31.843   9.653 -38.449  1.00  0.00     0.197 A 
ATOM      4  O   UNL     1     -30.925   8.881 -38.829  1.00  0.00    -0.289 OA
ATOM      5  C   UNL     1     -32.917  10.019 -39.296  1.00  0.00     0.107 A 
ATOM      6  C   UNL     1     -33.051   9.618 -40.660  1.00  0.00     0.134 A 
ATOM      7  C   UNL     1     -34.209   9.962 -41.369  1.00  0.00     0.093 A 
ATOM      8  C   UNL     1     -35.209  10.742 -40.783  1.00  0.00     0.123 A 
ATOM      9  C   UNL     1     -35.064  11.180 -39.470  1.00  0.00     0.094 A 
ATOM     10  C   UNL     1     -33.937  10.825 -38.724  1.00  0.00     0.146 A 
ATOM     11  O   UNL     1     -33.848  11.250 -37.468  1.00  0.00    -0.456 OA
ENDROOT
BRANCH   1  12
ATOM     12  C   UNL     1     -32.836  11.486 -35.280  1.00  0.00     0.021 A 
ATOM     13  C   UNL     1     -31.688  11.343 -34.482  1.00  0.00     0.016 A 
ATOM     14  C   UNL     1     -31.659  11.849 -33.180  1.00  0.00     0.051 A 
ATOM     15  C   UNL     1     -32.769  12.514 -32.655  1.00  0.00     0.157 A 
ATOM     16  C   UNL     1     -33.949  12.170 -34.751  1.00  0.00     0.062 A 
ATOM     17  C   UNL     1     -33.919  12.679 -33.444  1.00  0.00     0.158 A 
BRANCH  15  18
ATOM     18  O   UNL     1     -32.712  13.007 -31.352  1.00  0.00    -0.504 OA
ATOM     19  H   UNL     1     -33.092  13.911 -31.101  1.00  0.00     0.293 HD
ENDBRANCH  15  18
BRANCH  17  20
ATOM     20  O   UNL     1     -35.027  13.352 -32.930  1.00  0.00    -0.504 OA
ATOM     21  H   UNL     1     -34.963  13.924 -32.096  1.00  0.00     0.293 HD
ENDBRANCH  17  20
ENDBRANCH   1  12
BRANCH   6  22
ATOM     22  O   UNL     1     -32.078   8.905 -41.368  1.00  0.00    -0.507 OA
ATOM     23  H   UNL     1     -31.283   8.443 -40.954  1.00  0.00     0.293 HD
ENDBRANCH   6  22
BRANCH   8  24
ATOM     24  O   UNL     1     -36.349  11.092 -41.503  1.00  0.00    -0.508 OA
ATOM     25  H   UNL     1     -36.306  11.315 -42.490  1.00  0.00     0.293 HD
ENDBRANCH   8  24
TORSDOF 5
ENDMDL
MODEL 4
REMARK VINA RESULT:    -3.388      1.541      3.215
REMARK INTER + INTRA:          -4.245
REMARK INTER:                  -3.978
REMARK INTRA:                  -0.267
REMARK UNBOUND:                -0.263
REMARK SMILES O=c1cc(-c2ccc(O)c(O)c2)oc2cc(O)cc(O)c12
REMARK SMILES IDX 4 1 3 2 2 3 1 4 21 5 19 6 18 7 16 8 15 9 14 10 13 11 5 12
REMARK SMILES IDX 6 13 7 14 8 15 12 16 10 17 9 18 11 20 20 22 17 24
REMARK H PARENT 9 19 11 21 20 23 17 25
REMARK Flexibility Score: inf
ROOT
ATOM      1  C   UNL     1     -33.636   9.768 -38.956  1.00  0.00     0.138 A 
ATOM      2  C   UNL     1     -34.958   9.754 -39.420  1.00  0.00     0.100 A 
ATOM      3  C   UNL     1     -35.213   9.543 -40.776  1.00  0.00     0.197 A 
ATOM      4  O   UNL     1     -36.406   9.591 -41.170  1.00  0.00    -0.289 OA
ATOM      5  C   UNL     1     -34.136   9.311 -41.667  1.00  0.00     0.107 A 
ATOM      6  C   UNL     1     -34.276   9.050 -43.064  1.00  0.00     0.134 A 
ATOM      7  C   UNL     1     -33.131   8.934 -43.861  1.00  0.00     0.093 A 
ATOM      8  C   UNL     1     -31.853   9.009 -43.303  1.00  0.00     0.123 A 
ATOM      9  C   UNL     1     -31.706   9.212 -41.934  1.00  0.00     0.094 A 
ATOM     10  C   UNL     1     -32.828   9.368 -41.116  1.00  0.00     0.146 A 
ATOM     11  O   UNL     1     -32.642   9.578 -39.817  1.00  0.00    -0.456 OA
ENDROOT
BRANCH   1  12
ATOM     12  C   UNL     1     -33.309   9.983 -37.525  1.00  0.00     0.021 A 
ATOM     13  C   UNL     1     -32.599   8.994 -36.822  1.00  0.00     0.016 A 
ATOM     14  C   UNL     1     -32.272   9.175 -35.476  1.00  0.00     0.051 A 
ATOM     15  C   UNL     1     -32.638  10.347 -34.810  1.00  0.00     0.157 A 
ATOM     16  C   UNL     1     -33.665  11.170 -36.853  1.00  0.00     0.062 A 
ATOM     17  C   UNL     1     -33.335  11.352 -35.501  1.00  0.00     0.158 A 
BRANCH  15  18
ATOM     18  O   UNL     1     -32.299  10.498 -33.466  1.00  0.00    -0.504 OA
ATOM     19  H   UNL     1     -31.873  11.345 -33.110  1.00  0.00     0.293 HD
ENDBRANCH  15  18
BRANCH  17  20
ATOM     20  O   UNL     1     -33.693  12.528 -34.846  1.00  0.00    -0.504 OA
ATOM     21  H   UNL     1     -33.537  13.439 -35.264  1.00  0.00     0.293 HD
ENDBRANCH  17  20
ENDBRANCH   1  12
BRANCH   6  22
ATOM     22  O   UNL     1     -35.504   8.878 -43.710  1.00  0.00    -0.507 OA
ATOM     23  H   UNL     1     -35.809   8.027 -44.158  1.00  0.00     0.293 HD
ENDBRANCH   6  22
BRANCH   8  24
ATOM     24  O   UNL     1     -30.720   8.876 -44.104  1.00  0.00    -0.508 OA
ATOM     25  H   UNL     1     -30.169   9.679 -44.382  1.00  0.00     0.293 HD
ENDBRANCH   8  24
TORSDOF 5
ENDMDL
