MODEL 1
REMARK VINA RESULT:    -2.558      0.000      0.000
REMARK INTER + INTRA:          -3.520
REMARK INTER:                  -3.156
REMARK INTRA:                  -0.363
REMARK UNBOUND:                -0.363
REMARK SMILES Oc1cc(O)c2cc(O)c(-c3cc(O)c(O)c(O)c3)[o+]c2c1.[Cl-]
REMARK SMILES IDX 10 1 20 2 21 3 22 4 2 5 3 6 4 7 6 8 7 9 8 10 11 11 12 12
REMARK SMILES IDX 13 13 19 14 15 15 17 16 14 17 16 19 18 21 9 23 1 25 5 27
REMARK H PARENT 14 18 16 20 18 22 9 24 1 26 5 28
REMARK Flexibility Score: inf
ROOT
ATOM      1  C   UNL     1     -30.890 -32.367  13.204  1.00  0.00     0.402 A 
ATOM      2  O   UNL     1     -31.196 -31.074  13.308  1.00  0.00    -0.202 OA
ATOM      3  C   UNL     1     -30.325 -30.099  13.066  1.00  0.00     0.368 A 
ATOM      4  C   UNL     1     -30.723 -28.766  13.203  1.00  0.00     0.162 A 
ATOM      5  C   UNL     1     -29.818 -27.731  12.956  1.00  0.00     0.128 A 
ATOM      6  C   UNL     1     -28.504 -28.030  12.568  1.00  0.00     0.093 A 
ATOM      7  C   UNL     1     -28.090 -29.361  12.425  1.00  0.00     0.136 A 
ATOM      8  C   UNL     1     -29.004 -30.404  12.675  1.00  0.00     0.125 A 
ATOM      9  C   UNL     1     -28.649 -31.750  12.541  1.00  0.00     0.078 A 
ATOM     10  C   UNL     1     -29.596 -32.747  12.794  1.00  0.00     0.223 A 
ENDROOT
BRANCH   1  11
ATOM     11  C   UNL     1     -31.943 -33.363  13.507  1.00  0.00     0.091 A 
ATOM     12  C   UNL     1     -32.964 -33.593  12.575  1.00  0.00     0.068 A 
ATOM     13  C   UNL     1     -33.981 -34.515  12.847  1.00  0.00     0.162 A 
ATOM     14  C   UNL     1     -31.975 -34.041  14.736  1.00  0.00     0.068 A 
ATOM     15  C   UNL     1     -34.001 -35.209  14.065  1.00  0.00     0.200 A 
ATOM     16  C   UNL     1     -32.989 -34.963  15.023  1.00  0.00     0.162 A 
BRANCH  13  17
ATOM     17  O   UNL     1     -34.984 -34.750  11.906  1.00  0.00    -0.504 OA
ATOM     18  H   UNL     1     -35.810 -35.290  12.135  1.00  0.00     0.293 HD
ENDBRANCH  13  17
BRANCH  15  19
ATOM     19  O   UNL     1     -35.034 -36.125  14.282  1.00  0.00    -0.502 OA
ATOM     20  H   UNL     1     -35.973 -36.014  13.928  1.00  0.00     0.293 HD
ENDBRANCH  15  19
BRANCH  16  21
ATOM     21  O   UNL     1     -32.956 -35.600  16.265  1.00  0.00    -0.504 OA
ATOM     22  H   UNL     1     -33.753 -35.687  16.878  1.00  0.00     0.293 HD
ENDBRANCH  16  21
ENDBRANCH   1  11
BRANCH  10  23
ATOM     23  O   UNL     1     -29.263 -34.089  12.614  1.00  0.00    -0.500 OA
ATOM     24  H   UNL     1     -29.816 -34.834  13.020  1.00  0.00     0.294 HD
ENDBRANCH  10  23
BRANCH   5  25
ATOM     25  O   UNL     1     -30.232 -26.408  13.098  1.00  0.00    -0.507 OA
ATOM     26  H   UNL     1     -29.635 -25.634  12.832  1.00  0.00     0.293 HD
ENDBRANCH   5  25
BRANCH   7  27
ATOM     27  O   UNL     1     -26.780 -29.647  12.037  1.00  0.00    -0.507 OA
ATOM     28  H   UNL     1     -26.562 -29.961  11.099  1.00  0.00     0.293 HD
ENDBRANCH   7  27
TORSDOF 7
ENDMDL
MODEL 2
REMARK VINA RESULT:    -2.553     21.534     23.203
REMARK INTER + INTRA:          -3.514
REMARK INTER:                  -3.146
REMARK INTRA:                  -0.368
REMARK UNBOUND:                -0.363
REMARK SMILES Oc1cc(O)c2cc(O)c(-c3cc(O)c(O)c(O)c3)[o+]c2c1.[Cl-]
REMARK SMILES IDX 10 1 20 2 21 3 22 4 2 5 3 6 4 7 6 8 7 9 8 10 11 11 12 12
REMARK SMILES IDX 13 13 19 14 15 15 17 16 14 17 16 19 18 21 9 23 1 25 5 27
REMARK H PARENT 14 18 16 20 18 22 9 24 1 26 5 28
REMARK Flexibility Score: inf
ROOT
ATOM      1  C   UNL     1     -17.313 -25.433  30.745  1.00  0.00     0.402 A 
ATOM      2  O   UNL     1     -18.422 -24.697  30.807  1.00  0.00    -0.202 OA
ATOM      3  C   UNL     1     -18.424 -23.411  31.143  1.00  0.00     0.368 A 
ATOM      4  C   UNL     1     -19.632 -22.709  31.189  1.00  0.00     0.162 A 
ATOM      5  C   UNL     1     -19.649 -21.358  31.544  1.00  0.00     0.128 A 
ATOM      6  C   UNL     1     -18.450 -20.701  31.854  1.00  0.00     0.093 A 
ATOM      7  C   UNL     1     -17.230 -21.391  31.811  1.00  0.00     0.136 A 
ATOM      8  C   UNL     1     -17.214 -22.753  31.453  1.00  0.00     0.125 A 
ATOM      9  C   UNL     1     -16.026 -23.489  31.386  1.00  0.00     0.078 A 
ATOM     10  C   UNL     1     -16.064 -24.838  31.019  1.00  0.00     0.223 A 
ENDROOT
BRANCH   1  11
ATOM     11  C   UNL     1     -17.438 -26.859  30.367  1.00  0.00     0.091 A 
ATOM     12  C   UNL     1     -17.652 -27.200  29.025  1.00  0.00     0.068 A 
ATOM     13  C   UNL     1     -17.793 -28.540  28.644  1.00  0.00     0.162 A 
ATOM     14  C   UNL     1     -17.406 -27.877  31.333  1.00  0.00     0.068 A 
ATOM     15  C   UNL     1     -17.739 -29.558  29.606  1.00  0.00     0.200 A 
ATOM     16  C   UNL     1     -17.550 -29.221  30.968  1.00  0.00     0.162 A 
BRANCH  13  17
ATOM     17  O   UNL     1     -17.989 -28.871  27.304  1.00  0.00    -0.504 OA
ATOM     18  H   UNL     1     -17.208 -29.019  26.674  1.00  0.00     0.293 HD
ENDBRANCH  13  17
BRANCH  15  19
ATOM     19  O   UNL     1     -17.877 -30.879  29.173  1.00  0.00    -0.502 OA
ATOM     20  H   UNL     1     -17.103 -31.507  29.014  1.00  0.00     0.293 HD
ENDBRANCH  15  19
BRANCH  16  21
ATOM     21  O   UNL     1     -17.507 -30.179  31.983  1.00  0.00    -0.504 OA
ATOM     22  H   UNL     1     -16.807 -30.202  32.710  1.00  0.00     0.293 HD
ENDBRANCH  16  21
ENDBRANCH   1  11
BRANCH  10  23
ATOM     23  O   UNL     1     -14.880 -25.564  30.901  1.00  0.00    -0.500 OA
ATOM     24  H   UNL     1     -14.273 -25.724  31.695  1.00  0.00     0.294 HD
ENDBRANCH  10  23
BRANCH   5  25
ATOM     25  O   UNL     1     -20.863 -20.674  31.586  1.00  0.00    -0.507 OA
ATOM     26  H   UNL     1     -20.992 -19.859  32.172  1.00  0.00     0.293 HD
ENDBRANCH   5  25
BRANCH   7  27
ATOM     27  O   UNL     1     -16.042 -20.727  32.120  1.00  0.00    -0.507 OA
ATOM     28  H   UNL     1     -15.673 -20.712  33.063  1.00  0.00     0.293 HD
ENDBRANCH   7  27
TORSDOF 7
ENDMDL
MODEL 3
REMARK VINA RESULT:    -2.532     21.556     23.255
REMARK INTER + INTRA:          -3.488
REMARK INTER:                  -3.121
REMARK INTRA:                  -0.367
REMARK UNBOUND:                -0.363
REMARK SMILES Oc1cc(O)c2cc(O)c(-c3cc(O)c(O)c(O)c3)[o+]c2c1.[Cl-]
REMARK SMILES IDX 10 1 20 2 21 3 22 4 2 5 3 6 4 7 6 8 7 9 8 10 11 11 12 12
REMARK SMILES IDX 13 13 19 14 15 15 17 16 14 17 16 19 18 21 9 23 1 25 5 27
REMARK H PARENT 14 18 16 20 18 22 9 24 1 26 5 28
REMARK Flexibility Score: inf
ROOT
ATOM      1  C   UNL     1     -17.302 -25.728  30.790  1.00  0.00     0.402 A 
ATOM      2  O   UNL     1     -18.431 -25.021  30.788  1.00  0.00    -0.202 OA
ATOM      3  C   UNL     1     -18.481 -23.729  31.096  1.00  0.00     0.368 A 
ATOM      4  C   UNL     1     -19.707 -23.058  31.075  1.00  0.00     0.162 A 
ATOM      5  C   UNL     1     -19.775 -21.701  31.400  1.00  0.00     0.128 A 
ATOM      6  C   UNL     1     -18.608 -21.007  31.749  1.00  0.00     0.093 A 
ATOM      7  C   UNL     1     -17.370 -21.665  31.774  1.00  0.00     0.136 A 
ATOM      8  C   UNL     1     -17.303 -23.033  31.446  1.00  0.00     0.125 A 
ATOM      9  C   UNL     1     -16.096 -23.738  31.446  1.00  0.00     0.078 A 
ATOM     10  C   UNL     1     -16.083 -25.095  31.106  1.00  0.00     0.223 A 
ENDROOT
BRANCH   1  11
ATOM     11  C   UNL     1     -17.374 -27.164  30.437  1.00  0.00     0.091 A 
ATOM     12  C   UNL     1     -17.663 -28.106  31.433  1.00  0.00     0.068 A 
ATOM     13  C   UNL     1     -17.717 -29.471  31.129  1.00  0.00     0.162 A 
ATOM     14  C   UNL     1     -17.102 -27.611  29.134  1.00  0.00     0.068 A 
ATOM     15  C   UNL     1     -17.467 -29.915  29.823  1.00  0.00     0.200 A 
ATOM     16  C   UNL     1     -17.149 -28.974  28.816  1.00  0.00     0.162 A 
BRANCH  13  17
ATOM     17  O   UNL     1     -18.021 -30.399  32.125  1.00  0.00    -0.504 OA
ATOM     18  H   UNL     1     -17.866 -31.392  31.990  1.00  0.00     0.293 HD
ENDBRANCH  13  17
BRANCH  15  19
ATOM     19  O   UNL     1     -17.543 -31.288  29.571  1.00  0.00    -0.502 OA
ATOM     20  H   UNL     1     -17.489 -31.698  28.651  1.00  0.00     0.293 HD
ENDBRANCH  15  19
BRANCH  16  21
ATOM     21  O   UNL     1     -16.868 -29.344  27.499  1.00  0.00    -0.504 OA
ATOM     22  H   UNL     1     -15.973 -29.208  27.052  1.00  0.00     0.293 HD
ENDBRANCH  16  21
ENDBRANCH   1  11
BRANCH  10  23
ATOM     23  O   UNL     1     -14.876 -25.792  31.056  1.00  0.00    -0.500 OA
ATOM     24  H   UNL     1     -14.781 -26.722  31.445  1.00  0.00     0.294 HD
ENDBRANCH  10  23
BRANCH   5  25
ATOM     25  O   UNL     1     -21.006 -21.049  31.374  1.00  0.00    -0.507 OA
ATOM     26  H   UNL     1     -21.434 -20.690  32.219  1.00  0.00     0.293 HD
ENDBRANCH   5  25
BRANCH   7  27
ATOM     27  O   UNL     1     -16.214 -20.964  32.121  1.00  0.00    -0.507 OA
ATOM     28  H   UNL     1     -15.956 -20.103  31.654  1.00  0.00     0.293 HD
ENDBRANCH   7  27
TORSDOF 7
ENDMDL
MODEL 4
REMARK VINA RESULT:    -2.488     19.222     20.139
REMARK INTER + INTRA:          -3.434
REMARK INTER:                  -3.053
REMARK INTRA:                  -0.381
REMARK UNBOUND:                -0.363
REMARK SMILES Oc1cc(O)c2cc(O)c(-c3cc(O)c(O)c(O)c3)[o+]c2c1.[Cl-]
REMARK SMILES IDX 10 1 20 2 21 3 22 4 2 5 3 6 4 7 6 8 7 9 8 10 11 11 12 12
REMARK SMILES IDX 13 13 19 14 15 15 17 16 14 17 16 19 18 21 9 23 1 25 5 27
REMARK H PARENT 14 18 16 20 18 22 9 24 1 26 5 28
REMARK Flexibility Score: inf
ROOT
ATOM      1  C   UNL     1     -20.879 -33.479  30.404  1.00  0.00     0.402 A 
ATOM      2  O   UNL     1     -20.879 -32.177  30.686  1.00  0.00    -0.202 OA
ATOM      3  C   UNL     1     -19.771 -31.487  30.937  1.00  0.00     0.368 A 
ATOM      4  C   UNL     1     -19.856 -30.122  31.229  1.00  0.00     0.162 A 
ATOM      5  C   UNL     1     -18.701 -29.385  31.498  1.00  0.00     0.128 A 
ATOM      6  C   UNL     1     -17.449 -30.016  31.476  1.00  0.00     0.093 A 
ATOM      7  C   UNL     1     -17.346 -31.383  31.184  1.00  0.00     0.136 A 
ATOM      8  C   UNL     1     -18.512 -32.125  30.912  1.00  0.00     0.125 A 
ATOM      9  C   UNL     1     -18.469 -33.489  30.607  1.00  0.00     0.078 A 
ATOM     10  C   UNL     1     -19.656 -34.179  30.338  1.00  0.00     0.223 A 
ENDROOT
BRANCH   1  11
ATOM     11  C   UNL     1     -22.178 -34.142  30.150  1.00  0.00     0.091 A 
ATOM     12  C   UNL     1     -22.851 -34.768  31.208  1.00  0.00     0.068 A 
ATOM     13  C   UNL     1     -24.071 -35.418  30.990  1.00  0.00     0.162 A 
ATOM     14  C   UNL     1     -22.726 -34.207  28.859  1.00  0.00     0.068 A 
ATOM     15  C   UNL     1     -24.629 -35.464  29.704  1.00  0.00     0.200 A 
ATOM     16  C   UNL     1     -23.944 -34.856  28.626  1.00  0.00     0.162 A 
BRANCH  13  17
ATOM     17  O   UNL     1     -24.742 -36.026  32.052  1.00  0.00    -0.504 OA
ATOM     18  H   UNL     1     -25.309 -36.855  31.916  1.00  0.00     0.293 HD
ENDBRANCH  13  17
BRANCH  15  19
ATOM     19  O   UNL     1     -25.854 -36.118  29.543  1.00  0.00    -0.502 OA
ATOM     20  H   UNL     1     -25.947 -37.092  29.297  1.00  0.00     0.293 HD
ENDBRANCH  15  19
BRANCH  16  21
ATOM     21  O   UNL     1     -24.427 -34.880  27.316  1.00  0.00    -0.504 OA
ATOM     22  H   UNL     1     -24.963 -35.641  26.924  1.00  0.00     0.293 HD
ENDBRANCH  16  21
ENDBRANCH   1  11
BRANCH  10  23
ATOM     23  O   UNL     1     -19.617 -35.527  29.984  1.00  0.00    -0.500 OA
ATOM     24  H   UNL     1     -19.365 -36.245  30.652  1.00  0.00     0.294 HD
ENDBRANCH  10  23
BRANCH   5  25
ATOM     25  O   UNL     1     -18.805 -28.026  31.788  1.00  0.00    -0.507 OA
ATOM     26  H   UNL     1     -19.011 -27.698  32.724  1.00  0.00     0.293 HD
ENDBRANCH   5  25
BRANCH   7  27
ATOM     27  O   UNL     1     -16.094 -32.000  31.162  1.00  0.00    -0.507 OA
ATOM     28  H   UNL     1     -15.504 -32.030  31.985  1.00  0.00     0.293 HD
ENDBRANCH   7  27
TORSDOF 7
ENDMDL
MODEL 5
REMARK VINA RESULT:    -2.475     21.234     22.750
REMARK INTER + INTRA:          -3.417
REMARK INTER:                  -3.041
REMARK INTRA:                  -0.376
REMARK UNBOUND:                -0.363
REMARK SMILES Oc1cc(O)c2cc(O)c(-c3cc(O)c(O)c(O)c3)[o+]c2c1.[Cl-]
REMARK SMILES IDX 10 1 20 2 21 3 22 4 2 5 3 6 4 7 6 8 7 9 8 10 11 11 12 12
REMARK SMILES IDX 13 13 19 14 15 15 17 16 14 17 16 19 18 21 9 23 1 25 5 27
REMARK H PARENT 14 18 16 20 18 22 9 24 1 26 5 28
REMARK Flexibility Score: inf
ROOT
ATOM      1  C   UNL     1     -18.457 -25.061  30.848  1.00  0.00     0.402 A 
ATOM      2  O   UNL     1     -19.357 -24.094  31.024  1.00  0.00    -0.202 OA
ATOM      3  C   UNL     1     -19.032 -22.852  31.367  1.00  0.00     0.368 A 
ATOM      4  C   UNL     1     -20.037 -21.895  31.537  1.00  0.00     0.162 A 
ATOM      5  C   UNL     1     -19.710 -20.586  31.901  1.00  0.00     0.128 A 
ATOM      6  C   UNL     1     -18.368 -20.230  32.097  1.00  0.00     0.093 A 
ATOM      7  C   UNL     1     -17.349 -21.177  31.929  1.00  0.00     0.136 A 
ATOM      8  C   UNL     1     -17.680 -22.497  31.562  1.00  0.00     0.125 A 
ATOM      9  C   UNL     1     -16.704 -23.481  31.373  1.00  0.00     0.078 A 
ATOM     10  C   UNL     1     -17.086 -24.775  31.002  1.00  0.00     0.223 A 
ENDROOT
BRANCH   1  11
ATOM     11  C   UNL     1     -18.942 -26.410  30.474  1.00  0.00     0.091 A 
ATOM     12  C   UNL     1     -19.313 -26.666  29.147  1.00  0.00     0.068 A 
ATOM     13  C   UNL     1     -19.792 -27.926  28.772  1.00  0.00     0.162 A 
ATOM     14  C   UNL     1     -19.094 -27.424  31.433  1.00  0.00     0.068 A 
ATOM     15  C   UNL     1     -19.923 -28.946  29.726  1.00  0.00     0.200 A 
ATOM     16  C   UNL     1     -19.576 -28.688  31.073  1.00  0.00     0.162 A 
BRANCH  13  17
ATOM     17  O   UNL     1     -20.144 -28.176  27.446  1.00  0.00    -0.504 OA
ATOM     18  H   UNL     1     -19.859 -27.557  26.696  1.00  0.00     0.293 HD
ENDBRANCH  13  17
BRANCH  15  19
ATOM     19  O   UNL     1     -20.398 -30.188  29.297  1.00  0.00    -0.502 OA
ATOM     20  H   UNL     1     -21.105 -30.310  28.587  1.00  0.00     0.293 HD
ENDBRANCH  15  19
BRANCH  16  21
ATOM     21  O   UNL     1     -19.700 -29.647  32.080  1.00  0.00    -0.504 OA
ATOM     22  H   UNL     1     -18.941 -30.230  32.403  1.00  0.00     0.293 HD
ENDBRANCH  16  21
ENDBRANCH   1  11
BRANCH  10  23
ATOM     23  O   UNL     1     -16.116 -25.748  30.763  1.00  0.00    -0.500 OA
ATOM     24  H   UNL     1     -16.360 -26.722  30.632  1.00  0.00     0.294 HD
ENDBRANCH  10  23
BRANCH   5  25
ATOM     25  O   UNL     1     -20.724 -19.646  32.067  1.00  0.00    -0.507 OA
ATOM     26  H   UNL     1     -20.895 -18.923  31.378  1.00  0.00     0.293 HD
ENDBRANCH   5  25
BRANCH   7  27
ATOM     27  O   UNL     1     -16.016 -20.811  32.125  1.00  0.00    -0.507 OA
ATOM     28  H   UNL     1     -15.254 -21.377  31.771  1.00  0.00     0.293 HD
ENDBRANCH   7  27
TORSDOF 7
ENDMDL
MODEL 6
REMARK VINA RESULT:    -2.449      2.114      2.835
REMARK INTER + INTRA:          -3.385
REMARK INTER:                  -3.008
REMARK INTRA:                  -0.377
REMARK UNBOUND:                -0.363
REMARK SMILES Oc1cc(O)c2cc(O)c(-c3cc(O)c(O)c(O)c3)[o+]c2c1.[Cl-]
REMARK SMILES IDX 10 1 20 2 21 3 22 4 2 5 3 6 4 7 6 8 7 9 8 10 11 11 12 12
REMARK SMILES IDX 13 13 19 14 15 15 17 16 14 17 16 19 18 21 9 23 1 25 5 27
REMARK H PARENT 14 18 16 20 18 22 9 24 1 26 5 28
REMARK Flexibility Score: inf
ROOT
ATOM      1  C   UNL     1     -32.660 -30.803  13.334  1.00  0.00     0.402 A 
ATOM      2  O   UNL     1     -33.477 -29.750  13.321  1.00  0.00    -0.202 OA
ATOM      3  C   UNL     1     -33.067 -28.515  13.048  1.00  0.00     0.368 A 
ATOM      4  C   UNL     1     -33.987 -27.463  13.060  1.00  0.00     0.162 A 
ATOM      5  C   UNL     1     -33.571 -26.159  12.778  1.00  0.00     0.128 A 
ATOM      6  C   UNL     1     -32.224 -25.904  12.483  1.00  0.00     0.093 A 
ATOM      7  C   UNL     1     -31.290 -26.949  12.466  1.00  0.00     0.136 A 
ATOM      8  C   UNL     1     -31.711 -28.263  12.750  1.00  0.00     0.125 A 
ATOM      9  C   UNL     1     -30.825 -29.345  12.740  1.00  0.00     0.078 A 
ATOM     10  C   UNL     1     -31.296 -30.632  13.023  1.00  0.00     0.223 A 
ENDROOT
BRANCH   1  11
ATOM     11  C   UNL     1     -33.231 -32.129  13.661  1.00  0.00     0.091 A 
ATOM     12  C   UNL     1     -33.692 -32.955  12.628  1.00  0.00     0.068 A 
ATOM     13  C   UNL     1     -34.255 -34.205  12.912  1.00  0.00     0.162 A 
ATOM     14  C   UNL     1     -33.376 -32.556  14.992  1.00  0.00     0.068 A 
ATOM     15  C   UNL     1     -34.378 -34.640  14.239  1.00  0.00     0.200 A 
ATOM     16  C   UNL     1     -33.939 -33.801  15.291  1.00  0.00     0.162 A 
BRANCH  13  17
ATOM     17  O   UNL     1     -34.696 -35.027  11.875  1.00  0.00    -0.504 OA
ATOM     18  H   UNL     1     -34.415 -34.867  10.914  1.00  0.00     0.293 HD
ENDBRANCH  13  17
BRANCH  15  19
ATOM     19  O   UNL     1     -34.938 -35.900  14.467  1.00  0.00    -0.502 OA
ATOM     20  H   UNL     1     -34.439 -36.770  14.356  1.00  0.00     0.293 HD
ENDBRANCH  15  19
BRANCH  16  21
ATOM     21  O   UNL     1     -34.050 -34.159  16.636  1.00  0.00    -0.504 OA
ATOM     22  H   UNL     1     -33.277 -34.476  17.203  1.00  0.00     0.293 HD
ENDBRANCH  16  21
ENDBRANCH   1  11
BRANCH  10  23
ATOM     23  O   UNL     1     -30.428 -31.722  12.965  1.00  0.00    -0.500 OA
ATOM     24  H   UNL     1     -29.455 -31.641  13.232  1.00  0.00     0.294 HD
ENDBRANCH  10  23
BRANCH   5  25
ATOM     25  O   UNL     1     -34.501 -25.122  12.795  1.00  0.00    -0.507 OA
ATOM     26  H   UNL     1     -34.749 -24.618  11.952  1.00  0.00     0.293 HD
ENDBRANCH   5  25
BRANCH   7  27
ATOM     27  O   UNL     1     -29.952 -26.684  12.168  1.00  0.00    -0.507 OA
ATOM     28  H   UNL     1     -29.648 -26.493  11.221  1.00  0.00     0.293 HD
ENDBRANCH   7  27
TORSDOF 7
ENDMDL
MODEL 7
REMARK VINA RESULT:    -2.434     20.470     22.245
REMARK INTER + INTRA:          -3.367
REMARK INTER:                  -2.982
REMARK INTRA:                  -0.385
REMARK UNBOUND:                -0.363
REMARK SMILES Oc1cc(O)c2cc(O)c(-c3cc(O)c(O)c(O)c3)[o+]c2c1.[Cl-]
REMARK SMILES IDX 10 1 20 2 21 3 22 4 2 5 3 6 4 7 6 8 7 9 8 10 11 11 12 12
REMARK SMILES IDX 13 13 19 14 15 15 17 16 14 17 16 19 18 21 9 23 1 25 5 27
REMARK H PARENT 14 18 16 20 18 22 9 24 1 26 5 28
REMARK Flexibility Score: inf
ROOT
ATOM      1  C   UNL     1     -20.791 -23.359  30.479  1.00  0.00     0.402 A 
ATOM      2  O   UNL     1     -19.594 -23.884  30.734  1.00  0.00    -0.202 OA
ATOM      3  C   UNL     1     -18.567 -23.169  31.183  1.00  0.00     0.368 A 
ATOM      4  C   UNL     1     -17.340 -23.795  31.422  1.00  0.00     0.162 A 
ATOM      5  C   UNL     1     -16.251 -23.055  31.891  1.00  0.00     0.128 A 
ATOM      6  C   UNL     1     -16.388 -21.680  32.123  1.00  0.00     0.093 A 
ATOM      7  C   UNL     1     -17.612 -21.038  31.889  1.00  0.00     0.136 A 
ATOM      8  C   UNL     1     -18.709 -21.785  31.417  1.00  0.00     0.125 A 
ATOM      9  C   UNL     1     -19.956 -21.199  31.174  1.00  0.00     0.078 A 
ATOM     10  C   UNL     1     -21.016 -21.987  30.711  1.00  0.00     0.223 A 
ENDROOT
BRANCH   1  11
ATOM     11  C   UNL     1     -21.856 -24.255  29.974  1.00  0.00     0.091 A 
ATOM     12  C   UNL     1     -22.625 -24.993  30.883  1.00  0.00     0.068 A 
ATOM     13  C   UNL     1     -23.625 -25.862  30.430  1.00  0.00     0.162 A 
ATOM     14  C   UNL     1     -22.075 -24.427  28.597  1.00  0.00     0.068 A 
ATOM     15  C   UNL     1     -23.859 -26.017  29.057  1.00  0.00     0.200 A 
ATOM     16  C   UNL     1     -23.069 -25.296  28.130  1.00  0.00     0.162 A 
BRANCH  13  17
ATOM     17  O   UNL     1     -24.396 -26.580  31.344  1.00  0.00    -0.504 OA
ATOM     18  H   UNL     1     -24.753 -26.151  32.190  1.00  0.00     0.293 HD
ENDBRANCH  13  17
BRANCH  15  19
ATOM     19  O   UNL     1     -24.874 -26.890  28.658  1.00  0.00    -0.502 OA
ATOM     20  H   UNL     1     -25.553 -27.293  29.286  1.00  0.00     0.293 HD
ENDBRANCH  15  19
BRANCH  16  21
ATOM     21  O   UNL     1     -23.230 -25.415  26.748  1.00  0.00    -0.504 OA
ATOM     22  H   UNL     1     -24.030 -25.069  26.239  1.00  0.00     0.293 HD
ENDBRANCH  16  21
ENDBRANCH   1  11
BRANCH  10  23
ATOM     23  O   UNL     1     -22.274 -21.419  30.515  1.00  0.00    -0.500 OA
ATOM     24  H   UNL     1     -22.671 -21.313  29.589  1.00  0.00     0.294 HD
ENDBRANCH  10  23
BRANCH   5  25
ATOM     25  O   UNL     1     -15.035 -23.695  32.123  1.00  0.00    -0.507 OA
ATOM     26  H   UNL     1     -14.172 -23.175  32.221  1.00  0.00     0.293 HD
ENDBRANCH   5  25
BRANCH   7  27
ATOM     27  O   UNL     1     -17.739 -19.668  32.125  1.00  0.00    -0.507 OA
ATOM     28  H   UNL     1     -18.414 -19.304  32.786  1.00  0.00     0.293 HD
ENDBRANCH   7  27
TORSDOF 7
ENDMDL
MODEL 8
REMARK VINA RESULT:    -2.386     21.934     23.779
REMARK INTER + INTRA:          -3.307
REMARK INTER:                  -3.003
REMARK INTRA:                  -0.304
REMARK UNBOUND:                -0.363
REMARK SMILES Oc1cc(O)c2cc(O)c(-c3cc(O)c(O)c(O)c3)[o+]c2c1.[Cl-]
REMARK SMILES IDX 10 1 20 2 21 3 22 4 2 5 3 6 4 7 6 8 7 9 8 10 11 11 12 12
REMARK SMILES IDX 13 13 19 14 15 15 17 16 14 17 16 19 18 21 9 23 1 25 5 27
REMARK H PARENT 14 18 16 20 18 22 9 24 1 26 5 28
REMARK Flexibility Score: inf
ROOT
ATOM      1  C   UNL     1     -21.237 -20.777  30.525  1.00  0.00     0.402 A 
ATOM      2  O   UNL     1     -19.913 -20.744  30.671  1.00  0.00    -0.202 OA
ATOM      3  C   UNL     1     -19.179 -21.828  30.901  1.00  0.00     0.368 A 
ATOM      4  C   UNL     1     -17.794 -21.707  31.047  1.00  0.00     0.162 A 
ATOM      5  C   UNL     1     -17.010 -22.837  31.293  1.00  0.00     0.128 A 
ATOM      6  C   UNL     1     -17.614 -24.098  31.394  1.00  0.00     0.093 A 
ATOM      7  C   UNL     1     -19.001 -24.236  31.248  1.00  0.00     0.136 A 
ATOM      8  C   UNL     1     -19.790 -23.096  31.001  1.00  0.00     0.125 A 
ATOM      9  C   UNL     1     -21.177 -23.174  30.839  1.00  0.00     0.078 A 
ATOM     10  C   UNL     1     -21.915 -22.012  30.588  1.00  0.00     0.223 A 
ENDROOT
BRANCH   1  11
ATOM     11  C   UNL     1     -21.948 -19.502  30.281  1.00  0.00     0.091 A 
ATOM     12  C   UNL     1     -22.412 -19.207  28.992  1.00  0.00     0.068 A 
ATOM     13  C   UNL     1     -23.070 -18.000  28.730  1.00  0.00     0.162 A 
ATOM     14  C   UNL     1     -22.117 -18.552  31.301  1.00  0.00     0.068 A 
ATOM     15  C   UNL     1     -23.258 -17.061  29.754  1.00  0.00     0.200 A 
ATOM     16  C   UNL     1     -22.769 -17.338  31.052  1.00  0.00     0.162 A 
BRANCH  13  17
ATOM     17  O   UNL     1     -23.543 -17.723  27.448  1.00  0.00    -0.504 OA
ATOM     18  H   UNL     1     -23.703 -16.772  27.135  1.00  0.00     0.293 HD
ENDBRANCH  13  17
BRANCH  15  19
ATOM     19  O   UNL     1     -23.929 -15.875  29.442  1.00  0.00    -0.502 OA
ATOM     20  H   UNL     1     -24.716 -15.819  28.812  1.00  0.00     0.293 HD
ENDBRANCH  15  19
BRANCH  16  21
ATOM     21  O   UNL     1     -22.901 -16.442  32.115  1.00  0.00    -0.504 OA
ATOM     22  H   UNL     1     -23.544 -16.567  32.884  1.00  0.00     0.293 HD
ENDBRANCH  16  21
ENDBRANCH   1  11
BRANCH  10  23
ATOM     23  O   UNL     1     -23.291 -22.090  30.376  1.00  0.00    -0.500 OA
ATOM     24  H   UNL     1     -23.884 -21.271  30.431  1.00  0.00     0.294 HD
ENDBRANCH  10  23
BRANCH   5  25
ATOM     25  O   UNL     1     -15.631 -22.698  31.437  1.00  0.00    -0.507 OA
ATOM     26  H   UNL     1     -15.140 -23.075  32.239  1.00  0.00     0.293 HD
ENDBRANCH   5  25
BRANCH   7  27
ATOM     27  O   UNL     1     -19.592 -25.496  31.348  1.00  0.00    -0.507 OA
ATOM     28  H   UNL     1     -19.363 -26.130  32.105  1.00  0.00     0.293 HD
ENDBRANCH   7  27
TORSDOF 7
ENDMDL
MODEL 9
REMARK VINA RESULT:    -2.274      4.110      6.446
REMARK INTER + INTRA:          -3.169
REMARK INTER:                  -2.784
REMARK INTRA:                  -0.385
REMARK UNBOUND:                -0.363
REMARK SMILES Oc1cc(O)c2cc(O)c(-c3cc(O)c(O)c(O)c3)[o+]c2c1.[Cl-]
REMARK SMILES IDX 10 1 20 2 21 3 22 4 2 5 3 6 4 7 6 8 7 9 8 10 11 11 12 12
REMARK SMILES IDX 13 13 19 14 15 15 17 16 14 17 16 19 18 21 9 23 1 25 5 27
REMARK H PARENT 14 18 16 20 18 22 9 24 1 26 5 28
REMARK Flexibility Score: inf
ROOT
ATOM      1  C   UNL     1     -32.302 -33.705  16.381  1.00  0.00     0.402 A 
ATOM      2  O   UNL     1     -32.738 -32.668  15.668  1.00  0.00    -0.202 OA
ATOM      3  C   UNL     1     -33.336 -32.796  14.488  1.00  0.00     0.368 A 
ATOM      4  C   UNL     1     -33.761 -31.656  13.799  1.00  0.00     0.162 A 
ATOM      5  C   UNL     1     -34.388 -31.775  12.556  1.00  0.00     0.128 A 
ATOM      6  C   UNL     1     -34.592 -33.044  11.996  1.00  0.00     0.093 A 
ATOM      7  C   UNL     1     -34.174 -34.197  12.675  1.00  0.00     0.136 A 
ATOM      8  C   UNL     1     -33.542 -34.075  13.928  1.00  0.00     0.125 A 
ATOM      9  C   UNL     1     -33.110 -35.191  14.653  1.00  0.00     0.078 A 
ATOM     10  C   UNL     1     -32.494 -35.015  15.896  1.00  0.00     0.223 A 
ENDROOT
BRANCH   1  11
ATOM     11  C   UNL     1     -31.643 -33.436  17.679  1.00  0.00     0.091 A 
ATOM     12  C   UNL     1     -32.427 -33.251  18.826  1.00  0.00     0.068 A 
ATOM     13  C   UNL     1     -31.830 -32.976  20.061  1.00  0.00     0.162 A 
ATOM     14  C   UNL     1     -30.248 -33.304  17.778  1.00  0.00     0.068 A 
ATOM     15  C   UNL     1     -30.436 -32.866  20.164  1.00  0.00     0.200 A 
ATOM     16  C   UNL     1     -29.637 -33.025  19.006  1.00  0.00     0.162 A 
BRANCH  13  17
ATOM     17  O   UNL     1     -32.618 -32.809  21.200  1.00  0.00    -0.504 OA
ATOM     18  H   UNL     1     -32.867 -31.888  21.543  1.00  0.00     0.293 HD
ENDBRANCH  13  17
BRANCH  15  19
ATOM     19  O   UNL     1     -29.889 -32.599  21.422  1.00  0.00    -0.502 OA
ATOM     20  H   UNL     1     -29.707 -31.671  21.774  1.00  0.00     0.293 HD
ENDBRANCH  15  19
BRANCH  16  21
ATOM     21  O   UNL     1     -28.246 -32.909  19.028  1.00  0.00    -0.504 OA
ATOM     22  H   UNL     1     -27.747 -32.177  19.513  1.00  0.00     0.293 HD
ENDBRANCH  16  21
ENDBRANCH   1  11
BRANCH  10  23
ATOM     23  O   UNL     1     -32.107 -36.125  16.647  1.00  0.00    -0.500 OA
ATOM     24  H   UNL     1     -32.720 -36.920  16.776  1.00  0.00     0.294 HD
ENDBRANCH  10  23
BRANCH   5  25
ATOM     25  O   UNL     1     -34.804 -30.628  11.884  1.00  0.00    -0.507 OA
ATOM     26  H   UNL     1     -35.695 -30.190  12.084  1.00  0.00     0.293 HD
ENDBRANCH   5  25
BRANCH   7  27
ATOM     27  O   UNL     1     -34.384 -35.455  12.108  1.00  0.00    -0.507 OA
ATOM     28  H   UNL     1     -34.812 -36.208  12.634  1.00  0.00     0.293 HD
ENDBRANCH   7  27
TORSDOF 7
ENDMDL
