MODEL 1
REMARK VINA RESULT:    -4.853      0.000      0.000
REMARK INTER + INTRA:          -6.149
REMARK INTER:                  -5.846
REMARK INTRA:                  -0.302
REMARK UNBOUND:                -0.302
REMARK SMILES O=c1c(O)c(-c2ccc(O)c(O)c2)oc2cc(O)cc(O)c12
REMARK SMILES IDX 5 1 3 2 2 3 1 4 22 5 20 6 19 7 17 8 16 9 15 10 14 11 6 12
REMARK SMILES IDX 7 13 8 14 9 15 13 16 11 17 10 18 12 20 4 22 21 24 18 26
REMARK H PARENT 10 19 12 21 4 23 21 25 18 27
REMARK Flexibility Score: inf
ROOT
ATOM      1  C   UNL     1      18.812  21.191 -12.681  1.00  0.00     0.180 A 
ATOM      2  C   UNL     1      17.680  21.778 -13.272  1.00  0.00     0.208 A 
ATOM      3  C   UNL     1      17.734  23.129 -13.652  1.00  0.00     0.238 A 
ATOM      4  O   UNL     1      16.736  23.635 -14.229  1.00  0.00    -0.285 OA
ATOM      5  C   UNL     1      18.912  23.879 -13.421  1.00  0.00     0.111 A 
ATOM      6  C   UNL     1      19.063  25.265 -13.728  1.00  0.00     0.134 A 
ATOM      7  C   UNL     1      20.316  25.873 -13.579  1.00  0.00     0.093 A 
ATOM      8  C   UNL     1      21.405  25.164 -13.071  1.00  0.00     0.123 A 
ATOM      9  C   UNL     1      21.252  23.825 -12.711  1.00  0.00     0.094 A 
ATOM     10  C   UNL     1      20.025  23.181 -12.884  1.00  0.00     0.146 A 
ATOM     11  O   UNL     1      19.924  21.903 -12.538  1.00  0.00    -0.452 OA
ENDROOT
BRANCH   1  12
ATOM     12  C   UNL     1      18.823  19.780 -12.232  1.00  0.00     0.025 A 
ATOM     13  C   UNL     1      19.094  18.762 -13.160  1.00  0.00     0.016 A 
ATOM     14  C   UNL     1      19.130  17.426 -12.755  1.00  0.00     0.051 A 
ATOM     15  C   UNL     1      18.913  17.087 -11.416  1.00  0.00     0.157 A 
ATOM     16  C   UNL     1      18.625  19.439 -10.882  1.00  0.00     0.062 A 
ATOM     17  C   UNL     1      18.663  18.098 -10.472  1.00  0.00     0.158 A 
BRANCH  15  18
ATOM     18  O   UNL     1      18.952  15.744 -11.041  1.00  0.00    -0.504 OA
ATOM     19  H   UNL     1      18.868  14.994 -11.716  1.00  0.00     0.293 HD
ENDBRANCH  15  18
BRANCH  17  20
ATOM     20  O   UNL     1      18.459  17.769  -9.133  1.00  0.00    -0.504 OA
ATOM     21  H   UNL     1      18.300  18.481  -8.430  1.00  0.00     0.293 HD
ENDBRANCH  17  20
ENDBRANCH   1  12
BRANCH   2  22
ATOM     22  O   UNL     1      16.534  21.013 -13.510  1.00  0.00    -0.502 OA
ATOM     23  H   UNL     1      15.630  21.252 -13.120  1.00  0.00     0.293 HD
ENDBRANCH   2  22
BRANCH   6  24
ATOM     24  O   UNL     1      18.017  26.089 -14.154  1.00  0.00    -0.507 OA
ATOM     25  H   UNL     1      17.357  25.850 -14.878  1.00  0.00     0.293 HD
ENDBRANCH   6  24
BRANCH   8  26
ATOM     26  O   UNL     1      22.632  25.805 -12.920  1.00  0.00    -0.508 OA
ATOM     27  H   UNL     1      23.389  25.384 -12.394  1.00  0.00     0.293 HD
ENDBRANCH   8  26
TORSDOF 6
ENDMDL
MODEL 2
REMARK VINA RESULT:    -4.811      3.069      6.249
REMARK INTER + INTRA:          -6.098
REMARK INTER:                  -5.789
REMARK INTRA:                  -0.309
REMARK UNBOUND:                -0.302
REMARK SMILES O=c1c(O)c(-c2ccc(O)c(O)c2)oc2cc(O)cc(O)c12
REMARK SMILES IDX 5 1 3 2 2 3 1 4 22 5 20 6 19 7 17 8 16 9 15 10 14 11 6 12
REMARK SMILES IDX 7 13 8 14 9 15 13 16 11 17 10 18 12 20 4 22 21 24 18 26
REMARK H PARENT 10 19 12 21 4 23 21 25 18 27
REMARK Flexibility Score: inf
ROOT
ATOM      1  C   UNL     1      19.110  22.145 -14.584  1.00  0.00     0.180 A 
ATOM      2  C   UNL     1      19.894  23.175 -14.037  1.00  0.00     0.208 A 
ATOM      3  C   UNL     1      20.204  23.140 -12.667  1.00  0.00     0.238 A 
ATOM      4  O   UNL     1      20.951  24.036 -12.194  1.00  0.00    -0.285 OA
ATOM      5  C   UNL     1      19.712  22.087 -11.860  1.00  0.00     0.111 A 
ATOM      6  C   UNL     1      19.929  21.974 -10.454  1.00  0.00     0.134 A 
ATOM      7  C   UNL     1      19.507  20.822  -9.780  1.00  0.00     0.093 A 
ATOM      8  C   UNL     1      18.817  19.809 -10.446  1.00  0.00     0.123 A 
ATOM      9  C   UNL     1      18.547  19.937 -11.810  1.00  0.00     0.094 A 
ATOM     10  C   UNL     1      18.988  21.058 -12.516  1.00  0.00     0.146 A 
ATOM     11  O   UNL     1      18.719  21.136 -13.814  1.00  0.00    -0.452 OA
ENDROOT
BRANCH   1  12
ATOM     12  C   UNL     1      18.722  22.125 -16.013  1.00  0.00     0.025 A 
ATOM     13  C   UNL     1      19.394  21.269 -16.899  1.00  0.00     0.016 A 
ATOM     14  C   UNL     1      19.031  21.219 -18.247  1.00  0.00     0.051 A 
ATOM     15  C   UNL     1      17.983  22.010 -18.727  1.00  0.00     0.157 A 
ATOM     16  C   UNL     1      17.655  22.905 -16.493  1.00  0.00     0.062 A 
ATOM     17  C   UNL     1      17.287  22.855 -17.846  1.00  0.00     0.158 A 
BRANCH  15  18
ATOM     18  O   UNL     1      17.644  21.941 -20.078  1.00  0.00    -0.504 OA
ATOM     19  H   UNL     1      18.319  22.119 -20.812  1.00  0.00     0.293 HD
ENDBRANCH  15  18
BRANCH  17  20
ATOM     20  O   UNL     1      16.232  23.637 -18.314  1.00  0.00    -0.504 OA
ATOM     21  H   UNL     1      16.359  24.615 -18.548  1.00  0.00     0.293 HD
ENDBRANCH  17  20
ENDBRANCH   1  12
BRANCH   2  22
ATOM     22  O   UNL     1      20.388  24.195 -14.856  1.00  0.00    -0.502 OA
ATOM     23  H   UNL     1      21.289  24.630 -14.699  1.00  0.00     0.293 HD
ENDBRANCH   2  22
BRANCH   6  24
ATOM     24  O   UNL     1      20.526  22.970  -9.674  1.00  0.00    -0.507 OA
ATOM     25  H   UNL     1      20.343  23.118  -8.694  1.00  0.00     0.293 HD
ENDBRANCH   6  24
BRANCH   8  26
ATOM     26  O   UNL     1      18.398  18.684  -9.741  1.00  0.00    -0.508 OA
ATOM     27  H   UNL     1      17.509  18.237  -9.936  1.00  0.00     0.293 HD
ENDBRANCH   8  26
TORSDOF 6
ENDMDL
MODEL 3
REMARK VINA RESULT:    -4.746      3.160      5.661
REMARK INTER + INTRA:          -6.019
REMARK INTER:                  -5.688
REMARK INTRA:                  -0.331
REMARK UNBOUND:                -0.302
REMARK SMILES O=c1c(O)c(-c2ccc(O)c(O)c2)oc2cc(O)cc(O)c12
REMARK SMILES IDX 5 1 3 2 2 3 1 4 22 5 20 6 19 7 17 8 16 9 15 10 14 11 6 12
REMARK SMILES IDX 7 13 8 14 9 15 13 16 11 17 10 18 12 20 4 22 21 24 18 26
REMARK H PARENT 10 19 12 21 4 23 21 25 18 27
REMARK Flexibility Score: inf
ROOT
ATOM      1  C   UNL     1      19.286  22.413 -14.903  1.00  0.00     0.180 A 
ATOM      2  C   UNL     1      18.995  21.486 -13.889  1.00  0.00     0.208 A 
ATOM      3  C   UNL     1      19.675  21.581 -12.663  1.00  0.00     0.238 A 
ATOM      4  O   UNL     1      19.370  20.781 -11.740  1.00  0.00    -0.285 OA
ATOM      5  C   UNL     1      20.649  22.590 -12.475  1.00  0.00     0.111 A 
ATOM      6  C   UNL     1      21.427  22.754 -11.290  1.00  0.00     0.134 A 
ATOM      7  C   UNL     1      22.268  23.867 -11.163  1.00  0.00     0.093 A 
ATOM      8  C   UNL     1      22.408  24.785 -12.203  1.00  0.00     0.123 A 
ATOM      9  C   UNL     1      21.697  24.601 -13.390  1.00  0.00     0.094 A 
ATOM     10  C   UNL     1      20.823  23.521 -13.531  1.00  0.00     0.146 A 
ATOM     11  O   UNL     1      20.157  23.389 -14.672  1.00  0.00    -0.452 OA
ENDROOT
BRANCH   1  12
ATOM     12  C   UNL     1      18.629  22.362 -16.229  1.00  0.00     0.025 A 
ATOM     13  C   UNL     1      17.512  23.175 -16.478  1.00  0.00     0.016 A 
ATOM     14  C   UNL     1      16.889  23.159 -17.728  1.00  0.00     0.051 A 
ATOM     15  C   UNL     1      17.380  22.344 -18.752  1.00  0.00     0.157 A 
ATOM     16  C   UNL     1      19.133  21.558 -17.267  1.00  0.00     0.062 A 
ATOM     17  C   UNL     1      18.511  21.541 -18.523  1.00  0.00     0.158 A 
BRANCH  15  18
ATOM     18  O   UNL     1      16.735  22.346 -19.989  1.00  0.00    -0.504 OA
ATOM     19  H   UNL     1      17.217  22.589 -20.846  1.00  0.00     0.293 HD
ENDBRANCH  15  18
BRANCH  17  20
ATOM     20  O   UNL     1      19.014  20.736 -19.544  1.00  0.00    -0.504 OA
ATOM     21  H   UNL     1      18.428  20.420 -20.308  1.00  0.00     0.293 HD
ENDBRANCH  17  20
ENDBRANCH   1  12
BRANCH   2  22
ATOM     22  O   UNL     1      18.014  20.510 -14.088  1.00  0.00    -0.502 OA
ATOM     23  H   UNL     1      17.903  19.715 -13.469  1.00  0.00     0.293 HD
ENDBRANCH   2  22
BRANCH   6  24
ATOM     24  O   UNL     1      21.431  21.845 -10.227  1.00  0.00    -0.507 OA
ATOM     25  H   UNL     1      22.126  21.127 -10.088  1.00  0.00     0.293 HD
ENDBRANCH   6  24
BRANCH   8  26
ATOM     26  O   UNL     1      23.266  25.871 -12.050  1.00  0.00    -0.508 OA
ATOM     27  H   UNL     1      23.901  26.154 -12.788  1.00  0.00     0.293 HD
ENDBRANCH   8  26
TORSDOF 6
ENDMDL
MODEL 4
REMARK VINA RESULT:    -4.744      2.178      7.187
REMARK INTER + INTRA:          -6.017
REMARK INTER:                  -5.698
REMARK INTRA:                  -0.319
REMARK UNBOUND:                -0.302
REMARK SMILES O=c1c(O)c(-c2ccc(O)c(O)c2)oc2cc(O)cc(O)c12
REMARK SMILES IDX 5 1 3 2 2 3 1 4 22 5 20 6 19 7 17 8 16 9 15 10 14 11 6 12
REMARK SMILES IDX 7 13 8 14 9 15 13 16 11 17 10 18 12 20 4 22 21 24 18 26
REMARK H PARENT 10 19 12 21 4 23 21 25 18 27
REMARK Flexibility Score: inf
ROOT
ATOM      1  C   UNL     1      20.762  23.501 -13.605  1.00  0.00     0.180 A 
ATOM      2  C   UNL     1      21.058  22.970 -14.871  1.00  0.00     0.208 A 
ATOM      3  C   UNL     1      20.737  21.630 -15.140  1.00  0.00     0.238 A 
ATOM      4  O   UNL     1      20.955  21.175 -16.294  1.00  0.00    -0.285 OA
ATOM      5  C   UNL     1      20.139  20.833 -14.134  1.00  0.00     0.111 A 
ATOM      6  C   UNL     1      19.808  19.453 -14.283  1.00  0.00     0.134 A 
ATOM      7  C   UNL     1      19.100  18.798 -13.268  1.00  0.00     0.093 A 
ATOM      8  C   UNL     1      18.769  19.455 -12.083  1.00  0.00     0.123 A 
ATOM      9  C   UNL     1      19.140  20.788 -11.902  1.00  0.00     0.094 A 
ATOM     10  C   UNL     1      19.814  21.477 -12.912  1.00  0.00     0.146 A 
ATOM     11  O   UNL     1      20.141  22.748 -12.705  1.00  0.00    -0.452 OA
ENDROOT
BRANCH   1  12
ATOM     12  C   UNL     1      21.093  24.897 -13.239  1.00  0.00     0.025 A 
ATOM     13  C   UNL     1      20.178  25.922 -13.526  1.00  0.00     0.016 A 
ATOM     14  C   UNL     1      20.460  27.243 -13.172  1.00  0.00     0.051 A 
ATOM     15  C   UNL     1      21.651  27.559 -12.512  1.00  0.00     0.157 A 
ATOM     16  C   UNL     1      22.281  25.214 -12.558  1.00  0.00     0.062 A 
ATOM     17  C   UNL     1      22.566  26.539 -12.199  1.00  0.00     0.158 A 
BRANCH  15  18
ATOM     18  O   UNL     1      21.907  28.888 -12.173  1.00  0.00    -0.504 OA
ATOM     19  H   UNL     1      21.862  29.635 -12.855  1.00  0.00     0.293 HD
ENDBRANCH  15  18
BRANCH  17  20
ATOM     20  O   UNL     1      23.750  26.845 -11.529  1.00  0.00    -0.504 OA
ATOM     21  H   UNL     1      24.407  27.524 -11.896  1.00  0.00     0.293 HD
ENDBRANCH  17  20
ENDBRANCH   1  12
BRANCH   2  22
ATOM     22  O   UNL     1      21.630  23.780 -15.858  1.00  0.00    -0.502 OA
ATOM     23  H   UNL     1      21.101  24.131 -16.647  1.00  0.00     0.293 HD
ENDBRANCH   2  22
BRANCH   6  24
ATOM     24  O   UNL     1      20.173  18.678 -15.388  1.00  0.00    -0.507 OA
ATOM     25  H   UNL     1      19.897  17.719 -15.533  1.00  0.00     0.293 HD
ENDBRANCH   6  24
BRANCH   8  26
ATOM     26  O   UNL     1      18.078  18.769 -11.087  1.00  0.00    -0.508 OA
ATOM     27  H   UNL     1      17.201  19.115 -10.715  1.00  0.00     0.293 HD
ENDBRANCH   8  26
TORSDOF 6
ENDMDL
MODEL 5
REMARK VINA RESULT:    -4.730      3.335      6.492
REMARK INTER + INTRA:          -6.000
REMARK INTER:                  -5.684
REMARK INTRA:                  -0.316
REMARK UNBOUND:                -0.302
REMARK SMILES O=c1c(O)c(-c2ccc(O)c(O)c2)oc2cc(O)cc(O)c12
REMARK SMILES IDX 5 1 3 2 2 3 1 4 22 5 20 6 19 7 17 8 16 9 15 10 14 11 6 12
REMARK SMILES IDX 7 13 8 14 9 15 13 16 11 17 10 18 12 20 4 22 21 24 18 26
REMARK H PARENT 10 19 12 21 4 23 21 25 18 27
REMARK Flexibility Score: inf
ROOT
ATOM      1  C   UNL     1      19.147  22.135 -15.021  1.00  0.00     0.180 A 
ATOM      2  C   UNL     1      20.282  22.887 -14.676  1.00  0.00     0.208 A 
ATOM      3  C   UNL     1      20.819  22.757 -13.384  1.00  0.00     0.238 A 
ATOM      4  O   UNL     1      21.868  23.392 -13.099  1.00  0.00    -0.285 OA
ATOM      5  C   UNL     1      20.204  21.890 -12.450  1.00  0.00     0.111 A 
ATOM      6  C   UNL     1      20.638  21.711 -11.102  1.00  0.00     0.134 A 
ATOM      7  C   UNL     1      20.035  20.729 -10.306  1.00  0.00     0.093 A 
ATOM      8  C   UNL     1      18.971  19.966 -10.787  1.00  0.00     0.123 A 
ATOM      9  C   UNL     1      18.499  20.174 -12.084  1.00  0.00     0.094 A 
ATOM     10  C   UNL     1      19.105  21.120 -12.913  1.00  0.00     0.146 A 
ATOM     11  O   UNL     1      18.632  21.281 -14.144  1.00  0.00    -0.452 OA
ENDROOT
BRANCH   1  12
ATOM     12  C   UNL     1      18.510  22.237 -16.354  1.00  0.00     0.025 A 
ATOM     13  C   UNL     1      17.462  23.150 -16.550  1.00  0.00     0.016 A 
ATOM     14  C   UNL     1      16.860  23.279 -17.804  1.00  0.00     0.051 A 
ATOM     15  C   UNL     1      17.305  22.509 -18.884  1.00  0.00     0.157 A 
ATOM     16  C   UNL     1      18.969  21.479 -17.445  1.00  0.00     0.062 A 
ATOM     17  C   UNL     1      18.368  21.607 -18.706  1.00  0.00     0.158 A 
BRANCH  15  18
ATOM     18  O   UNL     1      16.683  22.656 -20.124  1.00  0.00    -0.504 OA
ATOM     19  H   UNL     1      17.084  22.282 -20.975  1.00  0.00     0.293 HD
ENDBRANCH  15  18
BRANCH  17  20
ATOM     20  O   UNL     1      18.825  20.847 -19.781  1.00  0.00    -0.504 OA
ATOM     21  H   UNL     1      18.719  19.839 -19.802  1.00  0.00     0.293 HD
ENDBRANCH  17  20
ENDBRANCH   1  12
BRANCH   2  22
ATOM     22  O   UNL     1      20.887  23.722 -15.620  1.00  0.00    -0.502 OA
ATOM     23  H   UNL     1      20.895  24.731 -15.528  1.00  0.00     0.293 HD
ENDBRANCH   2  22
BRANCH   6  24
ATOM     24  O   UNL     1      21.631  22.484 -10.493  1.00  0.00    -0.507 OA
ATOM     25  H   UNL     1      21.575  23.480 -10.348  1.00  0.00     0.293 HD
ENDBRANCH   6  24
BRANCH   8  26
ATOM     26  O   UNL     1      18.384  19.010  -9.963  1.00  0.00    -0.508 OA
ATOM     27  H   UNL     1      18.169  18.078 -10.300  1.00  0.00     0.293 HD
ENDBRANCH   8  26
TORSDOF 6
ENDMDL
MODEL 6
REMARK VINA RESULT:    -4.697      3.023      5.553
REMARK INTER + INTRA:          -5.960
REMARK INTER:                  -5.639
REMARK INTRA:                  -0.321
REMARK UNBOUND:                -0.302
REMARK SMILES O=c1c(O)c(-c2ccc(O)c(O)c2)oc2cc(O)cc(O)c12
REMARK SMILES IDX 5 1 3 2 2 3 1 4 22 5 20 6 19 7 17 8 16 9 15 10 14 11 6 12
REMARK SMILES IDX 7 13 8 14 9 15 13 16 11 17 10 18 12 20 4 22 21 24 18 26
REMARK H PARENT 10 19 12 21 4 23 21 25 18 27
REMARK Flexibility Score: inf
ROOT
ATOM      1  C   UNL     1      19.273  22.456 -14.854  1.00  0.00     0.180 A 
ATOM      2  C   UNL     1      18.828  21.630 -13.808  1.00  0.00     0.208 A 
ATOM      3  C   UNL     1      19.411  21.767 -12.538  1.00  0.00     0.238 A 
ATOM      4  O   UNL     1      18.971  21.063 -11.592  1.00  0.00    -0.285 OA
ATOM      5  C   UNL     1      20.443  22.715 -12.335  1.00  0.00     0.111 A 
ATOM      6  C   UNL     1      21.132  22.910 -11.101  1.00  0.00     0.134 A 
ATOM      7  C   UNL     1      22.044  23.966 -10.978  1.00  0.00     0.093 A 
ATOM      8  C   UNL     1      22.340  24.791 -12.062  1.00  0.00     0.123 A 
ATOM      9  C   UNL     1      21.716  24.571 -13.291  1.00  0.00     0.094 A 
ATOM     10  C   UNL     1      20.774  23.550 -13.433  1.00  0.00     0.146 A 
ATOM     11  O   UNL     1      20.196  23.381 -14.616  1.00  0.00    -0.452 OA
ENDROOT
BRANCH   1  12
ATOM     12  C   UNL     1      18.724  22.354 -16.226  1.00  0.00     0.025 A 
ATOM     13  C   UNL     1      19.272  21.422 -17.122  1.00  0.00     0.016 A 
ATOM     14  C   UNL     1      18.756  21.293 -18.413  1.00  0.00     0.051 A 
ATOM     15  C   UNL     1      17.677  22.081 -18.826  1.00  0.00     0.157 A 
ATOM     16  C   UNL     1      17.626  23.130 -16.636  1.00  0.00     0.062 A 
ATOM     17  C   UNL     1      17.105  23.002 -17.932  1.00  0.00     0.158 A 
BRANCH  15  18
ATOM     18  O   UNL     1      17.185  21.933 -20.122  1.00  0.00    -0.504 OA
ATOM     19  H   UNL     1      17.789  21.973 -20.935  1.00  0.00     0.293 HD
ENDBRANCH  15  18
BRANCH  17  20
ATOM     20  O   UNL     1      16.020  23.781 -18.331  1.00  0.00    -0.504 OA
ATOM     21  H   UNL     1      15.066  23.498 -18.143  1.00  0.00     0.293 HD
ENDBRANCH  17  20
ENDBRANCH   1  12
BRANCH   2  22
ATOM     22  O   UNL     1      17.793  20.715 -14.025  1.00  0.00    -0.502 OA
ATOM     23  H   UNL     1      16.871  20.831 -13.621  1.00  0.00     0.293 HD
ENDBRANCH   2  22
BRANCH   6  24
ATOM     24  O   UNL     1      20.979  22.085  -9.982  1.00  0.00    -0.507 OA
ATOM     25  H   UNL     1      21.643  21.384  -9.690  1.00  0.00     0.293 HD
ENDBRANCH   6  24
BRANCH   8  26
ATOM     26  O   UNL     1      23.264  25.821 -11.909  1.00  0.00    -0.508 OA
ATOM     27  H   UNL     1      23.494  26.447 -12.674  1.00  0.00     0.293 HD
ENDBRANCH   8  26
TORSDOF 6
ENDMDL
MODEL 7
REMARK VINA RESULT:    -4.639      5.099      7.299
REMARK INTER + INTRA:          -5.890
REMARK INTER:                  -5.903
REMARK INTRA:                   0.013
REMARK UNBOUND:                -0.302
REMARK SMILES O=c1c(O)c(-c2ccc(O)c(O)c2)oc2cc(O)cc(O)c12
REMARK SMILES IDX 5 1 3 2 2 3 1 4 22 5 20 6 19 7 17 8 16 9 15 10 14 11 6 12
REMARK SMILES IDX 7 13 8 14 9 15 13 16 11 17 10 18 12 20 4 22 21 24 18 26
REMARK H PARENT 10 19 12 21 4 23 21 25 18 27
REMARK Flexibility Score: inf
ROOT
ATOM      1  C   UNL     1      22.959  21.108 -15.713  1.00  0.00     0.180 A 
ATOM      2  C   UNL     1      22.497  22.432 -15.619  1.00  0.00     0.208 A 
ATOM      3  C   UNL     1      21.218  22.671 -15.091  1.00  0.00     0.238 A 
ATOM      4  O   UNL     1      20.830  23.862 -14.960  1.00  0.00    -0.285 OA
ATOM      5  C   UNL     1      20.411  21.583 -14.680  1.00  0.00     0.111 A 
ATOM      6  C   UNL     1      19.084  21.705 -14.169  1.00  0.00     0.134 A 
ATOM      7  C   UNL     1      18.428  20.573 -13.669  1.00  0.00     0.093 A 
ATOM      8  C   UNL     1      19.024  19.314 -13.723  1.00  0.00     0.123 A 
ATOM      9  C   UNL     1      20.298  19.173 -14.277  1.00  0.00     0.094 A 
ATOM     10  C   UNL     1      20.992  20.290 -14.748  1.00  0.00     0.146 A 
ATOM     11  O   UNL     1      22.205  20.115 -15.257  1.00  0.00    -0.452 OA
ENDROOT
BRANCH   1  12
ATOM     12  C   UNL     1      24.286  20.776 -16.281  1.00  0.00     0.025 A 
ATOM     13  C   UNL     1      25.104  19.844 -15.623  1.00  0.00     0.016 A 
ATOM     14  C   UNL     1      26.351  19.500 -16.152  1.00  0.00     0.051 A 
ATOM     15  C   UNL     1      26.792  20.067 -17.351  1.00  0.00     0.157 A 
ATOM     16  C   UNL     1      24.722  21.330 -17.497  1.00  0.00     0.062 A 
ATOM     17  C   UNL     1      25.972  20.985 -18.031  1.00  0.00     0.158 A 
BRANCH  15  18
ATOM     18  O   UNL     1      28.042  19.707 -17.854  1.00  0.00    -0.504 OA
ATOM     19  H   UNL     1      28.755  20.394 -18.064  1.00  0.00     0.293 HD
ENDBRANCH  15  18
BRANCH  17  20
ATOM     20  O   UNL     1      26.399  21.544 -19.234  1.00  0.00    -0.504 OA
ATOM     21  H   UNL     1      26.604  22.533 -19.317  1.00  0.00     0.293 HD
ENDBRANCH  17  20
ENDBRANCH   1  12
BRANCH   2  22
ATOM     22  O   UNL     1      23.318  23.494 -16.012  1.00  0.00    -0.502 OA
ATOM     23  H   UNL     1      24.068  23.845 -15.429  1.00  0.00     0.293 HD
ENDBRANCH   2  22
BRANCH   6  24
ATOM     24  O   UNL     1      18.361  22.902 -14.153  1.00  0.00    -0.507 OA
ATOM     25  H   UNL     1      18.052  23.376 -13.319  1.00  0.00     0.293 HD
ENDBRANCH   6  24
BRANCH   8  26
ATOM     26  O   UNL     1      18.337  18.207 -13.233  1.00  0.00    -0.508 OA
ATOM     27  H   UNL     1      17.340  18.092 -13.380  1.00  0.00     0.293 HD
ENDBRANCH   8  26
TORSDOF 6
ENDMDL
MODEL 8
REMARK VINA RESULT:    -4.578      3.142      5.778
REMARK INTER + INTRA:          -5.817
REMARK INTER:                  -5.496
REMARK INTRA:                  -0.321
REMARK UNBOUND:                -0.302
REMARK SMILES O=c1c(O)c(-c2ccc(O)c(O)c2)oc2cc(O)cc(O)c12
REMARK SMILES IDX 5 1 3 2 2 3 1 4 22 5 20 6 19 7 17 8 16 9 15 10 14 11 6 12
REMARK SMILES IDX 7 13 8 14 9 15 13 16 11 17 10 18 12 20 4 22 21 24 18 26
REMARK H PARENT 10 19 12 21 4 23 21 25 18 27
REMARK Flexibility Score: inf
ROOT
ATOM      1  C   UNL     1      17.524  22.981 -12.926  1.00  0.00     0.180 A 
ATOM      2  C   UNL     1      17.504  21.577 -12.907  1.00  0.00     0.208 A 
ATOM      3  C   UNL     1      18.453  20.872 -13.665  1.00  0.00     0.238 A 
ATOM      4  O   UNL     1      18.465  19.614 -13.602  1.00  0.00    -0.285 OA
ATOM      5  C   UNL     1      19.398  21.580 -14.445  1.00  0.00     0.111 A 
ATOM      6  C   UNL     1      20.379  20.969 -15.282  1.00  0.00     0.134 A 
ATOM      7  C   UNL     1      21.348  21.765 -15.906  1.00  0.00     0.093 A 
ATOM      8  C   UNL     1      21.332  23.153 -15.776  1.00  0.00     0.123 A 
ATOM      9  C   UNL     1      20.341  23.766 -15.008  1.00  0.00     0.094 A 
ATOM     10  C   UNL     1      19.384  22.996 -14.344  1.00  0.00     0.146 A 
ATOM     11  O   UNL     1      18.465  23.617 -13.615  1.00  0.00    -0.452 OA
ENDROOT
BRANCH   1  12
ATOM     12  C   UNL     1      16.540  23.793 -12.172  1.00  0.00     0.025 A 
ATOM     13  C   UNL     1      16.908  24.355 -10.940  1.00  0.00     0.016 A 
ATOM     14  C   UNL     1      16.004  25.141 -10.222  1.00  0.00     0.051 A 
ATOM     15  C   UNL     1      14.726  25.391 -10.730  1.00  0.00     0.157 A 
ATOM     16  C   UNL     1      15.262  24.062 -12.691  1.00  0.00     0.062 A 
ATOM     17  C   UNL     1      14.352  24.852 -11.973  1.00  0.00     0.158 A 
BRANCH  15  18
ATOM     18  O   UNL     1      13.843  26.177  -9.990  1.00  0.00    -0.504 OA
ATOM     19  H   UNL     1      13.771  27.178 -10.125  1.00  0.00     0.293 HD
ENDBRANCH  15  18
BRANCH  17  20
ATOM     20  O   UNL     1      13.084  25.108 -12.492  1.00  0.00    -0.504 OA
ATOM     21  H   UNL     1      12.482  25.820 -12.095  1.00  0.00     0.293 HD
ENDBRANCH  17  20
ENDBRANCH   1  12
BRANCH   2  22
ATOM     22  O   UNL     1      16.575  20.896 -12.113  1.00  0.00    -0.502 OA
ATOM     23  H   UNL     1      16.573  20.960 -11.102  1.00  0.00     0.293 HD
ENDBRANCH   2  22
BRANCH   6  24
ATOM     24  O   UNL     1      20.429  19.598 -15.554  1.00  0.00    -0.507 OA
ATOM     25  H   UNL     1      19.745  19.096 -16.099  1.00  0.00     0.293 HD
ENDBRANCH   6  24
BRANCH   8  26
ATOM     26  O   UNL     1      22.301  23.915 -16.424  1.00  0.00    -0.508 OA
ATOM     27  H   UNL     1      22.104  24.396 -17.295  1.00  0.00     0.293 HD
ENDBRANCH   8  26
TORSDOF 6
ENDMDL
MODEL 9
REMARK VINA RESULT:    -4.576      4.216      6.811
REMARK INTER + INTRA:          -5.814
REMARK INTER:                  -5.494
REMARK INTRA:                  -0.320
REMARK UNBOUND:                -0.302
REMARK SMILES O=c1c(O)c(-c2ccc(O)c(O)c2)oc2cc(O)cc(O)c12
REMARK SMILES IDX 5 1 3 2 2 3 1 4 22 5 20 6 19 7 17 8 16 9 15 10 14 11 6 12
REMARK SMILES IDX 7 13 8 14 9 15 13 16 11 17 10 18 12 20 4 22 21 24 18 26
REMARK H PARENT 10 19 12 21 4 23 21 25 18 27
REMARK Flexibility Score: inf
ROOT
ATOM      1  C   UNL     1      20.321  21.814 -15.553  1.00  0.00     0.180 A 
ATOM      2  C   UNL     1      20.997  20.652 -15.961  1.00  0.00     0.208 A 
ATOM      3  C   UNL     1      20.598  20.013 -17.146  1.00  0.00     0.238 A 
ATOM      4  O   UNL     1      21.242  19.003 -17.535  1.00  0.00    -0.285 OA
ATOM      5  C   UNL     1      19.518  20.533 -17.898  1.00  0.00     0.111 A 
ATOM      6  C   UNL     1      19.002  19.944 -19.091  1.00  0.00     0.134 A 
ATOM      7  C   UNL     1      18.017  20.616 -19.825  1.00  0.00     0.093 A 
ATOM      8  C   UNL     1      17.481  21.822 -19.374  1.00  0.00     0.123 A 
ATOM      9  C   UNL     1      17.935  22.378 -18.176  1.00  0.00     0.094 A 
ATOM     10  C   UNL     1      18.944  21.749 -17.443  1.00  0.00     0.146 A 
ATOM     11  O   UNL     1      19.355  22.315 -16.315  1.00  0.00    -0.452 OA
ENDROOT
BRANCH   1  12
ATOM     12  C   UNL     1      20.668  22.529 -14.304  1.00  0.00     0.025 A 
ATOM     13  C   UNL     1      20.108  22.107 -13.088  1.00  0.00     0.016 A 
ATOM     14  C   UNL     1      20.437  22.753 -11.894  1.00  0.00     0.051 A 
ATOM     15  C   UNL     1      21.341  23.820 -11.894  1.00  0.00     0.157 A 
ATOM     16  C   UNL     1      21.592  23.589 -14.298  1.00  0.00     0.062 A 
ATOM     17  C   UNL     1      21.926  24.239 -13.101  1.00  0.00     0.158 A 
BRANCH  15  18
ATOM     18  O   UNL     1      21.649  24.449 -10.687  1.00  0.00    -0.504 OA
ATOM     19  H   UNL     1      21.082  24.325  -9.856  1.00  0.00     0.293 HD
ENDBRANCH  15  18
BRANCH  17  20
ATOM     20  O   UNL     1      22.838  25.293 -13.106  1.00  0.00    -0.504 OA
ATOM     21  H   UNL     1      22.632  26.171 -13.569  1.00  0.00     0.293 HD
ENDBRANCH  17  20
ENDBRANCH   1  12
BRANCH   2  22
ATOM     22  O   UNL     1      22.076  20.166 -15.215  1.00  0.00    -0.502 OA
ATOM     23  H   UNL     1      22.038  19.287 -14.714  1.00  0.00     0.293 HD
ENDBRANCH   2  22
BRANCH   6  24
ATOM     24  O   UNL     1      19.402  18.697 -19.582  1.00  0.00    -0.507 OA
ATOM     25  H   UNL     1      20.330  18.481 -19.914  1.00  0.00     0.293 HD
ENDBRANCH   6  24
BRANCH   8  26
ATOM     26  O   UNL     1      16.491  22.456 -20.120  1.00  0.00    -0.508 OA
ATOM     27  H   UNL     1      15.580  22.662 -19.725  1.00  0.00     0.293 HD
ENDBRANCH   8  26
TORSDOF 6
ENDMDL
