MODEL 1
REMARK VINA RESULT:    -8.408      0.000      0.000
REMARK INTER + INTRA:         -12.859
REMARK INTER:                 -12.094
REMARK INTRA:                  -0.766
REMARK UNBOUND:                -0.766
REMARK SMILES O=c1cc(-c2ccc(O)c(O)c2)oc2cc(O[C@H]3O[C@@H](CO)[C@H](O)[C@H](O)[C@@H]3O)cc(O)c12
REMARK SMILES IDX 17 1 16 2 4 3 3 4 13 5 2 6 14 7 1 8 32 9 15 10 30 11 29 12
REMARK SMILES IDX 5 13 6 14 7 15 8 16 12 17 10 18 9 19 11 21 31 23 18 25 27 26
REMARK SMILES IDX 19 27 25 28 20 29 23 30 28 31 26 33 21 35 22 36 24 38
REMARK H PARENT 9 20 11 22 31 24 28 32 26 34 22 37 24 39
REMARK Flexibility Score: inf
ROOT
ATOM      1  O   UNL     1      -8.781 -15.803  30.441  1.00  0.00    -0.462 OA
ENDROOT
BRANCH   1   2
ATOM      2  C   UNL     1      -7.775 -14.834  30.582  1.00  0.00     0.130 A 
ATOM      3  C   UNL     1      -3.669 -13.136  28.861  1.00  0.00     0.138 A 
ATOM      4  C   UNL     1      -3.561 -12.172  29.872  1.00  0.00     0.100 A 
ATOM      5  O   UNL     1      -4.722 -13.946  28.842  1.00  0.00    -0.456 OA
ATOM      6  C   UNL     1      -4.559 -12.075  30.844  1.00  0.00     0.197 A 
ATOM      7  C   UNL     1      -5.699 -13.897  29.742  1.00  0.00     0.146 A 
ATOM      8  O   UNL     1      -4.412 -11.231  31.763  1.00  0.00    -0.289 OA
ATOM      9  C   UNL     1      -5.684 -12.933  30.783  1.00  0.00     0.107 A 
ATOM     10  C   UNL     1      -6.741 -14.823  29.647  1.00  0.00     0.094 A 
ATOM     11  C   UNL     1      -6.774 -12.908  31.703  1.00  0.00     0.134 A 
ATOM     12  C   UNL     1      -7.781 -13.878  31.609  1.00  0.00     0.093 A 
BRANCH   3  13
ATOM     13  C   UNL     1      -2.639 -13.277  27.803  1.00  0.00     0.021 A 
ATOM     14  C   UNL     1      -1.560 -12.379  27.699  1.00  0.00     0.016 A 
ATOM     15  C   UNL     1      -0.595 -12.546  26.702  1.00  0.00     0.051 A 
ATOM     16  C   UNL     1      -0.687 -13.611  25.799  1.00  0.00     0.157 A 
ATOM     17  C   UNL     1      -2.718 -14.353  26.900  1.00  0.00     0.062 A 
ATOM     18  C   UNL     1      -1.754 -14.519  25.899  1.00  0.00     0.158 A 
BRANCH  16  19
ATOM     19  O   UNL     1       0.278 -13.773  24.806  1.00  0.00    -0.504 OA
ATOM     20  H   UNL     1       0.051 -13.674  23.823  1.00  0.00     0.293 HD
ENDBRANCH  16  19
BRANCH  18  21
ATOM     21  O   UNL     1      -1.873 -15.591  25.015  1.00  0.00    -0.504 OA
ATOM     22  H   UNL     1      -2.555 -16.328  25.153  1.00  0.00     0.293 HD
ENDBRANCH  18  21
ENDBRANCH   3  13
BRANCH  11  23
ATOM     23  O   UNL     1      -6.932 -11.944  32.703  1.00  0.00    -0.507 OA
ATOM     24  H   UNL     1      -7.749 -11.846  33.285  1.00  0.00     0.293 HD
ENDBRANCH  11  23
ENDBRANCH   1   2
BRANCH   1  25
ATOM     25  C   UNL     1      -9.862 -16.008  31.353  1.00  0.00     0.339 C 
ATOM     26  C   UNL     1      -9.800 -17.421  31.954  1.00  0.00     0.214 C 
ATOM     27  O   UNL     1     -11.118 -15.723  30.753  1.00  0.00    -0.332 OA
ATOM     28  C   UNL     1     -10.112 -18.465  30.879  1.00  0.00     0.180 C 
ATOM     29  C   UNL     1     -11.522 -16.649  29.748  1.00  0.00     0.179 C 
ATOM     30  C   UNL     1     -11.445 -18.140  30.182  1.00  0.00     0.177 C 
BRANCH  26  31
ATOM     31  O   UNL     1     -10.718 -17.531  33.014  1.00  0.00    -0.384 OA
ATOM     32  H   UNL     1     -11.388 -18.211  32.748  1.00  0.00     0.211 HD
ENDBRANCH  26  31
BRANCH  28  33
ATOM     33  O   UNL     1     -10.161 -19.742  31.465  1.00  0.00    -0.387 OA
ATOM     34  H   UNL     1     -11.065 -19.837  31.864  1.00  0.00     0.211 HD
ENDBRANCH  28  33
BRANCH  29  35
ATOM     35  C   UNL     1     -10.906 -16.345  28.364  1.00  0.00     0.191 C 
BRANCH  35  36
ATOM     36  O   UNL     1     -11.863 -16.385  27.343  1.00  0.00    -0.394 OA
ATOM     37  H   UNL     1     -12.316 -15.502  27.355  1.00  0.00     0.210 HD
ENDBRANCH  35  36
ENDBRANCH  29  35
BRANCH  30  38
ATOM     38  O   UNL     1     -12.509 -18.434  31.053  1.00  0.00    -0.387 OA
ATOM     39  H   UNL     1     -13.346 -18.165  30.591  1.00  0.00     0.211 HD
ENDBRANCH  30  38
ENDBRANCH   1  25
TORSDOF 11
ENDMDL
MODEL 2
REMARK VINA RESULT:    -8.245      1.735      8.973
REMARK INTER + INTRA:         -12.625
REMARK INTER:                 -11.653
REMARK INTRA:                  -0.972
REMARK UNBOUND:                -0.766
REMARK SMILES O=c1cc(-c2ccc(O)c(O)c2)oc2cc(O[C@H]3O[C@@H](CO)[C@H](O)[C@H](O)[C@@H]3O)cc(O)c12
REMARK SMILES IDX 17 1 16 2 4 3 3 4 13 5 2 6 14 7 1 8 32 9 15 10 30 11 29 12
REMARK SMILES IDX 5 13 6 14 7 15 8 16 12 17 10 18 9 19 11 21 31 23 18 25 27 26
REMARK SMILES IDX 19 27 25 28 20 29 23 30 28 31 26 33 21 35 22 36 24 38
REMARK H PARENT 9 20 11 22 31 24 28 32 26 34 22 37 24 39
REMARK Flexibility Score: inf
ROOT
ATOM      1  O   UNL     1      -3.175 -14.326  27.411  1.00  0.00    -0.462 OA
ENDROOT
BRANCH   1   2
ATOM      2  C   UNL     1      -3.938 -13.842  28.487  1.00  0.00     0.130 A 
ATOM      3  C   UNL     1      -7.747 -14.561  31.257  1.00  0.00     0.138 A 
ATOM      4  C   UNL     1      -7.551 -13.364  31.960  1.00  0.00     0.100 A 
ATOM      5  O   UNL     1      -6.894 -14.900  30.296  1.00  0.00    -0.456 OA
ATOM      6  C   UNL     1      -6.464 -12.547  31.643  1.00  0.00     0.197 A 
ATOM      7  C   UNL     1      -5.844 -14.159  29.955  1.00  0.00     0.146 A 
ATOM      8  O   UNL     1      -6.341 -11.459  32.260  1.00  0.00    -0.289 OA
ATOM      9  C   UNL     1      -5.555 -12.948  30.634  1.00  0.00     0.107 A 
ATOM     10  C   UNL     1      -5.034 -14.595  28.904  1.00  0.00     0.094 A 
ATOM     11  C   UNL     1      -4.398 -12.209  30.244  1.00  0.00     0.134 A 
ATOM     12  C   UNL     1      -3.631 -12.648  29.157  1.00  0.00     0.093 A 
BRANCH   3  13
ATOM     13  C   UNL     1      -8.883 -15.466  31.557  1.00  0.00     0.021 A 
ATOM     14  C   UNL     1     -10.101 -14.978  32.065  1.00  0.00     0.016 A 
ATOM     15  C   UNL     1     -11.161 -15.852  32.323  1.00  0.00     0.051 A 
ATOM     16  C   UNL     1     -11.025 -17.223  32.074  1.00  0.00     0.157 A 
ATOM     17  C   UNL     1      -8.758 -16.843  31.296  1.00  0.00     0.062 A 
ATOM     18  C   UNL     1      -9.818 -17.720  31.557  1.00  0.00     0.158 A 
BRANCH  16  19
ATOM     19  O   UNL     1     -12.085 -18.091  32.333  1.00  0.00    -0.504 OA
ATOM     20  H   UNL     1     -12.688 -17.967  33.139  1.00  0.00     0.293 HD
ENDBRANCH  16  19
BRANCH  18  21
ATOM     21  O   UNL     1      -9.651 -19.080  31.296  1.00  0.00    -0.504 OA
ATOM     22  H   UNL     1      -8.964 -19.420  30.633  1.00  0.00     0.293 HD
ENDBRANCH  18  21
ENDBRANCH   3  13
BRANCH  11  23
ATOM     23  O   UNL     1      -3.945 -11.062  30.901  1.00  0.00    -0.507 OA
ATOM     24  H   UNL     1      -4.488 -10.223  31.039  1.00  0.00     0.293 HD
ENDBRANCH  11  23
ENDBRANCH   1   2
BRANCH   1  25
ATOM     25  C   UNL     1      -1.873 -13.863  27.050  1.00  0.00     0.339 C 
ATOM     26  C   UNL     1      -1.616 -14.089  25.553  1.00  0.00     0.214 C 
ATOM     27  O   UNL     1      -0.864 -14.436  27.871  1.00  0.00    -0.332 OA
ATOM     28  C   UNL     1      -1.495 -15.586  25.258  1.00  0.00     0.180 C 
ATOM     29  C   UNL     1      -0.649 -15.829  27.664  1.00  0.00     0.179 C 
ATOM     30  C   UNL     1      -0.444 -16.233  26.178  1.00  0.00     0.177 C 
BRANCH  26  31
ATOM     31  O   UNL     1      -0.439 -13.423  25.163  1.00  0.00    -0.384 OA
ATOM     32  H   UNL     1      -0.080 -13.907  24.375  1.00  0.00     0.211 HD
ENDBRANCH  26  31
BRANCH  28  33
ATOM     33  O   UNL     1      -1.151 -15.773  23.908  1.00  0.00    -0.387 OA
ATOM     34  H   UNL     1      -1.618 -16.595  23.607  1.00  0.00     0.211 HD
ENDBRANCH  28  33
BRANCH  29  35
ATOM     35  C   UNL     1      -1.645 -16.717  28.444  1.00  0.00     0.191 C 
BRANCH  35  36
ATOM     36  O   UNL     1      -2.648 -17.234  27.615  1.00  0.00    -0.394 OA
ATOM     37  H   UNL     1      -2.191 -17.841  26.976  1.00  0.00     0.210 HD
ENDBRANCH  35  36
ENDBRANCH  29  35
BRANCH  30  38
ATOM     38  O   UNL     1       0.842 -15.848  25.757  1.00  0.00    -0.387 OA
ATOM     39  H   UNL     1       0.832 -15.835  24.764  1.00  0.00     0.211 HD
ENDBRANCH  30  38
ENDBRANCH   1  25
TORSDOF 11
ENDMDL
MODEL 3
REMARK VINA RESULT:    -8.153      1.747      8.811
REMARK INTER + INTRA:         -12.493
REMARK INTER:                 -11.735
REMARK INTRA:                  -0.758
REMARK UNBOUND:                -0.766
REMARK SMILES O=c1cc(-c2ccc(O)c(O)c2)oc2cc(O[C@H]3O[C@@H](CO)[C@H](O)[C@H](O)[C@@H]3O)cc(O)c12
REMARK SMILES IDX 17 1 16 2 4 3 3 4 13 5 2 6 14 7 1 8 32 9 15 10 30 11 29 12
REMARK SMILES IDX 5 13 6 14 7 15 8 16 12 17 10 18 9 19 11 21 31 23 18 25 27 26
REMARK SMILES IDX 19 27 25 28 20 29 23 30 28 31 26 33 21 35 22 36 24 38
REMARK H PARENT 9 20 11 22 31 24 28 32 26 34 22 37 24 39
REMARK Flexibility Score: inf
ROOT
ATOM      1  O   UNL     1      -3.922 -13.696  28.266  1.00  0.00    -0.462 OA
ENDROOT
BRANCH   1   2
ATOM      2  C   UNL     1      -4.927 -13.704  29.248  1.00  0.00     0.130 A 
ATOM      3  C   UNL     1      -9.076 -15.596  30.626  1.00  0.00     0.138 A 
ATOM      4  C   UNL     1      -9.162 -14.768  31.754  1.00  0.00     0.100 A 
ATOM      5  O   UNL     1      -8.023 -15.497  29.823  1.00  0.00    -0.456 OA
ATOM      6  C   UNL     1      -8.140 -13.854  32.018  1.00  0.00     0.197 A 
ATOM      7  C   UNL     1      -7.024 -14.644  30.027  1.00  0.00     0.146 A 
ATOM      8  O   UNL     1      -8.266 -13.094  33.011  1.00  0.00    -0.289 OA
ATOM      9  C   UNL     1      -7.015 -13.790  31.160  1.00  0.00     0.107 A 
ATOM     10  C   UNL     1      -5.983 -14.600  29.097  1.00  0.00     0.094 A 
ATOM     11  C   UNL     1      -5.903 -12.916  31.344  1.00  0.00     0.134 A 
ATOM     12  C   UNL     1      -4.897 -12.862  30.370  1.00  0.00     0.093 A 
BRANCH   3  13
ATOM     13  C   UNL     1     -10.132 -16.587  30.303  1.00  0.00     0.021 A 
ATOM     14  C   UNL     1     -10.715 -16.651  29.023  1.00  0.00     0.016 A 
ATOM     15  C   UNL     1     -11.696 -17.606  28.741  1.00  0.00     0.051 A 
ATOM     16  C   UNL     1     -12.106 -18.513  29.725  1.00  0.00     0.157 A 
ATOM     17  C   UNL     1     -10.538 -17.510  31.283  1.00  0.00     0.062 A 
ATOM     18  C   UNL     1     -11.522 -18.465  31.002  1.00  0.00     0.158 A 
BRANCH  16  19
ATOM     19  O   UNL     1     -13.085 -19.464  29.439  1.00  0.00    -0.504 OA
ATOM     20  H   UNL     1     -13.250 -20.256  30.050  1.00  0.00     0.293 HD
ENDBRANCH  16  19
BRANCH  18  21
ATOM     21  O   UNL     1     -11.907 -19.355  32.004  1.00  0.00    -0.504 OA
ATOM     22  H   UNL     1     -12.539 -19.086  32.750  1.00  0.00     0.293 HD
ENDBRANCH  18  21
ENDBRANCH   3  13
BRANCH  11  23
ATOM     23  O   UNL     1      -5.723 -12.106  32.468  1.00  0.00    -0.507 OA
ATOM     24  H   UNL     1      -6.230 -12.200  33.334  1.00  0.00     0.293 HD
ENDBRANCH  11  23
ENDBRANCH   1   2
BRANCH   1  25
ATOM     25  C   UNL     1      -3.500 -14.831  27.509  1.00  0.00     0.339 C 
ATOM     26  C   UNL     1      -2.791 -15.850  28.414  1.00  0.00     0.214 C 
ATOM     27  O   UNL     1      -2.711 -14.453  26.389  1.00  0.00    -0.332 OA
ATOM     28  C   UNL     1      -1.449 -15.289  28.890  1.00  0.00     0.180 C 
ATOM     29  C   UNL     1      -1.424 -13.936  26.714  1.00  0.00     0.179 C 
ATOM     30  C   UNL     1      -0.604 -14.825  27.690  1.00  0.00     0.177 C 
BRANCH  26  31
ATOM     31  O   UNL     1      -2.592 -17.054  27.715  1.00  0.00    -0.384 OA
ATOM     32  H   UNL     1      -2.717 -16.855  26.752  1.00  0.00     0.211 HD
ENDBRANCH  26  31
BRANCH  28  33
ATOM     33  O   UNL     1      -0.763 -16.272  29.624  1.00  0.00    -0.387 OA
ATOM     34  H   UNL     1      -0.507 -16.982  28.980  1.00  0.00     0.211 HD
ENDBRANCH  28  33
BRANCH  29  35
ATOM     35  C   UNL     1      -1.450 -12.433  27.075  1.00  0.00     0.191 C 
BRANCH  35  36
ATOM     36  O   UNL     1      -1.551 -11.622  25.939  1.00  0.00    -0.394 OA
ATOM     37  H   UNL     1      -2.398 -11.879  25.490  1.00  0.00     0.210 HD
ENDBRANCH  35  36
ENDBRANCH  29  35
BRANCH  30  38
ATOM     38  O   UNL     1      -0.112 -15.950  27.004  1.00  0.00    -0.387 OA
ATOM     39  H   UNL     1      -0.666 -16.058  26.187  1.00  0.00     0.211 HD
ENDBRANCH  30  38
ENDBRANCH   1  25
TORSDOF 11
ENDMDL
MODEL 4
REMARK VINA RESULT:    -7.959      1.569      9.339
REMARK INTER + INTRA:         -12.214
REMARK INTER:                 -11.201
REMARK INTRA:                  -1.013
REMARK UNBOUND:                -0.766
REMARK SMILES O=c1cc(-c2ccc(O)c(O)c2)oc2cc(O[C@H]3O[C@@H](CO)[C@H](O)[C@H](O)[C@@H]3O)cc(O)c12
REMARK SMILES IDX 17 1 16 2 4 3 3 4 13 5 2 6 14 7 1 8 32 9 15 10 30 11 29 12
REMARK SMILES IDX 5 13 6 14 7 15 8 16 12 17 10 18 9 19 11 21 31 23 18 25 27 26
REMARK SMILES IDX 19 27 25 28 20 29 23 30 28 31 26 33 21 35 22 36 24 38
REMARK H PARENT 9 20 11 22 31 24 28 32 26 34 22 37 24 39
REMARK Flexibility Score: inf
ROOT
ATOM      1  O   UNL     1      -1.602 -13.911  27.442  1.00  0.00    -0.462 OA
ENDROOT
BRANCH   1   2
ATOM      2  C   UNL     1      -2.594 -13.387  28.287  1.00  0.00     0.130 A 
ATOM      3  C   UNL     1      -6.604 -14.294  30.693  1.00  0.00     0.138 A 
ATOM      4  C   UNL     1      -6.729 -12.968  31.128  1.00  0.00     0.100 A 
ATOM      5  O   UNL     1      -5.567 -14.638  29.937  1.00  0.00    -0.456 OA
ATOM      6  C   UNL     1      -5.763 -12.028  30.763  1.00  0.00     0.197 A 
ATOM      7  C   UNL     1      -4.621 -13.784  29.561  1.00  0.00     0.146 A 
ATOM      8  O   UNL     1      -5.925 -10.837  31.130  1.00  0.00    -0.289 OA
ATOM      9  C   UNL     1      -4.653 -12.429  29.980  1.00  0.00     0.107 A 
ATOM     10  C   UNL     1      -3.595 -14.247  28.734  1.00  0.00     0.094 A 
ATOM     11  C   UNL     1      -3.595 -11.565  29.569  1.00  0.00     0.134 A 
ATOM     12  C   UNL     1      -2.605 -12.047  28.703  1.00  0.00     0.093 A 
BRANCH   3  13
ATOM     13  C   UNL     1      -7.600 -15.332  31.056  1.00  0.00     0.021 A 
ATOM     14  C   UNL     1      -7.284 -16.379  31.943  1.00  0.00     0.016 A 
ATOM     15  C   UNL     1      -8.246 -17.334  32.281  1.00  0.00     0.051 A 
ATOM     16  C   UNL     1      -9.537 -17.259  31.746  1.00  0.00     0.157 A 
ATOM     17  C   UNL     1      -8.903 -15.255  30.533  1.00  0.00     0.062 A 
ATOM     18  C   UNL     1      -9.867 -16.213  30.868  1.00  0.00     0.158 A 
BRANCH  16  19
ATOM     19  O   UNL     1     -10.494 -18.215  32.086  1.00  0.00    -0.504 OA
ATOM     20  H   UNL     1     -10.353 -19.199  31.889  1.00  0.00     0.293 HD
ENDBRANCH  16  19
BRANCH  18  21
ATOM     21  O   UNL     1     -11.145 -16.109  30.319  1.00  0.00    -0.504 OA
ATOM     22  H   UNL     1     -11.309 -16.181  29.322  1.00  0.00     0.293 HD
ENDBRANCH  18  21
ENDBRANCH   3  13
BRANCH  11  23
ATOM     23  O   UNL     1      -3.453 -10.243  30.000  1.00  0.00    -0.507 OA
ATOM     24  H   UNL     1      -3.324  -9.959  30.959  1.00  0.00     0.293 HD
ENDBRANCH  11  23
ENDBRANCH   1   2
BRANCH   1  25
ATOM     25  C   UNL     1      -1.628 -13.868  26.014  1.00  0.00     0.339 C 
ATOM     26  C   UNL     1      -1.465 -15.279  25.429  1.00  0.00     0.214 C 
ATOM     27  O   UNL     1      -0.676 -12.948  25.497  1.00  0.00    -0.332 OA
ATOM     28  C   UNL     1      -0.049 -15.797  25.688  1.00  0.00     0.180 C 
ATOM     29  C   UNL     1       0.683 -13.342  25.663  1.00  0.00     0.179 C 
ATOM     30  C   UNL     1       0.996 -14.786  25.182  1.00  0.00     0.177 C 
BRANCH  26  31
ATOM     31  O   UNL     1      -1.726 -15.258  24.047  1.00  0.00    -0.384 OA
ATOM     32  H   UNL     1      -2.619 -14.842  23.927  1.00  0.00     0.211 HD
ENDBRANCH  26  31
BRANCH  28  33
ATOM     33  O   UNL     1       0.121 -17.040  25.053  1.00  0.00    -0.387 OA
ATOM     34  H   UNL     1       1.090 -17.249  25.092  1.00  0.00     0.211 HD
ENDBRANCH  28  33
BRANCH  29  35
ATOM     35  C   UNL     1       1.248 -12.987  27.057  1.00  0.00     0.191 C 
BRANCH  35  36
ATOM     36  O   UNL     1       0.695 -11.805  27.564  1.00  0.00    -0.394 OA
ATOM     37  H   UNL     1      -0.277 -11.850  27.370  1.00  0.00     0.210 HD
ENDBRANCH  35  36
ENDBRANCH  29  35
BRANCH  30  38
ATOM     38  O   UNL     1       1.032 -14.818  23.776  1.00  0.00    -0.387 OA
ATOM     39  H   UNL     1       1.364 -15.716  23.514  1.00  0.00     0.211 HD
ENDBRANCH  30  38
ENDBRANCH   1  25
TORSDOF 11
ENDMDL
MODEL 5
REMARK VINA RESULT:    -7.817      1.141      2.057
REMARK INTER + INTRA:         -12.009
REMARK INTER:                 -11.219
REMARK INTRA:                  -0.790
REMARK UNBOUND:                -0.766
REMARK SMILES O=c1cc(-c2ccc(O)c(O)c2)oc2cc(O[C@H]3O[C@@H](CO)[C@H](O)[C@H](O)[C@@H]3O)cc(O)c12
REMARK SMILES IDX 17 1 16 2 4 3 3 4 13 5 2 6 14 7 1 8 32 9 15 10 30 11 29 12
REMARK SMILES IDX 5 13 6 14 7 15 8 16 12 17 10 18 9 19 11 21 31 23 18 25 27 26
REMARK SMILES IDX 19 27 25 28 20 29 23 30 28 31 26 33 21 35 22 36 24 38
REMARK H PARENT 9 20 11 22 31 24 28 32 26 34 22 37 24 39
REMARK Flexibility Score: inf
ROOT
ATOM      1  O   UNL     1      -9.230 -16.144  30.390  1.00  0.00    -0.462 OA
ENDROOT
BRANCH   1   2
ATOM      2  C   UNL     1      -8.207 -15.198  30.568  1.00  0.00     0.130 A 
ATOM      3  C   UNL     1      -4.057 -13.524  28.933  1.00  0.00     0.138 A 
ATOM      4  C   UNL     1      -3.940 -12.593  29.973  1.00  0.00     0.100 A 
ATOM      5  O   UNL     1      -5.124 -14.314  28.881  1.00  0.00    -0.456 OA
ATOM      6  C   UNL     1      -4.945 -12.507  30.939  1.00  0.00     0.197 A 
ATOM      7  C   UNL     1      -6.108 -14.274  29.774  1.00  0.00     0.146 A 
ATOM      8  O   UNL     1      -4.791 -11.693  31.884  1.00  0.00    -0.289 OA
ATOM      9  C   UNL     1      -6.085 -13.342  30.843  1.00  0.00     0.107 A 
ATOM     10  C   UNL     1      -7.165 -15.178  29.643  1.00  0.00     0.094 A 
ATOM     11  C   UNL     1      -7.183 -13.325  31.754  1.00  0.00     0.134 A 
ATOM     12  C   UNL     1      -8.206 -14.273  31.623  1.00  0.00     0.093 A 
BRANCH   3  13
ATOM     13  C   UNL     1      -3.021 -13.653  27.880  1.00  0.00     0.021 A 
ATOM     14  C   UNL     1      -3.071 -14.679  26.917  1.00  0.00     0.016 A 
ATOM     15  C   UNL     1      -2.090 -14.768  25.925  1.00  0.00     0.051 A 
ATOM     16  C   UNL     1      -1.049 -13.834  25.875  1.00  0.00     0.157 A 
ATOM     17  C   UNL     1      -1.979 -12.711  27.815  1.00  0.00     0.062 A 
ATOM     18  C   UNL     1      -0.994 -12.800  26.824  1.00  0.00     0.158 A 
BRANCH  16  19
ATOM     19  O   UNL     1      -0.072 -13.926  24.884  1.00  0.00    -0.504 OA
ATOM     20  H   UNL     1       0.911 -14.008  25.114  1.00  0.00     0.293 HD
ENDBRANCH  16  19
BRANCH  18  21
ATOM     21  O   UNL     1       0.030 -11.853  26.799  1.00  0.00    -0.504 OA
ATOM     22  H   UNL     1       0.099 -11.117  27.494  1.00  0.00     0.293 HD
ENDBRANCH  18  21
ENDBRANCH   3  13
BRANCH  11  23
ATOM     23  O   UNL     1      -7.332 -12.388  32.781  1.00  0.00    -0.507 OA
ATOM     24  H   UNL     1      -7.985 -12.469  33.545  1.00  0.00     0.293 HD
ENDBRANCH  11  23
ENDBRANCH   1   2
BRANCH   1  25
ATOM     25  C   UNL     1      -9.232 -17.467  30.931  1.00  0.00     0.339 C 
ATOM     26  C   UNL     1     -10.033 -18.417  30.028  1.00  0.00     0.214 C 
ATOM     27  O   UNL     1      -9.683 -17.484  32.278  1.00  0.00    -0.332 OA
ATOM     28  C   UNL     1     -11.522 -18.067  30.082  1.00  0.00     0.180 C 
ATOM     29  C   UNL     1     -11.067 -17.193  32.447  1.00  0.00     0.179 C 
ATOM     30  C   UNL     1     -12.013 -18.028  31.540  1.00  0.00     0.177 C 
BRANCH  26  31
ATOM     31  O   UNL     1      -9.834 -19.748  30.437  1.00  0.00    -0.384 OA
ATOM     32  H   UNL     1     -10.692 -20.065  30.822  1.00  0.00     0.211 HD
ENDBRANCH  26  31
BRANCH  28  33
ATOM     33  O   UNL     1     -12.254 -19.011  29.341  1.00  0.00    -0.387 OA
ATOM     34  H   UNL     1     -13.210 -18.758  29.423  1.00  0.00     0.211 HD
ENDBRANCH  28  33
BRANCH  29  35
ATOM     35  C   UNL     1     -11.368 -15.677  32.473  1.00  0.00     0.191 C 
BRANCH  35  36
ATOM     36  O   UNL     1     -11.610 -15.168  31.191  1.00  0.00    -0.394 OA
ATOM     37  H   UNL     1     -12.580 -14.960  31.156  1.00  0.00     0.210 HD
ENDBRANCH  35  36
ENDBRANCH  29  35
BRANCH  30  38
ATOM     38  O   UNL     1     -12.104 -19.342  32.036  1.00  0.00    -0.387 OA
ATOM     39  H   UNL     1     -13.069 -19.573  32.074  1.00  0.00     0.211 HD
ENDBRANCH  30  38
ENDBRANCH   1  25
TORSDOF 11
ENDMDL
MODEL 6
REMARK VINA RESULT:    -7.801      1.199      2.419
REMARK INTER + INTRA:         -11.987
REMARK INTER:                 -11.207
REMARK INTRA:                  -0.780
REMARK UNBOUND:                -0.766
REMARK SMILES O=c1cc(-c2ccc(O)c(O)c2)oc2cc(O[C@H]3O[C@@H](CO)[C@H](O)[C@H](O)[C@@H]3O)cc(O)c12
REMARK SMILES IDX 17 1 16 2 4 3 3 4 13 5 2 6 14 7 1 8 32 9 15 10 30 11 29 12
REMARK SMILES IDX 5 13 6 14 7 15 8 16 12 17 10 18 9 19 11 21 31 23 18 25 27 26
REMARK SMILES IDX 19 27 25 28 20 29 23 30 28 31 26 33 21 35 22 36 24 38
REMARK H PARENT 9 20 11 22 31 24 28 32 26 34 22 37 24 39
REMARK Flexibility Score: inf
ROOT
ATOM      1  O   UNL     1      -9.344 -15.863  31.038  1.00  0.00    -0.462 OA
ENDROOT
BRANCH   1   2
ATOM      2  C   UNL     1      -8.257 -14.973  31.017  1.00  0.00     0.130 A 
ATOM      3  C   UNL     1      -4.056 -13.925  29.030  1.00  0.00     0.138 A 
ATOM      4  C   UNL     1      -3.850 -12.826  29.874  1.00  0.00     0.100 A 
ATOM      5  O   UNL     1      -5.173 -14.635  29.145  1.00  0.00    -0.456 OA
ATOM      6  C   UNL     1      -4.819 -12.492  30.822  1.00  0.00     0.197 A 
ATOM      7  C   UNL     1      -6.127 -14.361  30.030  1.00  0.00     0.146 A 
ATOM      8  O   UNL     1      -4.585 -11.529  31.595  1.00  0.00    -0.289 OA
ATOM      9  C   UNL     1      -6.012 -13.250  30.904  1.00  0.00     0.107 A 
ATOM     10  C   UNL     1      -7.243 -15.198  30.089  1.00  0.00     0.094 A 
ATOM     11  C   UNL     1      -7.080 -12.987  31.813  1.00  0.00     0.134 A 
ATOM     12  C   UNL     1      -8.165 -13.870  31.879  1.00  0.00     0.093 A 
BRANCH   3  13
ATOM     13  C   UNL     1      -3.061 -14.320  28.003  1.00  0.00     0.021 A 
ATOM     14  C   UNL     1      -2.331 -13.360  27.276  1.00  0.00     0.016 A 
ATOM     15  C   UNL     1      -1.388 -13.760  26.326  1.00  0.00     0.051 A 
ATOM     16  C   UNL     1      -1.153 -15.120  26.090  1.00  0.00     0.157 A 
ATOM     17  C   UNL     1      -2.811 -15.684  27.770  1.00  0.00     0.062 A 
ATOM     18  C   UNL     1      -1.868 -16.086  26.817  1.00  0.00     0.158 A 
BRANCH  16  19
ATOM     19  O   UNL     1      -0.211 -15.514  25.141  1.00  0.00    -0.504 OA
ATOM     20  H   UNL     1       0.437 -14.852  24.729  1.00  0.00     0.293 HD
ENDBRANCH  16  19
BRANCH  18  21
ATOM     21  O   UNL     1      -1.657 -17.449  26.606  1.00  0.00    -0.504 OA
ATOM     22  H   UNL     1      -1.152 -18.024  27.270  1.00  0.00     0.293 HD
ENDBRANCH  18  21
ENDBRANCH   3  13
BRANCH  11  23
ATOM     23  O   UNL     1      -7.138 -11.867  32.647  1.00  0.00    -0.507 OA
ATOM     24  H   UNL     1      -6.738 -11.814  33.571  1.00  0.00     0.293 HD
ENDBRANCH  11  23
ENDBRANCH   1   2
BRANCH   1  25
ATOM     25  C   UNL     1      -9.632 -16.836  30.031  1.00  0.00     0.339 C 
ATOM     26  C   UNL     1     -10.830 -16.392  29.179  1.00  0.00     0.214 C 
ATOM     27  O   UNL     1      -9.807 -18.132  30.587  1.00  0.00    -0.332 OA
ATOM     28  C   UNL     1     -12.113 -16.431  30.011  1.00  0.00     0.180 C 
ATOM     29  C   UNL     1     -10.988 -18.291  31.368  1.00  0.00     0.179 C 
ATOM     30  C   UNL     1     -12.290 -17.814  30.665  1.00  0.00     0.177 C 
BRANCH  26  31
ATOM     31  O   UNL     1     -10.956 -17.231  28.056  1.00  0.00    -0.384 OA
ATOM     32  H   UNL     1     -10.109 -17.159  27.545  1.00  0.00     0.211 HD
ENDBRANCH  26  31
BRANCH  28  33
ATOM     33  O   UNL     1     -13.214 -16.130  29.191  1.00  0.00    -0.387 OA
ATOM     34  H   UNL     1     -13.379 -15.156  29.282  1.00  0.00     0.211 HD
ENDBRANCH  28  33
BRANCH  29  35
ATOM     35  C   UNL     1     -10.822 -17.800  32.824  1.00  0.00     0.191 C 
BRANCH  35  36
ATOM     36  O   UNL     1     -11.219 -18.768  33.754  1.00  0.00    -0.394 OA
ATOM     37  H   UNL     1     -12.074 -18.444  34.140  1.00  0.00     0.210 HD
ENDBRANCH  35  36
ENDBRANCH  29  35
BRANCH  30  38
ATOM     38  O   UNL     1     -12.666 -18.748  29.683  1.00  0.00    -0.387 OA
ATOM     39  H   UNL     1     -13.268 -19.405  30.121  1.00  0.00     0.211 HD
ENDBRANCH  30  38
ENDBRANCH   1  25
TORSDOF 11
ENDMDL
MODEL 7
REMARK VINA RESULT:    -7.792      1.600      9.021
REMARK INTER + INTRA:         -11.974
REMARK INTER:                 -11.042
REMARK INTRA:                  -0.931
REMARK UNBOUND:                -0.766
REMARK SMILES O=c1cc(-c2ccc(O)c(O)c2)oc2cc(O[C@H]3O[C@@H](CO)[C@H](O)[C@H](O)[C@@H]3O)cc(O)c12
REMARK SMILES IDX 17 1 16 2 4 3 3 4 13 5 2 6 14 7 1 8 32 9 15 10 30 11 29 12
REMARK SMILES IDX 5 13 6 14 7 15 8 16 12 17 10 18 9 19 11 21 31 23 18 25 27 26
REMARK SMILES IDX 19 27 25 28 20 29 23 30 28 31 26 33 21 35 22 36 24 38
REMARK H PARENT 9 20 11 22 31 24 28 32 26 34 22 37 24 39
REMARK Flexibility Score: inf
ROOT
ATOM      1  O   UNL     1      -3.736 -13.612  28.295  1.00  0.00    -0.462 OA
ENDROOT
BRANCH   1   2
ATOM      2  C   UNL     1      -4.749 -13.627  29.268  1.00  0.00     0.130 A 
ATOM      3  C   UNL     1      -8.905 -15.535  30.603  1.00  0.00     0.138 A 
ATOM      4  C   UNL     1      -9.002 -14.712  31.733  1.00  0.00     0.100 A 
ATOM      5  O   UNL     1      -7.845 -15.430  29.809  1.00  0.00    -0.456 OA
ATOM      6  C   UNL     1      -7.986 -13.796  32.009  1.00  0.00     0.197 A 
ATOM      7  C   UNL     1      -6.850 -14.576  30.025  1.00  0.00     0.146 A 
ATOM      8  O   UNL     1      -8.122 -13.041  33.005  1.00  0.00    -0.289 OA
ATOM      9  C   UNL     1      -6.854 -13.726  31.161  1.00  0.00     0.107 A 
ATOM     10  C   UNL     1      -5.802 -14.525  29.104  1.00  0.00     0.094 A 
ATOM     11  C   UNL     1      -5.745 -12.850  31.358  1.00  0.00     0.134 A 
ATOM     12  C   UNL     1      -4.731 -12.789  30.393  1.00  0.00     0.093 A 
BRANCH   3  13
ATOM     13  C   UNL     1      -9.955 -16.527  30.266  1.00  0.00     0.021 A 
ATOM     14  C   UNL     1     -10.542 -16.575  28.988  1.00  0.00     0.016 A 
ATOM     15  C   UNL     1     -11.517 -17.531  28.692  1.00  0.00     0.051 A 
ATOM     16  C   UNL     1     -11.919 -18.457  29.663  1.00  0.00     0.157 A 
ATOM     17  C   UNL     1     -10.353 -17.468  31.233  1.00  0.00     0.062 A 
ATOM     18  C   UNL     1     -11.332 -18.425  30.939  1.00  0.00     0.158 A 
BRANCH  16  19
ATOM     19  O   UNL     1     -12.892 -19.409  29.365  1.00  0.00    -0.504 OA
ATOM     20  H   UNL     1     -13.828 -19.350  29.749  1.00  0.00     0.293 HD
ENDBRANCH  16  19
BRANCH  18  21
ATOM     21  O   UNL     1     -11.709 -19.334  31.928  1.00  0.00    -0.504 OA
ATOM     22  H   UNL     1     -12.569 -19.866  31.870  1.00  0.00     0.293 HD
ENDBRANCH  18  21
ENDBRANCH   3  13
BRANCH  11  23
ATOM     23  O   UNL     1      -5.576 -12.044  32.488  1.00  0.00    -0.507 OA
ATOM     24  H   UNL     1      -5.712 -11.045  32.509  1.00  0.00     0.293 HD
ENDBRANCH  11  23
ENDBRANCH   1   2
BRANCH   1  25
ATOM     25  C   UNL     1      -2.432 -13.054  28.470  1.00  0.00     0.339 C 
ATOM     26  C   UNL     1      -1.812 -12.695  27.112  1.00  0.00     0.214 C 
ATOM     27  O   UNL     1      -1.597 -13.903  29.245  1.00  0.00    -0.332 OA
ATOM     28  C   UNL     1      -1.491 -13.968  26.325  1.00  0.00     0.180 C 
ATOM     29  C   UNL     1      -1.214 -15.114  28.599  1.00  0.00     0.179 C 
ATOM     30  C   UNL     1      -0.631 -14.922  27.172  1.00  0.00     0.177 C 
BRANCH  26  31
ATOM     31  O   UNL     1      -0.642 -11.938  27.305  1.00  0.00    -0.384 OA
ATOM     32  H   UNL     1      -0.777 -11.072  26.841  1.00  0.00     0.211 HD
ENDBRANCH  26  31
BRANCH  28  33
ATOM     33  O   UNL     1      -0.825 -13.629  25.135  1.00  0.00    -0.387 OA
ATOM     34  H   UNL     1      -0.339 -12.782  25.312  1.00  0.00     0.211 HD
ENDBRANCH  28  33
BRANCH  29  35
ATOM     35  C   UNL     1      -2.282 -16.226  28.718  1.00  0.00     0.191 C 
BRANCH  35  36
ATOM     36  O   UNL     1      -3.016 -16.377  27.536  1.00  0.00    -0.394 OA
ATOM     37  H   UNL     1      -3.393 -17.295  27.561  1.00  0.00     0.210 HD
ENDBRANCH  35  36
ENDBRANCH  29  35
BRANCH  30  38
ATOM     38  O   UNL     1       0.678 -14.414  27.261  1.00  0.00    -0.387 OA
ATOM     39  H   UNL     1       1.057 -14.423  26.343  1.00  0.00     0.211 HD
ENDBRANCH  30  38
ENDBRANCH   1  25
TORSDOF 11
ENDMDL
MODEL 8
REMARK VINA RESULT:    -7.521      3.326      9.156
REMARK INTER + INTRA:         -11.585
REMARK INTER:                 -10.758
REMARK INTRA:                  -0.827
REMARK UNBOUND:                -0.766
REMARK SMILES O=c1cc(-c2ccc(O)c(O)c2)oc2cc(O[C@H]3O[C@@H](CO)[C@H](O)[C@H](O)[C@@H]3O)cc(O)c12
REMARK SMILES IDX 17 1 16 2 4 3 3 4 13 5 2 6 14 7 1 8 32 9 15 10 30 11 29 12
REMARK SMILES IDX 5 13 6 14 7 15 8 16 12 17 10 18 9 19 11 21 31 23 18 25 27 26
REMARK SMILES IDX 19 27 25 28 20 29 23 30 28 31 26 33 21 35 22 36 24 38
REMARK H PARENT 9 20 11 22 31 24 28 32 26 34 22 37 24 39
REMARK Flexibility Score: inf
ROOT
ATOM      1  O   UNL     1      -0.921 -16.429  25.090  1.00  0.00    -0.462 OA
ENDROOT
BRANCH   1   2
ATOM      2  C   UNL     1      -1.057 -15.201  25.756  1.00  0.00     0.130 A 
ATOM      3  C   UNL     1      -3.521 -12.724  28.996  1.00  0.00     0.138 A 
ATOM      4  C   UNL     1      -2.779 -11.556  28.773  1.00  0.00     0.100 A 
ATOM      5  O   UNL     1      -3.224 -13.826  28.314  1.00  0.00    -0.456 OA
ATOM      6  C   UNL     1      -1.741 -11.566  27.840  1.00  0.00     0.197 A 
ATOM      7  C   UNL     1      -2.247 -13.889  27.415  1.00  0.00     0.146 A 
ATOM      8  O   UNL     1      -1.124 -10.491  27.629  1.00  0.00    -0.289 OA
ATOM      9  C   UNL     1      -1.429 -12.761  27.148  1.00  0.00     0.107 A 
ATOM     10  C   UNL     1      -2.048 -15.089  26.730  1.00  0.00     0.094 A 
ATOM     11  C   UNL     1      -0.377 -12.896  26.194  1.00  0.00     0.134 A 
ATOM     12  C   UNL     1      -0.230 -14.098  25.490  1.00  0.00     0.093 A 
BRANCH   3  13
ATOM     13  C   UNL     1      -4.631 -12.769  29.979  1.00  0.00     0.021 A 
ATOM     14  C   UNL     1      -4.653 -11.925  31.105  1.00  0.00     0.016 A 
ATOM     15  C   UNL     1      -5.720 -11.977  32.007  1.00  0.00     0.051 A 
ATOM     16  C   UNL     1      -6.781 -12.866  31.798  1.00  0.00     0.157 A 
ATOM     17  C   UNL     1      -5.706 -13.651  29.768  1.00  0.00     0.062 A 
ATOM     18  C   UNL     1      -6.774 -13.706  30.672  1.00  0.00     0.158 A 
BRANCH  16  19
ATOM     19  O   UNL     1      -7.843 -12.914  32.700  1.00  0.00    -0.504 OA
ATOM     20  H   UNL     1      -7.689 -12.894  33.702  1.00  0.00     0.293 HD
ENDBRANCH  16  19
BRANCH  18  21
ATOM     21  O   UNL     1      -7.817 -14.601  30.435  1.00  0.00    -0.504 OA
ATOM     22  H   UNL     1      -7.771 -15.570  30.730  1.00  0.00     0.293 HD
ENDBRANCH  18  21
ENDBRANCH   3  13
BRANCH  11  23
ATOM     23  O   UNL     1       0.563 -11.898  25.920  1.00  0.00    -0.507 OA
ATOM     24  H   UNL     1       0.351 -10.918  25.818  1.00  0.00     0.293 HD
ENDBRANCH  11  23
ENDBRANCH   1   2
BRANCH   1  25
ATOM     25  C   UNL     1       0.292 -17.177  24.978  1.00  0.00     0.339 C 
ATOM     26  C   UNL     1       0.247 -18.096  23.748  1.00  0.00     0.214 C 
ATOM     27  O   UNL     1       0.588 -17.881  26.176  1.00  0.00    -0.332 OA
ATOM     28  C   UNL     1      -0.777 -19.213  23.960  1.00  0.00     0.180 C 
ATOM     29  C   UNL     1      -0.292 -18.964  26.464  1.00  0.00     0.179 C 
ATOM     30  C   UNL     1      -0.501 -19.952  25.283  1.00  0.00     0.177 C 
BRANCH  26  31
ATOM     31  O   UNL     1       1.521 -18.645  23.514  1.00  0.00    -0.384 OA
ATOM     32  H   UNL     1       1.488 -19.087  22.627  1.00  0.00     0.211 HD
ENDBRANCH  26  31
BRANCH  28  33
ATOM     33  O   UNL     1      -0.727 -20.108  22.877  1.00  0.00    -0.387 OA
ATOM     34  H   UNL     1       0.231 -20.228  22.651  1.00  0.00     0.211 HD
ENDBRANCH  28  33
BRANCH  29  35
ATOM     35  C   UNL     1      -1.592 -18.515  27.170  1.00  0.00     0.191 C 
BRANCH  35  36
ATOM     36  O   UNL     1      -2.661 -19.377  26.900  1.00  0.00    -0.394 OA
ATOM     37  H   UNL     1      -2.848 -19.859  27.748  1.00  0.00     0.210 HD
ENDBRANCH  35  36
ENDBRANCH  29  35
BRANCH  30  38
ATOM     38  O   UNL     1       0.641 -20.760  25.135  1.00  0.00    -0.387 OA
ATOM     39  H   UNL     1       1.298 -20.462  25.816  1.00  0.00     0.211 HD
ENDBRANCH  30  38
ENDBRANCH   1  25
TORSDOF 11
ENDMDL
MODEL 9
REMARK VINA RESULT:    -7.280      7.081     10.219
REMARK INTER + INTRA:         -11.237
REMARK INTER:                 -10.456
REMARK INTRA:                  -0.781
REMARK UNBOUND:                -0.766
REMARK SMILES O=c1cc(-c2ccc(O)c(O)c2)oc2cc(O[C@H]3O[C@@H](CO)[C@H](O)[C@H](O)[C@@H]3O)cc(O)c12
REMARK SMILES IDX 17 1 16 2 4 3 3 4 13 5 2 6 14 7 1 8 32 9 15 10 30 11 29 12
REMARK SMILES IDX 5 13 6 14 7 15 8 16 12 17 10 18 9 19 11 21 31 23 18 25 27 26
REMARK SMILES IDX 19 27 25 28 20 29 23 30 28 31 26 33 21 35 22 36 24 38
REMARK H PARENT 9 20 11 22 31 24 28 32 26 34 22 37 24 39
REMARK Flexibility Score: inf
ROOT
ATOM      1  O   UNL     1       0.387 -22.387  28.832  1.00  0.00    -0.462 OA
ENDROOT
BRANCH   1   2
ATOM      2  C   UNL     1       0.281 -21.713  27.604  1.00  0.00     0.130 A 
ATOM      3  C   UNL     1      -0.496 -17.532  25.456  1.00  0.00     0.138 A 
ATOM      4  C   UNL     1      -0.433 -18.097  24.175  1.00  0.00     0.100 A 
ATOM      5  O   UNL     1      -0.317 -18.307  26.521  1.00  0.00    -0.456 OA
ATOM      6  C   UNL     1      -0.183 -19.463  24.035  1.00  0.00     0.197 A 
ATOM      7  C   UNL     1      -0.077 -19.612  26.443  1.00  0.00     0.146 A 
ATOM      8  O   UNL     1      -0.177 -19.948  22.876  1.00  0.00    -0.289 OA
ATOM      9  C   UNL     1       0.031 -20.260  25.185  1.00  0.00     0.107 A 
ATOM     10  C   UNL     1       0.057 -20.338  27.629  1.00  0.00     0.094 A 
ATOM     11  C   UNL     1       0.319 -21.657  25.163  1.00  0.00     0.134 A 
ATOM     12  C   UNL     1       0.404 -22.366  26.369  1.00  0.00     0.093 A 
BRANCH   3  13
ATOM     13  C   UNL     1      -0.754 -16.086  25.661  1.00  0.00     0.021 A 
ATOM     14  C   UNL     1       0.054 -15.100  25.063  1.00  0.00     0.016 A 
ATOM     15  C   UNL     1      -0.222 -13.745  25.259  1.00  0.00     0.051 A 
ATOM     16  C   UNL     1      -1.308 -13.350  26.049  1.00  0.00     0.157 A 
ATOM     17  C   UNL     1      -1.852 -15.682  26.443  1.00  0.00     0.062 A 
ATOM     18  C   UNL     1      -2.128 -14.325  26.642  1.00  0.00     0.158 A 
BRANCH  16  19
ATOM     19  O   UNL     1      -1.580 -11.996  26.242  1.00  0.00    -0.504 OA
ATOM     20  H   UNL     1      -1.416 -11.544  27.135  1.00  0.00     0.293 HD
ENDBRANCH  16  19
BRANCH  18  21
ATOM     21  O   UNL     1      -3.219 -13.964  27.433  1.00  0.00    -0.504 OA
ATOM     22  H   UNL     1      -4.170 -14.004  27.087  1.00  0.00     0.293 HD
ENDBRANCH  18  21
ENDBRANCH   3  13
BRANCH  11  23
ATOM     23  O   UNL     1       0.557 -22.388  23.995  1.00  0.00    -0.507 OA
ATOM     24  H   UNL     1       1.384 -22.935  23.815  1.00  0.00     0.293 HD
ENDBRANCH  11  23
ENDBRANCH   1   2
BRANCH   1  25
ATOM     25  C   UNL     1      -0.481 -23.431  29.278  1.00  0.00     0.339 C 
ATOM     26  C   UNL     1      -1.745 -22.843  29.924  1.00  0.00     0.214 C 
ATOM     27  O   UNL     1       0.193 -24.347  30.130  1.00  0.00    -0.332 OA
ATOM     28  C   UNL     1      -1.392 -22.159  31.246  1.00  0.00     0.180 C 
ATOM     29  C   UNL     1       0.551 -23.822  31.405  1.00  0.00     0.179 C 
ATOM     30  C   UNL     1      -0.614 -23.123  32.160  1.00  0.00     0.177 C 
BRANCH  26  31
ATOM     31  O   UNL     1      -2.689 -23.862  30.143  1.00  0.00    -0.384 OA
ATOM     32  H   UNL     1      -2.356 -24.407  30.902  1.00  0.00     0.211 HD
ENDBRANCH  26  31
BRANCH  28  33
ATOM     33  O   UNL     1      -2.570 -21.724  31.879  1.00  0.00    -0.387 OA
ATOM     34  H   UNL     1      -2.351 -20.866  32.328  1.00  0.00     0.211 HD
ENDBRANCH  28  33
BRANCH  29  35
ATOM     35  C   UNL     1       1.876 -23.027  31.381  1.00  0.00     0.191 C 
BRANCH  35  36
ATOM     36  O   UNL     1       2.886 -23.666  32.109  1.00  0.00    -0.394 OA
ATOM     37  H   UNL     1       2.976 -23.161  32.959  1.00  0.00     0.210 HD
ENDBRANCH  35  36
ENDBRANCH  29  35
BRANCH  30  38
ATOM     38  O   UNL     1      -1.495 -24.093  32.672  1.00  0.00    -0.387 OA
ATOM     39  H   UNL     1      -0.956 -24.707  33.236  1.00  0.00     0.211 HD
ENDBRANCH  30  38
ENDBRANCH   1  25
TORSDOF 11
ENDMDL
