MODEL 1
REMARK VINA RESULT:    -5.198      0.000      0.000
REMARK INTER + INTRA:          -5.887
REMARK INTER:                  -6.261
REMARK INTRA:                   0.375
REMARK UNBOUND:                 0.375
REMARK SMILES O=c1c(O)c(-c2ccc(O)c(O)c2)oc2cc(O)cc(O)c12
REMARK SMILES IDX 5 1 3 2 2 3 1 4 22 5 20 6 19 7 17 8 16 9 15 10 14 11 6 12
REMARK SMILES IDX 7 13 8 14 9 15 13 16 11 17 10 18 12 20 4 22 21 24 18 26
REMARK H PARENT 10 19 12 21 4 23 21 25 18 27
REMARK Flexibility Score: inf
ROOT
ATOM      1  C   UNL     1     -20.904   3.657  10.944  1.00  0.00     0.180 A 
ATOM      2  C   UNL     1     -20.131   4.780  11.283  1.00  0.00     0.208 A 
ATOM      3  C   UNL     1     -20.771   5.915  11.806  1.00  0.00     0.238 A 
ATOM      4  O   UNL     1     -20.080   6.937  12.057  1.00  0.00    -0.285 OA
ATOM      5  C   UNL     1     -22.174   5.907  11.997  1.00  0.00     0.111 A 
ATOM      6  C   UNL     1     -22.922   6.987  12.556  1.00  0.00     0.134 A 
ATOM      7  C   UNL     1     -24.321   6.919  12.577  1.00  0.00     0.093 A 
ATOM      8  C   UNL     1     -24.994   5.788  12.120  1.00  0.00     0.123 A 
ATOM      9  C   UNL     1     -24.270   4.702  11.626  1.00  0.00     0.094 A 
ATOM     10  C   UNL     1     -22.875   4.753  11.559  1.00  0.00     0.146 A 
ATOM     11  O   UNL     1     -22.225   3.703  11.073  1.00  0.00    -0.452 OA
ENDROOT
BRANCH   1  12
ATOM     12  C   UNL     1     -20.298   2.415  10.412  1.00  0.00     0.025 A 
ATOM     13  C   UNL     1     -18.953   2.127  10.693  1.00  0.00     0.016 A 
ATOM     14  C   UNL     1     -18.354   0.971  10.185  1.00  0.00     0.051 A 
ATOM     15  C   UNL     1     -19.088   0.094   9.376  1.00  0.00     0.157 A 
ATOM     16  C   UNL     1     -21.025   1.542   9.582  1.00  0.00     0.062 A 
ATOM     17  C   UNL     1     -20.425   0.382   9.070  1.00  0.00     0.158 A 
BRANCH  15  18
ATOM     18  O   UNL     1     -18.496  -1.061   8.869  1.00  0.00    -0.504 OA
ATOM     19  H   UNL     1     -18.623  -1.962   9.316  1.00  0.00     0.293 HD
ENDBRANCH  15  18
BRANCH  17  20
ATOM     20  O   UNL     1     -21.147  -0.485   8.254  1.00  0.00    -0.504 OA
ATOM     21  H   UNL     1     -20.804  -0.765   7.342  1.00  0.00     0.293 HD
ENDBRANCH  17  20
ENDBRANCH   1  12
BRANCH   2  22
ATOM     22  O   UNL     1     -18.750   4.775  11.067  1.00  0.00    -0.502 OA
ATOM     23  H   UNL     1     -18.266   5.544  10.622  1.00  0.00     0.293 HD
ENDBRANCH   2  22
BRANCH   6  24
ATOM     24  O   UNL     1     -22.344   8.125  13.124  1.00  0.00    -0.507 OA
ATOM     25  H   UNL     1     -22.627   8.536  14.001  1.00  0.00     0.293 HD
ENDBRANCH   6  24
BRANCH   8  26
ATOM     26  O   UNL     1     -26.386   5.749  12.170  1.00  0.00    -0.508 OA
ATOM     27  H   UNL     1     -26.955   6.291  11.529  1.00  0.00     0.293 HD
ENDBRANCH   8  26
TORSDOF 6
ENDMDL
MODEL 2
REMARK VINA RESULT:    -4.760     20.103     23.354
REMARK INTER + INTRA:          -5.359
REMARK INTER:                  -5.805
REMARK INTRA:                   0.446
REMARK UNBOUND:                 0.375
REMARK SMILES O=c1c(O)c(-c2ccc(O)c(O)c2)oc2cc(O)cc(O)c12
REMARK SMILES IDX 5 1 3 2 2 3 1 4 22 5 20 6 19 7 17 8 16 9 15 10 14 11 6 12
REMARK SMILES IDX 7 13 8 14 9 15 13 16 11 17 10 18 12 20 4 22 21 24 18 26
REMARK H PARENT 10 19 12 21 4 23 21 25 18 27
REMARK Flexibility Score: inf
ROOT
ATOM      1  C   UNL     1     -34.188 -11.552   1.074  1.00  0.00     0.180 A 
ATOM      2  C   UNL     1     -35.582 -11.473   1.236  1.00  0.00     0.208 A 
ATOM      3  C   UNL     1     -36.406 -11.596   0.106  1.00  0.00     0.238 A 
ATOM      4  O   UNL     1     -37.651 -11.469   0.249  1.00  0.00    -0.285 OA
ATOM      5  C   UNL     1     -35.827 -11.810  -1.169  1.00  0.00     0.111 A 
ATOM      6  C   UNL     1     -36.569 -11.988  -2.375  1.00  0.00     0.134 A 
ATOM      7  C   UNL     1     -35.889 -12.063  -3.598  1.00  0.00     0.093 A 
ATOM      8  C   UNL     1     -34.497 -12.032  -3.651  1.00  0.00     0.123 A 
ATOM      9  C   UNL     1     -33.761 -11.918  -2.471  1.00  0.00     0.094 A 
ATOM     10  C   UNL     1     -34.410 -11.806  -1.240  1.00  0.00     0.146 A 
ATOM     11  O   UNL     1     -33.673 -11.689  -0.142  1.00  0.00    -0.452 OA
ENDROOT
BRANCH   1  12
ATOM     12  C   UNL     1     -33.255 -11.459   2.221  1.00  0.00     0.025 A 
ATOM     13  C   UNL     1     -31.871 -11.436   1.986  1.00  0.00     0.016 A 
ATOM     14  C   UNL     1     -30.972 -11.369   3.053  1.00  0.00     0.051 A 
ATOM     15  C   UNL     1     -31.444 -11.339   4.372  1.00  0.00     0.157 A 
ATOM     16  C   UNL     1     -33.724 -11.450   3.547  1.00  0.00     0.062 A 
ATOM     17  C   UNL     1     -32.822 -11.385   4.619  1.00  0.00     0.158 A 
BRANCH  15  18
ATOM     18  O   UNL     1     -30.552 -11.270   5.440  1.00  0.00    -0.504 OA
ATOM     19  H   UNL     1     -30.833 -10.905   6.343  1.00  0.00     0.293 HD
ENDBRANCH  15  18
BRANCH  17  20
ATOM     20  O   UNL     1     -33.288 -11.370   5.933  1.00  0.00    -0.504 OA
ATOM     21  H   UNL     1     -34.018 -12.000   6.244  1.00  0.00     0.293 HD
ENDBRANCH  17  20
ENDBRANCH   1  12
BRANCH   2  22
ATOM     22  O   UNL     1     -36.131 -11.240   2.499  1.00  0.00    -0.502 OA
ATOM     23  H   UNL     1     -36.755 -11.896   2.952  1.00  0.00     0.293 HD
ENDBRANCH   2  22
BRANCH   6  24
ATOM     24  O   UNL     1     -37.959 -12.124  -2.425  1.00  0.00    -0.507 OA
ATOM     25  H   UNL     1     -38.517 -12.021  -3.260  1.00  0.00     0.293 HD
ENDBRANCH   6  24
BRANCH   8  26
ATOM     26  O   UNL     1     -33.854 -12.124  -4.884  1.00  0.00    -0.508 OA
ATOM     27  H   UNL     1     -32.903 -12.465  -4.961  1.00  0.00     0.293 HD
ENDBRANCH   8  26
TORSDOF 6
ENDMDL
MODEL 3
REMARK VINA RESULT:    -4.513      1.206      6.657
REMARK INTER + INTRA:          -5.062
REMARK INTER:                  -5.259
REMARK INTRA:                   0.198
REMARK UNBOUND:                 0.375
REMARK SMILES O=c1c(O)c(-c2ccc(O)c(O)c2)oc2cc(O)cc(O)c12
REMARK SMILES IDX 5 1 3 2 2 3 1 4 22 5 20 6 19 7 17 8 16 9 15 10 14 11 6 12
REMARK SMILES IDX 7 13 8 14 9 15 13 16 11 17 10 18 12 20 4 22 21 24 18 26
REMARK H PARENT 10 19 12 21 4 23 21 25 18 27
REMARK Flexibility Score: inf
ROOT
ATOM      1  C   UNL     1     -21.624   3.955  11.193  1.00  0.00     0.180 A 
ATOM      2  C   UNL     1     -20.314   3.794  11.675  1.00  0.00     0.208 A 
ATOM      3  C   UNL     1     -19.518   2.763  11.152  1.00  0.00     0.238 A 
ATOM      4  O   UNL     1     -18.364   2.589  11.626  1.00  0.00    -0.285 OA
ATOM      5  C   UNL     1     -20.037   1.914  10.143  1.00  0.00     0.111 A 
ATOM      6  C   UNL     1     -19.305   0.862   9.514  1.00  0.00     0.134 A 
ATOM      7  C   UNL     1     -19.961   0.004   8.623  1.00  0.00     0.093 A 
ATOM      8  C   UNL     1     -21.300   0.198   8.289  1.00  0.00     0.123 A 
ATOM      9  C   UNL     1     -22.009   1.260   8.853  1.00  0.00     0.094 A 
ATOM     10  C   UNL     1     -21.392   2.112   9.773  1.00  0.00     0.146 A 
ATOM     11  O   UNL     1     -22.104   3.103  10.294  1.00  0.00    -0.452 OA
ENDROOT
BRANCH   1  12
ATOM     12  C   UNL     1     -22.514   5.035  11.676  1.00  0.00     0.025 A 
ATOM     13  C   UNL     1     -21.974   6.300  11.962  1.00  0.00     0.016 A 
ATOM     14  C   UNL     1     -22.791   7.328  12.439  1.00  0.00     0.051 A 
ATOM     15  C   UNL     1     -24.157   7.102  12.652  1.00  0.00     0.157 A 
ATOM     16  C   UNL     1     -23.883   4.807  11.911  1.00  0.00     0.062 A 
ATOM     17  C   UNL     1     -24.703   5.838  12.391  1.00  0.00     0.158 A 
BRANCH  15  18
ATOM     18  O   UNL     1     -24.977   8.125  13.125  1.00  0.00    -0.504 OA
ATOM     19  H   UNL     1     -24.593   9.009  13.439  1.00  0.00     0.293 HD
ENDBRANCH  15  18
BRANCH  17  20
ATOM     20  O   UNL     1     -26.059   5.613  12.617  1.00  0.00    -0.504 OA
ATOM     21  H   UNL     1     -26.468   5.717  13.539  1.00  0.00     0.293 HD
ENDBRANCH  17  20
ENDBRANCH   1  12
BRANCH   2  22
ATOM     22  O   UNL     1     -19.828   4.629  12.685  1.00  0.00    -0.502 OA
ATOM     23  H   UNL     1     -19.092   5.305  12.526  1.00  0.00     0.293 HD
ENDBRANCH   2  22
BRANCH   6  24
ATOM     24  O   UNL     1     -17.940   0.637   9.707  1.00  0.00    -0.507 OA
ATOM     25  H   UNL     1     -17.204   1.083   9.179  1.00  0.00     0.293 HD
ENDBRANCH   6  24
BRANCH   8  26
ATOM     26  O   UNL     1     -21.916  -0.667   7.386  1.00  0.00    -0.508 OA
ATOM     27  H   UNL     1     -21.411  -1.060   6.601  1.00  0.00     0.293 HD
ENDBRANCH   8  26
TORSDOF 6
ENDMDL
MODEL 4
REMARK VINA RESULT:    -4.487     11.103     13.026
REMARK INTER + INTRA:          -5.030
REMARK INTER:                  -4.833
REMARK INTRA:                  -0.197
REMARK UNBOUND:                 0.375
REMARK SMILES O=c1c(O)c(-c2ccc(O)c(O)c2)oc2cc(O)cc(O)c12
REMARK SMILES IDX 5 1 3 2 2 3 1 4 22 5 20 6 19 7 17 8 16 9 15 10 14 11 6 12
REMARK SMILES IDX 7 13 8 14 9 15 13 16 11 17 10 18 12 20 4 22 21 24 18 26
REMARK H PARENT 10 19 12 21 4 23 21 25 18 27
REMARK Flexibility Score: inf
ROOT
ATOM      1  C   UNL     1     -20.665   6.338   0.472  1.00  0.00     0.180 A 
ATOM      2  C   UNL     1     -21.779   5.566   0.101  1.00  0.00     0.208 A 
ATOM      3  C   UNL     1     -21.932   5.194  -1.244  1.00  0.00     0.238 A 
ATOM      4  O   UNL     1     -22.960   4.548  -1.580  1.00  0.00    -0.285 OA
ATOM      5  C   UNL     1     -20.962   5.586  -2.199  1.00  0.00     0.111 A 
ATOM      6  C   UNL     1     -20.997   5.232  -3.581  1.00  0.00     0.134 A 
ATOM      7  C   UNL     1     -20.055   5.785  -4.458  1.00  0.00     0.093 A 
ATOM      8  C   UNL     1     -19.044   6.625  -3.995  1.00  0.00     0.123 A 
ATOM      9  C   UNL     1     -18.966   6.930  -2.635  1.00  0.00     0.094 A 
ATOM     10  C   UNL     1     -19.912   6.423  -1.740  1.00  0.00     0.146 A 
ATOM     11  O   UNL     1     -19.808   6.746  -0.457  1.00  0.00    -0.452 OA
ENDROOT
BRANCH   1  12
ATOM     12  C   UNL     1     -20.422   6.747   1.874  1.00  0.00     0.025 A 
ATOM     13  C   UNL     1     -21.256   7.706   2.469  1.00  0.00     0.016 A 
ATOM     14  C   UNL     1     -21.032   8.122   3.784  1.00  0.00     0.051 A 
ATOM     15  C   UNL     1     -19.962   7.595   4.518  1.00  0.00     0.157 A 
ATOM     16  C   UNL     1     -19.335   6.236   2.608  1.00  0.00     0.062 A 
ATOM     17  C   UNL     1     -19.109   6.653   3.927  1.00  0.00     0.158 A 
BRANCH  15  18
ATOM     18  O   UNL     1     -19.736   8.004   5.831  1.00  0.00    -0.504 OA
ATOM     19  H   UNL     1     -18.893   8.504   6.093  1.00  0.00     0.293 HD
ENDBRANCH  15  18
BRANCH  17  20
ATOM     20  O   UNL     1     -18.037   6.142   4.655  1.00  0.00    -0.504 OA
ATOM     21  H   UNL     1     -17.696   6.601   5.493  1.00  0.00     0.293 HD
ENDBRANCH  17  20
ENDBRANCH   1  12
BRANCH   2  22
ATOM     22  O   UNL     1     -22.735   5.207   1.054  1.00  0.00    -0.502 OA
ATOM     23  H   UNL     1     -23.127   4.275   1.109  1.00  0.00     0.293 HD
ENDBRANCH   2  22
BRANCH   6  24
ATOM     24  O   UNL     1     -21.909   4.329  -4.134  1.00  0.00    -0.507 OA
ATOM     25  H   UNL     1     -22.894   4.510  -4.258  1.00  0.00     0.293 HD
ENDBRANCH   6  24
BRANCH   8  26
ATOM     26  O   UNL     1     -18.115   7.144  -4.894  1.00  0.00    -0.508 OA
ATOM     27  H   UNL     1     -17.119   7.083  -4.721  1.00  0.00     0.293 HD
ENDBRANCH   8  26
TORSDOF 6
ENDMDL
MODEL 5
REMARK VINA RESULT:    -3.892      6.010      7.003
REMARK INTER + INTRA:          -4.314
REMARK INTER:                  -3.998
REMARK INTRA:                  -0.316
REMARK UNBOUND:                 0.375
REMARK SMILES O=c1c(O)c(-c2ccc(O)c(O)c2)oc2cc(O)cc(O)c12
REMARK SMILES IDX 5 1 3 2 2 3 1 4 22 5 20 6 19 7 17 8 16 9 15 10 14 11 6 12
REMARK SMILES IDX 7 13 8 14 9 15 13 16 11 17 10 18 12 20 4 22 21 24 18 26
REMARK H PARENT 10 19 12 21 4 23 21 25 18 27
REMARK Flexibility Score: inf
ROOT
ATOM      1  C   UNL     1     -19.340   5.650   5.911  1.00  0.00     0.180 A 
ATOM      2  C   UNL     1     -19.110   6.677   6.843  1.00  0.00     0.208 A 
ATOM      3  C   UNL     1     -19.154   6.374   8.213  1.00  0.00     0.238 A 
ATOM      4  O   UNL     1     -19.002   7.308   9.044  1.00  0.00    -0.285 OA
ATOM      5  C   UNL     1     -19.413   5.047   8.634  1.00  0.00     0.111 A 
ATOM      6  C   UNL     1     -19.442   4.620   9.996  1.00  0.00     0.134 A 
ATOM      7  C   UNL     1     -19.837   3.310  10.299  1.00  0.00     0.093 A 
ATOM      8  C   UNL     1     -20.140   2.397   9.292  1.00  0.00     0.123 A 
ATOM      9  C   UNL     1     -20.057   2.788   7.954  1.00  0.00     0.094 A 
ATOM     10  C   UNL     1     -19.701   4.097   7.620  1.00  0.00     0.146 A 
ATOM     11  O   UNL     1     -19.645   4.430   6.337  1.00  0.00    -0.452 OA
ENDROOT
BRANCH   1  12
ATOM     12  C   UNL     1     -19.284   5.886   4.450  1.00  0.00     0.025 A 
ATOM     13  C   UNL     1     -18.044   5.860   3.792  1.00  0.00     0.016 A 
ATOM     14  C   UNL     1     -17.964   6.100   2.418  1.00  0.00     0.051 A 
ATOM     15  C   UNL     1     -19.123   6.386   1.684  1.00  0.00     0.157 A 
ATOM     16  C   UNL     1     -20.442   6.194   3.712  1.00  0.00     0.062 A 
ATOM     17  C   UNL     1     -20.364   6.436   2.333  1.00  0.00     0.158 A 
BRANCH  15  18
ATOM     18  O   UNL     1     -19.050   6.623   0.313  1.00  0.00    -0.504 OA
ATOM     19  H   UNL     1     -19.885   6.745  -0.249  1.00  0.00     0.293 HD
ENDBRANCH  15  18
BRANCH  17  20
ATOM     20  O   UNL     1     -21.512   6.734   1.603  1.00  0.00    -0.504 OA
ATOM     21  H   UNL     1     -21.461   7.072   0.648  1.00  0.00     0.293 HD
ENDBRANCH  17  20
ENDBRANCH   1  12
BRANCH   2  22
ATOM     22  O   UNL     1     -18.878   7.984   6.407  1.00  0.00    -0.502 OA
ATOM     23  H   UNL     1     -17.985   8.447   6.524  1.00  0.00     0.293 HD
ENDBRANCH   2  22
BRANCH   6  24
ATOM     24  O   UNL     1     -19.069   5.425  11.075  1.00  0.00    -0.507 OA
ATOM     25  H   UNL     1     -18.208   5.949  11.130  1.00  0.00     0.293 HD
ENDBRANCH   6  24
BRANCH   8  26
ATOM     26  O   UNL     1     -20.515   1.098   9.630  1.00  0.00    -0.508 OA
ATOM     27  H   UNL     1     -21.487   0.812   9.639  1.00  0.00     0.293 HD
ENDBRANCH   8  26
TORSDOF 6
ENDMDL
MODEL 6
REMARK VINA RESULT:    -3.806      9.632     11.146
REMARK INTER + INTRA:          -4.209
REMARK INTER:                  -3.930
REMARK INTRA:                  -0.279
REMARK UNBOUND:                 0.375
REMARK SMILES O=c1c(O)c(-c2ccc(O)c(O)c2)oc2cc(O)cc(O)c12
REMARK SMILES IDX 5 1 3 2 2 3 1 4 22 5 20 6 19 7 17 8 16 9 15 10 14 11 6 12
REMARK SMILES IDX 7 13 8 14 9 15 13 16 11 17 10 18 12 20 4 22 21 24 18 26
REMARK H PARENT 10 19 12 21 4 23 21 25 18 27
REMARK Flexibility Score: inf
ROOT
ATOM      1  C   UNL     1     -19.744   6.597   2.451  1.00  0.00     0.180 A 
ATOM      2  C   UNL     1     -20.880   7.343   2.090  1.00  0.00     0.208 A 
ATOM      3  C   UNL     1     -21.248   7.411   0.737  1.00  0.00     0.238 A 
ATOM      4  O   UNL     1     -22.234   8.125   0.413  1.00  0.00    -0.285 OA
ATOM      5  C   UNL     1     -20.485   6.721  -0.237  1.00  0.00     0.111 A 
ATOM      6  C   UNL     1     -20.790   6.689  -1.631  1.00  0.00     0.134 A 
ATOM      7  C   UNL     1     -19.892   6.082  -2.519  1.00  0.00     0.093 A 
ATOM      8  C   UNL     1     -18.738   5.452  -2.058  1.00  0.00     0.123 A 
ATOM      9  C   UNL     1     -18.460   5.427  -0.691  1.00  0.00     0.094 A 
ATOM     10  C   UNL     1     -19.318   6.054   0.217  1.00  0.00     0.146 A 
ATOM     11  O   UNL     1     -19.012   6.016   1.508  1.00  0.00    -0.452 OA
ENDROOT
BRANCH   1  12
ATOM     12  C   UNL     1     -19.308   6.457   3.859  1.00  0.00     0.025 A 
ATOM     13  C   UNL     1     -18.593   7.501   4.468  1.00  0.00     0.016 A 
ATOM     14  C   UNL     1     -18.154   7.382   5.789  1.00  0.00     0.051 A 
ATOM     15  C   UNL     1     -18.411   6.212   6.515  1.00  0.00     0.157 A 
ATOM     16  C   UNL     1     -19.546   5.276   4.585  1.00  0.00     0.062 A 
ATOM     17  C   UNL     1     -19.104   5.155   5.911  1.00  0.00     0.158 A 
BRANCH  15  18
ATOM     18  O   UNL     1     -17.977   6.090   7.834  1.00  0.00    -0.504 OA
ATOM     19  H   UNL     1     -16.992   6.025   8.065  1.00  0.00     0.293 HD
ENDBRANCH  15  18
BRANCH  17  20
ATOM     20  O   UNL     1     -19.345   3.987   6.631  1.00  0.00    -0.504 OA
ATOM     21  H   UNL     1     -19.829   4.004   7.522  1.00  0.00     0.293 HD
ENDBRANCH  17  20
ENDBRANCH   1  12
BRANCH   2  22
ATOM     22  O   UNL     1     -21.606   8.034   3.064  1.00  0.00    -0.502 OA
ATOM     23  H   UNL     1     -21.177   8.704   3.690  1.00  0.00     0.293 HD
ENDBRANCH   2  22
BRANCH   6  24
ATOM     24  O   UNL     1     -21.963   7.207  -2.186  1.00  0.00    -0.507 OA
ATOM     25  H   UNL     1     -22.825   7.348  -1.680  1.00  0.00     0.293 HD
ENDBRANCH   6  24
BRANCH   8  26
ATOM     26  O   UNL     1     -17.875   4.846  -2.970  1.00  0.00    -0.508 OA
ATOM     27  H   UNL     1     -16.869   4.922  -2.878  1.00  0.00     0.293 HD
ENDBRANCH   8  26
TORSDOF 6
ENDMDL
MODEL 7
REMARK VINA RESULT:    -3.735      9.746     11.037
REMARK INTER + INTRA:          -4.124
REMARK INTER:                  -3.923
REMARK INTRA:                  -0.201
REMARK UNBOUND:                 0.375
REMARK SMILES O=c1c(O)c(-c2ccc(O)c(O)c2)oc2cc(O)cc(O)c12
REMARK SMILES IDX 5 1 3 2 2 3 1 4 22 5 20 6 19 7 17 8 16 9 15 10 14 11 6 12
REMARK SMILES IDX 7 13 8 14 9 15 13 16 11 17 10 18 12 20 4 22 21 24 18 26
REMARK H PARENT 10 19 12 21 4 23 21 25 18 27
REMARK Flexibility Score: inf
ROOT
ATOM      1  C   UNL     1     -19.915   6.815   2.225  1.00  0.00     0.180 A 
ATOM      2  C   UNL     1     -18.994   7.500   1.414  1.00  0.00     0.208 A 
ATOM      3  C   UNL     1     -19.193   7.517   0.024  1.00  0.00     0.238 A 
ATOM      4  O   UNL     1     -18.335   8.085  -0.703  1.00  0.00    -0.285 OA
ATOM      5  C   UNL     1     -20.317   6.863  -0.535  1.00  0.00     0.111 A 
ATOM      6  C   UNL     1     -20.638   6.850  -1.926  1.00  0.00     0.134 A 
ATOM      7  C   UNL     1     -21.703   6.062  -2.381  1.00  0.00     0.093 A 
ATOM      8  C   UNL     1     -22.497   5.340  -1.491  1.00  0.00     0.123 A 
ATOM      9  C   UNL     1     -22.228   5.394  -0.123  1.00  0.00     0.094 A 
ATOM     10  C   UNL     1     -21.151   6.142   0.358  1.00  0.00     0.146 A 
ATOM     11  O   UNL     1     -20.923   6.157   1.666  1.00  0.00    -0.452 OA
ENDROOT
BRANCH   1  12
ATOM     12  C   UNL     1     -19.787   6.775   3.700  1.00  0.00     0.025 A 
ATOM     13  C   UNL     1     -19.964   7.954   4.442  1.00  0.00     0.016 A 
ATOM     14  C   UNL     1     -19.828   7.943   5.832  1.00  0.00     0.051 A 
ATOM     15  C   UNL     1     -19.497   6.757   6.500  1.00  0.00     0.157 A 
ATOM     16  C   UNL     1     -19.435   5.590   4.373  1.00  0.00     0.062 A 
ATOM     17  C   UNL     1     -19.297   5.579   5.768  1.00  0.00     0.158 A 
BRANCH  15  18
ATOM     18  O   UNL     1     -19.363   6.740   7.886  1.00  0.00    -0.504 OA
ATOM     19  H   UNL     1     -19.375   5.872   8.410  1.00  0.00     0.293 HD
ENDBRANCH  15  18
BRANCH  17  20
ATOM     20  O   UNL     1     -18.955   4.403   6.434  1.00  0.00    -0.504 OA
ATOM     21  H   UNL     1     -19.628   3.899   6.999  1.00  0.00     0.293 HD
ENDBRANCH  17  20
ENDBRANCH   1  12
BRANCH   2  22
ATOM     22  O   UNL     1     -17.879   8.120   1.984  1.00  0.00    -0.502 OA
ATOM     23  H   UNL     1     -17.253   8.712   1.451  1.00  0.00     0.293 HD
ENDBRANCH   2  22
BRANCH   6  24
ATOM     24  O   UNL     1     -19.967   7.608  -2.890  1.00  0.00    -0.507 OA
ATOM     25  H   UNL     1     -20.034   7.461  -3.886  1.00  0.00     0.293 HD
ENDBRANCH   6  24
BRANCH   8  26
ATOM     26  O   UNL     1     -23.558   4.579  -1.978  1.00  0.00    -0.508 OA
ATOM     27  H   UNL     1     -23.556   4.209  -2.921  1.00  0.00     0.293 HD
ENDBRANCH   8  26
TORSDOF 6
ENDMDL
MODEL 8
REMARK VINA RESULT:    -2.982      4.704      5.939
REMARK INTER + INTRA:          -3.217
REMARK INTER:                  -3.123
REMARK INTRA:                  -0.094
REMARK UNBOUND:                 0.375
REMARK SMILES O=c1c(O)c(-c2ccc(O)c(O)c2)oc2cc(O)cc(O)c12
REMARK SMILES IDX 5 1 3 2 2 3 1 4 22 5 20 6 19 7 17 8 16 9 15 10 14 11 6 12
REMARK SMILES IDX 7 13 8 14 9 15 13 16 11 17 10 18 12 20 4 22 21 24 18 26
REMARK H PARENT 10 19 12 21 4 23 21 25 18 27
REMARK Flexibility Score: inf
ROOT
ATOM      1  C   UNL     1     -19.751   5.003   7.498  1.00  0.00     0.180 A 
ATOM      2  C   UNL     1     -19.674   3.601   7.557  1.00  0.00     0.208 A 
ATOM      3  C   UNL     1     -20.186   2.938   8.684  1.00  0.00     0.238 A 
ATOM      4  O   UNL     1     -20.066   1.687   8.756  1.00  0.00    -0.285 OA
ATOM      5  C   UNL     1     -20.780   3.684   9.731  1.00  0.00     0.111 A 
ATOM      6  C   UNL     1     -21.366   3.113  10.901  1.00  0.00     0.134 A 
ATOM      7  C   UNL     1     -21.808   3.953  11.931  1.00  0.00     0.093 A 
ATOM      8  C   UNL     1     -21.746   5.339  11.807  1.00  0.00     0.123 A 
ATOM      9  C   UNL     1     -21.229   5.909  10.641  1.00  0.00     0.094 A 
ATOM     10  C   UNL     1     -20.748   5.098   9.611  1.00  0.00     0.146 A 
ATOM     11  O   UNL     1     -20.255   5.679   8.524  1.00  0.00    -0.452 OA
ENDROOT
BRANCH   1  12
ATOM     12  C   UNL     1     -19.257   5.771   6.332  1.00  0.00     0.025 A 
ATOM     13  C   UNL     1     -18.344   6.819   6.530  1.00  0.00     0.016 A 
ATOM     14  C   UNL     1     -17.881   7.570   5.447  1.00  0.00     0.051 A 
ATOM     15  C   UNL     1     -18.336   7.294   4.151  1.00  0.00     0.157 A 
ATOM     16  C   UNL     1     -19.727   5.511   5.031  1.00  0.00     0.062 A 
ATOM     17  C   UNL     1     -19.264   6.265   3.944  1.00  0.00     0.158 A 
BRANCH  15  18
ATOM     18  O   UNL     1     -17.875   8.038   3.067  1.00  0.00    -0.504 OA
ATOM     19  H   UNL     1     -16.913   7.977   2.753  1.00  0.00     0.293 HD
ENDBRANCH  15  18
BRANCH  17  20
ATOM     20  O   UNL     1     -19.725   6.002   2.655  1.00  0.00    -0.504 OA
ATOM     21  H   UNL     1     -20.110   5.098   2.403  1.00  0.00     0.293 HD
ENDBRANCH  17  20
ENDBRANCH   1  12
BRANCH   2  22
ATOM     22  O   UNL     1     -19.064   2.886   6.523  1.00  0.00    -0.502 OA
ATOM     23  H   UNL     1     -19.588   2.486   5.754  1.00  0.00     0.293 HD
ENDBRANCH   2  22
BRANCH   6  24
ATOM     24  O   UNL     1     -21.561   1.742  11.087  1.00  0.00    -0.507 OA
ATOM     25  H   UNL     1     -20.922   1.023  10.780  1.00  0.00     0.293 HD
ENDBRANCH   6  24
BRANCH   8  26
ATOM     26  O   UNL     1     -22.209   6.144  12.846  1.00  0.00    -0.508 OA
ATOM     27  H   UNL     1     -22.646   5.748  13.669  1.00  0.00     0.293 HD
ENDBRANCH   8  26
TORSDOF 6
ENDMDL
