MODEL 1
REMARK VINA RESULT:   132.965      0.000      0.000
REMARK INTER + INTRA:         144.669
REMARK INTER:                 144.625
REMARK INTRA:                   0.044
REMARK UNBOUND:                 0.044
REMARK SMILES C[C@@H]1[C@H]2C3=CC[C@H]4[C@@]5(C)CC[C@H](O)C(C)(C)[C@H]5CC[C@]4(C)[C@@]3(C)CC[C@@]2(C(=O)[O-])CC[C@@H]1C
REMARK SMILES IDX 26 1 30 2 25 3 3 4 31 5 24 6 4 7 2 8 32 9 22 10 5 11 1 12
REMARK SMILES IDX 33 13 23 14 20 15 6 16 7 17 19 18 21 19 8 20 18 21 17 22
REMARK SMILES IDX 10 23 9 24 14 25 11 26 12 27 15 28 16 29 27 30 28 31 29 32
REMARK SMILES IDX 13 33
REMARK H PARENT 13 34
REMARK Flexibility Score: inf
ROOT
ATOM      1  C   UNL     1       7.147  39.010  14.739  1.00  0.00     0.017 C 
ATOM      2  C   UNL     1       8.087  37.876  15.266  1.00  0.00     0.014 C 
ATOM      3  C   UNL     1       6.651  38.536  13.348  1.00  0.00     0.014 C 
ATOM      4  C   UNL     1       7.813  40.466  14.588  1.00  0.00     0.030 C 
ATOM      5  C   UNL     1       9.225  38.386  16.125  1.00  0.00     0.004 C 
ATOM      6  C   UNL     1       5.578  39.440  12.746  1.00  0.00     0.013 C 
ATOM      7  C   UNL     1       7.361  41.234  13.304  1.00  0.00    -0.063 C 
ATOM      8  C   UNL     1       9.382  40.576  14.874  1.00  0.00    -0.003 C 
ATOM      9  C   UNL     1      10.106  39.252  15.239  1.00  0.00    -0.011 C 
ATOM     10  C   UNL     1       5.951  40.968  12.702  1.00  0.00    -0.006 C 
ATOM     11  C   UNL     1       8.055  42.341  12.895  1.00  0.00    -0.027 C 
ATOM     12  C   UNL     1       9.649  41.689  15.922  1.00  0.00     0.008 C 
ATOM     13  C   UNL     1      11.501  39.434  15.867  1.00  0.00     0.008 C 
ATOM     14  C   UNL     1       4.941  41.696  13.644  1.00  0.00     0.017 C 
ATOM     15  C   UNL     1       5.884  41.505  11.183  1.00  0.00    -0.020 C 
ATOM     16  C   UNL     1       7.805  43.117  11.622  1.00  0.00     0.032 C 
ATOM     17  C   UNL     1       6.342  43.010  11.157  1.00  0.00     0.006 C 
ATOM     18  C   UNL     1       4.440  41.397  10.575  1.00  0.00     0.008 C 
ATOM     19  C   UNL     1       6.861  40.609  10.334  1.00  0.00     0.012 C 
ATOM     20  C   UNL     1       5.899  43.900   9.903  1.00  0.00    -0.025 C 
ATOM     21  C   UNL     1       3.657  42.715  10.575  1.00  0.00     0.005 C 
ATOM     22  C   UNL     1       4.313  43.855   9.728  1.00  0.00     0.003 C 
ATOM     23  C   UNL     1       6.647  43.537   8.572  1.00  0.00     0.010 C 
ATOM     24  C   UNL     1       6.298  45.375  10.239  1.00  0.00     0.012 C 
ATOM     25  C   UNL     1       3.792  43.975   8.228  1.00  0.00    -0.006 C 
ATOM     26  C   UNL     1       5.925  42.576   7.610  1.00  0.00     0.033 C 
ATOM     27  C   UNL     1       4.439  42.886   7.315  1.00  0.00     0.120 C 
ATOM     28  C   UNL     1       4.078  45.400   7.666  1.00  0.00     0.014 C 
ATOM     29  C   UNL     1       2.243  43.821   8.159  1.00  0.00     0.014 C 
ENDROOT
BRANCH   1  30
ATOM     30  C   UNL     1       5.986  39.053  15.738  1.00  0.00     0.048 C 
ATOM     31  O   UNL     1       5.507  40.154  16.125  1.00  0.00    -0.550 OA
ATOM     32  O   UNL     1       5.334  37.881  16.110  1.00  0.00    -0.550 OA
ENDBRANCH   1  30
BRANCH  27  33
ATOM     33  O   UNL     1       4.306  43.226   5.955  1.00  0.00    -0.393 OA
ATOM     34  H   UNL     1       3.424  43.669   5.845  1.00  0.00     0.210 HD
ENDBRANCH  27  33
TORSDOF 2
ENDMDL
MODEL 2
REMARK VINA RESULT:   134.195      2.442      4.460
REMARK INTER + INTRA:         146.007
REMARK INTER:                 145.771
REMARK INTRA:                   0.236
REMARK UNBOUND:                 0.044
REMARK SMILES C[C@@H]1[C@H]2C3=CC[C@H]4[C@@]5(C)CC[C@H](O)C(C)(C)[C@H]5CC[C@]4(C)[C@@]3(C)CC[C@@]2(C(=O)[O-])CC[C@@H]1C
REMARK SMILES IDX 26 1 30 2 25 3 3 4 31 5 24 6 4 7 2 8 32 9 22 10 5 11 1 12
REMARK SMILES IDX 33 13 23 14 20 15 6 16 7 17 19 18 21 19 8 20 18 21 17 22
REMARK SMILES IDX 10 23 9 24 14 25 11 26 12 27 15 28 16 29 27 30 28 31 29 32
REMARK SMILES IDX 13 33
REMARK H PARENT 13 34
REMARK Flexibility Score: inf
ROOT
ATOM      1  C   UNL     1       7.906  40.807  14.094  1.00  0.00     0.017 C 
ATOM      2  C   UNL     1       7.622  41.111  15.602  1.00  0.00     0.014 C 
ATOM      3  C   UNL     1       8.593  42.079  13.528  1.00  0.00     0.014 C 
ATOM      4  C   UNL     1       6.623  40.460  13.189  1.00  0.00     0.030 C 
ATOM      5  C   UNL     1       6.366  40.447  16.124  1.00  0.00     0.004 C 
ATOM      6  C   UNL     1       9.106  41.907  12.100  1.00  0.00     0.013 C 
ATOM      7  C   UNL     1       6.669  41.095  11.762  1.00  0.00    -0.063 C 
ATOM      8  C   UNL     1       5.191  40.577  13.890  1.00  0.00    -0.003 C 
ATOM      9  C   UNL     1       5.191  41.048  15.371  1.00  0.00    -0.011 C 
ATOM     10  C   UNL     1       8.042  41.358  11.078  1.00  0.00    -0.006 C 
ATOM     11  C   UNL     1       5.534  41.131  10.997  1.00  0.00    -0.027 C 
ATOM     12  C   UNL     1       4.404  39.253  13.705  1.00  0.00     0.008 C 
ATOM     13  C   UNL     1       3.872  40.795  16.125  1.00  0.00     0.008 C 
ATOM     14  C   UNL     1       8.560  39.962  10.609  1.00  0.00     0.017 C 
ATOM     15  C   UNL     1       7.865  42.399   9.860  1.00  0.00    -0.020 C 
ATOM     16  C   UNL     1       5.399  41.806   9.652  1.00  0.00     0.032 C 
ATOM     17  C   UNL     1       6.738  41.867   8.898  1.00  0.00     0.006 C 
ATOM     18  C   UNL     1       9.192  42.589   9.040  1.00  0.00     0.008 C 
ATOM     19  C   UNL     1       7.456  43.783  10.490  1.00  0.00     0.012 C 
ATOM     20  C   UNL     1       6.717  42.425   7.398  1.00  0.00    -0.025 C 
ATOM     21  C   UNL     1       9.242  41.793   7.730  1.00  0.00     0.005 C 
ATOM     22  C   UNL     1       8.131  42.180   6.699  1.00  0.00     0.003 C 
ATOM     23  C   UNL     1       6.259  43.922   7.285  1.00  0.00     0.010 C 
ATOM     24  C   UNL     1       5.651  41.583   6.624  1.00  0.00     0.012 C 
ATOM     25  C   UNL     1       8.552  43.271   5.620  1.00  0.00    -0.006 C 
ATOM     26  C   UNL     1       7.370  44.985   7.217  1.00  0.00     0.033 C 
ATOM     27  C   UNL     1       8.527  44.709   6.229  1.00  0.00     0.120 C 
ATOM     28  C   UNL     1       7.623  43.189   4.371  1.00  0.00     0.014 C 
ATOM     29  C   UNL     1       9.985  42.993   5.071  1.00  0.00     0.014 C 
ENDROOT
BRANCH   1  30
ATOM     30  C   UNL     1       8.886  39.630  14.108  1.00  0.00     0.048 C 
ATOM     31  O   UNL     1      10.099  39.794  13.802  1.00  0.00    -0.550 OA
ATOM     32  O   UNL     1       8.494  38.393  14.615  1.00  0.00    -0.550 OA
ENDBRANCH   1  30
BRANCH  27  33
ATOM     33  O   UNL     1       8.501  45.684   5.213  1.00  0.00    -0.393 OA
ATOM     34  H   UNL     1       8.393  46.568   5.653  1.00  0.00     0.210 HD
ENDBRANCH  27  33
TORSDOF 2
ENDMDL
