MODEL 1
REMARK VINA RESULT:    -5.032      0.000      0.000
REMARK INTER + INTRA:         -14.872
REMARK INTER:                 -11.504
REMARK INTRA:                  -3.367
REMARK UNBOUND:                -3.367
REMARK SMILES CCCCCCCCCCCCCCCCCCCCCCCC(=O)[O-]
REMARK SMILES IDX 13 1 14 2 15 3 16 4 17 5 18 6 19 7 20 8 21 9 22 10 23 11
REMARK SMILES IDX 24 12 25 13 26 14 12 15 11 16 10 17 9 18 8 19 7 20 6 21 5 22
REMARK SMILES IDX 4 23 3 24 2 25 1 26
REMARK H PARENT
REMARK Flexibility Score: inf
ROOT
ATOM      1  C   UNL     1     -53.740 -48.988  21.472  1.00  0.00     0.000 C 
ENDROOT
BRANCH   1   2
ATOM      2  C   UNL     1     -52.746 -49.278  20.336  1.00  0.00     0.000 C 
BRANCH   2   3
ATOM      3  C   UNL     1     -51.624 -50.242  20.762  1.00  0.00     0.000 C 
BRANCH   3   4
ATOM      4  C   UNL     1     -50.263 -49.871  20.151  1.00  0.00     0.000 C 
BRANCH   4   5
ATOM      5  C   UNL     1     -49.942 -48.373  20.294  1.00  0.00     0.000 C 
BRANCH   5   6
ATOM      6  C   UNL     1     -48.440 -48.074  20.170  1.00  0.00     0.000 C 
BRANCH   6   7
ATOM      7  C   UNL     1     -48.011 -47.769  18.726  1.00  0.00     0.000 C 
BRANCH   7   8
ATOM      8  C   UNL     1     -47.411 -49.016  18.060  1.00  0.00     0.000 C 
BRANCH   8   9
ATOM      9  C   UNL     1     -47.257 -48.861  16.538  1.00  0.00     0.000 C 
BRANCH   9  10
ATOM     10  C   UNL     1     -47.808 -50.070  15.761  1.00  0.00     0.006 C 
BRANCH  10  11
ATOM     11  C   UNL     1     -48.698 -50.962  16.636  1.00  0.00     0.053 C 
BRANCH  11  12
ATOM     12  C   UNL     1     -50.103 -51.027  16.117  1.00  0.00     0.041 C 
ATOM     13  O   UNL     1     -51.074 -50.816  16.889  1.00  0.00    -0.550 OA
ATOM     14  O   UNL     1     -50.336 -51.296  14.774  1.00  0.00    -0.550 OA
ENDBRANCH  11  12
ENDBRANCH  10  11
ENDBRANCH   9  10
ENDBRANCH   8   9
ENDBRANCH   7   8
ENDBRANCH   6   7
ENDBRANCH   5   6
ENDBRANCH   4   5
ENDBRANCH   3   4
ENDBRANCH   2   3
ENDBRANCH   1   2
BRANCH   1  15
ATOM     15  C   UNL     1     -54.667 -47.802  21.153  1.00  0.00     0.000 C 
BRANCH  15  16
ATOM     16  C   UNL     1     -54.510 -46.642  22.150  1.00  0.00     0.000 C 
BRANCH  16  17
ATOM     17  C   UNL     1     -53.063 -46.470  22.636  1.00  0.00     0.000 C 
BRANCH  17  18
ATOM     18  C   UNL     1     -53.017 -46.219  24.148  1.00  0.00    -0.000 C 
BRANCH  18  19
ATOM     19  C   UNL     1     -51.741 -46.810  24.765  1.00  0.00    -0.000 C 
BRANCH  19  20
ATOM     20  C   UNL     1     -51.065 -47.858  23.861  1.00  0.00    -0.000 C 
BRANCH  20  21
ATOM     21  C   UNL     1     -51.303 -49.324  24.269  1.00  0.00    -0.000 C 
BRANCH  21  22
ATOM     22  C   UNL     1     -49.998 -50.078  24.576  1.00  0.00    -0.000 C 
BRANCH  22  23
ATOM     23  C   UNL     1     -48.836 -49.662  23.658  1.00  0.00    -0.000 C 
BRANCH  23  24
ATOM     24  C   UNL     1     -47.488 -49.439  24.370  1.00  0.00    -0.000 C 
BRANCH  24  25
ATOM     25  C   UNL     1     -47.199 -47.962  24.708  1.00  0.00    -0.003 C 
ATOM     26  C   UNL     1     -47.493 -47.027  23.536  1.00  0.00     0.004 C 
ENDBRANCH  24  25
ENDBRANCH  23  24
ENDBRANCH  22  23
ENDBRANCH  21  22
ENDBRANCH  20  21
ENDBRANCH  19  20
ENDBRANCH  18  19
ENDBRANCH  17  18
ENDBRANCH  16  17
ENDBRANCH  15  16
ENDBRANCH   1  15
TORSDOF 22
ENDMDL
MODEL 2
REMARK VINA RESULT:    -5.014      2.367      5.836
REMARK INTER + INTRA:         -14.830
REMARK INTER:                 -10.896
REMARK INTRA:                  -3.934
REMARK UNBOUND:                -3.367
REMARK SMILES CCCCCCCCCCCCCCCCCCCCCCCC(=O)[O-]
REMARK SMILES IDX 13 1 14 2 15 3 16 4 17 5 18 6 19 7 20 8 21 9 22 10 23 11
REMARK SMILES IDX 24 12 25 13 26 14 12 15 11 16 10 17 9 18 8 19 7 20 6 21 5 22
REMARK SMILES IDX 4 23 3 24 2 25 1 26
REMARK H PARENT
REMARK Flexibility Score: inf
ROOT
ATOM      1  C   UNL     1     -47.338 -49.180  16.661  1.00  0.00     0.000 C 
ENDROOT
BRANCH   1   2
ATOM      2  C   UNL     1     -47.957 -50.245  15.742  1.00  0.00     0.000 C 
BRANCH   2   3
ATOM      3  C   UNL     1     -48.828 -51.256  16.509  1.00  0.00     0.000 C 
BRANCH   3   4
ATOM      4  C   UNL     1     -48.520 -51.277  18.015  1.00  0.00     0.000 C 
BRANCH   4   5
ATOM      5  C   UNL     1     -49.782 -51.088  18.876  1.00  0.00     0.000 C 
BRANCH   5   6
ATOM      6  C   UNL     1     -50.980 -50.568  18.066  1.00  0.00     0.000 C 
BRANCH   6   7
ATOM      7  C   UNL     1     -52.077 -49.958  18.952  1.00  0.00     0.000 C 
BRANCH   7   8
ATOM      8  C   UNL     1     -52.076 -50.603  20.346  1.00  0.00     0.000 C 
BRANCH   8   9
ATOM      9  C   UNL     1     -52.831 -49.765  21.390  1.00  0.00     0.000 C 
BRANCH   9  10
ATOM     10  C   UNL     1     -52.874 -48.269  21.029  1.00  0.00     0.006 C 
BRANCH  10  11
ATOM     11  C   UNL     1     -54.082 -47.559  21.653  1.00  0.00     0.053 C 
BRANCH  11  12
ATOM     12  C   UNL     1     -55.191 -47.374  20.663  1.00  0.00     0.041 C 
ATOM     13  O   UNL     1     -55.570 -48.339  19.948  1.00  0.00    -0.550 OA
ATOM     14  O   UNL     1     -55.823 -46.142  20.547  1.00  0.00    -0.550 OA
ENDBRANCH  11  12
ENDBRANCH  10  11
ENDBRANCH   9  10
ENDBRANCH   8   9
ENDBRANCH   7   8
ENDBRANCH   6   7
ENDBRANCH   5   6
ENDBRANCH   4   5
ENDBRANCH   3   4
ENDBRANCH   2   3
ENDBRANCH   1   2
BRANCH   1  15
ATOM     15  C   UNL     1     -47.699 -47.748  16.227  1.00  0.00     0.000 C 
BRANCH  15  16
ATOM     16  C   UNL     1     -48.105 -46.856  17.411  1.00  0.00     0.000 C 
BRANCH  16  17
ATOM     17  C   UNL     1     -47.937 -47.556  18.768  1.00  0.00     0.000 C 
BRANCH  17  18
ATOM     18  C   UNL     1     -49.287 -47.717  19.476  1.00  0.00    -0.000 C 
BRANCH  18  19
ATOM     19  C   UNL     1     -49.199 -47.257  20.938  1.00  0.00    -0.000 C 
BRANCH  19  20
ATOM     20  C   UNL     1     -48.460 -48.261  21.842  1.00  0.00    -0.000 C 
BRANCH  20  21
ATOM     21  C   UNL     1     -49.270 -49.511  22.231  1.00  0.00    -0.000 C 
BRANCH  21  22
ATOM     22  C   UNL     1     -49.111 -49.889  23.714  1.00  0.00    -0.000 C 
BRANCH  22  23
ATOM     23  C   UNL     1     -50.421 -49.755  24.509  1.00  0.00    -0.000 C 
BRANCH  23  24
ATOM     24  C   UNL     1     -51.150 -48.408  24.345  1.00  0.00    -0.000 C 
BRANCH  24  25
ATOM     25  C   UNL     1     -50.632 -47.300  25.286  1.00  0.00    -0.003 C 
ATOM     26  C   UNL     1     -50.275 -46.017  24.535  1.00  0.00     0.004 C 
ENDBRANCH  24  25
ENDBRANCH  23  24
ENDBRANCH  22  23
ENDBRANCH  21  22
ENDBRANCH  20  21
ENDBRANCH  19  20
ENDBRANCH  18  19
ENDBRANCH  17  18
ENDBRANCH  16  17
ENDBRANCH  15  16
ENDBRANCH   1  15
TORSDOF 22
ENDMDL
MODEL 3
REMARK VINA RESULT:    -4.924      2.584      5.892
REMARK INTER + INTRA:         -14.625
REMARK INTER:                 -10.945
REMARK INTRA:                  -3.680
REMARK UNBOUND:                -3.367
REMARK SMILES CCCCCCCCCCCCCCCCCCCCCCCC(=O)[O-]
REMARK SMILES IDX 13 1 14 2 15 3 16 4 17 5 18 6 19 7 20 8 21 9 22 10 23 11
REMARK SMILES IDX 24 12 25 13 26 14 12 15 11 16 10 17 9 18 8 19 7 20 6 21 5 22
REMARK SMILES IDX 4 23 3 24 2 25 1 26
REMARK H PARENT
REMARK Flexibility Score: inf
ROOT
ATOM      1  C   UNL     1     -47.613 -47.687  15.761  1.00  0.00     0.000 C 
ENDROOT
BRANCH   1   2
ATOM      2  C   UNL     1     -47.415 -49.158  16.162  1.00  0.00     0.000 C 
BRANCH   2   3
ATOM      3  C   UNL     1     -48.341 -50.113  15.387  1.00  0.00     0.000 C 
BRANCH   3   4
ATOM      4  C   UNL     1     -48.847 -51.277  16.255  1.00  0.00     0.000 C 
BRANCH   4   5
ATOM      5  C   UNL     1     -48.033 -51.443  17.550  1.00  0.00     0.000 C 
BRANCH   5   6
ATOM      6  C   UNL     1     -48.899 -51.315  18.814  1.00  0.00     0.000 C 
BRANCH   6   7
ATOM      7  C   UNL     1     -50.231 -50.596  18.553  1.00  0.00     0.000 C 
BRANCH   7   8
ATOM      8  C   UNL     1     -51.113 -50.605  19.810  1.00  0.00     0.000 C 
BRANCH   8   9
ATOM      9  C   UNL     1     -52.353 -49.708  19.673  1.00  0.00     0.000 C 
BRANCH   9  10
ATOM     10  C   UNL     1     -52.635 -48.890  20.946  1.00  0.00     0.006 C 
BRANCH  10  11
ATOM     11  C   UNL     1     -53.982 -49.257  21.583  1.00  0.00     0.053 C 
BRANCH  11  12
ATOM     12  C   UNL     1     -54.974 -48.140  21.470  1.00  0.00     0.041 C 
ATOM     13  O   UNL     1     -54.579 -46.946  21.397  1.00  0.00    -0.550 OA
ATOM     14  O   UNL     1     -56.334 -48.419  21.421  1.00  0.00    -0.550 OA
ENDBRANCH  11  12
ENDBRANCH  10  11
ENDBRANCH   9  10
ENDBRANCH   8   9
ENDBRANCH   7   8
ENDBRANCH   6   7
ENDBRANCH   5   6
ENDBRANCH   4   5
ENDBRANCH   3   4
ENDBRANCH   2   3
ENDBRANCH   1   2
BRANCH   1  15
ATOM     15  C   UNL     1     -47.884 -46.780  16.974  1.00  0.00     0.000 C 
BRANCH  15  16
ATOM     16  C   UNL     1     -48.456 -47.552  18.174  1.00  0.00     0.000 C 
BRANCH  16  17
ATOM     17  C   UNL     1     -47.368 -48.012  19.156  1.00  0.00     0.000 C 
BRANCH  17  18
ATOM     18  C   UNL     1     -47.927 -48.138  20.578  1.00  0.00    -0.000 C 
BRANCH  18  19
ATOM     19  C   UNL     1     -49.299 -47.456  20.692  1.00  0.00    -0.000 C 
BRANCH  19  20
ATOM     20  C   UNL     1     -49.463 -46.650  21.993  1.00  0.00    -0.000 C 
BRANCH  20  21
ATOM     21  C   UNL     1     -50.847 -46.004  22.193  1.00  0.00    -0.000 C 
BRANCH  21  22
ATOM     22  C   UNL     1     -51.580 -46.536  23.437  1.00  0.00    -0.000 C 
BRANCH  22  23
ATOM     23  C   UNL     1     -50.731 -47.525  24.254  1.00  0.00    -0.000 C 
BRANCH  23  24
ATOM     24  C   UNL     1     -51.363 -48.917  24.455  1.00  0.00    -0.000 C 
BRANCH  24  25
ATOM     25  C   UNL     1     -50.335 -50.066  24.512  1.00  0.00    -0.003 C 
ATOM     26  C   UNL     1     -49.397 -50.070  23.305  1.00  0.00     0.004 C 
ENDBRANCH  24  25
ENDBRANCH  23  24
ENDBRANCH  22  23
ENDBRANCH  21  22
ENDBRANCH  20  21
ENDBRANCH  19  20
ENDBRANCH  18  19
ENDBRANCH  17  18
ENDBRANCH  16  17
ENDBRANCH  15  16
ENDBRANCH   1  15
TORSDOF 22
ENDMDL
MODEL 4
REMARK VINA RESULT:    -4.906      2.922      6.814
REMARK INTER + INTRA:         -14.582
REMARK INTER:                 -10.868
REMARK INTRA:                  -3.715
REMARK UNBOUND:                -3.367
REMARK SMILES CCCCCCCCCCCCCCCCCCCCCCCC(=O)[O-]
REMARK SMILES IDX 13 1 14 2 15 3 16 4 17 5 18 6 19 7 20 8 21 9 22 10 23 11
REMARK SMILES IDX 24 12 25 13 26 14 12 15 11 16 10 17 9 18 8 19 7 20 6 21 5 22
REMARK SMILES IDX 4 23 3 24 2 25 1 26
REMARK H PARENT
REMARK Flexibility Score: inf
ROOT
ATOM      1  C   UNL     1     -48.586 -51.043  16.730  1.00  0.00     0.000 C 
ENDROOT
BRANCH   1   2
ATOM      2  C   UNL     1     -48.109 -49.894  15.826  1.00  0.00     0.000 C 
BRANCH   2   3
ATOM      3  C   UNL     1     -47.347 -48.805  16.604  1.00  0.00     0.000 C 
BRANCH   3   4
ATOM      4  C   UNL     1     -47.012 -49.232  18.042  1.00  0.00     0.000 C 
BRANCH   4   5
ATOM      5  C   UNL     1     -47.389 -48.159  19.078  1.00  0.00     0.000 C 
BRANCH   5   6
ATOM      6  C   UNL     1     -48.762 -47.525  18.801  1.00  0.00     0.000 C 
BRANCH   6   7
ATOM      7  C   UNL     1     -49.747 -47.708  19.966  1.00  0.00     0.000 C 
BRANCH   7   8
ATOM      8  C   UNL     1     -48.998 -48.002  21.274  1.00  0.00     0.000 C 
BRANCH   8   9
ATOM      9  C   UNL     1     -49.018 -46.815  22.251  1.00  0.00     0.000 C 
BRANCH   9  10
ATOM     10  C   UNL     1     -49.520 -47.211  23.651  1.00  0.00     0.006 C 
BRANCH  10  11
ATOM     11  C   UNL     1     -49.484 -48.729  23.871  1.00  0.00     0.053 C 
BRANCH  11  12
ATOM     12  C   UNL     1     -48.395 -49.129  24.819  1.00  0.00     0.041 C 
ATOM     13  O   UNL     1     -48.198 -48.469  25.873  1.00  0.00    -0.550 OA
ATOM     14  O   UNL     1     -47.613 -50.245  24.550  1.00  0.00    -0.550 OA
ENDBRANCH  11  12
ENDBRANCH  10  11
ENDBRANCH   9  10
ENDBRANCH   8   9
ENDBRANCH   7   8
ENDBRANCH   6   7
ENDBRANCH   5   6
ENDBRANCH   4   5
ENDBRANCH   3   4
ENDBRANCH   2   3
ENDBRANCH   1   2
BRANCH   1  15
ATOM     15  C   UNL     1     -49.946 -50.748  17.386  1.00  0.00     0.000 C 
BRANCH  15  16
ATOM     16  C   UNL     1     -49.975 -51.115  18.879  1.00  0.00     0.000 C 
BRANCH  16  17
ATOM     17  C   UNL     1     -51.395 -51.109  19.465  1.00  0.00     0.000 C 
BRANCH  17  18
ATOM     18  C   UNL     1     -52.255 -50.022  18.811  1.00  0.00    -0.000 C 
BRANCH  18  19
ATOM     19  C   UNL     1     -53.035 -49.227  19.869  1.00  0.00    -0.000 C 
BRANCH  19  20
ATOM     20  C   UNL     1     -52.698 -49.652  21.309  1.00  0.00    -0.000 C 
BRANCH  20  21
ATOM     21  C   UNL     1     -52.931 -48.572  22.382  1.00  0.00    -0.000 C 
BRANCH  21  22
ATOM     22  C   UNL     1     -53.216 -47.185  21.781  1.00  0.00    -0.000 C 
BRANCH  22  23
ATOM     23  C   UNL     1     -54.604 -46.642  22.160  1.00  0.00    -0.000 C 
BRANCH  23  24
ATOM     24  C   UNL     1     -55.593 -46.502  20.986  1.00  0.00    -0.000 C 
BRANCH  24  25
ATOM     25  C   UNL     1     -56.844 -47.395  21.116  1.00  0.00    -0.003 C 
ATOM     26  C   UNL     1     -56.492 -48.875  21.264  1.00  0.00     0.004 C 
ENDBRANCH  24  25
ENDBRANCH  23  24
ENDBRANCH  22  23
ENDBRANCH  21  22
ENDBRANCH  20  21
ENDBRANCH  19  20
ENDBRANCH  18  19
ENDBRANCH  17  18
ENDBRANCH  16  17
ENDBRANCH  15  16
ENDBRANCH   1  15
TORSDOF 22
ENDMDL
MODEL 5
REMARK VINA RESULT:    -4.837      1.381      4.768
REMARK INTER + INTRA:         -14.424
REMARK INTER:                 -11.360
REMARK INTRA:                  -3.064
REMARK UNBOUND:                -3.367
REMARK SMILES CCCCCCCCCCCCCCCCCCCCCCCC(=O)[O-]
REMARK SMILES IDX 13 1 14 2 15 3 16 4 17 5 18 6 19 7 20 8 21 9 22 10 23 11
REMARK SMILES IDX 24 12 25 13 26 14 12 15 11 16 10 17 9 18 8 19 7 20 6 21 5 22
REMARK SMILES IDX 4 23 3 24 2 25 1 26
REMARK H PARENT
REMARK Flexibility Score: inf
ROOT
ATOM      1  C   UNL     1     -49.345 -46.769  21.996  1.00  0.00     0.000 C 
ENDROOT
BRANCH   1   2
ATOM      2  C   UNL     1     -49.283 -47.454  20.621  1.00  0.00     0.000 C 
BRANCH   2   3
ATOM      3  C   UNL     1     -47.954 -48.194  20.387  1.00  0.00     0.000 C 
BRANCH   3   4
ATOM      4  C   UNL     1     -47.443 -48.048  18.944  1.00  0.00     0.000 C 
BRANCH   4   5
ATOM      5  C   UNL     1     -48.440 -47.302  18.039  1.00  0.00     0.000 C 
BRANCH   5   6
ATOM      6  C   UNL     1     -47.864 -47.000  16.646  1.00  0.00     0.000 C 
BRANCH   6   7
ATOM      7  C   UNL     1     -47.085 -48.186  16.055  1.00  0.00     0.000 C 
BRANCH   7   8
ATOM      8  C   UNL     1     -48.028 -49.357  15.741  1.00  0.00     0.000 C 
BRANCH   8   9
ATOM      9  C   UNL     1     -47.500 -50.702  16.264  1.00  0.00     0.000 C 
BRANCH   9  10
ATOM     10  C   UNL     1     -48.614 -51.589  16.846  1.00  0.00     0.006 C 
BRANCH  10  11
ATOM     11  C   UNL     1     -48.801 -51.367  18.353  1.00  0.00     0.053 C 
BRANCH  11  12
ATOM     12  C   UNL     1     -50.135 -50.758  18.665  1.00  0.00     0.041 C 
ATOM     13  O   UNL     1     -50.880 -50.355  17.734  1.00  0.00    -0.550 OA
ATOM     14  O   UNL     1     -50.564 -50.658  19.982  1.00  0.00    -0.550 OA
ENDBRANCH  11  12
ENDBRANCH  10  11
ENDBRANCH   9  10
ENDBRANCH   8   9
ENDBRANCH   7   8
ENDBRANCH   6   7
ENDBRANCH   5   6
ENDBRANCH   4   5
ENDBRANCH   3   4
ENDBRANCH   2   3
ENDBRANCH   1   2
BRANCH   1  15
ATOM     15  C   UNL     1     -48.114 -47.081  22.864  1.00  0.00     0.000 C 
BRANCH  15  16
ATOM     16  C   UNL     1     -48.466 -47.894  24.121  1.00  0.00     0.000 C 
BRANCH  16  17
ATOM     17  C   UNL     1     -48.395 -49.410  23.886  1.00  0.00     0.000 C 
BRANCH  17  18
ATOM     18  C   UNL     1     -49.792 -49.997  23.654  1.00  0.00    -0.000 C 
BRANCH  18  19
ATOM     19  C   UNL     1     -50.773 -49.528  24.738  1.00  0.00    -0.000 C 
BRANCH  19  20
ATOM     20  C   UNL     1     -51.986 -48.772  24.165  1.00  0.00    -0.000 C 
BRANCH  20  21
ATOM     21  C   UNL     1     -52.070 -47.283  24.548  1.00  0.00    -0.000 C 
BRANCH  21  22
ATOM     22  C   UNL     1     -53.308 -46.584  23.959  1.00  0.00    -0.000 C 
BRANCH  22  23
ATOM     23  C   UNL     1     -53.254 -46.463  22.426  1.00  0.00    -0.000 C 
BRANCH  23  24
ATOM     24  C   UNL     1     -54.247 -47.363  21.665  1.00  0.00    -0.000 C 
BRANCH  24  25
ATOM     25  C   UNL     1     -55.714 -46.898  21.769  1.00  0.00    -0.003 C 
ATOM     26  C   UNL     1     -56.098 -45.923  20.657  1.00  0.00     0.004 C 
ENDBRANCH  24  25
ENDBRANCH  23  24
ENDBRANCH  22  23
ENDBRANCH  21  22
ENDBRANCH  20  21
ENDBRANCH  19  20
ENDBRANCH  18  19
ENDBRANCH  17  18
ENDBRANCH  16  17
ENDBRANCH  15  16
ENDBRANCH   1  15
TORSDOF 22
ENDMDL
MODEL 6
REMARK VINA RESULT:    -4.827      8.351     12.469
REMARK INTER + INTRA:         -14.402
REMARK INTER:                 -10.467
REMARK INTRA:                  -3.935
REMARK UNBOUND:                -3.367
REMARK SMILES CCCCCCCCCCCCCCCCCCCCCCCC(=O)[O-]
REMARK SMILES IDX 13 1 14 2 15 3 16 4 17 5 18 6 19 7 20 8 21 9 22 10 23 11
REMARK SMILES IDX 24 12 25 13 26 14 12 15 11 16 10 17 9 18 8 19 7 20 6 21 5 22
REMARK SMILES IDX 4 23 3 24 2 25 1 26
REMARK H PARENT
REMARK Flexibility Score: inf
ROOT
ATOM      1  C   UNL     1     -46.996 -49.308  32.954  1.00  0.00     0.000 C 
ENDROOT
BRANCH   1   2
ATOM      2  C   UNL     1     -46.165 -50.501  33.454  1.00  0.00     0.000 C 
BRANCH   2   3
ATOM      3  C   UNL     1     -46.224 -51.706  32.498  1.00  0.00     0.000 C 
BRANCH   3   4
ATOM      4  C   UNL     1     -44.885 -51.963  31.789  1.00  0.00     0.000 C 
BRANCH   4   5
ATOM      5  C   UNL     1     -43.693 -51.339  32.536  1.00  0.00     0.000 C 
BRANCH   5   6
ATOM      6  C   UNL     1     -42.587 -50.852  31.586  1.00  0.00     0.000 C 
BRANCH   6   7
ATOM      7  C   UNL     1     -42.654 -51.520  30.204  1.00  0.00     0.000 C 
BRANCH   7   8
ATOM      8  C   UNL     1     -41.749 -50.791  29.200  1.00  0.00     0.000 C 
BRANCH   8   9
ATOM      9  C   UNL     1     -41.129 -49.509  29.781  1.00  0.00     0.000 C 
BRANCH   9  10
ATOM     10  C   UNL     1     -40.294 -48.735  28.746  1.00  0.00     0.006 C 
BRANCH  10  11
ATOM     11  C   UNL     1     -39.508 -47.581  29.383  1.00  0.00     0.053 C 
BRANCH  11  12
ATOM     12  C   UNL     1     -38.051 -47.644  29.040  1.00  0.00     0.041 C 
ATOM     13  O   UNL     1     -37.564 -48.687  28.532  1.00  0.00    -0.550 OA
ATOM     14  O   UNL     1     -37.236 -46.540  29.259  1.00  0.00    -0.550 OA
ENDBRANCH  11  12
ENDBRANCH  10  11
ENDBRANCH   9  10
ENDBRANCH   8   9
ENDBRANCH   7   8
ENDBRANCH   6   7
ENDBRANCH   5   6
ENDBRANCH   4   5
ENDBRANCH   3   4
ENDBRANCH   2   3
ENDBRANCH   1   2
BRANCH   1  15
ATOM     15  C   UNL     1     -46.655 -48.921  31.505  1.00  0.00     0.000 C 
BRANCH  15  16
ATOM     16  C   UNL     1     -45.344 -48.125  31.397  1.00  0.00     0.000 C 
BRANCH  16  17
ATOM     17  C   UNL     1     -44.661 -48.288  30.032  1.00  0.00     0.000 C 
BRANCH  17  18
ATOM     18  C   UNL     1     -45.338 -49.388  29.205  1.00  0.00    -0.000 C 
BRANCH  18  19
ATOM     19  C   UNL     1     -44.772 -49.431  27.778  1.00  0.00    -0.000 C 
BRANCH  19  20
ATOM     20  C   UNL     1     -43.966 -48.171  27.412  1.00  0.00    -0.000 C 
BRANCH  20  21
ATOM     21  C   UNL     1     -42.970 -48.345  26.251  1.00  0.00    -0.000 C 
BRANCH  21  22
ATOM     22  C   UNL     1     -43.408 -47.613  24.972  1.00  0.00    -0.000 C 
BRANCH  22  23
ATOM     23  C   UNL     1     -44.396 -48.431  24.123  1.00  0.00    -0.000 C 
BRANCH  23  24
ATOM     24  C   UNL     1     -45.811 -47.831  24.007  1.00  0.00    -0.000 C 
BRANCH  24  25
ATOM     25  C   UNL     1     -46.850 -48.504  24.927  1.00  0.00    -0.003 C 
ATOM     26  C   UNL     1     -46.867 -50.025  24.774  1.00  0.00     0.004 C 
ENDBRANCH  24  25
ENDBRANCH  23  24
ENDBRANCH  22  23
ENDBRANCH  21  22
ENDBRANCH  20  21
ENDBRANCH  19  20
ENDBRANCH  18  19
ENDBRANCH  17  18
ENDBRANCH  16  17
ENDBRANCH  15  16
ENDBRANCH   1  15
TORSDOF 22
ENDMDL
MODEL 7
REMARK VINA RESULT:    -4.767      2.738      6.133
REMARK INTER + INTRA:         -14.265
REMARK INTER:                 -10.673
REMARK INTRA:                  -3.593
REMARK UNBOUND:                -3.367
REMARK SMILES CCCCCCCCCCCCCCCCCCCCCCCC(=O)[O-]
REMARK SMILES IDX 13 1 14 2 15 3 16 4 17 5 18 6 19 7 20 8 21 9 22 10 23 11
REMARK SMILES IDX 24 12 25 13 26 14 12 15 11 16 10 17 9 18 8 19 7 20 6 21 5 22
REMARK SMILES IDX 4 23 3 24 2 25 1 26
REMARK H PARENT
REMARK Flexibility Score: inf
ROOT
ATOM      1  C   UNL     1     -48.121 -51.434  17.786  1.00  0.00     0.000 C 
ENDROOT
BRANCH   1   2
ATOM      2  C   UNL     1     -48.015 -50.459  16.602  1.00  0.00     0.000 C 
BRANCH   2   3
ATOM      3  C   UNL     1     -47.116 -49.248  16.910  1.00  0.00     0.000 C 
BRANCH   3   4
ATOM      4  C   UNL     1     -47.763 -47.914  16.504  1.00  0.00     0.000 C 
BRANCH   4   5
ATOM      5  C   UNL     1     -48.138 -47.048  17.719  1.00  0.00     0.000 C 
BRANCH   5   6
ATOM      6  C   UNL     1     -47.880 -47.760  19.057  1.00  0.00     0.000 C 
BRANCH   6   7
ATOM      7  C   UNL     1     -49.092 -47.710  20.000  1.00  0.00     0.000 C 
BRANCH   7   8
ATOM      8  C   UNL     1     -48.740 -48.303  21.373  1.00  0.00     0.000 C 
BRANCH   8   9
ATOM      9  C   UNL     1     -48.178 -47.255  22.347  1.00  0.00     0.000 C 
BRANCH   9  10
ATOM     10  C   UNL     1     -47.105 -47.836  23.286  1.00  0.00     0.006 C 
BRANCH  10  11
ATOM     11  C   UNL     1     -47.686 -48.241  24.647  1.00  0.00     0.053 C 
BRANCH  11  12
ATOM     12  C   UNL     1     -47.923 -49.718  24.734  1.00  0.00     0.041 C 
ATOM     13  O   UNL     1     -46.953 -50.509  24.872  1.00  0.00    -0.550 OA
ATOM     14  O   UNL     1     -49.218 -50.219  24.687  1.00  0.00    -0.550 OA
ENDBRANCH  11  12
ENDBRANCH  10  11
ENDBRANCH   9  10
ENDBRANCH   8   9
ENDBRANCH   7   8
ENDBRANCH   6   7
ENDBRANCH   5   6
ENDBRANCH   4   5
ENDBRANCH   3   4
ENDBRANCH   2   3
ENDBRANCH   1   2
BRANCH   1  15
ATOM     15  C   UNL     1     -49.336 -51.139  18.683  1.00  0.00     0.000 C 
BRANCH  15  16
ATOM     16  C   UNL     1     -50.462 -50.409  17.932  1.00  0.00     0.000 C 
BRANCH  16  17
ATOM     17  C   UNL     1     -51.855 -50.728  18.496  1.00  0.00     0.000 C 
BRANCH  17  18
ATOM     18  C   UNL     1     -51.783 -51.047  19.994  1.00  0.00    -0.000 C 
BRANCH  18  19
ATOM     19  C   UNL     1     -52.052 -49.792  20.837  1.00  0.00    -0.000 C 
BRANCH  19  20
ATOM     20  C   UNL     1     -53.353 -49.070  20.442  1.00  0.00    -0.000 C 
BRANCH  20  21
ATOM     21  C   UNL     1     -54.269 -48.680  21.618  1.00  0.00    -0.000 C 
BRANCH  21  22
ATOM     22  C   UNL     1     -54.415 -47.158  21.783  1.00  0.00    -0.000 C 
BRANCH  22  23
ATOM     23  C   UNL     1     -53.615 -46.606  22.976  1.00  0.00    -0.000 C 
BRANCH  23  24
ATOM     24  C   UNL     1     -52.083 -46.669  22.820  1.00  0.00    -0.000 C 
BRANCH  24  25
ATOM     25  C   UNL     1     -51.387 -47.569  23.861  1.00  0.00    -0.003 C 
ATOM     26  C   UNL     1     -51.136 -46.845  25.184  1.00  0.00     0.004 C 
ENDBRANCH  24  25
ENDBRANCH  23  24
ENDBRANCH  22  23
ENDBRANCH  21  22
ENDBRANCH  20  21
ENDBRANCH  19  20
ENDBRANCH  18  19
ENDBRANCH  17  18
ENDBRANCH  16  17
ENDBRANCH  15  16
ENDBRANCH   1  15
TORSDOF 22
ENDMDL
MODEL 8
REMARK VINA RESULT:    -4.756      2.476      6.934
REMARK INTER + INTRA:         -14.241
REMARK INTER:                 -10.429
REMARK INTRA:                  -3.812
REMARK UNBOUND:                -3.367
REMARK SMILES CCCCCCCCCCCCCCCCCCCCCCCC(=O)[O-]
REMARK SMILES IDX 13 1 14 2 15 3 16 4 17 5 18 6 19 7 20 8 21 9 22 10 23 11
REMARK SMILES IDX 24 12 25 13 26 14 12 15 11 16 10 17 9 18 8 19 7 20 6 21 5 22
REMARK SMILES IDX 4 23 3 24 2 25 1 26
REMARK H PARENT
REMARK Flexibility Score: inf
ROOT
ATOM      1  C   UNL     1     -47.163 -47.488  23.808  1.00  0.00     0.000 C 
ENDROOT
BRANCH   1   2
ATOM      2  C   UNL     1     -46.527 -48.757  24.398  1.00  0.00     0.000 C 
BRANCH   2   3
ATOM      3  C   UNL     1     -47.494 -49.954  24.411  1.00  0.00     0.000 C 
BRANCH   3   4
ATOM      4  C   UNL     1     -48.821 -49.634  25.117  1.00  0.00     0.000 C 
BRANCH   4   5
ATOM      5  C   UNL     1     -50.042 -50.169  24.348  1.00  0.00     0.000 C 
BRANCH   5   6
ATOM      6  C   UNL     1     -51.211 -49.172  24.324  1.00  0.00     0.000 C 
BRANCH   6   7
ATOM      7  C   UNL     1     -50.844 -47.810  24.933  1.00  0.00     0.000 C 
BRANCH   7   8
ATOM      8  C   UNL     1     -51.732 -46.697  24.357  1.00  0.00     0.000 C 
BRANCH   8   9
ATOM      9  C   UNL     1     -53.008 -47.238  23.693  1.00  0.00     0.000 C 
BRANCH   9  10
ATOM     10  C   UNL     1     -53.038 -46.986  22.176  1.00  0.00     0.006 C 
BRANCH  10  11
ATOM     11  C   UNL     1     -53.809 -48.078  21.423  1.00  0.00     0.053 C 
BRANCH  11  12
ATOM     12  C   UNL     1     -55.290 -47.862  21.492  1.00  0.00     0.041 C 
ATOM     13  O   UNL     1     -56.080 -48.833  21.354  1.00  0.00    -0.550 OA
ATOM     14  O   UNL     1     -55.798 -46.592  21.734  1.00  0.00    -0.550 OA
ENDBRANCH  11  12
ENDBRANCH  10  11
ENDBRANCH   9  10
ENDBRANCH   8   9
ENDBRANCH   7   8
ENDBRANCH   6   7
ENDBRANCH   5   6
ENDBRANCH   4   5
ENDBRANCH   3   4
ENDBRANCH   2   3
ENDBRANCH   1   2
BRANCH   1  15
ATOM     15  C   UNL     1     -47.539 -47.655  22.325  1.00  0.00     0.000 C 
BRANCH  15  16
ATOM     16  C   UNL     1     -48.899 -47.023  21.985  1.00  0.00     0.000 C 
BRANCH  16  17
ATOM     17  C   UNL     1     -49.586 -47.701  20.790  1.00  0.00     0.000 C 
BRANCH  17  18
ATOM     18  C   UNL     1     -49.342 -49.214  20.801  1.00  0.00    -0.000 C 
BRANCH  18  19
ATOM     19  C   UNL     1     -50.658 -49.985  20.620  1.00  0.00    -0.000 C 
BRANCH  19  20
ATOM     20  C   UNL     1     -50.723 -50.762  19.292  1.00  0.00    -0.000 C 
BRANCH  20  21
ATOM     21  C   UNL     1     -49.962 -50.118  18.119  1.00  0.00    -0.000 C 
BRANCH  21  22
ATOM     22  C   UNL     1     -49.100 -51.126  17.340  1.00  0.00    -0.000 C 
BRANCH  22  23
ATOM     23  C   UNL     1     -47.705 -50.577  16.990  1.00  0.00    -0.000 C 
BRANCH  23  24
ATOM     24  C   UNL     1     -47.403 -49.169  17.538  1.00  0.00    -0.000 C 
BRANCH  24  25
ATOM     25  C   UNL     1     -47.321 -48.080  16.448  1.00  0.00    -0.003 C 
ATOM     26  C   UNL     1     -47.949 -46.760  16.893  1.00  0.00     0.004 C 
ENDBRANCH  24  25
ENDBRANCH  23  24
ENDBRANCH  22  23
ENDBRANCH  21  22
ENDBRANCH  20  21
ENDBRANCH  19  20
ENDBRANCH  18  19
ENDBRANCH  17  18
ENDBRANCH  16  17
ENDBRANCH  15  16
ENDBRANCH   1  15
TORSDOF 22
ENDMDL
MODEL 9
REMARK VINA RESULT:    -4.734      1.197      6.120
REMARK INTER + INTRA:         -14.189
REMARK INTER:                 -10.733
REMARK INTRA:                  -3.456
REMARK UNBOUND:                -3.367
REMARK SMILES CCCCCCCCCCCCCCCCCCCCCCCC(=O)[O-]
REMARK SMILES IDX 13 1 14 2 15 3 16 4 17 5 18 6 19 7 20 8 21 9 22 10 23 11
REMARK SMILES IDX 24 12 25 13 26 14 12 15 11 16 10 17 9 18 8 19 7 20 6 21 5 22
REMARK SMILES IDX 4 23 3 24 2 25 1 26
REMARK H PARENT
REMARK Flexibility Score: inf
ROOT
ATOM      1  C   UNL     1     -47.869 -49.601  24.448  1.00  0.00     0.000 C 
ENDROOT
BRANCH   1   2
ATOM      2  C   UNL     1     -49.276 -50.122  24.112  1.00  0.00     0.000 C 
BRANCH   2   3
ATOM      3  C   UNL     1     -50.335 -49.671  25.134  1.00  0.00     0.000 C 
BRANCH   3   4
ATOM      4  C   UNL     1     -51.544 -48.991  24.471  1.00  0.00     0.000 C 
BRANCH   4   5
ATOM      5  C   UNL     1     -51.562 -47.469  24.698  1.00  0.00     0.000 C 
BRANCH   5   6
ATOM      6  C   UNL     1     -52.802 -46.794  24.091  1.00  0.00     0.000 C 
BRANCH   6   7
ATOM      7  C   UNL     1     -52.851 -46.906  22.559  1.00  0.00     0.000 C 
BRANCH   7   8
ATOM      8  C   UNL     1     -54.211 -47.446  22.094  1.00  0.00     0.000 C 
BRANCH   8   9
ATOM      9  C   UNL     1     -54.119 -48.858  21.496  1.00  0.00     0.000 C 
BRANCH   9  10
ATOM     10  C   UNL     1     -52.676 -49.253  21.131  1.00  0.00     0.006 C 
BRANCH  10  11
ATOM     11  C   UNL     1     -52.445 -49.260  19.614  1.00  0.00     0.053 C 
BRANCH  11  12
ATOM     12  C   UNL     1     -52.050 -50.618  19.118  1.00  0.00     0.041 C 
ATOM     13  O   UNL     1     -51.945 -51.580  19.922  1.00  0.00    -0.550 OA
ATOM     14  O   UNL     1     -51.823 -50.825  17.763  1.00  0.00    -0.550 OA
ENDBRANCH  11  12
ENDBRANCH  10  11
ENDBRANCH   9  10
ENDBRANCH   8   9
ENDBRANCH   7   8
ENDBRANCH   6   7
ENDBRANCH   5   6
ENDBRANCH   4   5
ENDBRANCH   3   4
ENDBRANCH   2   3
ENDBRANCH   1   2
BRANCH   1  15
ATOM     15  C   UNL     1     -47.897 -48.451  25.469  1.00  0.00     0.000 C 
BRANCH  15  16
ATOM     16  C   UNL     1     -47.639 -47.079  24.824  1.00  0.00     0.000 C 
BRANCH  16  17
ATOM     17  C   UNL     1     -47.483 -47.161  23.298  1.00  0.00     0.000 C 
BRANCH  17  18
ATOM     18  C   UNL     1     -48.636 -46.442  22.587  1.00  0.00    -0.000 C 
BRANCH  18  19
ATOM     19  C   UNL     1     -49.482 -47.431  21.772  1.00  0.00    -0.000 C 
BRANCH  19  20
ATOM     20  C   UNL     1     -49.123 -47.438  20.275  1.00  0.00    -0.000 C 
BRANCH  20  21
ATOM     21  C   UNL     1     -47.985 -48.396  19.879  1.00  0.00    -0.000 C 
BRANCH  21  22
ATOM     22  C   UNL     1     -48.488 -49.653  19.150  1.00  0.00    -0.000 C 
BRANCH  22  23
ATOM     23  C   UNL     1     -47.573 -50.078  17.988  1.00  0.00    -0.000 C 
BRANCH  23  24
ATOM     24  C   UNL     1     -48.301 -50.403  16.669  1.00  0.00    -0.000 C 
BRANCH  24  25
ATOM     25  C   UNL     1     -47.753 -49.636  15.448  1.00  0.00    -0.003 C 
ATOM     26  C   UNL     1     -47.378 -48.193  15.786  1.00  0.00     0.004 C 
ENDBRANCH  24  25
ENDBRANCH  23  24
ENDBRANCH  22  23
ENDBRANCH  21  22
ENDBRANCH  20  21
ENDBRANCH  19  20
ENDBRANCH  18  19
ENDBRANCH  17  18
ENDBRANCH  16  17
ENDBRANCH  15  16
ENDBRANCH   1  15
TORSDOF 22
ENDMDL
