MODEL 1
REMARK VINA RESULT:    -5.471      0.000      0.000
REMARK INTER + INTRA:          -5.791
REMARK INTER:                  -5.791
REMARK INTRA:                   0.000
REMARK UNBOUND:                 0.000
REMARK SMILES O=c1ccc2cc(O)c(O)cc2o1
REMARK SMILES IDX 4 1 3 2 2 3 1 4 13 5 12 6 11 7 9 8 7 9 6 10 5 11 8 12 10 14
REMARK H PARENT 8 13 10 15
REMARK Flexibility Score: inf
ROOT
ATOM      1  C   UNL     1     -45.453   3.824 117.841  1.00  0.00     0.019 A 
ATOM      2  C   UNL     1     -45.657   3.065 118.993  1.00  0.00     0.094 A 
ATOM      3  C   UNL     1     -46.737   2.177 119.038  1.00  0.00     0.336 A 
ATOM      4  O   UNL     1     -46.938   1.484 120.069  1.00  0.00    -0.246 OA
ATOM      5  O   UNL     1     -47.556   2.059 117.995  1.00  0.00    -0.423 OA
ATOM      6  C   UNL     1     -47.398   2.765 116.877  1.00  0.00     0.142 A 
ATOM      7  C   UNL     1     -48.290   2.598 115.814  1.00  0.00     0.098 A 
ATOM      8  C   UNL     1     -48.127   3.338 114.633  1.00  0.00     0.161 A 
ATOM      9  C   UNL     1     -47.066   4.248 114.517  1.00  0.00     0.158 A 
ATOM     10  C   UNL     1     -46.168   4.419 115.580  1.00  0.00     0.062 A 
ATOM     11  C   UNL     1     -46.330   3.681 116.760  1.00  0.00     0.022 A 
ENDROOT
BRANCH   9  12
ATOM     12  O   UNL     1     -46.913   4.979 113.341  1.00  0.00    -0.504 OA
ATOM     13  H   UNL     1     -46.060   5.491 113.141  1.00  0.00     0.293 HD
ENDBRANCH   9  12
BRANCH   8  14
ATOM     14  O   UNL     1     -49.015   3.174 113.572  1.00  0.00    -0.504 OA
ATOM     15  H   UNL     1     -49.805   3.795 113.441  1.00  0.00     0.293 HD
ENDBRANCH   8  14
TORSDOF 2
ENDMDL
MODEL 2
REMARK VINA RESULT:    -5.431      2.005      2.675
REMARK INTER + INTRA:          -5.749
REMARK INTER:                  -5.749
REMARK INTRA:                   0.000
REMARK UNBOUND:                 0.000
REMARK SMILES O=c1ccc2cc(O)c(O)cc2o1
REMARK SMILES IDX 4 1 3 2 2 3 1 4 13 5 12 6 11 7 9 8 7 9 6 10 5 11 8 12 10 14
REMARK H PARENT 8 13 10 15
REMARK Flexibility Score: inf
ROOT
ATOM      1  C   UNL     1     -47.576   5.551 115.834  1.00  0.00     0.019 A 
ATOM      2  C   UNL     1     -47.131   5.853 117.121  1.00  0.00     0.094 A 
ATOM      3  C   UNL     1     -46.963   4.814 118.043  1.00  0.00     0.336 A 
ATOM      4  O   UNL     1     -46.563   5.068 119.208  1.00  0.00    -0.246 OA
ATOM      5  O   UNL     1     -47.224   3.557 117.695  1.00  0.00    -0.423 OA
ATOM      6  C   UNL     1     -47.651   3.224 116.478  1.00  0.00     0.142 A 
ATOM      7  C   UNL     1     -47.908   1.885 116.170  1.00  0.00     0.098 A 
ATOM      8  C   UNL     1     -48.357   1.529 114.889  1.00  0.00     0.161 A 
ATOM      9  C   UNL     1     -48.549   2.518 113.913  1.00  0.00     0.158 A 
ATOM     10  C   UNL     1     -48.291   3.863 114.217  1.00  0.00     0.062 A 
ATOM     11  C   UNL     1     -47.843   4.220 115.496  1.00  0.00     0.022 A 
ENDROOT
BRANCH   9  12
ATOM     12  O   UNL     1     -48.995   2.156 112.644  1.00  0.00    -0.504 OA
ATOM     13  H   UNL     1     -49.869   2.507 112.269  1.00  0.00     0.293 HD
ENDBRANCH   9  12
BRANCH   8  14
ATOM     14  O   UNL     1     -48.615   0.195 114.579  1.00  0.00    -0.504 OA
ATOM     15  H   UNL     1     -48.731  -0.113 113.621  1.00  0.00     0.293 HD
ENDBRANCH   8  14
TORSDOF 2
ENDMDL
MODEL 3
REMARK VINA RESULT:    -5.395      2.397      4.274
REMARK INTER + INTRA:          -5.710
REMARK INTER:                  -5.710
REMARK INTRA:                   0.000
REMARK UNBOUND:                 0.000
REMARK SMILES O=c1ccc2cc(O)c(O)cc2o1
REMARK SMILES IDX 4 1 3 2 2 3 1 4 13 5 12 6 11 7 9 8 7 9 6 10 5 11 8 12 10 14
REMARK H PARENT 8 13 10 15
REMARK Flexibility Score: inf
ROOT
ATOM      1  C   UNL     1     -46.277   3.646 116.105  1.00  0.00     0.019 A 
ATOM      2  C   UNL     1     -46.923   4.785 115.623  1.00  0.00     0.094 A 
ATOM      3  C   UNL     1     -48.052   4.633 114.812  1.00  0.00     0.336 A 
ATOM      4  O   UNL     1     -48.648   5.648 114.368  1.00  0.00    -0.246 OA
ATOM      5  O   UNL     1     -48.503   3.419 114.506  1.00  0.00    -0.423 OA
ATOM      6  C   UNL     1     -47.916   2.306 114.943  1.00  0.00     0.142 A 
ATOM      7  C   UNL     1     -48.435   1.057 114.589  1.00  0.00     0.098 A 
ATOM      8  C   UNL     1     -47.822  -0.118 115.048  1.00  0.00     0.161 A 
ATOM      9  C   UNL     1     -46.684  -0.043 115.865  1.00  0.00     0.158 A 
ATOM     10  C   UNL     1     -46.160   1.208 116.225  1.00  0.00     0.062 A 
ATOM     11  C   UNL     1     -46.772   2.382 115.767  1.00  0.00     0.022 A 
ENDROOT
BRANCH   9  12
ATOM     12  O   UNL     1     -46.081  -1.215 116.316  1.00  0.00    -0.504 OA
ATOM     13  H   UNL     1     -45.133  -1.220 116.674  1.00  0.00     0.293 HD
ENDBRANCH   9  12
BRANCH   8  14
ATOM     14  O   UNL     1     -48.336  -1.364 114.696  1.00  0.00    -0.504 OA
ATOM     15  H   UNL     1     -47.743  -2.098 114.326  1.00  0.00     0.293 HD
ENDBRANCH   8  14
TORSDOF 2
ENDMDL
MODEL 4
REMARK VINA RESULT:    -5.381      1.822      2.631
REMARK INTER + INTRA:          -5.695
REMARK INTER:                  -5.695
REMARK INTRA:                   0.000
REMARK UNBOUND:                 0.000
REMARK SMILES O=c1ccc2cc(O)c(O)cc2o1
REMARK SMILES IDX 4 1 3 2 2 3 1 4 13 5 12 6 11 7 9 8 7 9 6 10 5 11 8 12 10 14
REMARK H PARENT 8 13 10 15
REMARK Flexibility Score: inf
ROOT
ATOM      1  C   UNL     1     -46.545   1.594 117.701  1.00  0.00     0.019 A 
ATOM      2  C   UNL     1     -45.284   1.869 118.230  1.00  0.00     0.094 A 
ATOM      3  C   UNL     1     -44.596   3.004 117.789  1.00  0.00     0.336 A 
ATOM      4  O   UNL     1     -43.457   3.269 118.255  1.00  0.00    -0.246 OA
ATOM      5  O   UNL     1     -45.138   3.809 116.878  1.00  0.00    -0.423 OA
ATOM      6  C   UNL     1     -46.338   3.583 116.346  1.00  0.00     0.142 A 
ATOM      7  C   UNL     1     -46.856   4.463 115.393  1.00  0.00     0.098 A 
ATOM      8  C   UNL     1     -48.121   4.231 114.831  1.00  0.00     0.161 A 
ATOM      9  C   UNL     1     -48.869   3.111 115.225  1.00  0.00     0.158 A 
ATOM     10  C   UNL     1     -48.353   2.225 116.182  1.00  0.00     0.062 A 
ATOM     11  C   UNL     1     -47.090   2.456 116.744  1.00  0.00     0.022 A 
ENDROOT
BRANCH   9  12
ATOM     12  O   UNL     1     -50.123   2.887 114.661  1.00  0.00    -0.504 OA
ATOM     13  H   UNL     1     -50.639   2.033 114.837  1.00  0.00     0.293 HD
ENDBRANCH   9  12
BRANCH   8  14
ATOM     14  O   UNL     1     -48.640   5.106 113.879  1.00  0.00    -0.504 OA
ATOM     15  H   UNL     1     -49.076   5.982 114.146  1.00  0.00     0.293 HD
ENDBRANCH   8  14
TORSDOF 2
ENDMDL
MODEL 5
REMARK VINA RESULT:    -5.374      1.899      2.869
REMARK INTER + INTRA:          -5.688
REMARK INTER:                  -5.688
REMARK INTRA:                   0.000
REMARK UNBOUND:                 0.000
REMARK SMILES O=c1ccc2cc(O)c(O)cc2o1
REMARK SMILES IDX 4 1 3 2 2 3 1 4 13 5 12 6 11 7 9 8 7 9 6 10 5 11 8 12 10 14
REMARK H PARENT 8 13 10 15
REMARK Flexibility Score: inf
ROOT
ATOM      1  C   UNL     1     -47.875   1.094 115.100  1.00  0.00     0.019 A 
ATOM      2  C   UNL     1     -47.164   0.296 115.997  1.00  0.00     0.094 A 
ATOM      3  C   UNL     1     -46.403   0.912 116.996  1.00  0.00     0.336 A 
ATOM      4  O   UNL     1     -45.755   0.209 117.814  1.00  0.00    -0.246 OA
ATOM      5  O   UNL     1     -46.359   2.239 117.088  1.00  0.00    -0.423 OA
ATOM      6  C   UNL     1     -47.021   3.037 116.253  1.00  0.00     0.142 A 
ATOM      7  C   UNL     1     -46.938   4.425 116.398  1.00  0.00     0.098 A 
ATOM      8  C   UNL     1     -47.634   5.270 115.522  1.00  0.00     0.161 A 
ATOM      9  C   UNL     1     -48.418   4.723 114.495  1.00  0.00     0.158 A 
ATOM     10  C   UNL     1     -48.506   3.331 114.345  1.00  0.00     0.062 A 
ATOM     11  C   UNL     1     -47.811   2.486 115.220  1.00  0.00     0.022 A 
ENDROOT
BRANCH   9  12
ATOM     12  O   UNL     1     -49.106   5.570 113.629  1.00  0.00    -0.504 OA
ATOM     13  H   UNL     1     -49.952   6.049 113.916  1.00  0.00     0.293 HD
ENDBRANCH   9  12
BRANCH   8  14
ATOM     14  O   UNL     1     -47.553   6.654 115.664  1.00  0.00    -0.504 OA
ATOM     15  H   UNL     1     -48.384   7.230 115.732  1.00  0.00     0.293 HD
ENDBRANCH   8  14
TORSDOF 2
ENDMDL
MODEL 6
REMARK VINA RESULT:    -5.354      8.744      9.623
REMARK INTER + INTRA:          -5.667
REMARK INTER:                  -5.667
REMARK INTRA:                   0.000
REMARK UNBOUND:                 0.000
REMARK SMILES O=c1ccc2cc(O)c(O)cc2o1
REMARK SMILES IDX 4 1 3 2 2 3 1 4 13 5 12 6 11 7 9 8 7 9 6 10 5 11 8 12 10 14
REMARK H PARENT 8 13 10 15
REMARK Flexibility Score: inf
ROOT
ATOM      1  C   UNL     1     -36.124   0.475 118.123  1.00  0.00     0.019 A 
ATOM      2  C   UNL     1     -35.831   1.399 119.126  1.00  0.00     0.094 A 
ATOM      3  C   UNL     1     -36.704   2.471 119.337  1.00  0.00     0.336 A 
ATOM      4  O   UNL     1     -36.457   3.315 120.237  1.00  0.00    -0.246 OA
ATOM      5  O   UNL     1     -37.798   2.605 118.591  1.00  0.00    -0.423 OA
ATOM      6  C   UNL     1     -38.115   1.747 117.624  1.00  0.00     0.142 A 
ATOM      7  C   UNL     1     -39.278   1.939 116.873  1.00  0.00     0.098 A 
ATOM      8  C   UNL     1     -39.618   1.037 115.853  1.00  0.00     0.161 A 
ATOM      9  C   UNL     1     -38.788  -0.062 115.584  1.00  0.00     0.158 A 
ATOM     10  C   UNL     1     -37.620  -0.260 116.335  1.00  0.00     0.062 A 
ATOM     11  C   UNL     1     -37.280   0.641 117.354  1.00  0.00     0.022 A 
ENDROOT
BRANCH   9  12
ATOM     12  O   UNL     1     -39.132  -0.952 114.569  1.00  0.00    -0.504 OA
ATOM     13  H   UNL     1     -39.650  -0.650 113.752  1.00  0.00     0.293 HD
ENDBRANCH   9  12
BRANCH   8  14
ATOM     14  O   UNL     1     -40.776   1.226 115.103  1.00  0.00    -0.504 OA
ATOM     15  H   UNL     1     -41.480   0.501 115.022  1.00  0.00     0.293 HD
ENDBRANCH   8  14
TORSDOF 2
ENDMDL
MODEL 7
REMARK VINA RESULT:    -5.312      9.102      9.967
REMARK INTER + INTRA:          -5.622
REMARK INTER:                  -5.622
REMARK INTRA:                   0.000
REMARK UNBOUND:                 0.000
REMARK SMILES O=c1ccc2cc(O)c(O)cc2o1
REMARK SMILES IDX 4 1 3 2 2 3 1 4 13 5 12 6 11 7 9 8 7 9 6 10 5 11 8 12 10 14
REMARK H PARENT 8 13 10 15
REMARK Flexibility Score: inf
ROOT
ATOM      1  C   UNL     1     -37.411   2.227 118.922  1.00  0.00     0.019 A 
ATOM      2  C   UNL     1     -36.253   1.817 119.581  1.00  0.00     0.094 A 
ATOM      3  C   UNL     1     -35.575   0.683 119.120  1.00  0.00     0.336 A 
ATOM      4  O   UNL     1     -34.528   0.297 119.701  1.00  0.00    -0.246 OA
ATOM      5  O   UNL     1     -36.031   0.007 118.068  1.00  0.00    -0.423 OA
ATOM      6  C   UNL     1     -37.133   0.364 117.410  1.00  0.00     0.142 A 
ATOM      7  C   UNL     1     -37.564  -0.385 116.311  1.00  0.00     0.098 A 
ATOM      8  C   UNL     1     -38.723  -0.013 115.615  1.00  0.00     0.161 A 
ATOM      9  C   UNL     1     -39.455   1.114 116.020  1.00  0.00     0.158 A 
ATOM     10  C   UNL     1     -39.026   1.869 117.122  1.00  0.00     0.062 A 
ATOM     11  C   UNL     1     -37.869   1.498 117.819  1.00  0.00     0.022 A 
ENDROOT
BRANCH   9  12
ATOM     12  O   UNL     1     -40.605   1.475 115.323  1.00  0.00    -0.504 OA
ATOM     13  H   UNL     1     -41.056   2.371 115.471  1.00  0.00     0.293 HD
ENDBRANCH   9  12
BRANCH   8  14
ATOM     14  O   UNL     1     -39.156  -0.757 114.519  1.00  0.00    -0.504 OA
ATOM     15  H   UNL     1     -38.571  -1.470 114.098  1.00  0.00     0.293 HD
ENDBRANCH   8  14
TORSDOF 2
ENDMDL
MODEL 8
REMARK VINA RESULT:    -5.290      9.146     10.310
REMARK INTER + INTRA:          -5.599
REMARK INTER:                  -5.599
REMARK INTRA:                   0.000
REMARK UNBOUND:                 0.000
REMARK SMILES O=c1ccc2cc(O)c(O)cc2o1
REMARK SMILES IDX 4 1 3 2 2 3 1 4 13 5 12 6 11 7 9 8 7 9 6 10 5 11 8 12 10 14
REMARK H PARENT 8 13 10 15
REMARK Flexibility Score: inf
ROOT
ATOM      1  C   UNL     1     -35.901   1.817 118.019  1.00  0.00     0.019 A 
ATOM      2  C   UNL     1     -36.531   0.573 118.035  1.00  0.00     0.094 A 
ATOM      3  C   UNL     1     -37.867   0.493 118.442  1.00  0.00     0.336 A 
ATOM      4  O   UNL     1     -38.452  -0.621 118.463  1.00  0.00    -0.246 OA
ATOM      5  O   UNL     1     -38.526   1.589 118.809  1.00  0.00    -0.423 OA
ATOM      6  C   UNL     1     -37.963   2.796 118.810  1.00  0.00     0.142 A 
ATOM      7  C   UNL     1     -38.705   3.913 119.206  1.00  0.00     0.098 A 
ATOM      8  C   UNL     1     -38.118   5.187 119.207  1.00  0.00     0.161 A 
ATOM      9  C   UNL     1     -36.781   5.343 118.811  1.00  0.00     0.158 A 
ATOM     10  C   UNL     1     -36.032   4.226 118.412  1.00  0.00     0.062 A 
ATOM     11  C   UNL     1     -36.618   2.953 118.411  1.00  0.00     0.022 A 
ENDROOT
BRANCH   9  12
ATOM     12  O   UNL     1     -36.205   6.612 118.816  1.00  0.00    -0.504 OA
ATOM     13  H   UNL     1     -36.772   7.452 118.798  1.00  0.00     0.293 HD
ENDBRANCH   9  12
BRANCH   8  14
ATOM     14  O   UNL     1     -38.855   6.302 119.601  1.00  0.00    -0.504 OA
ATOM     15  H   UNL     1     -39.091   6.464 120.573  1.00  0.00     0.293 HD
ENDBRANCH   8  14
TORSDOF 2
ENDMDL
MODEL 9
REMARK VINA RESULT:    -5.289     10.239     12.300
REMARK INTER + INTRA:          -5.599
REMARK INTER:                  -5.599
REMARK INTRA:                   0.000
REMARK UNBOUND:                 0.000
REMARK SMILES O=c1ccc2cc(O)c(O)cc2o1
REMARK SMILES IDX 4 1 3 2 2 3 1 4 13 5 12 6 11 7 9 8 7 9 6 10 5 11 8 12 10 14
REMARK H PARENT 8 13 10 15
REMARK Flexibility Score: inf
ROOT
ATOM      1  C   UNL     1     -35.513   1.064 118.604  1.00  0.00     0.019 A 
ATOM      2  C   UNL     1     -36.465   1.686 117.797  1.00  0.00     0.094 A 
ATOM      3  C   UNL     1     -37.778   1.204 117.802  1.00  0.00     0.336 A 
ATOM      4  O   UNL     1     -38.652   1.752 117.081  1.00  0.00    -0.246 OA
ATOM      5  O   UNL     1     -38.112   0.166 118.566  1.00  0.00    -0.423 OA
ATOM      6  C   UNL     1     -37.234  -0.458 119.349  1.00  0.00     0.142 A 
ATOM      7  C   UNL     1     -37.642  -1.543 120.130  1.00  0.00     0.098 A 
ATOM      8  C   UNL     1     -36.722  -2.203 120.958  1.00  0.00     0.161 A 
ATOM      9  C   UNL     1     -35.387  -1.774 121.004  1.00  0.00     0.158 A 
ATOM     10  C   UNL     1     -34.972  -0.685 120.223  1.00  0.00     0.062 A 
ATOM     11  C   UNL     1     -35.890  -0.026 119.396  1.00  0.00     0.022 A 
ENDROOT
BRANCH   9  12
ATOM     12  O   UNL     1     -34.479  -2.436 121.829  1.00  0.00    -0.504 OA
ATOM     13  H   UNL     1     -34.754  -2.805 122.732  1.00  0.00     0.293 HD
ENDBRANCH   9  12
BRANCH   8  14
ATOM     14  O   UNL     1     -37.125  -3.285 121.738  1.00  0.00    -0.504 OA
ATOM     15  H   UNL     1     -37.340  -4.185 121.324  1.00  0.00     0.293 HD
ENDBRANCH   8  14
TORSDOF 2
ENDMDL
