MODEL 1
REMARK VINA RESULT:    -4.936      0.000      0.000
REMARK INTER + INTRA:         -17.349
REMARK INTER:                 -13.017
REMARK INTRA:                  -4.332
REMARK UNBOUND:                -4.332
REMARK SMILES CCCCCCCCCCCCCCCCCCCCCCCCCCCCCC(=O)[O-]
REMARK SMILES IDX 16 1 17 2 18 3 19 4 20 5 21 6 22 7 23 8 24 9 25 10 26 11
REMARK SMILES IDX 27 12 28 13 29 14 30 15 31 16 32 17 15 18 14 19 13 20 12 21
REMARK SMILES IDX 11 22 10 23 9 24 8 25 7 26 6 27 5 28 4 29 3 30 2 31 1 32
REMARK H PARENT
REMARK Flexibility Score: inf
ROOT
ATOM      1  C   UNL     1      -5.214   6.972  15.729  1.00  0.00     0.000 C 
ENDROOT
BRANCH   1   2
ATOM      2  C   UNL     1      -6.325   7.994  16.027  1.00  0.00     0.000 C 
BRANCH   2   3
ATOM      3  C   UNL     1      -7.731   7.381  15.936  1.00  0.00     0.000 C 
BRANCH   3   4
ATOM      4  C   UNL     1      -8.412   7.645  14.582  1.00  0.00     0.000 C 
BRANCH   4   5
ATOM      5  C   UNL     1      -8.986   6.364  13.957  1.00  0.00     0.000 C 
BRANCH   5   6
ATOM      6  C   UNL     1      -8.040   5.159  14.109  1.00  0.00     0.000 C 
BRANCH   6   7
ATOM      7  C   UNL     1      -7.392   4.749  12.777  1.00  0.00     0.000 C 
BRANCH   7   8
ATOM      8  C   UNL     1      -5.855   4.728  12.857  1.00  0.00     0.000 C 
BRANCH   8   9
ATOM      9  C   UNL     1      -5.207   5.905  12.112  1.00  0.00     0.000 C 
BRANCH   9  10
ATOM     10  C   UNL     1      -6.157   6.544  11.084  1.00  0.00     0.000 C 
BRANCH  10  11
ATOM     11  C   UNL     1      -6.116   8.082  11.118  1.00  0.00     0.000 C 
BRANCH  11  12
ATOM     12  C   UNL     1      -5.612   8.635  12.464  1.00  0.00     0.000 C 
BRANCH  12  13
ATOM     13  C   UNL     1      -4.438   9.613  12.301  1.00  0.00     0.006 C 
BRANCH  13  14
ATOM     14  C   UNL     1      -3.229   8.972  11.608  1.00  0.00     0.053 C 
BRANCH  14  15
ATOM     15  C   UNL     1      -2.080   8.855  12.560  1.00  0.00     0.041 C 
ATOM     16  O   UNL     1      -0.979   9.404  12.293  1.00  0.00    -0.550 OA
ATOM     17  O   UNL     1      -2.214   8.111  13.727  1.00  0.00    -0.550 OA
ENDBRANCH  14  15
ENDBRANCH  13  14
ENDBRANCH  12  13
ENDBRANCH  11  12
ENDBRANCH  10  11
ENDBRANCH   9  10
ENDBRANCH   8   9
ENDBRANCH   7   8
ENDBRANCH   6   7
ENDBRANCH   5   6
ENDBRANCH   4   5
ENDBRANCH   3   4
ENDBRANCH   2   3
ENDBRANCH   1   2
BRANCH   1  18
ATOM     18  C   UNL     1      -4.882   6.095  16.949  1.00  0.00     0.000 C 
BRANCH  18  19
ATOM     19  C   UNL     1      -5.774   4.843  17.034  1.00  0.00     0.000 C 
BRANCH  19  20
ATOM     20  C   UNL     1      -5.257   3.687  16.164  1.00  0.00     0.000 C 
BRANCH  20  21
ATOM     21  C   UNL     1      -4.340   2.725  16.943  1.00  0.00     0.000 C 
BRANCH  21  22
ATOM     22  C   UNL     1      -2.865   2.842  16.511  1.00  0.00     0.000 C 
BRANCH  22  23
ATOM     23  C   UNL     1      -2.620   3.851  15.374  1.00  0.00     0.000 C 
BRANCH  23  24
ATOM     24  C   UNL     1      -1.225   4.499  15.443  1.00  0.00    -0.000 C 
BRANCH  24  25
ATOM     25  C   UNL     1      -0.670   4.530  16.885  1.00  0.00    -0.000 C 
BRANCH  25  26
ATOM     26  C   UNL     1       0.014   5.857  17.257  1.00  0.00    -0.000 C 
BRANCH  26  27
ATOM     27  C   UNL     1      -0.003   6.131  18.769  1.00  0.00    -0.000 C 
BRANCH  27  28
ATOM     28  C   UNL     1       0.546   7.523  19.135  1.00  0.00    -0.000 C 
BRANCH  28  29
ATOM     29  C   UNL     1       0.373   7.930  20.609  1.00  0.00    -0.000 C 
BRANCH  29  30
ATOM     30  C   UNL     1      -0.462   6.924  21.419  1.00  0.00    -0.000 C 
BRANCH  30  31
ATOM     31  C   UNL     1      -0.025   6.848  22.891  1.00  0.00    -0.003 C 
ATOM     32  C   UNL     1       1.471   6.581  23.051  1.00  0.00     0.004 C 
ENDBRANCH  30  31
ENDBRANCH  29  30
ENDBRANCH  28  29
ENDBRANCH  27  28
ENDBRANCH  26  27
ENDBRANCH  25  26
ENDBRANCH  24  25
ENDBRANCH  23  24
ENDBRANCH  22  23
ENDBRANCH  21  22
ENDBRANCH  20  21
ENDBRANCH  19  20
ENDBRANCH  18  19
ENDBRANCH   1  18
TORSDOF 28
ENDMDL
MODEL 2
REMARK VINA RESULT:    -4.760      1.273      2.230
REMARK INTER + INTRA:         -16.883
REMARK INTER:                 -12.458
REMARK INTRA:                  -4.425
REMARK UNBOUND:                -4.332
REMARK SMILES CCCCCCCCCCCCCCCCCCCCCCCCCCCCCC(=O)[O-]
REMARK SMILES IDX 16 1 17 2 18 3 19 4 20 5 21 6 22 7 23 8 24 9 25 10 26 11
REMARK SMILES IDX 27 12 28 13 29 14 30 15 31 16 32 17 15 18 14 19 13 20 12 21
REMARK SMILES IDX 11 22 10 23 9 24 8 25 7 26 6 27 5 28 4 29 3 30 2 31 1 32
REMARK H PARENT
REMARK Flexibility Score: inf
ROOT
ATOM      1  C   UNL     1      -4.916   6.799  15.781  1.00  0.00     0.000 C 
ENDROOT
BRANCH   1   2
ATOM      2  C   UNL     1      -5.978   7.911  15.733  1.00  0.00     0.000 C 
BRANCH   2   3
ATOM      3  C   UNL     1      -7.411   7.364  15.822  1.00  0.00     0.000 C 
BRANCH   3   4
ATOM      4  C   UNL     1      -8.268   7.731  14.599  1.00  0.00     0.000 C 
BRANCH   4   5
ATOM      5  C   UNL     1      -8.962   6.506  13.982  1.00  0.00     0.000 C 
BRANCH   5   6
ATOM      6  C   UNL     1      -8.136   5.218  14.144  1.00  0.00     0.000 C 
BRANCH   6   7
ATOM      7  C   UNL     1      -7.449   4.793  12.836  1.00  0.00     0.000 C 
BRANCH   7   8
ATOM      8  C   UNL     1      -5.914   4.796  12.954  1.00  0.00     0.000 C 
BRANCH   8   9
ATOM      9  C   UNL     1      -5.255   5.877  12.083  1.00  0.00     0.000 C 
BRANCH   9  10
ATOM     10  C   UNL     1      -6.271   6.613  11.192  1.00  0.00     0.000 C 
BRANCH  10  11
ATOM     11  C   UNL     1      -6.003   8.126  11.116  1.00  0.00     0.000 C 
BRANCH  11  12
ATOM     12  C   UNL     1      -5.481   8.706  12.444  1.00  0.00     0.000 C 
BRANCH  12  13
ATOM     13  C   UNL     1      -4.125   9.411  12.291  1.00  0.00     0.006 C 
BRANCH  13  14
ATOM     14  C   UNL     1      -2.975   8.622  12.929  1.00  0.00     0.053 C 
BRANCH  14  15
ATOM     15  C   UNL     1      -1.930   9.554  13.458  1.00  0.00     0.041 C 
ATOM     16  O   UNL     1      -2.248  10.473  14.257  1.00  0.00    -0.550 OA
ATOM     17  O   UNL     1      -0.609   9.428  13.043  1.00  0.00    -0.550 OA
ENDBRANCH  14  15
ENDBRANCH  13  14
ENDBRANCH  12  13
ENDBRANCH  11  12
ENDBRANCH  10  11
ENDBRANCH   9  10
ENDBRANCH   8   9
ENDBRANCH   7   8
ENDBRANCH   6   7
ENDBRANCH   5   6
ENDBRANCH   4   5
ENDBRANCH   3   4
ENDBRANCH   2   3
ENDBRANCH   1   2
BRANCH   1  18
ATOM     18  C   UNL     1      -4.953   6.010  17.101  1.00  0.00     0.000 C 
BRANCH  18  19
ATOM     19  C   UNL     1      -5.636   4.638  16.948  1.00  0.00     0.000 C 
BRANCH  19  20
ATOM     20  C   UNL     1      -4.837   3.674  16.057  1.00  0.00     0.000 C 
BRANCH  20  21
ATOM     21  C   UNL     1      -3.953   2.712  16.871  1.00  0.00     0.000 C 
BRANCH  21  22
ATOM     22  C   UNL     1      -2.456   2.870  16.544  1.00  0.00     0.000 C 
BRANCH  22  23
ATOM     23  C   UNL     1      -2.159   3.902  15.439  1.00  0.00     0.000 C 
BRANCH  23  24
ATOM     24  C   UNL     1      -1.015   4.862  15.812  1.00  0.00    -0.000 C 
BRANCH  24  25
ATOM     25  C   UNL     1      -0.738   4.872  17.332  1.00  0.00    -0.000 C 
BRANCH  25  26
ATOM     26  C   UNL     1       0.152   6.040  17.791  1.00  0.00    -0.000 C 
BRANCH  26  27
ATOM     27  C   UNL     1      -0.051   6.395  19.274  1.00  0.00    -0.000 C 
BRANCH  27  28
ATOM     28  C   UNL     1       0.893   7.510  19.761  1.00  0.00    -0.000 C 
BRANCH  28  29
ATOM     29  C   UNL     1       0.811   8.830  18.975  1.00  0.00    -0.000 C 
BRANCH  29  30
ATOM     30  C   UNL     1       1.848   8.924  17.843  1.00  0.00    -0.000 C 
BRANCH  30  31
ATOM     31  C   UNL     1       1.233   9.410  16.521  1.00  0.00    -0.003 C 
ATOM     32  C   UNL     1       1.841  10.725  16.035  1.00  0.00     0.004 C 
ENDBRANCH  30  31
ENDBRANCH  29  30
ENDBRANCH  28  29
ENDBRANCH  27  28
ENDBRANCH  26  27
ENDBRANCH  25  26
ENDBRANCH  24  25
ENDBRANCH  23  24
ENDBRANCH  22  23
ENDBRANCH  21  22
ENDBRANCH  20  21
ENDBRANCH  19  20
ENDBRANCH  18  19
ENDBRANCH   1  18
TORSDOF 28
ENDMDL
MODEL 3
REMARK VINA RESULT:    -4.632      2.570      7.569
REMARK INTER + INTRA:         -16.547
REMARK INTER:                 -12.363
REMARK INTRA:                  -4.184
REMARK UNBOUND:                -4.332
REMARK SMILES CCCCCCCCCCCCCCCCCCCCCCCCCCCCCC(=O)[O-]
REMARK SMILES IDX 16 1 17 2 18 3 19 4 20 5 21 6 22 7 23 8 24 9 25 10 26 11
REMARK SMILES IDX 27 12 28 13 29 14 30 15 31 16 32 17 15 18 14 19 13 20 12 21
REMARK SMILES IDX 11 22 10 23 9 24 8 25 7 26 6 27 5 28 4 29 3 30 2 31 1 32
REMARK H PARENT
REMARK Flexibility Score: inf
ROOT
ATOM      1  C   UNL     1      -5.904   7.438  16.985  1.00  0.00     0.000 C 
ENDROOT
BRANCH   1   2
ATOM      2  C   UNL     1      -5.324   7.803  15.607  1.00  0.00     0.000 C 
BRANCH   2   3
ATOM      3  C   UNL     1      -4.210   6.844  15.163  1.00  0.00     0.000 C 
BRANCH   3   4
ATOM      4  C   UNL     1      -4.711   5.745  14.210  1.00  0.00     0.000 C 
BRANCH   4   5
ATOM      5  C   UNL     1      -4.167   4.357  14.580  1.00  0.00     0.000 C 
BRANCH   5   6
ATOM      6  C   UNL     1      -4.593   3.914  15.991  1.00  0.00     0.000 C 
BRANCH   6   7
ATOM      7  C   UNL     1      -3.553   3.000  16.659  1.00  0.00     0.000 C 
BRANCH   7   8
ATOM      8  C   UNL     1      -2.140   3.204  16.083  1.00  0.00     0.000 C 
BRANCH   8   9
ATOM      9  C   UNL     1      -1.217   3.977  17.038  1.00  0.00     0.000 C 
BRANCH   9  10
ATOM     10  C   UNL     1      -0.734   5.309  16.437  1.00  0.00     0.000 C 
BRANCH  10  11
ATOM     11  C   UNL     1       0.299   6.019  17.329  1.00  0.00     0.000 C 
BRANCH  11  12
ATOM     12  C   UNL     1      -0.003   5.861  18.831  1.00  0.00     0.000 C 
BRANCH  12  13
ATOM     13  C   UNL     1       0.185   7.169  19.614  1.00  0.00     0.006 C 
BRANCH  13  14
ATOM     14  C   UNL     1      -0.081   7.001  21.116  1.00  0.00     0.053 C 
BRANCH  14  15
ATOM     15  C   UNL     1       1.199   7.080  21.887  1.00  0.00     0.041 C 
ATOM     16  O   UNL     1       1.282   6.564  23.031  1.00  0.00    -0.550 OA
ATOM     17  O   UNL     1       2.293   7.754  21.355  1.00  0.00    -0.550 OA
ENDBRANCH  14  15
ENDBRANCH  13  14
ENDBRANCH  12  13
ENDBRANCH  11  12
ENDBRANCH  10  11
ENDBRANCH   9  10
ENDBRANCH   8   9
ENDBRANCH   7   8
ENDBRANCH   6   7
ENDBRANCH   5   6
ENDBRANCH   4   5
ENDBRANCH   3   4
ENDBRANCH   2   3
ENDBRANCH   1   2
BRANCH   1  18
ATOM     18  C   UNL     1      -7.379   7.008  16.904  1.00  0.00     0.000 C 
BRANCH  18  19
ATOM     19  C   UNL     1      -8.025   7.371  15.554  1.00  0.00     0.000 C 
BRANCH  19  20
ATOM     20  C   UNL     1      -9.361   6.648  15.322  1.00  0.00     0.000 C 
BRANCH  20  21
ATOM     21  C   UNL     1      -9.357   5.798  14.038  1.00  0.00     0.000 C 
BRANCH  21  22
ATOM     22  C   UNL     1      -8.121   4.884  13.942  1.00  0.00     0.000 C 
BRANCH  22  23
ATOM     23  C   UNL     1      -7.549   4.745  12.518  1.00  0.00     0.000 C 
BRANCH  23  24
ATOM     24  C   UNL     1      -7.517   6.082  11.756  1.00  0.00    -0.000 C 
BRANCH  24  25
ATOM     25  C   UNL     1      -6.198   6.277  10.977  1.00  0.00    -0.000 C 
BRANCH  25  26
ATOM     26  C   UNL     1      -5.854   7.750  10.698  1.00  0.00    -0.000 C 
BRANCH  26  27
ATOM     27  C   UNL     1      -5.844   8.609  11.973  1.00  0.00    -0.000 C 
BRANCH  27  28
ATOM     28  C   UNL     1      -4.485   9.284  12.234  1.00  0.00    -0.000 C 
BRANCH  28  29
ATOM     29  C   UNL     1      -3.306   8.723  11.419  1.00  0.00    -0.000 C 
BRANCH  29  30
ATOM     30  C   UNL     1      -1.964   9.393  11.761  1.00  0.00    -0.000 C 
BRANCH  30  31
ATOM     31  C   UNL     1      -1.976  10.058  13.147  1.00  0.00    -0.003 C 
ATOM     32  C   UNL     1      -0.803   9.620  14.023  1.00  0.00     0.004 C 
ENDBRANCH  30  31
ENDBRANCH  29  30
ENDBRANCH  28  29
ENDBRANCH  27  28
ENDBRANCH  26  27
ENDBRANCH  25  26
ENDBRANCH  24  25
ENDBRANCH  23  24
ENDBRANCH  22  23
ENDBRANCH  21  22
ENDBRANCH  20  21
ENDBRANCH  19  20
ENDBRANCH  18  19
ENDBRANCH   1  18
TORSDOF 28
ENDMDL
MODEL 4
REMARK VINA RESULT:    -4.621      2.388      7.949
REMARK INTER + INTRA:         -16.516
REMARK INTER:                 -12.694
REMARK INTRA:                  -3.822
REMARK UNBOUND:                -4.332
REMARK SMILES CCCCCCCCCCCCCCCCCCCCCCCCCCCCCC(=O)[O-]
REMARK SMILES IDX 16 1 17 2 18 3 19 4 20 5 21 6 22 7 23 8 24 9 25 10 26 11
REMARK SMILES IDX 27 12 28 13 29 14 30 15 31 16 32 17 15 18 14 19 13 20 12 21
REMARK SMILES IDX 11 22 10 23 9 24 8 25 7 26 6 27 5 28 4 29 3 30 2 31 1 32
REMARK H PARENT
REMARK Flexibility Score: inf
ROOT
ATOM      1  C   UNL     1       0.734   7.180  20.207  1.00  0.00     0.000 C 
ENDROOT
BRANCH   1   2
ATOM      2  C   UNL     1       1.340   8.510  19.724  1.00  0.00     0.000 C 
BRANCH   2   3
ATOM      3  C   UNL     1       0.906   8.872  18.296  1.00  0.00     0.000 C 
BRANCH   3   4
ATOM      4  C   UNL     1       2.088   8.952  17.314  1.00  0.00     0.000 C 
BRANCH   4   5
ATOM      5  C   UNL     1       1.907  10.065  16.270  1.00  0.00     0.000 C 
BRANCH   5   6
ATOM      6  C   UNL     1       0.426  10.366  15.982  1.00  0.00     0.000 C 
BRANCH   6   7
ATOM      7  C   UNL     1      -0.001   9.920  14.574  1.00  0.00     0.000 C 
BRANCH   7   8
ATOM      8  C   UNL     1      -1.150  10.777  14.013  1.00  0.00     0.000 C 
BRANCH   8   9
ATOM      9  C   UNL     1      -2.305   9.929  13.457  1.00  0.00     0.000 C 
BRANCH   9  10
ATOM     10  C   UNL     1      -2.053   8.419  13.614  1.00  0.00     0.000 C 
BRANCH  10  11
ATOM     11  C   UNL     1      -3.354   7.617  13.784  1.00  0.00     0.000 C 
BRANCH  11  12
ATOM     12  C   UNL     1      -4.581   8.516  14.021  1.00  0.00     0.000 C 
BRANCH  12  13
ATOM     13  C   UNL     1      -5.651   7.842  14.894  1.00  0.00     0.006 C 
BRANCH  13  14
ATOM     14  C   UNL     1      -5.723   8.438  16.305  1.00  0.00     0.053 C 
BRANCH  14  15
ATOM     15  C   UNL     1      -6.747   7.720  17.126  1.00  0.00     0.041 C 
ATOM     16  O   UNL     1      -7.607   6.990  16.568  1.00  0.00    -0.550 OA
ATOM     17  O   UNL     1      -6.774   7.883  18.507  1.00  0.00    -0.550 OA
ENDBRANCH  14  15
ENDBRANCH  13  14
ENDBRANCH  12  13
ENDBRANCH  11  12
ENDBRANCH  10  11
ENDBRANCH   9  10
ENDBRANCH   8   9
ENDBRANCH   7   8
ENDBRANCH   6   7
ENDBRANCH   5   6
ENDBRANCH   4   5
ENDBRANCH   3   4
ENDBRANCH   2   3
ENDBRANCH   1   2
BRANCH   1  18
ATOM     18  C   UNL     1      -0.324   6.631  19.234  1.00  0.00     0.000 C 
BRANCH  18  19
ATOM     19  C   UNL     1       0.299   5.794  18.101  1.00  0.00     0.000 C 
BRANCH  19  20
ATOM     20  C   UNL     1      -0.671   4.744  17.538  1.00  0.00     0.000 C 
BRANCH  20  21
ATOM     21  C   UNL     1      -1.248   5.145  16.168  1.00  0.00     0.000 C 
BRANCH  21  22
ATOM     22  C   UNL     1      -1.995   3.986  15.482  1.00  0.00     0.000 C 
BRANCH  22  23
ATOM     23  C   UNL     1      -3.280   3.546  16.211  1.00  0.00     0.000 C 
BRANCH  23  24
ATOM     24  C   UNL     1      -4.353   4.648  16.243  1.00  0.00    -0.000 C 
BRANCH  24  25
ATOM     25  C   UNL     1      -5.549   4.322  15.320  1.00  0.00    -0.000 C 
BRANCH  25  26
ATOM     26  C   UNL     1      -5.198   4.341  13.823  1.00  0.00    -0.000 C 
BRANCH  26  27
ATOM     27  C   UNL     1      -6.398   4.711  12.936  1.00  0.00    -0.000 C 
BRANCH  27  28
ATOM     28  C   UNL     1      -7.720   4.802  13.719  1.00  0.00    -0.000 C 
BRANCH  28  29
ATOM     29  C   UNL     1      -8.661   5.942  13.290  1.00  0.00    -0.000 C 
BRANCH  29  30
ATOM     30  C   UNL     1      -8.039   6.872  12.235  1.00  0.00    -0.000 C 
BRANCH  30  31
ATOM     31  C   UNL     1      -8.352   8.354  12.500  1.00  0.00    -0.003 C 
ATOM     32  C   UNL     1      -9.363   8.551  13.628  1.00  0.00     0.004 C 
ENDBRANCH  30  31
ENDBRANCH  29  30
ENDBRANCH  28  29
ENDBRANCH  27  28
ENDBRANCH  26  27
ENDBRANCH  25  26
ENDBRANCH  24  25
ENDBRANCH  23  24
ENDBRANCH  22  23
ENDBRANCH  21  22
ENDBRANCH  20  21
ENDBRANCH  19  20
ENDBRANCH  18  19
ENDBRANCH   1  18
TORSDOF 28
ENDMDL
MODEL 5
REMARK VINA RESULT:    -4.568      1.862      3.715
REMARK INTER + INTRA:         -16.377
REMARK INTER:                 -12.633
REMARK INTRA:                  -3.744
REMARK UNBOUND:                -4.332
REMARK SMILES CCCCCCCCCCCCCCCCCCCCCCCCCCCCCC(=O)[O-]
REMARK SMILES IDX 16 1 17 2 18 3 19 4 20 5 21 6 22 7 23 8 24 9 25 10 26 11
REMARK SMILES IDX 27 12 28 13 29 14 30 15 31 16 32 17 15 18 14 19 13 20 12 21
REMARK SMILES IDX 11 22 10 23 9 24 8 25 7 26 6 27 5 28 4 29 3 30 2 31 1 32
REMARK H PARENT
REMARK Flexibility Score: inf
ROOT
ATOM      1  C   UNL     1      -5.438   5.248  16.947  1.00  0.00     0.000 C 
ENDROOT
BRANCH   1   2
ATOM      2  C   UNL     1      -5.056   6.576  16.270  1.00  0.00     0.000 C 
BRANCH   2   3
ATOM      3  C   UNL     1      -5.999   7.727  16.652  1.00  0.00     0.000 C 
BRANCH   3   4
ATOM      4  C   UNL     1      -7.480   7.310  16.654  1.00  0.00     0.000 C 
BRANCH   4   5
ATOM      5  C   UNL     1      -8.135   7.473  15.273  1.00  0.00     0.000 C 
BRANCH   5   6
ATOM      6  C   UNL     1      -9.239   6.432  15.018  1.00  0.00     0.000 C 
BRANCH   6   7
ATOM      7  C   UNL     1      -9.062   5.704  13.676  1.00  0.00     0.000 C 
BRANCH   7   8
ATOM      8  C   UNL     1      -7.868   4.733  13.691  1.00  0.00     0.000 C 
BRANCH   8   9
ATOM      9  C   UNL     1      -6.976   4.871  12.447  1.00  0.00     0.000 C 
BRANCH   9  10
ATOM     10  C   UNL     1      -5.577   5.415  12.785  1.00  0.00     0.000 C 
BRANCH  10  11
ATOM     11  C   UNL     1      -5.233   6.690  11.996  1.00  0.00     0.000 C 
BRANCH  11  12
ATOM     12  C   UNL     1      -5.387   7.971  12.836  1.00  0.00     0.000 C 
BRANCH  12  13
ATOM     13  C   UNL     1      -4.239   8.967  12.616  1.00  0.00     0.006 C 
BRANCH  13  14
ATOM     14  C   UNL     1      -4.654  10.417  12.894  1.00  0.00     0.053 C 
BRANCH  14  15
ATOM     15  C   UNL     1      -5.187  10.552  14.286  1.00  0.00     0.041 C 
ATOM     16  O   UNL     1      -6.415  10.753  14.477  1.00  0.00    -0.550 OA
ATOM     17  O   UNL     1      -4.322  10.489  15.373  1.00  0.00    -0.550 OA
ENDBRANCH  14  15
ENDBRANCH  13  14
ENDBRANCH  12  13
ENDBRANCH  11  12
ENDBRANCH  10  11
ENDBRANCH   9  10
ENDBRANCH   8   9
ENDBRANCH   7   8
ENDBRANCH   6   7
ENDBRANCH   5   6
ENDBRANCH   4   5
ENDBRANCH   3   4
ENDBRANCH   2   3
ENDBRANCH   1   2
BRANCH   1  18
ATOM     18  C   UNL     1      -5.221   4.036  16.025  1.00  0.00     0.000 C 
BRANCH  18  19
ATOM     19  C   UNL     1      -4.500   2.877  16.737  1.00  0.00     0.000 C 
BRANCH  19  20
ATOM     20  C   UNL     1      -2.970   2.969  16.619  1.00  0.00     0.000 C 
BRANCH  20  21
ATOM     21  C   UNL     1      -2.519   4.000  15.568  1.00  0.00     0.000 C 
BRANCH  21  22
ATOM     22  C   UNL     1      -1.101   4.535  15.841  1.00  0.00     0.000 C 
BRANCH  22  23
ATOM     23  C   UNL     1      -0.741   4.632  17.337  1.00  0.00     0.000 C 
BRANCH  23  24
ATOM     24  C   UNL     1       0.118   5.866  17.664  1.00  0.00    -0.000 C 
BRANCH  24  25
ATOM     25  C   UNL     1      -0.188   6.433  19.068  1.00  0.00    -0.000 C 
BRANCH  25  26
ATOM     26  C   UNL     1       0.837   7.471  19.555  1.00  0.00    -0.000 C 
BRANCH  26  27
ATOM     27  C   UNL     1       0.807   8.768  18.730  1.00  0.00    -0.000 C 
BRANCH  27  28
ATOM     28  C   UNL     1       1.853   8.788  17.600  1.00  0.00    -0.000 C 
BRANCH  28  29
ATOM     29  C   UNL     1       1.731   9.961  16.612  1.00  0.00    -0.000 C 
BRANCH  29  30
ATOM     30  C   UNL     1       0.808   9.652  15.421  1.00  0.00    -0.000 C 
BRANCH  30  31
ATOM     31  C   UNL     1      -0.231  10.759  15.181  1.00  0.00    -0.003 C 
ATOM     32  C   UNL     1      -1.065  10.524  13.922  1.00  0.00     0.004 C 
ENDBRANCH  30  31
ENDBRANCH  29  30
ENDBRANCH  28  29
ENDBRANCH  27  28
ENDBRANCH  26  27
ENDBRANCH  25  26
ENDBRANCH  24  25
ENDBRANCH  23  24
ENDBRANCH  22  23
ENDBRANCH  21  22
ENDBRANCH  20  21
ENDBRANCH  19  20
ENDBRANCH  18  19
ENDBRANCH   1  18
TORSDOF 28
ENDMDL
MODEL 6
REMARK VINA RESULT:    -4.559      2.116      7.830
REMARK INTER + INTRA:         -16.353
REMARK INTER:                 -12.199
REMARK INTRA:                  -4.154
REMARK UNBOUND:                -4.332
REMARK SMILES CCCCCCCCCCCCCCCCCCCCCCCCCCCCCC(=O)[O-]
REMARK SMILES IDX 16 1 17 2 18 3 19 4 20 5 21 6 22 7 23 8 24 9 25 10 26 11
REMARK SMILES IDX 27 12 28 13 29 14 30 15 31 16 32 17 15 18 14 19 13 20 12 21
REMARK SMILES IDX 11 22 10 23 9 24 8 25 7 26 6 27 5 28 4 29 3 30 2 31 1 32
REMARK H PARENT
REMARK Flexibility Score: inf
ROOT
ATOM      1  C   UNL     1      -0.477   6.440  18.879  1.00  0.00     0.000 C 
ENDROOT
BRANCH   1   2
ATOM      2  C   UNL     1       0.441   6.602  20.103  1.00  0.00     0.000 C 
BRANCH   2   3
ATOM      3  C   UNL     1       1.090   7.992  20.174  1.00  0.00     0.000 C 
BRANCH   3   4
ATOM      4  C   UNL     1       0.789   8.856  18.937  1.00  0.00     0.000 C 
BRANCH   4   5
ATOM      5  C   UNL     1       2.021   9.035  18.035  1.00  0.00     0.000 C 
BRANCH   5   6
ATOM      6  C   UNL     1       1.656   9.070  16.541  1.00  0.00     0.000 C 
BRANCH   6   7
ATOM      7  C   UNL     1       1.636  10.499  15.975  1.00  0.00     0.000 C 
BRANCH   7   8
ATOM      8  C   UNL     1       0.341  10.802  15.200  1.00  0.00     0.000 C 
BRANCH   8   9
ATOM      9  C   UNL     1      -0.187   9.583  14.428  1.00  0.00     0.000 C 
BRANCH   9  10
ATOM     10  C   UNL     1      -0.559   9.925  12.974  1.00  0.00     0.000 C 
BRANCH  10  11
ATOM     11  C   UNL     1      -1.904   9.312  12.549  1.00  0.00     0.000 C 
BRANCH  11  12
ATOM     12  C   UNL     1      -2.352   8.161  13.469  1.00  0.00     0.000 C 
BRANCH  12  13
ATOM     13  C   UNL     1      -3.757   8.377  14.049  1.00  0.00     0.006 C 
BRANCH  13  14
ATOM     14  C   UNL     1      -4.221   9.835  13.944  1.00  0.00     0.053 C 
BRANCH  14  15
ATOM     15  C   UNL     1      -5.351  10.096  14.890  1.00  0.00     0.041 C 
ATOM     16  O   UNL     1      -6.508  10.321  14.448  1.00  0.00    -0.550 OA
ATOM     17  O   UNL     1      -5.119  10.126  16.260  1.00  0.00    -0.550 OA
ENDBRANCH  14  15
ENDBRANCH  13  14
ENDBRANCH  12  13
ENDBRANCH  11  12
ENDBRANCH  10  11
ENDBRANCH   9  10
ENDBRANCH   8   9
ENDBRANCH   7   8
ENDBRANCH   6   7
ENDBRANCH   5   6
ENDBRANCH   4   5
ENDBRANCH   3   4
ENDBRANCH   2   3
ENDBRANCH   1   2
BRANCH   1  18
ATOM     18  C   UNL     1       0.105   5.475  17.833  1.00  0.00     0.000 C 
BRANCH  18  19
ATOM     19  C   UNL     1      -0.878   5.193  16.681  1.00  0.00     0.000 C 
BRANCH  19  20
ATOM     20  C   UNL     1      -1.110   3.691  16.453  1.00  0.00     0.000 C 
BRANCH  20  21
ATOM     21  C   UNL     1      -2.605   3.326  16.402  1.00  0.00     0.000 C 
BRANCH  21  22
ATOM     22  C   UNL     1      -3.409   4.268  15.487  1.00  0.00     0.000 C 
BRANCH  22  23
ATOM     23  C   UNL     1      -4.781   4.680  16.056  1.00  0.00     0.000 C 
BRANCH  23  24
ATOM     24  C   UNL     1      -4.734   6.020  16.813  1.00  0.00    -0.000 C 
BRANCH  24  25
ATOM     25  C   UNL     1      -6.040   6.828  16.646  1.00  0.00    -0.000 C 
BRANCH  25  26
ATOM     26  C   UNL     1      -7.059   6.169  15.701  1.00  0.00    -0.000 C 
BRANCH  26  27
ATOM     27  C   UNL     1      -7.153   6.879  14.340  1.00  0.00    -0.000 C 
BRANCH  27  28
ATOM     28  C   UNL     1      -8.000   6.105  13.314  1.00  0.00    -0.000 C 
BRANCH  28  29
ATOM     29  C   UNL     1      -7.288   5.775  11.990  1.00  0.00    -0.000 C 
BRANCH  29  30
ATOM     30  C   UNL     1      -5.768   5.607  12.149  1.00  0.00    -0.000 C 
BRANCH  30  31
ATOM     31  C   UNL     1      -4.973   6.595  11.279  1.00  0.00    -0.003 C 
ATOM     32  C   UNL     1      -5.874   7.529  10.473  1.00  0.00     0.004 C 
ENDBRANCH  30  31
ENDBRANCH  29  30
ENDBRANCH  28  29
ENDBRANCH  27  28
ENDBRANCH  26  27
ENDBRANCH  25  26
ENDBRANCH  24  25
ENDBRANCH  23  24
ENDBRANCH  22  23
ENDBRANCH  21  22
ENDBRANCH  20  21
ENDBRANCH  19  20
ENDBRANCH  18  19
ENDBRANCH   1  18
TORSDOF 28
ENDMDL
MODEL 7
REMARK VINA RESULT:    -4.549      2.752      7.624
REMARK INTER + INTRA:         -16.329
REMARK INTER:                 -11.173
REMARK INTRA:                  -5.156
REMARK UNBOUND:                -4.332
REMARK SMILES CCCCCCCCCCCCCCCCCCCCCCCCCCCCCC(=O)[O-]
REMARK SMILES IDX 16 1 17 2 18 3 19 4 20 5 21 6 22 7 23 8 24 9 25 10 26 11
REMARK SMILES IDX 27 12 28 13 29 14 30 15 31 16 32 17 15 18 14 19 13 20 12 21
REMARK SMILES IDX 11 22 10 23 9 24 8 25 7 26 6 27 5 28 4 29 3 30 2 31 1 32
REMARK H PARENT
REMARK Flexibility Score: inf
ROOT
ATOM      1  C   UNL     1       2.260   8.862  16.734  1.00  0.00     0.000 C 
ENDROOT
BRANCH   1   2
ATOM      2  C   UNL     1       1.859  10.274  16.272  1.00  0.00     0.000 C 
BRANCH   2   3
ATOM      3  C   UNL     1       0.371  10.374  15.904  1.00  0.00     0.000 C 
BRANCH   3   4
ATOM      4  C   UNL     1       0.145  10.796  14.442  1.00  0.00     0.000 C 
BRANCH   4   5
ATOM      5  C   UNL     1      -0.357   9.635  13.569  1.00  0.00     0.000 C 
BRANCH   5   6
ATOM      6  C   UNL     1      -0.534  10.040  12.095  1.00  0.00     0.000 C 
BRANCH   6   7
ATOM      7  C   UNL     1      -1.875  10.745  11.837  1.00  0.00     0.000 C 
BRANCH   7   8
ATOM      8  C   UNL     1      -2.758   9.973  10.840  1.00  0.00     0.000 C 
BRANCH   8   9
ATOM      9  C   UNL     1      -3.989   9.340  11.506  1.00  0.00     0.000 C 
BRANCH   9  10
ATOM     10  C   UNL     1      -3.763   7.863  11.873  1.00  0.00     0.000 C 
BRANCH  10  11
ATOM     11  C   UNL     1      -3.354   7.676  13.344  1.00  0.00     0.000 C 
BRANCH  11  12
ATOM     12  C   UNL     1      -4.164   8.565  14.306  1.00  0.00     0.000 C 
BRANCH  12  13
ATOM     13  C   UNL     1      -5.410   7.858  14.859  1.00  0.00     0.006 C 
BRANCH  13  14
ATOM     14  C   UNL     1      -5.695   8.223  16.322  1.00  0.00     0.053 C 
BRANCH  14  15
ATOM     15  C   UNL     1      -6.496   7.147  16.984  1.00  0.00     0.041 C 
ATOM     16  O   UNL     1      -5.978   6.433  17.881  1.00  0.00    -0.550 OA
ATOM     17  O   UNL     1      -7.808   6.910  16.587  1.00  0.00    -0.550 OA
ENDBRANCH  14  15
ENDBRANCH  13  14
ENDBRANCH  12  13
ENDBRANCH  11  12
ENDBRANCH  10  11
ENDBRANCH   9  10
ENDBRANCH   8   9
ENDBRANCH   7   8
ENDBRANCH   6   7
ENDBRANCH   5   6
ENDBRANCH   4   5
ENDBRANCH   3   4
ENDBRANCH   2   3
ENDBRANCH   1   2
BRANCH   1  18
ATOM     18  C   UNL     1       1.123   8.145  17.482  1.00  0.00     0.000 C 
BRANCH  18  19
ATOM     19  C   UNL     1       0.822   6.752  16.898  1.00  0.00     0.000 C 
BRANCH  19  20
ATOM     20  C   UNL     1      -0.011   5.878  17.849  1.00  0.00     0.000 C 
BRANCH  20  21
ATOM     21  C   UNL     1      -0.701   4.708  17.124  1.00  0.00     0.000 C 
BRANCH  21  22
ATOM     22  C   UNL     1      -1.519   5.173  15.904  1.00  0.00     0.000 C 
BRANCH  22  23
ATOM     23  C   UNL     1      -3.045   5.116  16.110  1.00  0.00     0.000 C 
BRANCH  23  24
ATOM     24  C   UNL     1      -3.773   4.386  14.967  1.00  0.00    -0.000 C 
BRANCH  24  25
ATOM     25  C   UNL     1      -5.237   4.051  15.330  1.00  0.00    -0.000 C 
BRANCH  25  26
ATOM     26  C   UNL     1      -6.254   4.475  14.257  1.00  0.00    -0.000 C 
BRANCH  26  27
ATOM     27  C   UNL     1      -5.608   4.697  12.880  1.00  0.00    -0.000 C 
BRANCH  27  28
ATOM     28  C   UNL     1      -6.589   5.266  11.839  1.00  0.00    -0.000 C 
BRANCH  28  29
ATOM     29  C   UNL     1      -7.617   6.272  12.387  1.00  0.00    -0.000 C 
BRANCH  29  30
ATOM     30  C   UNL     1      -7.483   7.671  11.763  1.00  0.00    -0.000 C 
BRANCH  30  31
ATOM     31  C   UNL     1      -8.222   8.749  12.573  1.00  0.00    -0.003 C 
ATOM     32  C   UNL     1      -7.485  10.088  12.587  1.00  0.00     0.004 C 
ENDBRANCH  30  31
ENDBRANCH  29  30
ENDBRANCH  28  29
ENDBRANCH  27  28
ENDBRANCH  26  27
ENDBRANCH  25  26
ENDBRANCH  24  25
ENDBRANCH  23  24
ENDBRANCH  22  23
ENDBRANCH  21  22
ENDBRANCH  20  21
ENDBRANCH  19  20
ENDBRANCH  18  19
ENDBRANCH   1  18
TORSDOF 28
ENDMDL
MODEL 8
REMARK VINA RESULT:    -4.495      2.415      8.273
REMARK INTER + INTRA:         -16.186
REMARK INTER:                 -12.520
REMARK INTRA:                  -3.666
REMARK UNBOUND:                -4.332
REMARK SMILES CCCCCCCCCCCCCCCCCCCCCCCCCCCCCC(=O)[O-]
REMARK SMILES IDX 16 1 17 2 18 3 19 4 20 5 21 6 22 7 23 8 24 9 25 10 26 11
REMARK SMILES IDX 27 12 28 13 29 14 30 15 31 16 32 17 15 18 14 19 13 20 12 21
REMARK SMILES IDX 11 22 10 23 9 24 8 25 7 26 6 27 5 28 4 29 3 30 2 31 1 32
REMARK H PARENT
REMARK Flexibility Score: inf
ROOT
ATOM      1  C   UNL     1       1.455   8.411  19.926  1.00  0.00     0.000 C 
ENDROOT
BRANCH   1   2
ATOM      2  C   UNL     1       0.749   7.110  20.348  1.00  0.00     0.000 C 
BRANCH   2   3
ATOM      3  C   UNL     1      -0.351   6.689  19.363  1.00  0.00     0.000 C 
BRANCH   3   4
ATOM      4  C   UNL     1       0.037   5.459  18.523  1.00  0.00     0.000 C 
BRANCH   4   5
ATOM      5  C   UNL     1       0.045   5.759  17.016  1.00  0.00     0.000 C 
BRANCH   5   6
ATOM      6  C   UNL     1      -1.135   5.100  16.279  1.00  0.00     0.000 C 
BRANCH   6   7
ATOM      7  C   UNL     1      -1.320   3.625  16.669  1.00  0.00     0.000 C 
BRANCH   7   8
ATOM      8  C   UNL     1      -2.732   3.107  16.343  1.00  0.00     0.000 C 
BRANCH   8   9
ATOM      9  C   UNL     1      -3.798   4.213  16.407  1.00  0.00     0.000 C 
BRANCH   9  10
ATOM     10  C   UNL     1      -4.890   4.038  15.338  1.00  0.00     0.000 C 
BRANCH  10  11
ATOM     11  C   UNL     1      -4.762   5.055  14.191  1.00  0.00     0.000 C 
BRANCH  11  12
ATOM     12  C   UNL     1      -4.309   6.445  14.675  1.00  0.00     0.000 C 
BRANCH  12  13
ATOM     13  C   UNL     1      -5.489   7.380  14.982  1.00  0.00     0.006 C 
BRANCH  13  14
ATOM     14  C   UNL     1      -5.564   7.767  16.464  1.00  0.00     0.053 C 
BRANCH  14  15
ATOM     15  C   UNL     1      -6.771   7.157  17.105  1.00  0.00     0.041 C 
ATOM     16  O   UNL     1      -6.845   7.066  18.358  1.00  0.00    -0.550 OA
ATOM     17  O   UNL     1      -7.802   6.658  16.316  1.00  0.00    -0.550 OA
ENDBRANCH  14  15
ENDBRANCH  13  14
ENDBRANCH  12  13
ENDBRANCH  11  12
ENDBRANCH  10  11
ENDBRANCH   9  10
ENDBRANCH   8   9
ENDBRANCH   7   8
ENDBRANCH   6   7
ENDBRANCH   5   6
ENDBRANCH   4   5
ENDBRANCH   3   4
ENDBRANCH   2   3
ENDBRANCH   1   2
BRANCH   1  18
ATOM     18  C   UNL     1       0.961   8.931  18.565  1.00  0.00     0.000 C 
BRANCH  18  19
ATOM     19  C   UNL     1       2.063   8.904  17.490  1.00  0.00     0.000 C 
BRANCH  19  20
ATOM     20  C   UNL     1       1.890  10.008  16.435  1.00  0.00     0.000 C 
BRANCH  20  21
ATOM     21  C   UNL     1       0.751   9.706  15.444  1.00  0.00     0.000 C 
BRANCH  21  22
ATOM     22  C   UNL     1      -0.367  10.764  15.493  1.00  0.00     0.000 C 
BRANCH  22  23
ATOM     23  C   UNL     1      -1.149  10.916  14.174  1.00  0.00     0.000 C 
BRANCH  23  24
ATOM     24  C   UNL     1      -0.342  10.458  12.947  1.00  0.00    -0.000 C 
BRANCH  24  25
ATOM     25  C   UNL     1      -1.256   9.999  11.788  1.00  0.00    -0.000 C 
BRANCH  25  26
ATOM     26  C   UNL     1      -2.457   9.154  12.244  1.00  0.00    -0.000 C 
BRANCH  26  27
ATOM     27  C   UNL     1      -3.131   8.403  11.084  1.00  0.00    -0.000 C 
BRANCH  27  28
ATOM     28  C   UNL     1      -4.439   7.705  11.497  1.00  0.00    -0.000 C 
BRANCH  28  29
ATOM     29  C   UNL     1      -5.016   6.723  10.462  1.00  0.00    -0.000 C 
BRANCH  29  30
ATOM     30  C   UNL     1      -6.553   6.728  10.417  1.00  0.00    -0.000 C 
BRANCH  30  31
ATOM     31  C   UNL     1      -7.171   5.661  11.336  1.00  0.00    -0.003 C 
ATOM     32  C   UNL     1      -7.933   6.265  12.514  1.00  0.00     0.004 C 
ENDBRANCH  30  31
ENDBRANCH  29  30
ENDBRANCH  28  29
ENDBRANCH  27  28
ENDBRANCH  26  27
ENDBRANCH  25  26
ENDBRANCH  24  25
ENDBRANCH  23  24
ENDBRANCH  22  23
ENDBRANCH  21  22
ENDBRANCH  20  21
ENDBRANCH  19  20
ENDBRANCH  18  19
ENDBRANCH   1  18
TORSDOF 28
ENDMDL
MODEL 9
REMARK VINA RESULT:    -4.495      3.060      7.925
REMARK INTER + INTRA:         -16.184
REMARK INTER:                 -13.465
REMARK INTRA:                  -2.719
REMARK UNBOUND:                -4.332
REMARK SMILES CCCCCCCCCCCCCCCCCCCCCCCCCCCCCC(=O)[O-]
REMARK SMILES IDX 16 1 17 2 18 3 19 4 20 5 21 6 22 7 23 8 24 9 25 10 26 11
REMARK SMILES IDX 27 12 28 13 29 14 30 15 31 16 32 17 15 18 14 19 13 20 12 21
REMARK SMILES IDX 11 22 10 23 9 24 8 25 7 26 6 27 5 28 4 29 3 30 2 31 1 32
REMARK H PARENT
REMARK Flexibility Score: inf
ROOT
ATOM      1  C   UNL     1      -4.556   6.775  12.206  1.00  0.00     0.000 C 
ENDROOT
BRANCH   1   2
ATOM      2  C   UNL     1      -3.716   7.880  12.871  1.00  0.00     0.000 C 
BRANCH   2   3
ATOM      3  C   UNL     1      -2.830   8.632  11.867  1.00  0.00     0.000 C 
BRANCH   3   4
ATOM      4  C   UNL     1      -1.776   9.521  12.549  1.00  0.00     0.000 C 
BRANCH   4   5
ATOM      5  C   UNL     1      -2.290  10.137  13.859  1.00  0.00     0.000 C 
BRANCH   5   6
ATOM      6  C   UNL     1      -1.208  10.951  14.591  1.00  0.00     0.000 C 
BRANCH   6   7
ATOM      7  C   UNL     1       0.126  10.193  14.697  1.00  0.00     0.000 C 
BRANCH   7   8
ATOM      8  C   UNL     1       1.040  10.771  15.792  1.00  0.00     0.000 C 
BRANCH   8   9
ATOM      9  C   UNL     1       2.123   9.778  16.244  1.00  0.00     0.000 C 
BRANCH   9  10
ATOM     10  C   UNL     1       1.537   8.582  17.015  1.00  0.00     0.000 C 
BRANCH  10  11
ATOM     11  C   UNL     1       1.400   8.859  18.522  1.00  0.00     0.000 C 
BRANCH  11  12
ATOM     12  C   UNL     1       0.696   7.716  19.276  1.00  0.00     0.000 C 
BRANCH  12  13
ATOM     13  C   UNL     1       0.430   8.054  20.751  1.00  0.00     0.006 C 
BRANCH  13  14
ATOM     14  C   UNL     1      -0.386   6.970  21.467  1.00  0.00     0.053 C 
BRANCH  14  15
ATOM     15  C   UNL     1       0.270   6.585  22.755  1.00  0.00     0.041 C 
ATOM     16  O   UNL     1       1.467   6.907  22.978  1.00  0.00    -0.550 OA
ATOM     17  O   UNL     1      -0.430   5.841  23.699  1.00  0.00    -0.550 OA
ENDBRANCH  14  15
ENDBRANCH  13  14
ENDBRANCH  12  13
ENDBRANCH  11  12
ENDBRANCH  10  11
ENDBRANCH   9  10
ENDBRANCH   8   9
ENDBRANCH   7   8
ENDBRANCH   6   7
ENDBRANCH   5   6
ENDBRANCH   4   5
ENDBRANCH   3   4
ENDBRANCH   2   3
ENDBRANCH   1   2
BRANCH   1  18
ATOM     18  C   UNL     1      -5.511   6.088  13.197  1.00  0.00     0.000 C 
BRANCH  18  19
ATOM     19  C   UNL     1      -6.224   4.871  12.579  1.00  0.00     0.000 C 
BRANCH  19  20
ATOM     20  C   UNL     1      -7.751   4.934  12.739  1.00  0.00     0.000 C 
BRANCH  20  21
ATOM     21  C   UNL     1      -8.223   6.243  13.400  1.00  0.00     0.000 C 
BRANCH  21  22
ATOM     22  C   UNL     1      -9.417   6.025  14.348  1.00  0.00     0.000 C 
BRANCH  22  23
ATOM     23  C   UNL     1      -9.201   6.576  15.770  1.00  0.00     0.000 C 
BRANCH  23  24
ATOM     24  C   UNL     1      -7.774   7.110  15.992  1.00  0.00    -0.000 C 
BRANCH  24  25
ATOM     25  C   UNL     1      -7.406   7.179  17.491  1.00  0.00    -0.000 C 
BRANCH  25  26
ATOM     26  C   UNL     1      -5.932   6.846  17.782  1.00  0.00    -0.000 C 
BRANCH  26  27
ATOM     27  C   UNL     1      -5.224   6.190  16.585  1.00  0.00    -0.000 C 
BRANCH  27  28
ATOM     28  C   UNL     1      -4.855   4.716  16.838  1.00  0.00    -0.000 C 
BRANCH  28  29
ATOM     29  C   UNL     1      -4.081   4.028  15.699  1.00  0.00    -0.000 C 
BRANCH  29  30
ATOM     30  C   UNL     1      -2.715   3.480  16.146  1.00  0.00    -0.000 C 
BRANCH  30  31
ATOM     31  C   UNL     1      -1.550   4.389  15.721  1.00  0.00    -0.003 C 
ATOM     32  C   UNL     1      -0.710   4.865  16.905  1.00  0.00     0.004 C 
ENDBRANCH  30  31
ENDBRANCH  29  30
ENDBRANCH  28  29
ENDBRANCH  27  28
ENDBRANCH  26  27
ENDBRANCH  25  26
ENDBRANCH  24  25
ENDBRANCH  23  24
ENDBRANCH  22  23
ENDBRANCH  21  22
ENDBRANCH  20  21
ENDBRANCH  19  20
ENDBRANCH  18  19
ENDBRANCH   1  18
TORSDOF 28
ENDMDL
