MODEL 1
REMARK VINA RESULT:    -7.633      0.000      0.000
REMARK INTER + INTRA:          -8.079
REMARK INTER:                  -8.079
REMARK INTRA:                   0.000
REMARK UNBOUND:                 0.000
REMARK SMILES O=c1ccc2cc(O)c(O)cc2o1
REMARK SMILES IDX 4 1 3 2 2 3 1 4 13 5 12 6 11 7 9 8 7 9 6 10 5 11 8 12 10 14
REMARK H PARENT 8 13 10 15
REMARK Flexibility Score: inf
ROOT
ATOM      1  C   UNL     1      37.569   0.974  17.773  1.00  0.00     0.019 A 
ATOM      2  C   UNL     1      38.648   0.649  16.950  1.00  0.00     0.094 A 
ATOM      3  C   UNL     1      38.474   0.679  15.563  1.00  0.00     0.336 A 
ATOM      4  O   UNL     1      39.435   0.390  14.802  1.00  0.00    -0.246 OA
ATOM      5  O   UNL     1      37.296   1.009  15.038  1.00  0.00    -0.423 OA
ATOM      6  C   UNL     1      36.242   1.326  15.788  1.00  0.00     0.142 A 
ATOM      7  C   UNL     1      35.029   1.666  15.180  1.00  0.00     0.098 A 
ATOM      8  C   UNL     1      33.916   1.999  15.961  1.00  0.00     0.161 A 
ATOM      9  C   UNL     1      34.015   1.992  17.364  1.00  0.00     0.158 A 
ATOM     10  C   UNL     1      35.230   1.651  17.979  1.00  0.00     0.062 A 
ATOM     11  C   UNL     1      36.343   1.317  17.195  1.00  0.00     0.022 A 
ENDROOT
BRANCH   9  12
ATOM     12  O   UNL     1      32.907   2.324  18.143  1.00  0.00    -0.504 OA
ATOM     13  H   UNL     1      32.887   2.147  19.141  1.00  0.00     0.293 HD
ENDBRANCH   9  12
BRANCH   8  14
ATOM     14  O   UNL     1      32.721   2.334  15.325  1.00  0.00    -0.504 OA
ATOM     15  H   UNL     1      31.985   2.845  15.798  1.00  0.00     0.293 HD
ENDBRANCH   8  14
TORSDOF 2
ENDMDL
MODEL 2
REMARK VINA RESULT:    -7.381      2.782      2.997
REMARK INTER + INTRA:          -7.813
REMARK INTER:                  -7.813
REMARK INTRA:                   0.000
REMARK UNBOUND:                 0.000
REMARK SMILES O=c1ccc2cc(O)c(O)cc2o1
REMARK SMILES IDX 4 1 3 2 2 3 1 4 13 5 12 6 11 7 9 8 7 9 6 10 5 11 8 12 10 14
REMARK H PARENT 8 13 10 15
REMARK Flexibility Score: inf
ROOT
ATOM      1  C   UNL     1      37.731   1.467  17.742  1.00  0.00     0.019 A 
ATOM      2  C   UNL     1      38.498   2.009  16.710  1.00  0.00     0.094 A 
ATOM      3  C   UNL     1      38.470   1.397  15.453  1.00  0.00     0.336 A 
ATOM      4  O   UNL     1      39.155   1.871  14.508  1.00  0.00    -0.246 OA
ATOM      5  O   UNL     1      37.725   0.315  15.246  1.00  0.00    -0.423 OA
ATOM      6  C   UNL     1      36.978  -0.234  16.203  1.00  0.00     0.142 A 
ATOM      7  C   UNL     1      36.214  -1.372  15.927  1.00  0.00     0.098 A 
ATOM      8  C   UNL     1      35.427  -1.955  16.928  1.00  0.00     0.161 A 
ATOM      9  C   UNL     1      35.403  -1.395  18.218  1.00  0.00     0.158 A 
ATOM     10  C   UNL     1      36.169  -0.253  18.500  1.00  0.00     0.062 A 
ATOM     11  C   UNL     1      36.956   0.329  17.497  1.00  0.00     0.022 A 
ENDROOT
BRANCH   9  12
ATOM     12  O   UNL     1      34.620  -1.974  19.216  1.00  0.00    -0.504 OA
ATOM     13  H   UNL     1      35.034  -2.383  20.046  1.00  0.00     0.293 HD
ENDBRANCH   9  12
BRANCH   8  14
ATOM     14  O   UNL     1      34.676  -3.089  16.622  1.00  0.00    -0.504 OA
ATOM     15  H   UNL     1      34.853  -3.985  17.060  1.00  0.00     0.293 HD
ENDBRANCH   8  14
TORSDOF 2
ENDMDL
MODEL 3
REMARK VINA RESULT:    -7.375      1.169      2.275
REMARK INTER + INTRA:          -7.806
REMARK INTER:                  -7.806
REMARK INTRA:                   0.000
REMARK UNBOUND:                 0.000
REMARK SMILES O=c1ccc2cc(O)c(O)cc2o1
REMARK SMILES IDX 4 1 3 2 2 3 1 4 13 5 12 6 11 7 9 8 7 9 6 10 5 11 8 12 10 14
REMARK H PARENT 8 13 10 15
REMARK Flexibility Score: inf
ROOT
ATOM      1  C   UNL     1      37.355   0.750  14.991  1.00  0.00     0.019 A 
ATOM      2  C   UNL     1      38.524   0.364  15.647  1.00  0.00     0.094 A 
ATOM      3  C   UNL     1      38.564   0.411  17.044  1.00  0.00     0.336 A 
ATOM      4  O   UNL     1      39.609   0.066  17.655  1.00  0.00    -0.246 OA
ATOM      5  O   UNL     1      37.503   0.820  17.735  1.00  0.00    -0.423 OA
ATOM      6  C   UNL     1      36.368   1.196  17.149  1.00  0.00     0.142 A 
ATOM      7  C   UNL     1      35.285   1.617  17.927  1.00  0.00     0.098 A 
ATOM      8  C   UNL     1      34.089   2.015  17.318  1.00  0.00     0.161 A 
ATOM      9  C   UNL     1      33.974   1.993  15.916  1.00  0.00     0.158 A 
ATOM     10  C   UNL     1      35.058   1.573  15.131  1.00  0.00     0.062 A 
ATOM     11  C   UNL     1      36.255   1.175  15.742  1.00  0.00     0.022 A 
ENDROOT
BRANCH   9  12
ATOM     12  O   UNL     1      32.783   2.390  15.308  1.00  0.00    -0.504 OA
ATOM     13  H   UNL     1      32.777   3.008  14.505  1.00  0.00     0.293 HD
ENDBRANCH   9  12
BRANCH   8  14
ATOM     14  O   UNL     1      33.027   2.428  18.121  1.00  0.00    -0.504 OA
ATOM     15  H   UNL     1      32.599   1.815  18.805  1.00  0.00     0.293 HD
ENDBRANCH   8  14
TORSDOF 2
ENDMDL
MODEL 4
REMARK VINA RESULT:    -7.219      1.426      1.799
REMARK INTER + INTRA:          -7.641
REMARK INTER:                  -7.641
REMARK INTRA:                   0.000
REMARK UNBOUND:                 0.000
REMARK SMILES O=c1ccc2cc(O)c(O)cc2o1
REMARK SMILES IDX 4 1 3 2 2 3 1 4 13 5 12 6 11 7 9 8 7 9 6 10 5 11 8 12 10 14
REMARK H PARENT 8 13 10 15
REMARK Flexibility Score: inf
ROOT
ATOM      1  C   UNL     1      37.491  -0.583  17.231  1.00  0.00     0.019 A 
ATOM      2  C   UNL     1      38.434  -0.036  16.360  1.00  0.00     0.094 A 
ATOM      3  C   UNL     1      38.158   1.191  15.748  1.00  0.00     0.336 A 
ATOM      4  O   UNL     1      38.996   1.702  14.959  1.00  0.00    -0.246 OA
ATOM      5  O   UNL     1      37.014   1.824  15.993  1.00  0.00    -0.423 OA
ATOM      6  C   UNL     1      36.088   1.337  16.817  1.00  0.00     0.142 A 
ATOM      7  C   UNL     1      34.904   2.048  17.036  1.00  0.00     0.098 A 
ATOM      8  C   UNL     1      33.925   1.543  17.900  1.00  0.00     0.161 A 
ATOM      9  C   UNL     1      34.132   0.314  18.553  1.00  0.00     0.158 A 
ATOM     10  C   UNL     1      35.319  -0.404  18.336  1.00  0.00     0.062 A 
ATOM     11  C   UNL     1      36.297   0.104  17.470  1.00  0.00     0.022 A 
ENDROOT
BRANCH   9  12
ATOM     12  O   UNL     1      33.158  -0.191  19.414  1.00  0.00    -0.504 OA
ATOM     13  H   UNL     1      32.362  -0.714  19.068  1.00  0.00     0.293 HD
ENDBRANCH   9  12
BRANCH   8  14
ATOM     14  O   UNL     1      32.755   2.275  18.098  1.00  0.00    -0.504 OA
ATOM     15  H   UNL     1      32.770   3.266  18.307  1.00  0.00     0.293 HD
ENDBRANCH   8  14
TORSDOF 2
ENDMDL
MODEL 5
REMARK VINA RESULT:    -7.214      1.556      2.346
REMARK INTER + INTRA:          -7.636
REMARK INTER:                  -7.636
REMARK INTRA:                   0.000
REMARK UNBOUND:                 0.000
REMARK SMILES O=c1ccc2cc(O)c(O)cc2o1
REMARK SMILES IDX 4 1 3 2 2 3 1 4 13 5 12 6 11 7 9 8 7 9 6 10 5 11 8 12 10 14
REMARK H PARENT 8 13 10 15
REMARK Flexibility Score: inf
ROOT
ATOM      1  C   UNL     1      37.013   1.797  15.822  1.00  0.00     0.019 A 
ATOM      2  C   UNL     1      38.172   1.051  15.605  1.00  0.00     0.094 A 
ATOM      3  C   UNL     1      38.337  -0.158  16.289  1.00  0.00     0.336 A 
ATOM      4  O   UNL     1      39.375  -0.847  16.108  1.00  0.00    -0.246 OA
ATOM      5  O   UNL     1      37.403  -0.586  17.135  1.00  0.00    -0.423 OA
ATOM      6  C   UNL     1      36.283   0.095  17.370  1.00  0.00     0.142 A 
ATOM      7  C   UNL     1      35.336  -0.405  18.269  1.00  0.00     0.098 A 
ATOM      8  C   UNL     1      34.157   0.306  18.523  1.00  0.00     0.161 A 
ATOM      9  C   UNL     1      33.921   1.530  17.870  1.00  0.00     0.158 A 
ATOM     10  C   UNL     1      34.868   2.036  16.967  1.00  0.00     0.062 A 
ATOM     11  C   UNL     1      36.048   1.323  16.715  1.00  0.00     0.022 A 
ENDROOT
BRANCH   9  12
ATOM     12  O   UNL     1      32.746   2.239  18.121  1.00  0.00    -0.504 OA
ATOM     13  H   UNL     1      32.713   3.250  18.059  1.00  0.00     0.293 HD
ENDBRANCH   9  12
BRANCH   8  14
ATOM     14  O   UNL     1      33.232  -0.219  19.424  1.00  0.00    -0.504 OA
ATOM     15  H   UNL     1      33.515  -0.637  20.303  1.00  0.00     0.293 HD
ENDBRANCH   8  14
TORSDOF 2
ENDMDL
MODEL 6
REMARK VINA RESULT:    -7.214      2.983      3.658
REMARK INTER + INTRA:          -7.635
REMARK INTER:                  -7.635
REMARK INTRA:                   0.000
REMARK UNBOUND:                 0.000
REMARK SMILES O=c1ccc2cc(O)c(O)cc2o1
REMARK SMILES IDX 4 1 3 2 2 3 1 4 13 5 12 6 11 7 9 8 7 9 6 10 5 11 8 12 10 14
REMARK H PARENT 8 13 10 15
REMARK Flexibility Score: inf
ROOT
ATOM      1  C   UNL     1      37.771   0.375  15.148  1.00  0.00     0.019 A 
ATOM      2  C   UNL     1      38.530   1.508  15.440  1.00  0.00     0.094 A 
ATOM      3  C   UNL     1      38.471   2.050  16.728  1.00  0.00     0.336 A 
ATOM      4  O   UNL     1      39.150   3.072  17.012  1.00  0.00    -0.246 OA
ATOM      5  O   UNL     1      37.700   1.494  17.658  1.00  0.00    -0.423 OA
ATOM      6  C   UNL     1      36.959   0.412  17.422  1.00  0.00     0.142 A 
ATOM      7  C   UNL     1      36.168  -0.129  18.439  1.00  0.00     0.098 A 
ATOM      8  C   UNL     1      35.386  -1.265  18.198  1.00  0.00     0.161 A 
ATOM      9  C   UNL     1      35.395  -1.867  16.927  1.00  0.00     0.158 A 
ATOM     10  C   UNL     1      36.187  -1.327  15.902  1.00  0.00     0.062 A 
ATOM     11  C   UNL     1      36.969  -0.189  16.145  1.00  0.00     0.022 A 
ENDROOT
BRANCH   9  12
ATOM     12  O   UNL     1      34.617  -2.999  16.685  1.00  0.00    -0.504 OA
ATOM     13  H   UNL     1      35.008  -3.932  16.731  1.00  0.00     0.293 HD
ENDBRANCH   9  12
BRANCH   8  14
ATOM     14  O   UNL     1      34.608  -1.782  19.233  1.00  0.00    -0.504 OA
ATOM     15  H   UNL     1      34.955  -1.855  20.182  1.00  0.00     0.293 HD
ENDBRANCH   8  14
TORSDOF 2
ENDMDL
MODEL 7
REMARK VINA RESULT:    -6.839      1.872      4.893
REMARK INTER + INTRA:          -7.239
REMARK INTER:                  -7.239
REMARK INTRA:                   0.000
REMARK UNBOUND:                 0.000
REMARK SMILES O=c1ccc2cc(O)c(O)cc2o1
REMARK SMILES IDX 4 1 3 2 2 3 1 4 13 5 12 6 11 7 9 8 7 9 6 10 5 11 8 12 10 14
REMARK H PARENT 8 13 10 15
REMARK Flexibility Score: inf
ROOT
ATOM      1  C   UNL     1      36.134  -0.266  15.249  1.00  0.00     0.019 A 
ATOM      2  C   UNL     1      34.981   0.487  15.024  1.00  0.00     0.094 A 
ATOM      3  C   UNL     1      34.855   1.734  15.644  1.00  0.00     0.336 A 
ATOM      4  O   UNL     1      33.823   2.430  15.454  1.00  0.00    -0.246 OA
ATOM      5  O   UNL     1      35.820   2.192  16.438  1.00  0.00    -0.423 OA
ATOM      6  C   UNL     1      36.935   1.506  16.679  1.00  0.00     0.142 A 
ATOM      7  C   UNL     1      37.915   2.039  17.522  1.00  0.00     0.098 A 
ATOM      8  C   UNL     1      39.090   1.323  17.781  1.00  0.00     0.161 A 
ATOM      9  C   UNL     1      39.288   0.061  17.191  1.00  0.00     0.158 A 
ATOM     10  C   UNL     1      38.307  -0.478  16.345  1.00  0.00     0.062 A 
ATOM     11  C   UNL     1      37.131   0.240  16.087  1.00  0.00     0.022 A 
ENDROOT
BRANCH   9  12
ATOM     12  O   UNL     1      40.458  -0.653  17.448  1.00  0.00    -0.504 OA
ATOM     13  H   UNL     1      40.501  -1.360  18.173  1.00  0.00     0.293 HD
ENDBRANCH   9  12
BRANCH   8  14
ATOM     14  O   UNL     1      40.049   1.881  18.625  1.00  0.00    -0.504 OA
ATOM     15  H   UNL     1      41.037   1.688  18.519  1.00  0.00     0.293 HD
ENDBRANCH   8  14
TORSDOF 2
ENDMDL
MODEL 8
REMARK VINA RESULT:    -6.772      2.737      4.553
REMARK INTER + INTRA:          -7.167
REMARK INTER:                  -7.167
REMARK INTRA:                   0.000
REMARK UNBOUND:                 0.000
REMARK SMILES O=c1ccc2cc(O)c(O)cc2o1
REMARK SMILES IDX 4 1 3 2 2 3 1 4 13 5 12 6 11 7 9 8 7 9 6 10 5 11 8 12 10 14
REMARK H PARENT 8 13 10 15
REMARK Flexibility Score: inf
ROOT
ATOM      1  C   UNL     1      36.006  -1.343  15.535  1.00  0.00     0.019 A 
ATOM      2  C   UNL     1      35.335  -2.107  16.490  1.00  0.00     0.094 A 
ATOM      3  C   UNL     1      35.357  -1.693  17.826  1.00  0.00     0.336 A 
ATOM      4  O   UNL     1      34.758  -2.368  18.704  1.00  0.00    -0.246 OA
ATOM      5  O   UNL     1      36.010  -0.588  18.178  1.00  0.00    -0.423 OA
ATOM      6  C   UNL     1      36.662   0.170  17.298  1.00  0.00     0.142 A 
ATOM      7  C   UNL     1      37.330   1.321  17.727  1.00  0.00     0.098 A 
ATOM      8  C   UNL     1      38.019   2.123  16.808  1.00  0.00     0.161 A 
ATOM      9  C   UNL     1      38.040   1.770  15.446  1.00  0.00     0.158 A 
ATOM     10  C   UNL     1      37.372   0.615  15.011  1.00  0.00     0.062 A 
ATOM     11  C   UNL     1      36.683  -0.186  15.933  1.00  0.00     0.022 A 
ENDROOT
BRANCH   9  12
ATOM     12  O   UNL     1      38.725   2.567  14.530  1.00  0.00    -0.504 OA
ATOM     13  H   UNL     1      38.976   3.525  14.743  1.00  0.00     0.293 HD
ENDBRANCH   9  12
BRANCH   8  14
ATOM     14  O   UNL     1      38.674   3.264  17.266  1.00  0.00    -0.504 OA
ATOM     15  H   UNL     1      38.366   3.768  18.089  1.00  0.00     0.293 HD
ENDBRANCH   8  14
TORSDOF 2
ENDMDL
MODEL 9
REMARK VINA RESULT:    -6.744      2.049      4.568
REMARK INTER + INTRA:          -7.138
REMARK INTER:                  -7.138
REMARK INTRA:                   0.000
REMARK UNBOUND:                 0.000
REMARK SMILES O=c1ccc2cc(O)c(O)cc2o1
REMARK SMILES IDX 4 1 3 2 2 3 1 4 13 5 12 6 11 7 9 8 7 9 6 10 5 11 8 12 10 14
REMARK H PARENT 8 13 10 15
REMARK Flexibility Score: inf
ROOT
ATOM      1  C   UNL     1      36.120  -1.743  17.619  1.00  0.00     0.019 A 
ATOM      2  C   UNL     1      35.048  -1.622  18.504  1.00  0.00     0.094 A 
ATOM      3  C   UNL     1      34.441  -0.372  18.665  1.00  0.00     0.336 A 
ATOM      4  O   UNL     1      33.472  -0.241  19.458  1.00  0.00    -0.246 OA
ATOM      5  O   UNL     1      34.883   0.684  17.986  1.00  0.00    -0.423 OA
ATOM      6  C   UNL     1      35.902   0.611  17.132  1.00  0.00     0.142 A 
ATOM      7  C   UNL     1      36.322   1.755  16.446  1.00  0.00     0.098 A 
ATOM      8  C   UNL     1      37.393   1.687  15.547  1.00  0.00     0.161 A 
ATOM      9  C   UNL     1      38.053   0.463  15.332  1.00  0.00     0.158 A 
ATOM     10  C   UNL     1      37.635  -0.687  16.019  1.00  0.00     0.062 A 
ATOM     11  C   UNL     1      36.563  -0.617  16.919  1.00  0.00     0.022 A 
ENDROOT
BRANCH   9  12
ATOM     12  O   UNL     1      39.120   0.394  14.438  1.00  0.00    -0.504 OA
ATOM     13  H   UNL     1      38.985   0.505  13.439  1.00  0.00     0.293 HD
ENDBRANCH   9  12
BRANCH   8  14
ATOM     14  O   UNL     1      37.788   2.845  14.878  1.00  0.00    -0.504 OA
ATOM     15  H   UNL     1      38.740   3.188  14.913  1.00  0.00     0.293 HD
ENDBRANCH   8  14
TORSDOF 2
ENDMDL
