MODEL 1
REMARK VINA RESULT:    -6.816      0.000      0.000
REMARK INTER + INTRA:          -8.533
REMARK INTER:                  -8.211
REMARK INTRA:                  -0.323
REMARK UNBOUND:                -0.323
REMARK SMILES O=c1c(O)c(-c2ccc(O)c(O)c2)oc2cc(O)cc(O)c12
REMARK SMILES IDX 5 1 3 2 2 3 1 4 22 5 20 6 19 7 17 8 16 9 15 10 14 11 6 12
REMARK SMILES IDX 7 13 8 14 9 15 13 16 11 17 10 18 12 20 4 22 21 24 18 26
REMARK H PARENT 10 19 12 21 4 23 21 25 18 27
REMARK Flexibility Score: inf
ROOT
ATOM      1  C   UNL     1      -9.534   8.619   6.019  1.00  0.00     0.180 A 
ATOM      2  C   UNL     1     -10.803   9.203   5.857  1.00  0.00     0.208 A 
ATOM      3  C   UNL     1     -11.930   8.370   5.773  1.00  0.00     0.238 A 
ATOM      4  O   UNL     1     -13.068   8.902   5.684  1.00  0.00    -0.285 OA
ATOM      5  C   UNL     1     -11.774   6.965   5.834  1.00  0.00     0.111 A 
ATOM      6  C   UNL     1     -12.842   6.025   5.718  1.00  0.00     0.134 A 
ATOM      7  C   UNL     1     -12.589   4.663   5.924  1.00  0.00     0.093 A 
ATOM      8  C   UNL     1     -11.295   4.201   6.178  1.00  0.00     0.123 A 
ATOM      9  C   UNL     1     -10.237   5.104   6.233  1.00  0.00     0.094 A 
ATOM     10  C   UNL     1     -10.463   6.473   6.068  1.00  0.00     0.146 A 
ATOM     11  O   UNL     1      -9.427   7.301   6.139  1.00  0.00    -0.452 OA
ENDROOT
BRANCH   1  12
ATOM     12  C   UNL     1      -8.297   9.429   6.091  1.00  0.00     0.025 A 
ATOM     13  C   UNL     1      -7.617   9.759   4.908  1.00  0.00     0.016 A 
ATOM     14  C   UNL     1      -6.460  10.540   4.952  1.00  0.00     0.051 A 
ATOM     15  C   UNL     1      -5.973  11.017   6.172  1.00  0.00     0.157 A 
ATOM     16  C   UNL     1      -7.818   9.927   7.317  1.00  0.00     0.062 A 
ATOM     17  C   UNL     1      -6.657  10.713   7.361  1.00  0.00     0.158 A 
BRANCH  15  18
ATOM     18  O   UNL     1      -4.814  11.793   6.185  1.00  0.00    -0.504 OA
ATOM     19  H   UNL     1      -4.441  12.190   7.038  1.00  0.00     0.293 HD
ENDBRANCH  15  18
BRANCH  17  20
ATOM     20  O   UNL     1      -6.186  11.198   8.581  1.00  0.00    -0.504 OA
ATOM     21  H   UNL     1      -5.878  12.158   8.687  1.00  0.00     0.293 HD
ENDBRANCH  17  20
ENDBRANCH   1  12
BRANCH   2  22
ATOM     22  O   UNL     1     -10.936  10.593   5.822  1.00  0.00    -0.502 OA
ATOM     23  H   UNL     1     -11.787  11.051   5.518  1.00  0.00     0.293 HD
ENDBRANCH   2  22
BRANCH   6  24
ATOM     24  O   UNL     1     -14.153   6.371   5.378  1.00  0.00    -0.507 OA
ATOM     25  H   UNL     1     -14.684   5.949   4.631  1.00  0.00     0.293 HD
ENDBRANCH   6  24
BRANCH   8  26
ATOM     26  O   UNL     1     -11.050   2.842   6.366  1.00  0.00    -0.508 OA
ATOM     27  H   UNL     1     -10.982   2.203   5.584  1.00  0.00     0.293 HD
ENDBRANCH   8  26
TORSDOF 6
ENDMDL
MODEL 2
REMARK VINA RESULT:    -6.005     17.465     19.775
REMARK INTER + INTRA:          -7.556
REMARK INTER:                  -7.898
REMARK INTRA:                   0.342
REMARK UNBOUND:                -0.323
REMARK SMILES O=c1c(O)c(-c2ccc(O)c(O)c2)oc2cc(O)cc(O)c12
REMARK SMILES IDX 5 1 3 2 2 3 1 4 22 5 20 6 19 7 17 8 16 9 15 10 14 11 6 12
REMARK SMILES IDX 7 13 8 14 9 15 13 16 11 17 10 18 12 20 4 22 21 24 18 26
REMARK H PARENT 10 19 12 21 4 23 21 25 18 27
REMARK Flexibility Score: inf
ROOT
ATOM      1  C   UNL     1     -11.985  -2.504  -9.648  1.00  0.00     0.180 A 
ATOM      2  C   UNL     1     -10.602  -2.758  -9.629  1.00  0.00     0.208 A 
ATOM      3  C   UNL     1     -10.155  -4.081  -9.481  1.00  0.00     0.238 A 
ATOM      4  O   UNL     1      -8.917  -4.308  -9.520  1.00  0.00    -0.285 OA
ATOM      5  C   UNL     1     -11.094  -5.130  -9.337  1.00  0.00     0.111 A 
ATOM      6  C   UNL     1     -10.753  -6.502  -9.140  1.00  0.00     0.134 A 
ATOM      7  C   UNL     1     -11.763  -7.472  -9.141  1.00  0.00     0.093 A 
ATOM      8  C   UNL     1     -13.107  -7.112  -9.267  1.00  0.00     0.123 A 
ATOM      9  C   UNL     1     -13.454  -5.770  -9.399  1.00  0.00     0.094 A 
ATOM     10  C   UNL     1     -12.466  -4.783  -9.439  1.00  0.00     0.146 A 
ATOM     11  O   UNL     1     -12.840  -3.516  -9.577  1.00  0.00    -0.452 OA
ENDROOT
BRANCH   1  12
ATOM     12  C   UNL     1     -12.532  -1.133  -9.776  1.00  0.00     0.025 A 
ATOM     13  C   UNL     1     -13.864  -0.957 -10.181  1.00  0.00     0.016 A 
ATOM     14  C   UNL     1     -14.407   0.326 -10.287  1.00  0.00     0.051 A 
ATOM     15  C   UNL     1     -13.635   1.449  -9.978  1.00  0.00     0.157 A 
ATOM     16  C   UNL     1     -11.762  -0.003  -9.444  1.00  0.00     0.062 A 
ATOM     17  C   UNL     1     -12.306   1.285  -9.550  1.00  0.00     0.158 A 
BRANCH  15  18
ATOM     18  O   UNL     1     -14.203   2.717 -10.096  1.00  0.00    -0.504 OA
ATOM     19  H   UNL     1     -15.201   2.852 -10.202  1.00  0.00     0.293 HD
ENDBRANCH  15  18
BRANCH  17  20
ATOM     20  O   UNL     1     -11.535   2.400  -9.226  1.00  0.00    -0.504 OA
ATOM     21  H   UNL     1     -11.304   2.623  -8.264  1.00  0.00     0.293 HD
ENDBRANCH  17  20
ENDBRANCH   1  12
BRANCH   2  22
ATOM     22  O   UNL     1      -9.693  -1.710  -9.795  1.00  0.00    -0.502 OA
ATOM     23  H   UNL     1      -8.818  -1.823 -10.293  1.00  0.00     0.293 HD
ENDBRANCH   2  22
BRANCH   6  24
ATOM     24  O   UNL     1      -9.451  -6.957  -8.913  1.00  0.00    -0.507 OA
ATOM     25  H   UNL     1      -8.738  -7.039  -9.623  1.00  0.00     0.293 HD
ENDBRANCH   6  24
BRANCH   8  26
ATOM     26  O   UNL     1     -14.107  -8.082  -9.251  1.00  0.00    -0.508 OA
ATOM     27  H   UNL     1     -14.882  -8.055  -9.902  1.00  0.00     0.293 HD
ENDBRANCH   8  26
TORSDOF 6
ENDMDL
MODEL 3
REMARK VINA RESULT:    -5.618      2.199      6.590
REMARK INTER + INTRA:          -7.091
REMARK INTER:                  -6.823
REMARK INTRA:                  -0.268
REMARK UNBOUND:                -0.323
REMARK SMILES O=c1c(O)c(-c2ccc(O)c(O)c2)oc2cc(O)cc(O)c12
REMARK SMILES IDX 5 1 3 2 2 3 1 4 22 5 20 6 19 7 17 8 16 9 15 10 14 11 6 12
REMARK SMILES IDX 7 13 8 14 9 15 13 16 11 17 10 18 12 20 4 22 21 24 18 26
REMARK H PARENT 10 19 12 21 4 23 21 25 18 27
REMARK Flexibility Score: inf
ROOT
ATOM      1  C   UNL     1     -10.464   7.631   6.557  1.00  0.00     0.180 A 
ATOM      2  C   UNL     1      -9.216   8.238   6.333  1.00  0.00     0.208 A 
ATOM      3  C   UNL     1      -9.174   9.511   5.742  1.00  0.00     0.238 A 
ATOM      4  O   UNL     1      -8.057  10.072   5.596  1.00  0.00    -0.285 OA
ATOM      5  C   UNL     1     -10.378  10.153   5.367  1.00  0.00     0.111 A 
ATOM      6  C   UNL     1     -10.451  11.425   4.723  1.00  0.00     0.134 A 
ATOM      7  C   UNL     1     -11.700  12.023   4.516  1.00  0.00     0.093 A 
ATOM      8  C   UNL     1     -12.881  11.366   4.869  1.00  0.00     0.123 A 
ATOM      9  C   UNL     1     -12.822  10.099   5.443  1.00  0.00     0.094 A 
ATOM     10  C   UNL     1     -11.589   9.491   5.696  1.00  0.00     0.146 A 
ATOM     11  O   UNL     1     -11.578   8.287   6.254  1.00  0.00    -0.452 OA
ENDROOT
BRANCH   1  12
ATOM     12  C   UNL     1     -10.588   6.280   7.153  1.00  0.00     0.025 A 
ATOM     13  C   UNL     1     -10.438   6.122   8.539  1.00  0.00     0.016 A 
ATOM     14  C   UNL     1     -10.573   4.860   9.125  1.00  0.00     0.051 A 
ATOM     15  C   UNL     1     -10.873   3.744   8.340  1.00  0.00     0.157 A 
ATOM     16  C   UNL     1     -10.912   5.160   6.366  1.00  0.00     0.062 A 
ATOM     17  C   UNL     1     -11.048   3.893   6.954  1.00  0.00     0.158 A 
BRANCH  15  18
ATOM     18  O   UNL     1     -10.998   2.497   8.952  1.00  0.00    -0.504 OA
ATOM     19  H   UNL     1     -10.242   1.824   8.962  1.00  0.00     0.293 HD
ENDBRANCH  15  18
BRANCH  17  20
ATOM     20  O   UNL     1     -11.363   2.786   6.166  1.00  0.00    -0.504 OA
ATOM     21  H   UNL     1     -10.657   2.308   5.618  1.00  0.00     0.293 HD
ENDBRANCH  17  20
ENDBRANCH   1  12
BRANCH   2  22
ATOM     22  O   UNL     1      -8.041   7.595   6.733  1.00  0.00    -0.502 OA
ATOM     23  H   UNL     1      -7.840   7.383   7.702  1.00  0.00     0.293 HD
ENDBRANCH   2  22
BRANCH   6  24
ATOM     24  O   UNL     1      -9.338  12.125   4.248  1.00  0.00    -0.507 OA
ATOM     25  H   UNL     1      -9.239  13.129   4.268  1.00  0.00     0.293 HD
ENDBRANCH   6  24
BRANCH   8  26
ATOM     26  O   UNL     1     -14.121  11.962   4.645  1.00  0.00    -0.508 OA
ATOM     27  H   UNL     1     -14.898  11.439   4.261  1.00  0.00     0.293 HD
ENDBRANCH   8  26
TORSDOF 6
ENDMDL
MODEL 4
REMARK VINA RESULT:    -5.381      1.248      2.828
REMARK INTER + INTRA:          -6.805
REMARK INTER:                  -6.536
REMARK INTRA:                  -0.269
REMARK UNBOUND:                -0.323
REMARK SMILES O=c1c(O)c(-c2ccc(O)c(O)c2)oc2cc(O)cc(O)c12
REMARK SMILES IDX 5 1 3 2 2 3 1 4 22 5 20 6 19 7 17 8 16 9 15 10 14 11 6 12
REMARK SMILES IDX 7 13 8 14 9 15 13 16 11 17 10 18 12 20 4 22 21 24 18 26
REMARK H PARENT 10 19 12 21 4 23 21 25 18 27
REMARK Flexibility Score: inf
ROOT
ATOM      1  C   UNL     1      -9.432   8.117   6.136  1.00  0.00     0.180 A 
ATOM      2  C   UNL     1      -9.252   6.789   6.562  1.00  0.00     0.208 A 
ATOM      3  C   UNL     1     -10.340   5.903   6.505  1.00  0.00     0.238 A 
ATOM      4  O   UNL     1     -10.157   4.702   6.836  1.00  0.00    -0.285 OA
ATOM      5  C   UNL     1     -11.596   6.358   6.039  1.00  0.00     0.111 A 
ATOM      6  C   UNL     1     -12.776   5.558   5.977  1.00  0.00     0.134 A 
ATOM      7  C   UNL     1     -13.931   6.074   5.377  1.00  0.00     0.093 A 
ATOM      8  C   UNL     1     -13.967   7.385   4.895  1.00  0.00     0.123 A 
ATOM      9  C   UNL     1     -12.839   8.193   5.005  1.00  0.00     0.094 A 
ATOM     10  C   UNL     1     -11.660   7.695   5.566  1.00  0.00     0.146 A 
ATOM     11  O   UNL     1     -10.604   8.496   5.642  1.00  0.00    -0.452 OA
ENDROOT
BRANCH   1  12
ATOM     12  C   UNL     1      -8.340   9.116   6.189  1.00  0.00     0.025 A 
ATOM     13  C   UNL     1      -7.757   9.566   4.993  1.00  0.00     0.016 A 
ATOM     14  C   UNL     1      -6.740  10.524   5.020  1.00  0.00     0.051 A 
ATOM     15  C   UNL     1      -6.302  11.058   6.235  1.00  0.00     0.157 A 
ATOM     16  C   UNL     1      -7.912   9.670   7.410  1.00  0.00     0.062 A 
ATOM     17  C   UNL     1      -6.892  10.632   7.436  1.00  0.00     0.158 A 
BRANCH  15  18
ATOM     18  O   UNL     1      -5.283  12.010   6.229  1.00  0.00    -0.504 OA
ATOM     19  H   UNL     1      -4.561  12.022   5.519  1.00  0.00     0.293 HD
ENDBRANCH  15  18
BRANCH  17  20
ATOM     20  O   UNL     1      -6.470  11.171   8.650  1.00  0.00    -0.504 OA
ATOM     21  H   UNL     1      -5.910  10.634   9.303  1.00  0.00     0.293 HD
ENDBRANCH  17  20
ENDBRANCH   1  12
BRANCH   2  22
ATOM     22  O   UNL     1      -7.997   6.355   6.997  1.00  0.00    -0.502 OA
ATOM     23  H   UNL     1      -7.136   6.654   6.557  1.00  0.00     0.293 HD
ENDBRANCH   2  22
BRANCH   6  24
ATOM     24  O   UNL     1     -12.874   4.269   6.511  1.00  0.00    -0.507 OA
ATOM     25  H   UNL     1     -12.196   3.535   6.370  1.00  0.00     0.293 HD
ENDBRANCH   6  24
BRANCH   8  26
ATOM     26  O   UNL     1     -15.125   7.896   4.312  1.00  0.00    -0.508 OA
ATOM     27  H   UNL     1     -15.545   7.463   3.499  1.00  0.00     0.293 HD
ENDBRANCH   8  26
TORSDOF 6
ENDMDL
MODEL 5
REMARK VINA RESULT:    -4.933     16.360     18.198
REMARK INTER + INTRA:          -6.265
REMARK INTER:                  -6.758
REMARK INTRA:                   0.493
REMARK UNBOUND:                -0.323
REMARK SMILES O=c1c(O)c(-c2ccc(O)c(O)c2)oc2cc(O)cc(O)c12
REMARK SMILES IDX 5 1 3 2 2 3 1 4 22 5 20 6 19 7 17 8 16 9 15 10 14 11 6 12
REMARK SMILES IDX 7 13 8 14 9 15 13 16 11 17 10 18 12 20 4 22 21 24 18 26
REMARK H PARENT 10 19 12 21 4 23 21 25 18 27
REMARK Flexibility Score: inf
ROOT
ATOM      1  C   UNL     1     -11.848  -0.290  -9.381  1.00  0.00     0.180 A 
ATOM      2  C   UNL     1     -12.755  -1.163 -10.007  1.00  0.00     0.208 A 
ATOM      3  C   UNL     1     -12.438  -2.529 -10.089  1.00  0.00     0.238 A 
ATOM      4  O   UNL     1     -13.279  -3.313 -10.601  1.00  0.00    -0.285 OA
ATOM      5  C   UNL     1     -11.213  -3.001  -9.560  1.00  0.00     0.111 A 
ATOM      6  C   UNL     1     -10.772  -4.357  -9.625  1.00  0.00     0.134 A 
ATOM      7  C   UNL     1      -9.602  -4.736  -8.955  1.00  0.00     0.093 A 
ATOM      8  C   UNL     1      -8.825  -3.794  -8.276  1.00  0.00     0.123 A 
ATOM      9  C   UNL     1      -9.215  -2.458  -8.258  1.00  0.00     0.094 A 
ATOM     10  C   UNL     1     -10.396  -2.056  -8.887  1.00  0.00     0.146 A 
ATOM     11  O   UNL     1     -10.738  -0.774  -8.837  1.00  0.00    -0.452 OA
ENDROOT
BRANCH   1  12
ATOM     12  C   UNL     1     -12.100   1.166  -9.277  1.00  0.00     0.025 A 
ATOM     13  C   UNL     1     -13.393   1.661  -9.508  1.00  0.00     0.016 A 
ATOM     14  C   UNL     1     -13.658   3.028  -9.394  1.00  0.00     0.051 A 
ATOM     15  C   UNL     1     -12.642   3.918  -9.034  1.00  0.00     0.157 A 
ATOM     16  C   UNL     1     -11.083   2.060  -8.894  1.00  0.00     0.062 A 
ATOM     17  C   UNL     1     -11.349   3.433  -8.778  1.00  0.00     0.158 A 
BRANCH  15  18
ATOM     18  O   UNL     1     -12.936   5.277  -8.931  1.00  0.00    -0.504 OA
ATOM     19  H   UNL     1     -12.210   5.982  -8.876  1.00  0.00     0.293 HD
ENDBRANCH  15  18
BRANCH  17  20
ATOM     20  O   UNL     1     -10.334   4.312  -8.404  1.00  0.00    -0.504 OA
ATOM     21  H   UNL     1     -10.536   5.179  -7.918  1.00  0.00     0.293 HD
ENDBRANCH  17  20
ENDBRANCH   1  12
BRANCH   2  22
ATOM     22  O   UNL     1     -13.969  -0.679 -10.501  1.00  0.00    -0.502 OA
ATOM     23  H   UNL     1     -14.188  -0.670 -11.489  1.00  0.00     0.293 HD
ENDBRANCH   2  22
BRANCH   6  24
ATOM     24  O   UNL     1     -11.425  -5.357 -10.352  1.00  0.00    -0.507 OA
ATOM     25  H   UNL     1     -10.961  -6.070 -10.894  1.00  0.00     0.293 HD
ENDBRANCH   6  24
BRANCH   8  26
ATOM     26  O   UNL     1      -7.654  -4.177  -7.624  1.00  0.00    -0.508 OA
ATOM     27  H   UNL     1      -7.252  -5.097  -7.754  1.00  0.00     0.293 HD
ENDBRANCH   8  26
TORSDOF 6
ENDMDL
MODEL 6
REMARK VINA RESULT:    -4.808     16.800     19.263
REMARK INTER + INTRA:          -6.114
REMARK INTER:                  -6.341
REMARK INTRA:                   0.226
REMARK UNBOUND:                -0.323
REMARK SMILES O=c1c(O)c(-c2ccc(O)c(O)c2)oc2cc(O)cc(O)c12
REMARK SMILES IDX 5 1 3 2 2 3 1 4 22 5 20 6 19 7 17 8 16 9 15 10 14 11 6 12
REMARK SMILES IDX 7 13 8 14 9 15 13 16 11 17 10 18 12 20 4 22 21 24 18 26
REMARK H PARENT 10 19 12 21 4 23 21 25 18 27
REMARK Flexibility Score: inf
ROOT
ATOM      1  C   UNL     1     -11.757  -1.537  -9.684  1.00  0.00     0.180 A 
ATOM      2  C   UNL     1     -13.023  -1.423 -10.286  1.00  0.00     0.208 A 
ATOM      3  C   UNL     1     -13.636  -0.162 -10.346  1.00  0.00     0.238 A 
ATOM      4  O   UNL     1     -14.745  -0.057 -10.935  1.00  0.00    -0.285 OA
ATOM      5  C   UNL     1     -12.987   0.965  -9.790  1.00  0.00     0.111 A 
ATOM      6  C   UNL     1     -13.535   2.283  -9.758  1.00  0.00     0.134 A 
ATOM      7  C   UNL     1     -12.749   3.347  -9.300  1.00  0.00     0.093 A 
ATOM      8  C   UNL     1     -11.458   3.131  -8.811  1.00  0.00     0.123 A 
ATOM      9  C   UNL     1     -10.937   1.840  -8.782  1.00  0.00     0.094 A 
ATOM     10  C   UNL     1     -11.683   0.763  -9.267  1.00  0.00     0.146 A 
ATOM     11  O   UNL     1     -11.144  -0.450  -9.231  1.00  0.00    -0.452 OA
ENDROOT
BRANCH   1  12
ATOM     12  C   UNL     1     -11.057  -2.837  -9.562  1.00  0.00     0.025 A 
ATOM     13  C   UNL     1      -9.654  -2.865  -9.533  1.00  0.00     0.016 A 
ATOM     14  C   UNL     1      -8.974  -4.078  -9.397  1.00  0.00     0.051 A 
ATOM     15  C   UNL     1      -9.683  -5.276  -9.271  1.00  0.00     0.157 A 
ATOM     16  C   UNL     1     -11.770  -4.041  -9.414  1.00  0.00     0.062 A 
ATOM     17  C   UNL     1     -11.088  -5.259  -9.276  1.00  0.00     0.158 A 
BRANCH  15  18
ATOM     18  O   UNL     1      -8.977  -6.472  -9.139  1.00  0.00    -0.504 OA
ATOM     19  H   UNL     1      -8.812  -7.089  -9.924  1.00  0.00     0.293 HD
ENDBRANCH  15  18
BRANCH  17  20
ATOM     20  O   UNL     1     -11.801  -6.449  -9.136  1.00  0.00    -0.504 OA
ATOM     21  H   UNL     1     -12.794  -6.498  -9.331  1.00  0.00     0.293 HD
ENDBRANCH  17  20
ENDBRANCH   1  12
BRANCH   2  22
ATOM     22  O   UNL     1     -13.636  -2.545 -10.849  1.00  0.00    -0.502 OA
ATOM     23  H   UNL     1     -13.147  -3.177 -11.471  1.00  0.00     0.293 HD
ENDBRANCH   2  22
BRANCH   6  24
ATOM     24  O   UNL     1     -14.844   2.593 -10.137  1.00  0.00    -0.507 OA
ATOM     25  H   UNL     1     -15.261   3.510 -10.070  1.00  0.00     0.293 HD
ENDBRANCH   6  24
BRANCH   8  26
ATOM     26  O   UNL     1     -10.688   4.194  -8.343  1.00  0.00    -0.508 OA
ATOM     27  H   UNL     1     -10.935   4.695  -7.498  1.00  0.00     0.293 HD
ENDBRANCH   8  26
TORSDOF 6
ENDMDL
MODEL 7
REMARK VINA RESULT:    -4.753      1.976      6.469
REMARK INTER + INTRA:          -6.048
REMARK INTER:                  -5.777
REMARK INTRA:                  -0.272
REMARK UNBOUND:                -0.323
REMARK SMILES O=c1c(O)c(-c2ccc(O)c(O)c2)oc2cc(O)cc(O)c12
REMARK SMILES IDX 5 1 3 2 2 3 1 4 22 5 20 6 19 7 17 8 16 9 15 10 14 11 6 12
REMARK SMILES IDX 7 13 8 14 9 15 13 16 11 17 10 18 12 20 4 22 21 24 18 26
REMARK H PARENT 10 19 12 21 4 23 21 25 18 27
REMARK Flexibility Score: inf
ROOT
ATOM      1  C   UNL     1     -11.360   7.591   6.331  1.00  0.00     0.180 A 
ATOM      2  C   UNL     1     -12.561   8.035   5.749  1.00  0.00     0.208 A 
ATOM      3  C   UNL     1     -12.589   9.290   5.120  1.00  0.00     0.238 A 
ATOM      4  O   UNL     1     -13.652   9.658   4.553  1.00  0.00    -0.285 OA
ATOM      5  C   UNL     1     -11.423  10.093   5.096  1.00  0.00     0.111 A 
ATOM      6  C   UNL     1     -11.350  11.398   4.523  1.00  0.00     0.134 A 
ATOM      7  C   UNL     1     -10.112  12.047   4.440  1.00  0.00     0.093 A 
ATOM      8  C   UNL     1      -8.957  11.465   4.969  1.00  0.00     0.123 A 
ATOM      9  C   UNL     1      -9.030  10.218   5.583  1.00  0.00     0.094 A 
ATOM     10  C   UNL     1     -10.244   9.530   5.649  1.00  0.00     0.146 A 
ATOM     11  O   UNL     1     -10.267   8.338   6.234  1.00  0.00    -0.452 OA
ENDROOT
BRANCH   1  12
ATOM     12  C   UNL     1     -11.259   6.291   7.032  1.00  0.00     0.025 A 
ATOM     13  C   UNL     1     -11.292   6.258   8.435  1.00  0.00     0.016 A 
ATOM     14  C   UNL     1     -11.219   5.040   9.116  1.00  0.00     0.051 A 
ATOM     15  C   UNL     1     -11.127   3.838   8.408  1.00  0.00     0.157 A 
ATOM     16  C   UNL     1     -11.188   5.079   6.321  1.00  0.00     0.062 A 
ATOM     17  C   UNL     1     -11.116   3.855   7.004  1.00  0.00     0.158 A 
BRANCH  15  18
ATOM     18  O   UNL     1     -11.053   2.639   9.116  1.00  0.00    -0.504 OA
ATOM     19  H   UNL     1     -11.706   1.880   8.959  1.00  0.00     0.293 HD
ENDBRANCH  15  18
BRANCH  17  20
ATOM     20  O   UNL     1     -11.039   2.660   6.292  1.00  0.00    -0.504 OA
ATOM     21  H   UNL     1     -11.046   1.761   6.761  1.00  0.00     0.293 HD
ENDBRANCH  17  20
ENDBRANCH   1  12
BRANCH   2  22
ATOM     22  O   UNL     1     -13.693   7.217   5.764  1.00  0.00    -0.502 OA
ATOM     23  H   UNL     1     -13.769   6.382   5.197  1.00  0.00     0.293 HD
ENDBRANCH   2  22
BRANCH   6  24
ATOM     24  O   UNL     1     -12.458  12.106   4.050  1.00  0.00    -0.507 OA
ATOM     25  H   UNL     1     -12.694  12.222   3.075  1.00  0.00     0.293 HD
ENDBRANCH   6  24
BRANCH   8  26
ATOM     26  O   UNL     1      -7.732  12.125   4.895  1.00  0.00    -0.508 OA
ATOM     27  H   UNL     1      -7.675  13.117   4.702  1.00  0.00     0.293 HD
ENDBRANCH   8  26
TORSDOF 6
ENDMDL
MODEL 8
REMARK VINA RESULT:    -4.543     17.680     19.942
REMARK INTER + INTRA:          -5.795
REMARK INTER:                  -6.190
REMARK INTRA:                   0.396
REMARK UNBOUND:                -0.323
REMARK SMILES O=c1c(O)c(-c2ccc(O)c(O)c2)oc2cc(O)cc(O)c12
REMARK SMILES IDX 5 1 3 2 2 3 1 4 22 5 20 6 19 7 17 8 16 9 15 10 14 11 6 12
REMARK SMILES IDX 7 13 8 14 9 15 13 16 11 17 10 18 12 20 4 22 21 24 18 26
REMARK H PARENT 10 19 12 21 4 23 21 25 18 27
REMARK Flexibility Score: inf
ROOT
ATOM      1  C   UNL     1     -12.789  -2.859  -9.675  1.00  0.00     0.180 A 
ATOM      2  C   UNL     1     -13.974  -3.481 -10.106  1.00  0.00     0.208 A 
ATOM      3  C   UNL     1     -14.042  -4.884 -10.112  1.00  0.00     0.238 A 
ATOM      4  O   UNL     1     -15.125  -5.433 -10.447  1.00  0.00    -0.285 OA
ATOM      5  C   UNL     1     -12.922  -5.646  -9.705  1.00  0.00     0.111 A 
ATOM      6  C   UNL     1     -12.866  -7.072  -9.711  1.00  0.00     0.134 A 
ATOM      7  C   UNL     1     -11.754  -7.723  -9.163  1.00  0.00     0.093 A 
ATOM      8  C   UNL     1     -10.667  -6.997  -8.670  1.00  0.00     0.123 A 
ATOM      9  C   UNL     1     -10.686  -5.606  -8.715  1.00  0.00     0.094 A 
ATOM     10  C   UNL     1     -11.797  -4.928  -9.221  1.00  0.00     0.146 A 
ATOM     11  O   UNL     1     -11.779  -3.600  -9.236  1.00  0.00    -0.452 OA
ENDROOT
BRANCH   1  12
ATOM     12  C   UNL     1     -12.632  -1.386  -9.662  1.00  0.00     0.025 A 
ATOM     13  C   UNL     1     -11.343  -0.829  -9.682  1.00  0.00     0.016 A 
ATOM     14  C   UNL     1     -11.173   0.558  -9.692  1.00  0.00     0.051 A 
ATOM     15  C   UNL     1     -12.283   1.407  -9.699  1.00  0.00     0.157 A 
ATOM     16  C   UNL     1     -13.748  -0.531  -9.691  1.00  0.00     0.062 A 
ATOM     17  C   UNL     1     -13.578   0.862  -9.702  1.00  0.00     0.158 A 
BRANCH  15  18
ATOM     18  O   UNL     1     -12.082   2.787  -9.706  1.00  0.00    -0.504 OA
ATOM     19  H   UNL     1     -11.783   3.283 -10.537  1.00  0.00     0.293 HD
ENDBRANCH  15  18
BRANCH  17  20
ATOM     20  O   UNL     1     -14.690   1.703  -9.724  1.00  0.00    -0.504 OA
ATOM     21  H   UNL     1     -14.613   2.689  -9.503  1.00  0.00     0.293 HD
ENDBRANCH  17  20
ENDBRANCH   1  12
BRANCH   2  22
ATOM     22  O   UNL     1     -15.076  -2.709 -10.483  1.00  0.00    -0.502 OA
ATOM     23  H   UNL     1     -15.667  -2.952 -11.268  1.00  0.00     0.293 HD
ENDBRANCH   2  22
BRANCH   6  24
ATOM     24  O   UNL     1     -13.857  -7.890 -10.263  1.00  0.00    -0.507 OA
ATOM     25  H   UNL     1     -14.591  -8.340  -9.735  1.00  0.00     0.293 HD
ENDBRANCH   6  24
BRANCH   8  26
ATOM     26  O   UNL     1      -9.557  -7.653  -8.140  1.00  0.00    -0.508 OA
ATOM     27  H   UNL     1      -9.589  -8.100  -7.232  1.00  0.00     0.293 HD
ENDBRANCH   8  26
TORSDOF 6
ENDMDL
