MODEL 1
REMARK VINA RESULT:    -3.312      0.000      0.000
REMARK INTER + INTRA:          -7.267
REMARK INTER:                  -5.636
REMARK INTRA:                  -1.631
REMARK UNBOUND:                -1.631
REMARK SMILES CCCCCCCCCCCCCC(=O)[O-]
REMARK SMILES IDX 8 1 9 2 10 3 11 4 12 5 13 6 14 7 15 8 16 9 7 10 6 11 5 12
REMARK SMILES IDX 4 13 3 14 2 15 1 16
REMARK H PARENT
REMARK Flexibility Score: inf
ROOT
ATOM      1  C   UNL     1      33.263  18.959  13.293  1.00  0.00     0.000 C 
ENDROOT
BRANCH   1   2
ATOM      2  C   UNL     1      33.191  20.003  12.165  1.00  0.00     0.000 C 
BRANCH   2   3
ATOM      3  C   UNL     1      33.135  21.450  12.688  1.00  0.00     0.000 C 
BRANCH   3   4
ATOM      4  C   UNL     1      34.302  22.353  12.247  1.00  0.00     0.000 C 
BRANCH   4   5
ATOM      5  C   UNL     1      35.552  21.560  11.828  1.00  0.00     0.006 C 
BRANCH   5   6
ATOM      6  C   UNL     1      36.400  22.318  10.798  1.00  0.00     0.053 C 
BRANCH   6   7
ATOM      7  C   UNL     1      36.304  21.701   9.436  1.00  0.00     0.041 C 
ATOM      8  O   UNL     1      36.867  20.601   9.196  1.00  0.00    -0.550 OA
ATOM      9  O   UNL     1      35.567  22.329   8.439  1.00  0.00    -0.550 OA
ENDBRANCH   6   7
ENDBRANCH   5   6
ENDBRANCH   4   5
ENDBRANCH   3   4
ENDBRANCH   2   3
ENDBRANCH   1   2
BRANCH   1  10
ATOM     10  C   UNL     1      33.289  19.594  14.695  1.00  0.00     0.000 C 
BRANCH  10  11
ATOM     11  C   UNL     1      34.531  19.263  15.548  1.00  0.00    -0.000 C 
BRANCH  11  12
ATOM     12  C   UNL     1      35.235  20.479  16.176  1.00  0.00    -0.000 C 
BRANCH  12  13
ATOM     13  C   UNL     1      36.414  20.987  15.335  1.00  0.00    -0.000 C 
BRANCH  13  14
ATOM     14  C   UNL     1      36.414  22.520  15.260  1.00  0.00    -0.000 C 
BRANCH  14  15
ATOM     15  C   UNL     1      37.627  23.075  14.497  1.00  0.00    -0.003 C 
ATOM     16  C   UNL     1      38.884  22.227  14.687  1.00  0.00     0.004 C 
ENDBRANCH  14  15
ENDBRANCH  13  14
ENDBRANCH  12  13
ENDBRANCH  11  12
ENDBRANCH  10  11
ENDBRANCH   1  10
TORSDOF 12
ENDMDL
MODEL 2
REMARK VINA RESULT:    -2.769      2.282      4.797
REMARK INTER + INTRA:          -6.342
REMARK INTER:                  -5.310
REMARK INTRA:                  -1.032
REMARK UNBOUND:                -1.631
REMARK SMILES CCCCCCCCCCCCCC(=O)[O-]
REMARK SMILES IDX 8 1 9 2 10 3 11 4 12 5 13 6 14 7 15 8 16 9 7 10 6 11 5 12
REMARK SMILES IDX 4 13 3 14 2 15 1 16
REMARK H PARENT
REMARK Flexibility Score: inf
ROOT
ATOM      1  C   UNL     1      33.006  19.445  12.996  1.00  0.00     0.000 C 
ENDROOT
BRANCH   1   2
ATOM      2  C   UNL     1      33.542  20.411  14.066  1.00  0.00     0.000 C 
BRANCH   2   3
ATOM      3  C   UNL     1      33.958  19.698  15.365  1.00  0.00     0.000 C 
BRANCH   3   4
ATOM      4  C   UNL     1      35.273  20.193  15.995  1.00  0.00     0.000 C 
BRANCH   4   5
ATOM      5  C   UNL     1      36.293  20.681  14.951  1.00  0.00     0.006 C 
BRANCH   5   6
ATOM      6  C   UNL     1      36.793  22.101  15.251  1.00  0.00     0.053 C 
BRANCH   6   7
ATOM      7  C   UNL     1      37.974  22.465  14.405  1.00  0.00     0.041 C 
ATOM      8  O   UNL     1      37.810  23.069  13.312  1.00  0.00    -0.550 OA
ATOM      9  O   UNL     1      39.259  22.164  14.837  1.00  0.00    -0.550 OA
ENDBRANCH   6   7
ENDBRANCH   5   6
ENDBRANCH   4   5
ENDBRANCH   3   4
ENDBRANCH   2   3
ENDBRANCH   1   2
BRANCH   1  10
ATOM     10  C   UNL     1      32.886  20.097  11.607  1.00  0.00     0.000 C 
BRANCH  10  11
ATOM     11  C   UNL     1      33.379  21.555  11.516  1.00  0.00    -0.000 C 
BRANCH  11  12
ATOM     12  C   UNL     1      33.113  22.253  10.171  1.00  0.00    -0.000 C 
BRANCH  12  13
ATOM     13  C   UNL     1      34.310  23.080   9.680  1.00  0.00    -0.000 C 
BRANCH  13  14
ATOM     14  C   UNL     1      35.489  22.971  10.658  1.00  0.00    -0.000 C 
BRANCH  14  15
ATOM     15  C   UNL     1      36.766  22.443   9.987  1.00  0.00    -0.003 C 
ATOM     16  C   UNL     1      36.592  21.043   9.399  1.00  0.00     0.004 C 
ENDBRANCH  14  15
ENDBRANCH  13  14
ENDBRANCH  12  13
ENDBRANCH  11  12
ENDBRANCH  10  11
ENDBRANCH   1  10
TORSDOF 12
ENDMDL
MODEL 3
REMARK VINA RESULT:    -2.636     13.654     17.006
REMARK INTER + INTRA:          -6.117
REMARK INTER:                  -4.853
REMARK INTRA:                  -1.264
REMARK UNBOUND:                -1.631
REMARK SMILES CCCCCCCCCCCCCC(=O)[O-]
REMARK SMILES IDX 8 1 9 2 10 3 11 4 12 5 13 6 14 7 15 8 16 9 7 10 6 11 5 12
REMARK SMILES IDX 4 13 3 14 2 15 1 16
REMARK H PARENT
REMARK Flexibility Score: inf
ROOT
ATOM      1  C   UNL     1      49.179  22.468  18.910  1.00  0.00     0.000 C 
ENDROOT
BRANCH   1   2
ATOM      2  C   UNL     1      50.473  23.125  18.400  1.00  0.00     0.000 C 
BRANCH   2   3
ATOM      3  C   UNL     1      51.694  22.192  18.483  1.00  0.00     0.000 C 
BRANCH   3   4
ATOM      4  C   UNL     1      52.928  22.784  19.189  1.00  0.00     0.000 C 
BRANCH   4   5
ATOM      5  C   UNL     1      53.051  22.341  20.657  1.00  0.00     0.006 C 
BRANCH   5   6
ATOM      6  C   UNL     1      52.135  21.153  20.982  1.00  0.00     0.053 C 
BRANCH   6   7
ATOM      7  C   UNL     1      51.402  21.351  22.273  1.00  0.00     0.041 C 
ATOM      8  O   UNL     1      50.187  21.037  22.368  1.00  0.00    -0.550 OA
ATOM      9  O   UNL     1      52.070  21.857  23.381  1.00  0.00    -0.550 OA
ENDBRANCH   6   7
ENDBRANCH   5   6
ENDBRANCH   4   5
ENDBRANCH   3   4
ENDBRANCH   2   3
ENDBRANCH   1   2
BRANCH   1  10
ATOM     10  C   UNL     1      47.909  23.110  18.324  1.00  0.00     0.000 C 
BRANCH  10  11
ATOM     11  C   UNL     1      47.706  22.910  16.808  1.00  0.00    -0.000 C 
BRANCH  11  12
ATOM     12  C   UNL     1      47.231  21.507  16.392  1.00  0.00    -0.000 C 
BRANCH  12  13
ATOM     13  C   UNL     1      48.300  20.718  15.623  1.00  0.00    -0.000 C 
BRANCH  13  14
ATOM     14  C   UNL     1      49.499  21.614  15.276  1.00  0.00    -0.000 C 
BRANCH  14  15
ATOM     15  C   UNL     1      50.587  20.867  14.491  1.00  0.00    -0.003 C 
ATOM     16  C   UNL     1      51.949  20.906  15.183  1.00  0.00     0.004 C 
ENDBRANCH  14  15
ENDBRANCH  13  14
ENDBRANCH  12  13
ENDBRANCH  11  12
ENDBRANCH  10  11
ENDBRANCH   1  10
TORSDOF 12
ENDMDL
MODEL 4
REMARK VINA RESULT:    -2.573     12.884     16.610
REMARK INTER + INTRA:          -6.010
REMARK INTER:                  -5.081
REMARK INTRA:                  -0.929
REMARK UNBOUND:                -1.631
REMARK SMILES CCCCCCCCCCCCCC(=O)[O-]
REMARK SMILES IDX 8 1 9 2 10 3 11 4 12 5 13 6 14 7 15 8 16 9 7 10 6 11 5 12
REMARK SMILES IDX 4 13 3 14 2 15 1 16
REMARK H PARENT
REMARK Flexibility Score: inf
ROOT
ATOM      1  C   UNL     1      52.548  21.802  15.812  1.00  0.00     0.000 C 
ENDROOT
BRANCH   1   2
ATOM      2  C   UNL     1      52.727  21.663  17.334  1.00  0.00     0.000 C 
BRANCH   2   3
ATOM      3  C   UNL     1      52.669  23.013  18.072  1.00  0.00     0.000 C 
BRANCH   3   4
ATOM      4  C   UNL     1      51.948  22.988  19.432  1.00  0.00     0.000 C 
BRANCH   4   5
ATOM      5  C   UNL     1      50.517  22.432  19.344  1.00  0.00     0.006 C 
BRANCH   5   6
ATOM      6  C   UNL     1      49.722  22.674  20.634  1.00  0.00     0.053 C 
BRANCH   6   7
ATOM      7  C   UNL     1      50.254  21.865  21.777  1.00  0.00     0.041 C 
ATOM      8  O   UNL     1      50.072  20.620  21.813  1.00  0.00    -0.550 OA
ATOM      9  O   UNL     1      50.978  22.484  22.789  1.00  0.00    -0.550 OA
ENDBRANCH   6   7
ENDBRANCH   5   6
ENDBRANCH   4   5
ENDBRANCH   3   4
ENDBRANCH   2   3
ENDBRANCH   1   2
BRANCH   1  10
ATOM     10  C   UNL     1      51.618  20.729  15.218  1.00  0.00     0.000 C 
BRANCH  10  11
ATOM     11  C   UNL     1      50.191  21.206  14.880  1.00  0.00    -0.000 C 
BRANCH  11  12
ATOM     12  C   UNL     1      49.465  21.952  16.013  1.00  0.00    -0.000 C 
BRANCH  12  13
ATOM     13  C   UNL     1      47.990  21.549  16.145  1.00  0.00    -0.000 C 
BRANCH  13  14
ATOM     14  C   UNL     1      47.219  22.563  17.002  1.00  0.00    -0.000 C 
BRANCH  14  15
ATOM     15  C   UNL     1      45.703  22.510  16.760  1.00  0.00    -0.003 C 
ATOM     16  C   UNL     1      45.258  21.220  16.071  1.00  0.00     0.004 C 
ENDBRANCH  14  15
ENDBRANCH  13  14
ENDBRANCH  12  13
ENDBRANCH  11  12
ENDBRANCH  10  11
ENDBRANCH   1  10
TORSDOF 12
ENDMDL
MODEL 5
REMARK VINA RESULT:    -2.412      3.024      6.205
REMARK INTER + INTRA:          -5.736
REMARK INTER:                  -4.362
REMARK INTRA:                  -1.374
REMARK UNBOUND:                -1.631
REMARK SMILES CCCCCCCCCCCCCC(=O)[O-]
REMARK SMILES IDX 8 1 9 2 10 3 11 4 12 5 13 6 14 7 15 8 16 9 7 10 6 11 5 12
REMARK SMILES IDX 4 13 3 14 2 15 1 16
REMARK H PARENT
REMARK Flexibility Score: inf
ROOT
ATOM      1  C   UNL     1      36.526  21.575  11.065  1.00  0.00     0.000 C 
ENDROOT
BRANCH   1   2
ATOM      2  C   UNL     1      36.802  22.928  11.742  1.00  0.00     0.000 C 
BRANCH   2   3
ATOM      3  C   UNL     1      36.869  22.831  13.277  1.00  0.00     0.000 C 
BRANCH   3   4
ATOM      4  C   UNL     1      35.708  22.066  13.938  1.00  0.00     0.000 C 
BRANCH   4   5
ATOM      5  C   UNL     1      36.157  20.763  14.621  1.00  0.00     0.006 C 
BRANCH   5   6
ATOM      6  C   UNL     1      35.476  20.557  15.981  1.00  0.00     0.053 C 
BRANCH   6   7
ATOM      7  C   UNL     1      34.176  19.824  15.847  1.00  0.00     0.041 C 
ATOM      8  O   UNL     1      33.214  20.093  16.613  1.00  0.00    -0.550 OA
ATOM      9  O   UNL     1      34.019  18.864  14.856  1.00  0.00    -0.550 OA
ENDBRANCH   6   7
ENDBRANCH   5   6
ENDBRANCH   4   5
ENDBRANCH   3   4
ENDBRANCH   2   3
ENDBRANCH   1   2
BRANCH   1  10
ATOM     10  C   UNL     1      36.467  21.673   9.531  1.00  0.00     0.000 C 
BRANCH  10  11
ATOM     11  C   UNL     1      35.672  22.873   8.975  1.00  0.00    -0.000 C 
BRANCH  11  12
ATOM     12  C   UNL     1      34.299  22.525   8.374  1.00  0.00    -0.000 C 
BRANCH  12  13
ATOM     13  C   UNL     1      33.128  23.065   9.207  1.00  0.00    -0.000 C 
BRANCH  13  14
ATOM     14  C   UNL     1      33.130  22.452  10.615  1.00  0.00    -0.000 C 
BRANCH  14  15
ATOM     15  C   UNL     1      32.875  20.937  10.601  1.00  0.00    -0.003 C 
ATOM     16  C   UNL     1      32.980  20.305  11.988  1.00  0.00     0.004 C 
ENDBRANCH  14  15
ENDBRANCH  13  14
ENDBRANCH  12  13
ENDBRANCH  11  12
ENDBRANCH  10  11
ENDBRANCH   1  10
TORSDOF 12
ENDMDL
MODEL 6
REMARK VINA RESULT:    -2.376      1.472      3.990
REMARK INTER + INTRA:          -5.674
REMARK INTER:                  -4.835
REMARK INTRA:                  -0.838
REMARK UNBOUND:                -1.631
REMARK SMILES CCCCCCCCCCCCCC(=O)[O-]
REMARK SMILES IDX 8 1 9 2 10 3 11 4 12 5 13 6 14 7 15 8 16 9 7 10 6 11 5 12
REMARK SMILES IDX 4 13 3 14 2 15 1 16
REMARK H PARENT
REMARK Flexibility Score: inf
ROOT
ATOM      1  C   UNL     1      36.510  20.616  15.162  1.00  0.00     0.000 C 
ENDROOT
BRANCH   1   2
ATOM      2  C   UNL     1      37.559  21.681  14.798  1.00  0.00     0.000 C 
BRANCH   2   3
ATOM      3  C   UNL     1      36.940  23.060  14.507  1.00  0.00     0.000 C 
BRANCH   3   4
ATOM      4  C   UNL     1      36.035  23.125  13.263  1.00  0.00     0.000 C 
BRANCH   4   5
ATOM      5  C   UNL     1      36.792  22.846  11.953  1.00  0.00     0.006 C 
BRANCH   5   6
ATOM      6  C   UNL     1      35.872  22.920  10.727  1.00  0.00     0.053 C 
BRANCH   6   7
ATOM      7  C   UNL     1      35.431  21.560  10.279  1.00  0.00     0.041 C 
ATOM      8  O   UNL     1      34.232  21.203  10.420  1.00  0.00    -0.550 OA
ATOM      9  O   UNL     1      36.339  20.698   9.677  1.00  0.00    -0.550 OA
ENDBRANCH   6   7
ENDBRANCH   5   6
ENDBRANCH   4   5
ENDBRANCH   3   4
ENDBRANCH   2   3
ENDBRANCH   1   2
BRANCH   1  10
ATOM     10  C   UNL     1      35.384  21.166  16.055  1.00  0.00     0.000 C 
BRANCH  10  11
ATOM     11  C   UNL     1      34.715  20.135  16.987  1.00  0.00    -0.000 C 
BRANCH  11  12
ATOM     12  C   UNL     1      33.294  19.710  16.579  1.00  0.00    -0.000 C 
BRANCH  12  13
ATOM     13  C   UNL     1      33.124  18.186  16.506  1.00  0.00    -0.000 C 
BRANCH  13  14
ATOM     14  C   UNL     1      32.875  17.731  15.061  1.00  0.00    -0.000 C 
BRANCH  14  15
ATOM     15  C   UNL     1      33.104  18.855  14.040  1.00  0.00    -0.003 C 
ATOM     16  C   UNL     1      32.886  18.399  12.597  1.00  0.00     0.004 C 
ENDBRANCH  14  15
ENDBRANCH  13  14
ENDBRANCH  12  13
ENDBRANCH  11  12
ENDBRANCH  10  11
ENDBRANCH   1  10
TORSDOF 12
ENDMDL
MODEL 7
REMARK VINA RESULT:    -2.154      2.777      4.877
REMARK INTER + INTRA:          -5.296
REMARK INTER:                  -4.090
REMARK INTRA:                  -1.206
REMARK UNBOUND:                -1.631
REMARK SMILES CCCCCCCCCCCCCC(=O)[O-]
REMARK SMILES IDX 8 1 9 2 10 3 11 4 12 5 13 6 14 7 15 8 16 9 7 10 6 11 5 12
REMARK SMILES IDX 4 13 3 14 2 15 1 16
REMARK H PARENT
REMARK Flexibility Score: inf
ROOT
ATOM      1  C   UNL     1      35.113  22.684   8.134  1.00  0.00     0.000 C 
ENDROOT
BRANCH   1   2
ATOM      2  C   UNL     1      33.883  23.115   8.952  1.00  0.00     0.000 C 
BRANCH   2   3
ATOM      3  C   UNL     1      33.168  21.932   9.630  1.00  0.00     0.000 C 
BRANCH   3   4
ATOM      4  C   UNL     1      33.394  21.810  11.148  1.00  0.00     0.000 C 
BRANCH   4   5
ATOM      5  C   UNL     1      33.296  20.362  11.656  1.00  0.00     0.006 C 
BRANCH   5   6
ATOM      6  C   UNL     1      34.331  20.060  12.748  1.00  0.00     0.053 C 
BRANCH   6   7
ATOM      7  C   UNL     1      33.710  20.025  14.110  1.00  0.00     0.041 C 
ATOM      8  O   UNL     1      33.890  19.034  14.865  1.00  0.00    -0.550 OA
ATOM      9  O   UNL     1      32.956  21.103  14.558  1.00  0.00    -0.550 OA
ENDBRANCH   6   7
ENDBRANCH   5   6
ENDBRANCH   4   5
ENDBRANCH   3   4
ENDBRANCH   2   3
ENDBRANCH   1   2
BRANCH   1  10
ATOM     10  C   UNL     1      36.443  23.089   8.795  1.00  0.00     0.000 C 
BRANCH  10  11
ATOM     11  C   UNL     1      36.865  22.237  10.009  1.00  0.00    -0.000 C 
BRANCH  11  12
ATOM     12  C   UNL     1      37.567  23.011  11.139  1.00  0.00    -0.000 C 
BRANCH  12  13
ATOM     13  C   UNL     1      36.722  23.094  12.418  1.00  0.00    -0.000 C 
BRANCH  13  14
ATOM     14  C   UNL     1      37.618  23.124  13.665  1.00  0.00    -0.000 C 
BRANCH  14  15
ATOM     15  C   UNL     1      36.814  23.045  14.972  1.00  0.00    -0.003 C 
ATOM     16  C   UNL     1      36.542  21.607  15.414  1.00  0.00     0.004 C 
ENDBRANCH  14  15
ENDBRANCH  13  14
ENDBRANCH  12  13
ENDBRANCH  11  12
ENDBRANCH  10  11
ENDBRANCH   1  10
TORSDOF 12
ENDMDL
MODEL 8
REMARK VINA RESULT:    -2.042     12.122     15.639
REMARK INTER + INTRA:          -5.105
REMARK INTER:                  -4.403
REMARK INTRA:                  -0.702
REMARK UNBOUND:                -1.631
REMARK SMILES CCCCCCCCCCCCCC(=O)[O-]
REMARK SMILES IDX 8 1 9 2 10 3 11 4 12 5 13 6 14 7 15 8 16 9 7 10 6 11 5 12
REMARK SMILES IDX 4 13 3 14 2 15 1 16
REMARK H PARENT
REMARK Flexibility Score: inf
ROOT
ATOM      1  C   UNL     1      52.160  20.716  15.866  1.00  0.00     0.000 C 
ENDROOT
BRANCH   1   2
ATOM      2  C   UNL     1      51.334  20.879  14.578  1.00  0.00     0.000 C 
BRANCH   2   3
ATOM      3  C   UNL     1      49.969  21.550  14.821  1.00  0.00     0.000 C 
BRANCH   3   4
ATOM      4  C   UNL     1      49.560  21.692  16.298  1.00  0.00     0.000 C 
BRANCH   4   5
ATOM      5  C   UNL     1      48.365  22.639  16.503  1.00  0.00     0.006 C 
BRANCH   5   6
ATOM      6  C   UNL     1      47.178  21.937  17.176  1.00  0.00     0.053 C 
BRANCH   6   7
ATOM      7  C   UNL     1      46.211  21.391  16.171  1.00  0.00     0.041 C 
ATOM      8  O   UNL     1      46.587  20.536  15.326  1.00  0.00    -0.550 OA
ATOM      9  O   UNL     1      44.885  21.805  16.187  1.00  0.00    -0.550 OA
ENDBRANCH   6   7
ENDBRANCH   5   6
ENDBRANCH   4   5
ENDBRANCH   3   4
ENDBRANCH   2   3
ENDBRANCH   1   2
BRANCH   1  10
ATOM     10  C   UNL     1      52.723  22.049  16.389  1.00  0.00     0.000 C 
BRANCH  10  11
ATOM     11  C   UNL     1      53.041  22.086  17.898  1.00  0.00    -0.000 C 
BRANCH  11  12
ATOM     12  C   UNL     1      52.246  23.124  18.708  1.00  0.00    -0.000 C 
BRANCH  12  13
ATOM     13  C   UNL     1      51.873  22.627  20.112  1.00  0.00    -0.000 C 
BRANCH  13  14
ATOM     14  C   UNL     1      50.535  21.874  20.089  1.00  0.00    -0.000 C 
BRANCH  14  15
ATOM     15  C   UNL     1      50.116  21.370  21.478  1.00  0.00    -0.003 C 
ATOM     16  C   UNL     1      49.286  22.392  22.254  1.00  0.00     0.004 C 
ENDBRANCH  14  15
ENDBRANCH  13  14
ENDBRANCH  12  13
ENDBRANCH  11  12
ENDBRANCH  10  11
ENDBRANCH   1  10
TORSDOF 12
ENDMDL
MODEL 9
REMARK VINA RESULT:    -1.089     13.187     16.202
REMARK INTER + INTRA:          -3.484
REMARK INTER:                  -2.469
REMARK INTRA:                  -1.014
REMARK UNBOUND:                -1.631
REMARK SMILES CCCCCCCCCCCCCC(=O)[O-]
REMARK SMILES IDX 8 1 9 2 10 3 11 4 12 5 13 6 14 7 15 8 16 9 7 10 6 11 5 12
REMARK SMILES IDX 4 13 3 14 2 15 1 16
REMARK H PARENT
REMARK Flexibility Score: inf
ROOT
ATOM      1  C   UNL     1      47.725  20.900  16.454  1.00  0.00     0.000 C 
ENDROOT
BRANCH   1   2
ATOM      2  C   UNL     1      46.755  22.085  16.592  1.00  0.00     0.000 C 
BRANCH   2   3
ATOM      3  C   UNL     1      47.185  23.090  17.676  1.00  0.00     0.000 C 
BRANCH   3   4
ATOM      4  C   UNL     1      48.598  22.874  18.250  1.00  0.00     0.000 C 
BRANCH   4   5
ATOM      5  C   UNL     1      48.627  22.860  19.788  1.00  0.00     0.006 C 
BRANCH   5   6
ATOM      6  C   UNL     1      49.943  22.294  20.336  1.00  0.00     0.053 C 
BRANCH   6   7
ATOM      7  C   UNL     1      49.835  21.939  21.788  1.00  0.00     0.041 C 
ATOM      8  O   UNL     1      48.767  22.159  22.417  1.00  0.00    -0.550 OA
ATOM      9  O   UNL     1      50.906  21.339  22.438  1.00  0.00    -0.550 OA
ENDBRANCH   6   7
ENDBRANCH   5   6
ENDBRANCH   4   5
ENDBRANCH   3   4
ENDBRANCH   2   3
ENDBRANCH   1   2
BRANCH   1  10
ATOM     10  C   UNL     1      48.547  20.948  15.154  1.00  0.00     0.000 C 
BRANCH  10  11
ATOM     11  C   UNL     1      49.949  21.578  15.281  1.00  0.00    -0.000 C 
BRANCH  11  12
ATOM     12  C   UNL     1      51.113  20.681  14.824  1.00  0.00    -0.000 C 
BRANCH  12  13
ATOM     13  C   UNL     1      52.487  21.236  15.226  1.00  0.00    -0.000 C 
BRANCH  13  14
ATOM     14  C   UNL     1      52.343  22.577  15.960  1.00  0.00    -0.000 C 
BRANCH  14  15
ATOM     15  C   UNL     1      53.078  22.595  17.309  1.00  0.00    -0.003 C 
ATOM     16  C   UNL     1      53.125  21.221  17.976  1.00  0.00     0.004 C 
ENDBRANCH  14  15
ENDBRANCH  13  14
ENDBRANCH  12  13
ENDBRANCH  11  12
ENDBRANCH  10  11
ENDBRANCH   1  10
TORSDOF 12
ENDMDL
