MODEL 1
REMARK VINA RESULT:    -3.841      0.000      0.000
REMARK INTER + INTRA:         -15.004
REMARK INTER:                  -9.680
REMARK INTRA:                  -5.324
REMARK UNBOUND:                -5.324
REMARK SMILES CCCCCCCCCCCCCCCCCCCCCCCCCCCC(=O)[O-]
REMARK SMILES IDX 15 1 16 2 17 3 18 4 19 5 20 6 21 7 22 8 23 9 24 10 25 11
REMARK SMILES IDX 26 12 27 13 28 14 29 15 30 16 14 17 13 18 12 19 11 20 10 21
REMARK SMILES IDX 9 22 8 23 7 24 6 25 5 26 4 27 3 28 2 29 1 30
REMARK H PARENT
REMARK Flexibility Score: inf
ROOT
ATOM      1  C   UNL     1     101.907  96.770  98.636  1.00  0.00     0.000 C 
ENDROOT
BRANCH   1   2
ATOM      2  C   UNL     1     102.829  95.590  98.979  1.00  0.00     0.000 C 
BRANCH   2   3
ATOM      3  C   UNL     1     104.061  95.570  98.062  1.00  0.00     0.000 C 
BRANCH   3   4
ATOM      4  C   UNL     1     104.428  96.964  97.524  1.00  0.00     0.000 C 
BRANCH   4   5
ATOM      5  C   UNL     1     105.625  96.996  96.551  1.00  0.00     0.000 C 
BRANCH   5   6
ATOM      6  C   UNL     1     105.312  97.555  95.151  1.00  0.00     0.000 C 
BRANCH   6   7
ATOM      7  C   UNL     1     103.865  98.054  95.020  1.00  0.00     0.000 C 
BRANCH   7   8
ATOM      8  C   UNL     1     103.832  99.556  94.703  1.00  0.00     0.000 C 
BRANCH   8   9
ATOM      9  C   UNL     1     104.912 100.349  95.456  1.00  0.00     0.000 C 
BRANCH   9  10
ATOM     10  C   UNL     1     104.439 100.835  96.835  1.00  0.00     0.000 C 
BRANCH  10  11
ATOM     11  C   UNL     1     105.623 101.287  97.698  1.00  0.00     0.000 C 
BRANCH  11  12
ATOM     12  C   UNL     1     106.836 101.634  96.825  1.00  0.00     0.006 C 
BRANCH  12  13
ATOM     13  C   UNL     1     108.126 101.062  97.422  1.00  0.00     0.053 C 
BRANCH  13  14
ATOM     14  C   UNL     1     108.292  99.626  97.038  1.00  0.00     0.041 C 
ATOM     15  O   UNL     1     108.410  98.741  97.927  1.00  0.00    -0.550 OA
ATOM     16  O   UNL     1     108.354  99.267  95.697  1.00  0.00    -0.550 OA
ENDBRANCH  13  14
ENDBRANCH  12  13
ENDBRANCH  11  12
ENDBRANCH  10  11
ENDBRANCH   9  10
ENDBRANCH   8   9
ENDBRANCH   7   8
ENDBRANCH   6   7
ENDBRANCH   5   6
ENDBRANCH   4   5
ENDBRANCH   3   4
ENDBRANCH   2   3
ENDBRANCH   1   2
BRANCH   1  17
ATOM     17  C   UNL     1     100.586  96.320  97.993  1.00  0.00     0.000 C 
BRANCH  17  18
ATOM     18  C   UNL     1     100.229  97.139  96.740  1.00  0.00     0.000 C 
BRANCH  18  19
ATOM     19  C   UNL     1     100.875  98.534  96.741  1.00  0.00     0.000 C 
BRANCH  19  20
ATOM     20  C   UNL     1      99.884  99.644  96.360  1.00  0.00     0.000 C 
BRANCH  20  21
ATOM     21  C   UNL     1     100.460 100.536  95.251  1.00  0.00     0.000 C 
BRANCH  21  22
ATOM     22  C   UNL     1     100.602 102.003  95.688  1.00  0.00    -0.000 C 
BRANCH  22  23
ATOM     23  C   UNL     1     100.326 102.200  97.188  1.00  0.00    -0.000 C 
BRANCH  23  24
ATOM     24  C   UNL     1     101.576 102.637  97.967  1.00  0.00    -0.000 C 
BRANCH  24  25
ATOM     25  C   UNL     1     101.729 101.893  99.303  1.00  0.00    -0.000 C 
BRANCH  25  26
ATOM     26  C   UNL     1     100.393 101.286  99.748  1.00  0.00    -0.000 C 
BRANCH  26  27
ATOM     27  C   UNL     1     100.552  99.800 100.104  1.00  0.00    -0.000 C 
BRANCH  27  28
ATOM     28  C   UNL     1      99.228  99.170 100.586  1.00  0.00    -0.000 C 
BRANCH  28  29
ATOM     29  C   UNL     1      98.168  99.041  99.478  1.00  0.00    -0.003 C 
ATOM     30  C   UNL     1      97.474  97.680  99.466  1.00  0.00     0.004 C 
ENDBRANCH  28  29
ENDBRANCH  27  28
ENDBRANCH  26  27
ENDBRANCH  25  26
ENDBRANCH  24  25
ENDBRANCH  23  24
ENDBRANCH  22  23
ENDBRANCH  21  22
ENDBRANCH  20  21
ENDBRANCH  19  20
ENDBRANCH  18  19
ENDBRANCH  17  18
ENDBRANCH   1  17
TORSDOF 26
ENDMDL
MODEL 2
REMARK VINA RESULT:    -3.823      2.862      5.901
REMARK INTER + INTRA:         -14.959
REMARK INTER:                  -9.576
REMARK INTRA:                  -5.383
REMARK UNBOUND:                -5.324
REMARK SMILES CCCCCCCCCCCCCCCCCCCCCCCCCCCC(=O)[O-]
REMARK SMILES IDX 15 1 16 2 17 3 18 4 19 5 20 6 21 7 22 8 23 9 24 10 25 11
REMARK SMILES IDX 26 12 27 13 28 14 29 15 30 16 14 17 13 18 12 19 11 20 10 21
REMARK SMILES IDX 9 22 8 23 7 24 6 25 5 26 4 27 3 28 2 29 1 30
REMARK H PARENT
REMARK Flexibility Score: inf
ROOT
ATOM      1  C   UNL     1     102.930  95.468  98.749  1.00  0.00     0.000 C 
ENDROOT
BRANCH   1   2
ATOM      2  C   UNL     1     102.410  96.837  99.214  1.00  0.00     0.000 C 
BRANCH   2   3
ATOM      3  C   UNL     1     100.975  97.076  98.718  1.00  0.00     0.000 C 
BRANCH   3   4
ATOM      4  C   UNL     1     100.838  96.934  97.192  1.00  0.00     0.000 C 
BRANCH   4   5
ATOM      5  C   UNL     1      99.603  96.141  96.717  1.00  0.00     0.000 C 
BRANCH   5   6
ATOM      6  C   UNL     1      99.127  95.039  97.681  1.00  0.00     0.000 C 
BRANCH   6   7
ATOM      7  C   UNL     1      97.730  95.314  98.256  1.00  0.00     0.000 C 
BRANCH   7   8
ATOM      8  C   UNL     1      97.310  96.769  97.999  1.00  0.00     0.000 C 
BRANCH   8   9
ATOM      9  C   UNL     1      97.389  97.645  99.259  1.00  0.00     0.000 C 
BRANCH   9  10
ATOM     10  C   UNL     1      97.728  99.111  98.944  1.00  0.00     0.000 C 
BRANCH  10  11
ATOM     11  C   UNL     1      98.025  99.300  97.451  1.00  0.00     0.000 C 
BRANCH  11  12
ATOM     12  C   UNL     1      99.045 100.425  97.233  1.00  0.00     0.006 C 
BRANCH  12  13
ATOM     13  C   UNL     1      99.047 100.891  95.774  1.00  0.00     0.053 C 
BRANCH  13  14
ATOM     14  C   UNL     1      99.391 102.344  95.687  1.00  0.00     0.041 C 
ATOM     15  O   UNL     1     100.438 102.783  96.235  1.00  0.00    -0.550 OA
ATOM     16  O   UNL     1      98.536 103.223  95.033  1.00  0.00    -0.550 OA
ENDBRANCH  13  14
ENDBRANCH  12  13
ENDBRANCH  11  12
ENDBRANCH  10  11
ENDBRANCH   9  10
ENDBRANCH   8   9
ENDBRANCH   7   8
ENDBRANCH   6   7
ENDBRANCH   5   6
ENDBRANCH   4   5
ENDBRANCH   3   4
ENDBRANCH   2   3
ENDBRANCH   1   2
BRANCH   1  17
ATOM     17  C   UNL     1     104.244  95.574  97.957  1.00  0.00     0.000 C 
BRANCH  17  18
ATOM     18  C   UNL     1     104.517  97.003  97.455  1.00  0.00     0.000 C 
BRANCH  18  19
ATOM     19  C   UNL     1     105.581  97.049  96.348  1.00  0.00     0.000 C 
BRANCH  19  20
ATOM     20  C   UNL     1     105.069  97.715  95.062  1.00  0.00     0.000 C 
BRANCH  20  21
ATOM     21  C   UNL     1     103.683  98.339  95.283  1.00  0.00     0.000 C 
BRANCH  21  22
ATOM     22  C   UNL     1     103.641  99.830  94.913  1.00  0.00    -0.000 C 
BRANCH  22  23
ATOM     23  C   UNL     1     103.383 100.732  96.132  1.00  0.00    -0.000 C 
BRANCH  23  24
ATOM     24  C   UNL     1     102.529 100.042  97.207  1.00  0.00    -0.000 C 
BRANCH  24  25
ATOM     25  C   UNL     1     102.914 100.471  98.631  1.00  0.00    -0.000 C 
BRANCH  25  26
ATOM     26  C   UNL     1     102.017 101.614  99.121  1.00  0.00    -0.000 C 
BRANCH  26  27
ATOM     27  C   UNL     1     101.669 101.446 100.609  1.00  0.00    -0.000 C 
BRANCH  27  28
ATOM     28  C   UNL     1     101.807  99.982 101.079  1.00  0.00    -0.000 C 
BRANCH  28  29
ATOM     29  C   UNL     1     100.460  99.306 101.387  1.00  0.00    -0.003 C 
ATOM     30  C   UNL     1      99.548 100.158 102.267  1.00  0.00     0.004 C 
ENDBRANCH  28  29
ENDBRANCH  27  28
ENDBRANCH  26  27
ENDBRANCH  25  26
ENDBRANCH  24  25
ENDBRANCH  23  24
ENDBRANCH  22  23
ENDBRANCH  21  22
ENDBRANCH  20  21
ENDBRANCH  19  20
ENDBRANCH  18  19
ENDBRANCH  17  18
ENDBRANCH   1  17
TORSDOF 26
ENDMDL
MODEL 3
REMARK VINA RESULT:    -3.811      2.013      3.760
REMARK INTER + INTRA:         -14.928
REMARK INTER:                  -9.427
REMARK INTRA:                  -5.501
REMARK UNBOUND:                -5.324
REMARK SMILES CCCCCCCCCCCCCCCCCCCCCCCCCCCC(=O)[O-]
REMARK SMILES IDX 15 1 16 2 17 3 18 4 19 5 20 6 21 7 22 8 23 9 24 10 25 11
REMARK SMILES IDX 26 12 27 13 28 14 29 15 30 16 14 17 13 18 12 19 11 20 10 21
REMARK SMILES IDX 9 22 8 23 7 24 6 25 5 26 4 27 3 28 2 29 1 30
REMARK H PARENT
REMARK Flexibility Score: inf
ROOT
ATOM      1  C   UNL     1     103.867  95.783  98.130  1.00  0.00     0.000 C 
ENDROOT
BRANCH   1   2
ATOM      2  C   UNL     1     104.229  97.077  97.385  1.00  0.00     0.000 C 
BRANCH   2   3
ATOM      3  C   UNL     1     105.570  96.931  96.650  1.00  0.00     0.000 C 
BRANCH   3   4
ATOM      4  C   UNL     1     105.480  97.305  95.160  1.00  0.00     0.000 C 
BRANCH   4   5
ATOM      5  C   UNL     1     106.302  98.543  94.744  1.00  0.00     0.000 C 
BRANCH   5   6
ATOM      6  C   UNL     1     106.826  99.398  95.912  1.00  0.00     0.000 C 
BRANCH   6   7
ATOM      7  C   UNL     1     108.326  99.197  96.170  1.00  0.00     0.000 C 
BRANCH   7   8
ATOM      8  C   UNL     1     108.636  99.256  97.673  1.00  0.00     0.000 C 
BRANCH   8   9
ATOM      9  C   UNL     1     107.559 100.002  98.476  1.00  0.00     0.000 C 
BRANCH   9  10
ATOM     10  C   UNL     1     107.912 101.479  98.713  1.00  0.00     0.000 C 
BRANCH  10  11
ATOM     11  C   UNL     1     106.822 102.404  98.159  1.00  0.00     0.000 C 
BRANCH  11  12
ATOM     12  C   UNL     1     107.403 103.380  97.127  1.00  0.00     0.006 C 
BRANCH  12  13
ATOM     13  C   UNL     1     108.773 102.907  96.632  1.00  0.00     0.053 C 
BRANCH  13  14
ATOM     14  C   UNL     1     108.858 103.007  95.142  1.00  0.00     0.041 C 
ATOM     15  O   UNL     1     108.190 102.225  94.414  1.00  0.00    -0.550 OA
ATOM     16  O   UNL     1     109.705 103.940  94.555  1.00  0.00    -0.550 OA
ENDBRANCH  13  14
ENDBRANCH  12  13
ENDBRANCH  11  12
ENDBRANCH  10  11
ENDBRANCH   9  10
ENDBRANCH   8   9
ENDBRANCH   7   8
ENDBRANCH   6   7
ENDBRANCH   5   6
ENDBRANCH   4   5
ENDBRANCH   3   4
ENDBRANCH   2   3
ENDBRANCH   1   2
BRANCH   1  17
ATOM     17  C   UNL     1     102.570  95.914  98.945  1.00  0.00     0.000 C 
BRANCH  17  18
ATOM     18  C   UNL     1     102.619  97.076  99.952  1.00  0.00     0.000 C 
BRANCH  18  19
ATOM     19  C   UNL     1     101.420  98.027  99.818  1.00  0.00     0.000 C 
BRANCH  19  20
ATOM     20  C   UNL     1     101.831  99.507  99.858  1.00  0.00     0.000 C 
BRANCH  20  21
ATOM     21  C   UNL     1     103.355  99.649  99.975  1.00  0.00     0.000 C 
BRANCH  21  22
ATOM     22  C   UNL     1     103.967 100.432  98.803  1.00  0.00    -0.000 C 
BRANCH  22  23
ATOM     23  C   UNL     1     103.106 101.637  98.386  1.00  0.00    -0.000 C 
BRANCH  23  24
ATOM     24  C   UNL     1     102.689 101.582  96.908  1.00  0.00    -0.000 C 
BRANCH  24  25
ATOM     25  C   UNL     1     103.399 100.460  96.136  1.00  0.00    -0.000 C 
BRANCH  25  26
ATOM     26  C   UNL     1     102.387  99.584  95.387  1.00  0.00    -0.000 C 
BRANCH  26  27
ATOM     27  C   UNL     1     101.255  99.126  96.319  1.00  0.00    -0.000 C 
BRANCH  27  28
ATOM     28  C   UNL     1     100.887  97.643  96.106  1.00  0.00    -0.000 C 
BRANCH  28  29
ATOM     29  C   UNL     1      99.506  97.264  96.668  1.00  0.00    -0.003 C 
ATOM     30  C   UNL     1      99.122  95.812  96.390  1.00  0.00     0.004 C 
ENDBRANCH  28  29
ENDBRANCH  27  28
ENDBRANCH  26  27
ENDBRANCH  25  26
ENDBRANCH  24  25
ENDBRANCH  23  24
ENDBRANCH  22  23
ENDBRANCH  21  22
ENDBRANCH  20  21
ENDBRANCH  19  20
ENDBRANCH  18  19
ENDBRANCH  17  18
ENDBRANCH   1  17
TORSDOF 26
ENDMDL
MODEL 4
REMARK VINA RESULT:    -3.809      1.473      4.133
REMARK INTER + INTRA:         -14.923
REMARK INTER:                  -9.693
REMARK INTRA:                  -5.230
REMARK UNBOUND:                -5.324
REMARK SMILES CCCCCCCCCCCCCCCCCCCCCCCCCCCC(=O)[O-]
REMARK SMILES IDX 15 1 16 2 17 3 18 4 19 5 20 6 21 7 22 8 23 9 24 10 25 11
REMARK SMILES IDX 26 12 27 13 28 14 29 15 30 16 14 17 13 18 12 19 11 20 10 21
REMARK SMILES IDX 9 22 8 23 7 24 6 25 5 26 4 27 3 28 2 29 1 30
REMARK H PARENT
REMARK Flexibility Score: inf
ROOT
ATOM      1  C   UNL     1     104.484  96.975  97.538  1.00  0.00     0.000 C 
ENDROOT
BRANCH   1   2
ATOM      2  C   UNL     1     104.178  95.549  98.022  1.00  0.00     0.000 C 
BRANCH   2   3
ATOM      3  C   UNL     1     102.948  95.533  98.942  1.00  0.00     0.000 C 
BRANCH   3   4
ATOM      4  C   UNL     1     102.233  96.894  99.009  1.00  0.00     0.000 C 
BRANCH   4   5
ATOM      5  C   UNL     1     102.371  97.641 100.352  1.00  0.00     0.000 C 
BRANCH   5   6
ATOM      6  C   UNL     1     101.336  98.756 100.586  1.00  0.00     0.000 C 
BRANCH   6   7
ATOM      7  C   UNL     1     101.732  99.707 101.724  1.00  0.00     0.000 C 
BRANCH   7   8
ATOM      8  C   UNL     1     101.640 101.171 101.270  1.00  0.00     0.000 C 
BRANCH   8   9
ATOM      9  C   UNL     1     100.931 101.333  99.916  1.00  0.00     0.000 C 
BRANCH   9  10
ATOM     10  C   UNL     1     101.784 102.093  98.887  1.00  0.00     0.000 C 
BRANCH  10  11
ATOM     11  C   UNL     1     103.280 101.887  99.150  1.00  0.00     0.000 C 
BRANCH  11  12
ATOM     12  C   UNL     1     103.787 100.611  98.465  1.00  0.00     0.006 C 
BRANCH  12  13
ATOM     13  C   UNL     1     105.036 100.069  99.166  1.00  0.00     0.053 C 
BRANCH  13  14
ATOM     14  C   UNL     1     106.245 100.247  98.303  1.00  0.00     0.041 C 
ATOM     15  O   UNL     1     107.302  99.607  98.551  1.00  0.00    -0.550 OA
ATOM     16  O   UNL     1     106.217 101.148  97.246  1.00  0.00    -0.550 OA
ENDBRANCH  13  14
ENDBRANCH  12  13
ENDBRANCH  11  12
ENDBRANCH  10  11
ENDBRANCH   9  10
ENDBRANCH   8   9
ENDBRANCH   7   8
ENDBRANCH   6   7
ENDBRANCH   5   6
ENDBRANCH   4   5
ENDBRANCH   3   4
ENDBRANCH   2   3
ENDBRANCH   1   2
BRANCH   1  17
ATOM     17  C   UNL     1     105.659  97.024  96.549  1.00  0.00     0.000 C 
BRANCH  17  18
ATOM     18  C   UNL     1     105.221  97.427  95.130  1.00  0.00     0.000 C 
BRANCH  18  19
ATOM     19  C   UNL     1     103.889  98.193  95.117  1.00  0.00     0.000 C 
BRANCH  19  20
ATOM     20  C   UNL     1     104.079  99.706  94.934  1.00  0.00     0.000 C 
BRANCH  20  21
ATOM     21  C   UNL     1     102.841 100.340  94.284  1.00  0.00     0.000 C 
BRANCH  21  22
ATOM     22  C   UNL     1     102.026 101.191  95.270  1.00  0.00    -0.000 C 
BRANCH  22  23
ATOM     23  C   UNL     1     100.572 100.707  95.403  1.00  0.00    -0.000 C 
BRANCH  23  24
ATOM     24  C   UNL     1     100.406  99.627  96.484  1.00  0.00    -0.000 C 
BRANCH  24  25
ATOM     25  C   UNL     1      98.954  99.139  96.611  1.00  0.00    -0.000 C 
BRANCH  25  26
ATOM     26  C   UNL     1      98.544  99.017  98.084  1.00  0.00    -0.000 C 
BRANCH  26  27
ATOM     27  C   UNL     1      98.595  97.556  98.554  1.00  0.00    -0.000 C 
BRANCH  27  28
ATOM     28  C   UNL     1      98.221  96.567  97.430  1.00  0.00    -0.000 C 
BRANCH  28  29
ATOM     29  C   UNL     1      99.281  95.478  97.190  1.00  0.00    -0.003 C 
ATOM     30  C   UNL     1      98.880  94.116  97.753  1.00  0.00     0.004 C 
ENDBRANCH  28  29
ENDBRANCH  27  28
ENDBRANCH  26  27
ENDBRANCH  25  26
ENDBRANCH  24  25
ENDBRANCH  23  24
ENDBRANCH  22  23
ENDBRANCH  21  22
ENDBRANCH  20  21
ENDBRANCH  19  20
ENDBRANCH  18  19
ENDBRANCH  17  18
ENDBRANCH   1  17
TORSDOF 26
ENDMDL
MODEL 5
REMARK VINA RESULT:    -3.808      1.779      4.715
REMARK INTER + INTRA:         -14.921
REMARK INTER:                  -9.691
REMARK INTRA:                  -5.230
REMARK UNBOUND:                -5.324
REMARK SMILES CCCCCCCCCCCCCCCCCCCCCCCCCCCC(=O)[O-]
REMARK SMILES IDX 15 1 16 2 17 3 18 4 19 5 20 6 21 7 22 8 23 9 24 10 25 11
REMARK SMILES IDX 26 12 27 13 28 14 29 15 30 16 14 17 13 18 12 19 11 20 10 21
REMARK SMILES IDX 9 22 8 23 7 24 6 25 5 26 4 27 3 28 2 29 1 30
REMARK H PARENT
REMARK Flexibility Score: inf
ROOT
ATOM      1  C   UNL     1      99.673  96.621  95.936  1.00  0.00     0.000 C 
ENDROOT
BRANCH   1   2
ATOM      2  C   UNL     1      98.521  97.599  95.654  1.00  0.00     0.000 C 
BRANCH   2   3
ATOM      3  C   UNL     1      99.049  99.029  95.466  1.00  0.00     0.000 C 
BRANCH   3   4
ATOM      4  C   UNL     1      98.448 100.026  96.473  1.00  0.00     0.000 C 
BRANCH   4   5
ATOM      5  C   UNL     1      99.243 101.336  96.651  1.00  0.00     0.000 C 
BRANCH   5   6
ATOM      6  C   UNL     1     100.185 101.689  95.486  1.00  0.00     0.000 C 
BRANCH   6   7
ATOM      7  C   UNL     1     101.597 102.065  95.956  1.00  0.00     0.000 C 
BRANCH   7   8
ATOM      8  C   UNL     1     102.439 100.808  96.219  1.00  0.00     0.000 C 
BRANCH   8   9
ATOM      9  C   UNL     1     102.737 100.010  94.939  1.00  0.00     0.000 C 
BRANCH   9  10
ATOM     10  C   UNL     1     102.749  98.492  95.175  1.00  0.00     0.000 C 
BRANCH  10  11
ATOM     11  C   UNL     1     103.917  98.083  96.080  1.00  0.00     0.000 C 
BRANCH  11  12
ATOM     12  C   UNL     1     105.198  97.873  95.262  1.00  0.00     0.006 C 
BRANCH  12  13
ATOM     13  C   UNL     1     106.443  98.172  96.101  1.00  0.00     0.053 C 
BRANCH  13  14
ATOM     14  C   UNL     1     107.387  99.054  95.348  1.00  0.00     0.041 C 
ATOM     15  O   UNL     1     107.062  99.516  94.222  1.00  0.00    -0.550 OA
ATOM     16  O   UNL     1     108.643  99.337  95.872  1.00  0.00    -0.550 OA
ENDBRANCH  13  14
ENDBRANCH  12  13
ENDBRANCH  11  12
ENDBRANCH  10  11
ENDBRANCH   9  10
ENDBRANCH   8   9
ENDBRANCH   7   8
ENDBRANCH   6   7
ENDBRANCH   5   6
ENDBRANCH   4   5
ENDBRANCH   3   4
ENDBRANCH   2   3
ENDBRANCH   1   2
BRANCH   1  17
ATOM     17  C   UNL     1      99.471  95.831  97.239  1.00  0.00     0.000 C 
BRANCH  17  18
ATOM     18  C   UNL     1      98.122  95.091  97.278  1.00  0.00     0.000 C 
BRANCH  18  19
ATOM     19  C   UNL     1      97.360  95.317  98.593  1.00  0.00     0.000 C 
BRANCH  19  20
ATOM     20  C   UNL     1      96.101  96.177  98.407  1.00  0.00     0.000 C 
BRANCH  20  21
ATOM     21  C   UNL     1      96.418  97.665  98.615  1.00  0.00     0.000 C 
BRANCH  21  22
ATOM     22  C   UNL     1      97.348  97.909  99.814  1.00  0.00    -0.000 C 
BRANCH  22  23
ATOM     23  C   UNL     1      97.751  99.387  99.955  1.00  0.00    -0.000 C 
BRANCH  23  24
ATOM     24  C   UNL     1      99.275  99.583  99.990  1.00  0.00    -0.000 C 
BRANCH  24  25
ATOM     25  C   UNL     1     100.043  98.307  99.614  1.00  0.00    -0.000 C 
BRANCH  25  26
ATOM     26  C   UNL     1     101.257  98.636  98.737  1.00  0.00    -0.000 C 
BRANCH  26  27
ATOM     27  C   UNL     1     102.571  98.377  99.491  1.00  0.00    -0.000 C 
BRANCH  27  28
ATOM     28  C   UNL     1     102.706  96.907  99.940  1.00  0.00    -0.000 C 
BRANCH  28  29
ATOM     29  C   UNL     1     102.564  95.897  98.788  1.00  0.00    -0.003 C 
ATOM     30  C   UNL     1     103.888  95.243  98.396  1.00  0.00     0.004 C 
ENDBRANCH  28  29
ENDBRANCH  27  28
ENDBRANCH  26  27
ENDBRANCH  25  26
ENDBRANCH  24  25
ENDBRANCH  23  24
ENDBRANCH  22  23
ENDBRANCH  21  22
ENDBRANCH  20  21
ENDBRANCH  19  20
ENDBRANCH  18  19
ENDBRANCH  17  18
ENDBRANCH   1  17
TORSDOF 26
ENDMDL
MODEL 6
REMARK VINA RESULT:    -3.759      2.136      4.094
REMARK INTER + INTRA:         -14.797
REMARK INTER:                  -9.553
REMARK INTRA:                  -5.244
REMARK UNBOUND:                -5.324
REMARK SMILES CCCCCCCCCCCCCCCCCCCCCCCCCCCC(=O)[O-]
REMARK SMILES IDX 15 1 16 2 17 3 18 4 19 5 20 6 21 7 22 8 23 9 24 10 25 11
REMARK SMILES IDX 26 12 27 13 28 14 29 15 30 16 14 17 13 18 12 19 11 20 10 21
REMARK SMILES IDX 9 22 8 23 7 24 6 25 5 26 4 27 3 28 2 29 1 30
REMARK H PARENT
REMARK Flexibility Score: inf
ROOT
ATOM      1  C   UNL     1     104.093  95.679  97.981  1.00  0.00     0.000 C 
ENDROOT
BRANCH   1   2
ATOM      2  C   UNL     1     104.300  96.977  97.184  1.00  0.00     0.000 C 
BRANCH   2   3
ATOM      3  C   UNL     1     105.782  97.176  96.834  1.00  0.00     0.000 C 
BRANCH   3   4
ATOM      4  C   UNL     1     105.990  97.810  95.448  1.00  0.00     0.000 C 
BRANCH   4   5
ATOM      5  C   UNL     1     107.187  98.777  95.343  1.00  0.00     0.000 C 
BRANCH   5   6
ATOM      6  C   UNL     1     106.821 100.230  94.989  1.00  0.00     0.000 C 
BRANCH   6   7
ATOM      7  C   UNL     1     107.140 101.216  96.122  1.00  0.00     0.000 C 
BRANCH   7   8
ATOM      8  C   UNL     1     105.859 101.632  96.861  1.00  0.00     0.000 C 
BRANCH   8   9
ATOM      9  C   UNL     1     105.787 101.075  98.292  1.00  0.00     0.000 C 
BRANCH   9  10
ATOM     10  C   UNL     1     104.545 100.201  98.526  1.00  0.00     0.000 C 
BRANCH  10  11
ATOM     11  C   UNL     1     103.262 100.952  98.153  1.00  0.00     0.000 C 
BRANCH  11  12
ATOM     12  C   UNL     1     102.454 100.172  97.107  1.00  0.00     0.006 C 
BRANCH  12  13
ATOM     13  C   UNL     1     102.420 100.916  95.769  1.00  0.00     0.053 C 
BRANCH  13  14
ATOM     14  C   UNL     1     103.011 100.074  94.683  1.00  0.00     0.041 C 
ATOM     15  O   UNL     1     103.598 100.615  93.708  1.00  0.00    -0.550 OA
ATOM     16  O   UNL     1     102.880  98.691  94.727  1.00  0.00    -0.550 OA
ENDBRANCH  13  14
ENDBRANCH  12  13
ENDBRANCH  11  12
ENDBRANCH  10  11
ENDBRANCH   9  10
ENDBRANCH   8   9
ENDBRANCH   7   8
ENDBRANCH   6   7
ENDBRANCH   5   6
ENDBRANCH   4   5
ENDBRANCH   3   4
ENDBRANCH   2   3
ENDBRANCH   1   2
BRANCH   1  17
ATOM     17  C   UNL     1     103.021  95.821  99.073  1.00  0.00     0.000 C 
BRANCH  17  18
ATOM     18  C   UNL     1     101.942  96.857  98.711  1.00  0.00     0.000 C 
BRANCH  18  19
ATOM     19  C   UNL     1     101.702  97.880  99.832  1.00  0.00     0.000 C 
BRANCH  19  20
ATOM     20  C   UNL     1     100.328  98.557  99.731  1.00  0.00     0.000 C 
BRANCH  20  21
ATOM     21  C   UNL     1     100.383  99.993 100.272  1.00  0.00     0.000 C 
BRANCH  21  22
ATOM     22  C   UNL     1      99.577 100.980  99.413  1.00  0.00    -0.000 C 
BRANCH  22  23
ATOM     23  C   UNL     1      98.653 100.267  98.409  1.00  0.00    -0.000 C 
BRANCH  23  24
ATOM     24  C   UNL     1      98.824 100.791  96.974  1.00  0.00    -0.000 C 
BRANCH  24  25
ATOM     25  C   UNL     1      98.906  99.659  95.939  1.00  0.00    -0.000 C 
BRANCH  25  26
ATOM     26  C   UNL     1      99.107  98.302  96.625  1.00  0.00    -0.000 C 
BRANCH  26  27
ATOM     27  C   UNL     1      99.853  97.322  95.707  1.00  0.00    -0.000 C 
BRANCH  27  28
ATOM     28  C   UNL     1      99.215  95.917  95.711  1.00  0.00    -0.000 C 
BRANCH  28  29
ATOM     29  C   UNL     1      98.502  95.569  97.028  1.00  0.00    -0.003 C 
ATOM     30  C   UNL     1      99.173  94.429  97.792  1.00  0.00     0.004 C 
ENDBRANCH  28  29
ENDBRANCH  27  28
ENDBRANCH  26  27
ENDBRANCH  25  26
ENDBRANCH  24  25
ENDBRANCH  23  24
ENDBRANCH  22  23
ENDBRANCH  21  22
ENDBRANCH  20  21
ENDBRANCH  19  20
ENDBRANCH  18  19
ENDBRANCH  17  18
ENDBRANCH   1  17
TORSDOF 26
ENDMDL
MODEL 7
REMARK VINA RESULT:    -3.759      1.390      4.906
REMARK INTER + INTRA:         -14.796
REMARK INTER:                  -9.444
REMARK INTRA:                  -5.352
REMARK UNBOUND:                -5.324
REMARK SMILES CCCCCCCCCCCCCCCCCCCCCCCCCCCC(=O)[O-]
REMARK SMILES IDX 15 1 16 2 17 3 18 4 19 5 20 6 21 7 22 8 23 9 24 10 25 11
REMARK SMILES IDX 26 12 27 13 28 14 29 15 30 16 14 17 13 18 12 19 11 20 10 21
REMARK SMILES IDX 9 22 8 23 7 24 6 25 5 26 4 27 3 28 2 29 1 30
REMARK H PARENT
REMARK Flexibility Score: inf
ROOT
ATOM      1  C   UNL     1      99.051  95.232  97.745  1.00  0.00     0.000 C 
ENDROOT
BRANCH   1   2
ATOM      2  C   UNL     1      98.882  95.441  96.233  1.00  0.00     0.000 C 
BRANCH   2   3
ATOM      3  C   UNL     1      99.527  96.762  95.786  1.00  0.00     0.000 C 
BRANCH   3   4
ATOM      4  C   UNL     1      98.492  97.831  95.392  1.00  0.00     0.000 C 
BRANCH   4   5
ATOM      5  C   UNL     1      98.840  99.270  95.824  1.00  0.00     0.000 C 
BRANCH   5   6
ATOM      6  C   UNL     1     100.334  99.631  95.743  1.00  0.00     0.000 C 
BRANCH   6   7
ATOM      7  C   UNL     1     100.588 101.142  95.836  1.00  0.00     0.000 C 
BRANCH   7   8
ATOM      8  C   UNL     1     101.014 101.539  97.257  1.00  0.00     0.000 C 
BRANCH   8   9
ATOM      9  C   UNL     1     102.513 101.857  97.364  1.00  0.00     0.000 C 
BRANCH   9  10
ATOM     10  C   UNL     1     103.274 100.845  98.234  1.00  0.00     0.000 C 
BRANCH  10  11
ATOM     11  C   UNL     1     104.790 101.008  98.073  1.00  0.00     0.000 C 
BRANCH  11  12
ATOM     12  C   UNL     1     105.546  99.963  98.904  1.00  0.00     0.006 C 
BRANCH  12  13
ATOM     13  C   UNL     1     107.013 100.362  99.090  1.00  0.00     0.053 C 
BRANCH  13  14
ATOM     14  C   UNL     1     107.904  99.500  98.253  1.00  0.00     0.041 C 
ATOM     15  O   UNL     1     107.581  99.216  97.068  1.00  0.00    -0.550 OA
ATOM     16  O   UNL     1     109.073  98.977  98.792  1.00  0.00    -0.550 OA
ENDBRANCH  13  14
ENDBRANCH  12  13
ENDBRANCH  11  12
ENDBRANCH  10  11
ENDBRANCH   9  10
ENDBRANCH   8   9
ENDBRANCH   7   8
ENDBRANCH   6   7
ENDBRANCH   5   6
ENDBRANCH   4   5
ENDBRANCH   3   4
ENDBRANCH   2   3
ENDBRANCH   1   2
BRANCH   1  17
ATOM     17  C   UNL     1      97.710  95.244  98.497  1.00  0.00     0.000 C 
BRANCH  17  18
ATOM     18  C   UNL     1      97.083  96.648  98.562  1.00  0.00     0.000 C 
BRANCH  18  19
ATOM     19  C   UNL     1      96.825  97.115 100.002  1.00  0.00     0.000 C 
BRANCH  19  20
ATOM     20  C   UNL     1      97.602  98.392 100.358  1.00  0.00     0.000 C 
BRANCH  20  21
ATOM     21  C   UNL     1      98.633  98.727  99.270  1.00  0.00     0.000 C 
BRANCH  21  22
ATOM     22  C   UNL     1     100.068  98.790  99.817  1.00  0.00    -0.000 C 
BRANCH  22  23
ATOM     23  C   UNL     1     101.085  98.115  98.880  1.00  0.00    -0.000 C 
BRANCH  23  24
ATOM     24  C   UNL     1     102.079  97.219  99.634  1.00  0.00    -0.000 C 
BRANCH  24  25
ATOM     25  C   UNL     1     103.060  96.504  98.692  1.00  0.00    -0.000 C 
BRANCH  25  26
ATOM     26  C   UNL     1     103.301  97.329  97.422  1.00  0.00    -0.000 C 
BRANCH  26  27
ATOM     27  C   UNL     1     104.699  97.062  96.845  1.00  0.00    -0.000 C 
BRANCH  27  28
ATOM     28  C   UNL     1     104.901  97.731  95.468  1.00  0.00    -0.000 C 
BRANCH  28  29
ATOM     29  C   UNL     1     103.672  98.518  94.981  1.00  0.00    -0.003 C 
ATOM     30  C   UNL     1     103.999  99.957  94.585  1.00  0.00     0.004 C 
ENDBRANCH  28  29
ENDBRANCH  27  28
ENDBRANCH  26  27
ENDBRANCH  25  26
ENDBRANCH  24  25
ENDBRANCH  23  24
ENDBRANCH  22  23
ENDBRANCH  21  22
ENDBRANCH  20  21
ENDBRANCH  19  20
ENDBRANCH  18  19
ENDBRANCH  17  18
ENDBRANCH   1  17
TORSDOF 26
ENDMDL
MODEL 8
REMARK VINA RESULT:    -3.748      1.765      4.299
REMARK INTER + INTRA:         -14.769
REMARK INTER:                  -9.737
REMARK INTRA:                  -5.033
REMARK UNBOUND:                -5.324
REMARK SMILES CCCCCCCCCCCCCCCCCCCCCCCCCCCC(=O)[O-]
REMARK SMILES IDX 15 1 16 2 17 3 18 4 19 5 20 6 21 7 22 8 23 9 24 10 25 11
REMARK SMILES IDX 26 12 27 13 28 14 29 15 30 16 14 17 13 18 12 19 11 20 10 21
REMARK SMILES IDX 9 22 8 23 7 24 6 25 5 26 4 27 3 28 2 29 1 30
REMARK H PARENT
REMARK Flexibility Score: inf
ROOT
ATOM      1  C   UNL     1     101.981  99.745 100.557  1.00  0.00     0.000 C 
ENDROOT
BRANCH   1   2
ATOM      2  C   UNL     1     102.075 100.964  99.626  1.00  0.00     0.000 C 
BRANCH   2   3
ATOM      3  C   UNL     1     103.485 101.091  99.028  1.00  0.00     0.000 C 
BRANCH   3   4
ATOM      4  C   UNL     1     103.491 101.032  97.491  1.00  0.00     0.000 C 
BRANCH   4   5
ATOM      5  C   UNL     1     102.573  99.958  96.873  1.00  0.00     0.000 C 
BRANCH   5   6
ATOM      6  C   UNL     1     102.722  99.771  95.352  1.00  0.00     0.000 C 
BRANCH   6   7
ATOM      7  C   UNL     1     103.450  98.472  94.980  1.00  0.00     0.000 C 
BRANCH   7   8
ATOM      8  C   UNL     1     103.950  97.745  96.238  1.00  0.00     0.000 C 
BRANCH   8   9
ATOM      9  C   UNL     1     105.453  97.428  96.186  1.00  0.00     0.000 C 
BRANCH   9  10
ATOM     10  C   UNL     1     106.159  98.089  94.992  1.00  0.00     0.000 C 
BRANCH  10  11
ATOM     11  C   UNL     1     107.111  99.197  95.458  1.00  0.00     0.000 C 
BRANCH  11  12
ATOM     12  C   UNL     1     106.518 100.584  95.177  1.00  0.00     0.006 C 
BRANCH  12  13
ATOM     13  C   UNL     1     107.127 101.641  96.104  1.00  0.00     0.053 C 
BRANCH  13  14
ATOM     14  C   UNL     1     108.492 102.031  95.634  1.00  0.00     0.041 C 
ATOM     15  O   UNL     1     109.511 101.695  96.295  1.00  0.00    -0.550 OA
ATOM     16  O   UNL     1     108.639 102.798  94.485  1.00  0.00    -0.550 OA
ENDBRANCH  13  14
ENDBRANCH  12  13
ENDBRANCH  11  12
ENDBRANCH  10  11
ENDBRANCH   9  10
ENDBRANCH   8   9
ENDBRANCH   7   8
ENDBRANCH   6   7
ENDBRANCH   5   6
ENDBRANCH   4   5
ENDBRANCH   3   4
ENDBRANCH   2   3
ENDBRANCH   1   2
BRANCH   1  17
ATOM     17  C   UNL     1     101.461  98.491  99.836  1.00  0.00     0.000 C 
BRANCH  17  18
ATOM     18  C   UNL     1     102.555  97.427  99.639  1.00  0.00     0.000 C 
BRANCH  18  19
ATOM     19  C   UNL     1     102.064  96.216  98.830  1.00  0.00     0.000 C 
BRANCH  19  20
ATOM     20  C   UNL     1     100.848  96.545  97.951  1.00  0.00     0.000 C 
BRANCH  20  21
ATOM     21  C   UNL     1      99.875  95.358  97.895  1.00  0.00     0.000 C 
BRANCH  21  22
ATOM     22  C   UNL     1      98.850  95.489  96.757  1.00  0.00    -0.000 C 
BRANCH  22  23
ATOM     23  C   UNL     1      99.382  96.323  95.579  1.00  0.00    -0.000 C 
BRANCH  23  24
ATOM     24  C   UNL     1      98.488  97.531  95.259  1.00  0.00    -0.000 C 
BRANCH  24  25
ATOM     25  C   UNL     1      99.052  98.846  95.817  1.00  0.00    -0.000 C 
BRANCH  25  26
ATOM     26  C   UNL     1      98.203  99.353  96.989  1.00  0.00    -0.000 C 
BRANCH  26  27
ATOM     27  C   UNL     1      98.983 100.368  97.839  1.00  0.00    -0.000 C 
BRANCH  27  28
ATOM     28  C   UNL     1      98.746 101.821  97.377  1.00  0.00    -0.000 C 
BRANCH  28  29
ATOM     29  C   UNL     1     100.035 102.559  96.979  1.00  0.00    -0.003 C 
ATOM     30  C   UNL     1     100.125 102.848  95.482  1.00  0.00     0.004 C 
ENDBRANCH  28  29
ENDBRANCH  27  28
ENDBRANCH  26  27
ENDBRANCH  25  26
ENDBRANCH  24  25
ENDBRANCH  23  24
ENDBRANCH  22  23
ENDBRANCH  21  22
ENDBRANCH  20  21
ENDBRANCH  19  20
ENDBRANCH  18  19
ENDBRANCH  17  18
ENDBRANCH   1  17
TORSDOF 26
ENDMDL
MODEL 9
REMARK VINA RESULT:    -3.685      3.095      7.095
REMARK INTER + INTRA:         -14.611
REMARK INTER:                  -9.427
REMARK INTRA:                  -5.184
REMARK UNBOUND:                -5.324
REMARK SMILES CCCCCCCCCCCCCCCCCCCCCCCCCCCC(=O)[O-]
REMARK SMILES IDX 15 1 16 2 17 3 18 4 19 5 20 6 21 7 22 8 23 9 24 10 25 11
REMARK SMILES IDX 26 12 27 13 28 14 29 15 30 16 14 17 13 18 12 19 11 20 10 21
REMARK SMILES IDX 9 22 8 23 7 24 6 25 5 26 4 27 3 28 2 29 1 30
REMARK H PARENT
REMARK Flexibility Score: inf
ROOT
ATOM      1  C   UNL     1     102.657  96.782  99.530  1.00  0.00     0.000 C 
ENDROOT
BRANCH   1   2
ATOM      2  C   UNL     1     101.875  96.172  98.356  1.00  0.00     0.000 C 
BRANCH   2   3
ATOM      3  C   UNL     1     100.681  97.058  97.971  1.00  0.00     0.000 C 
BRANCH   3   4
ATOM      4  C   UNL     1     100.254  96.883  96.503  1.00  0.00     0.000 C 
BRANCH   4   5
ATOM      5  C   UNL     1      98.949  96.089  96.291  1.00  0.00     0.000 C 
BRANCH   5   6
ATOM      6  C   UNL     1      98.848  94.777  97.090  1.00  0.00     0.000 C 
BRANCH   6   7
ATOM      7  C   UNL     1      97.887  94.880  98.283  1.00  0.00     0.000 C 
BRANCH   7   8
ATOM      8  C   UNL     1      96.887  96.028  98.083  1.00  0.00     0.000 C 
BRANCH   8   9
ATOM      9  C   UNL     1      97.059  97.156  99.114  1.00  0.00     0.000 C 
BRANCH   9  10
ATOM     10  C   UNL     1      96.890  98.553  98.498  1.00  0.00     0.000 C 
BRANCH  10  11
ATOM     11  C   UNL     1      98.182  99.370  98.618  1.00  0.00     0.000 C 
BRANCH  11  12
ATOM     12  C   UNL     1      98.505 100.083  97.299  1.00  0.00     0.006 C 
BRANCH  12  13
ATOM     13  C   UNL     1      98.842 101.558  97.537  1.00  0.00     0.053 C 
BRANCH  13  14
ATOM     14  C   UNL     1      98.880 102.306  96.243  1.00  0.00     0.041 C 
ATOM     15  O   UNL     1      99.884 103.006  95.943  1.00  0.00    -0.550 OA
ATOM     16  O   UNL     1      97.790 102.261  95.382  1.00  0.00    -0.550 OA
ENDBRANCH  13  14
ENDBRANCH  12  13
ENDBRANCH  11  12
ENDBRANCH  10  11
ENDBRANCH   9  10
ENDBRANCH   8   9
ENDBRANCH   7   8
ENDBRANCH   6   7
ENDBRANCH   5   6
ENDBRANCH   4   5
ENDBRANCH   3   4
ENDBRANCH   2   3
ENDBRANCH   1   2
BRANCH   1  17
ATOM     17  C   UNL     1     102.247  98.235  99.819  1.00  0.00     0.000 C 
BRANCH  17  18
ATOM     18  C   UNL     1     103.456  99.186  99.890  1.00  0.00     0.000 C 
BRANCH  18  19
ATOM     19  C   UNL     1     103.208 100.514  99.158  1.00  0.00     0.000 C 
BRANCH  19  20
ATOM     20  C   UNL     1     102.283 100.355  97.942  1.00  0.00     0.000 C 
BRANCH  20  21
ATOM     21  C   UNL     1     102.851 101.092  96.720  1.00  0.00     0.000 C 
BRANCH  21  22
ATOM     22  C   UNL     1     102.304 100.545  95.393  1.00  0.00    -0.000 C 
BRANCH  22  23
ATOM     23  C   UNL     1     103.333  99.679  94.644  1.00  0.00    -0.000 C 
BRANCH  23  24
ATOM     24  C   UNL     1     103.351  98.224  95.136  1.00  0.00    -0.000 C 
BRANCH  24  25
ATOM     25  C   UNL     1     104.775  97.695  95.364  1.00  0.00    -0.000 C 
BRANCH  25  26
ATOM     26  C   UNL     1     105.153  97.761  96.849  1.00  0.00    -0.000 C 
BRANCH  26  27
ATOM     27  C   UNL     1     106.116  98.927  97.124  1.00  0.00    -0.000 C 
BRANCH  27  28
ATOM     28  C   UNL     1     107.387  98.852  96.252  1.00  0.00    -0.000 C 
BRANCH  28  29
ATOM     29  C   UNL     1     107.807 100.208  95.660  1.00  0.00    -0.003 C 
ATOM     30  C   UNL     1     106.902 100.672  94.520  1.00  0.00     0.004 C 
ENDBRANCH  28  29
ENDBRANCH  27  28
ENDBRANCH  26  27
ENDBRANCH  25  26
ENDBRANCH  24  25
ENDBRANCH  23  24
ENDBRANCH  22  23
ENDBRANCH  21  22
ENDBRANCH  20  21
ENDBRANCH  19  20
ENDBRANCH  18  19
ENDBRANCH  17  18
ENDBRANCH   1  17
TORSDOF 26
ENDMDL
