MODEL 1
REMARK VINA RESULT:    -4.393      0.000      0.000
REMARK INTER + INTRA:          -9.343
REMARK INTER:                  -7.988
REMARK INTRA:                  -1.356
REMARK UNBOUND:                -1.356
REMARK SMILES CCCCCCCCCCCCCCCC(=O)[O-]
REMARK SMILES IDX 9 1 10 2 11 3 12 4 13 5 14 6 15 7 16 8 17 9 18 10 8 11 7 12
REMARK SMILES IDX 6 13 5 14 4 15 3 16 2 17 1 18
REMARK H PARENT
REMARK Flexibility Score: inf
ROOT
ATOM      1  C   UNL     1      -5.634  25.095  33.138  1.00  0.00     0.000 C 
ENDROOT
BRANCH   1   2
ATOM      2  C   UNL     1      -4.969  26.311  32.474  1.00  0.00     0.000 C 
BRANCH   2   3
ATOM      3  C   UNL     1      -5.623  27.641  32.888  1.00  0.00     0.000 C 
BRANCH   3   4
ATOM      4  C   UNL     1      -6.114  27.628  34.345  1.00  0.00     0.000 C 
BRANCH   4   5
ATOM      5  C   UNL     1      -5.172  28.389  35.295  1.00  0.00     0.000 C 
BRANCH   5   6
ATOM      6  C   UNL     1      -4.064  29.152  34.547  1.00  0.00     0.006 C 
BRANCH   6   7
ATOM      7  C   UNL     1      -2.638  28.720  34.922  1.00  0.00     0.053 C 
BRANCH   7   8
ATOM      8  C   UNL     1      -1.629  29.781  34.602  1.00  0.00     0.041 C 
ATOM      9  O   UNL     1      -0.638  29.515  33.874  1.00  0.00    -0.550 OA
ATOM     10  O   UNL     1      -1.770  31.056  35.135  1.00  0.00    -0.550 OA
ENDBRANCH   7   8
ENDBRANCH   6   7
ENDBRANCH   5   6
ENDBRANCH   4   5
ENDBRANCH   3   4
ENDBRANCH   2   3
ENDBRANCH   1   2
BRANCH   1  11
ATOM     11  C   UNL     1      -6.908  24.642  32.408  1.00  0.00     0.000 C 
BRANCH  11  12
ATOM     12  C   UNL     1      -8.113  24.637  33.361  1.00  0.00    -0.000 C 
BRANCH  12  13
ATOM     13  C   UNL     1      -7.729  24.302  34.813  1.00  0.00    -0.000 C 
BRANCH  13  14
ATOM     14  C   UNL     1      -8.450  25.139  35.885  1.00  0.00    -0.000 C 
BRANCH  14  15
ATOM     15  C   UNL     1      -7.480  25.840  36.852  1.00  0.00    -0.000 C 
BRANCH  15  16
ATOM     16  C   UNL     1      -7.660  25.360  38.308  1.00  0.00    -0.000 C 
BRANCH  16  17
ATOM     17  C   UNL     1      -7.696  23.829  38.451  1.00  0.00    -0.003 C 
ATOM     18  C   UNL     1      -6.420  23.255  39.059  1.00  0.00     0.004 C 
ENDBRANCH  16  17
ENDBRANCH  15  16
ENDBRANCH  14  15
ENDBRANCH  13  14
ENDBRANCH  12  13
ENDBRANCH  11  12
ENDBRANCH   1  11
TORSDOF 14
ENDMDL
MODEL 2
REMARK VINA RESULT:    -4.352      2.247      5.116
REMARK INTER + INTRA:          -9.269
REMARK INTER:                  -7.815
REMARK INTRA:                  -1.454
REMARK UNBOUND:                -1.356
REMARK SMILES CCCCCCCCCCCCCCCC(=O)[O-]
REMARK SMILES IDX 9 1 10 2 11 3 12 4 13 5 14 6 15 7 16 8 17 9 18 10 8 11 7 12
REMARK SMILES IDX 6 13 5 14 4 15 3 16 2 17 1 18
REMARK H PARENT
REMARK Flexibility Score: inf
ROOT
ATOM      1  C   UNL     1      -8.513  22.987  36.646  1.00  0.00     0.000 C 
ENDROOT
BRANCH   1   2
ATOM      2  C   UNL     1      -8.894  23.121  35.163  1.00  0.00     0.000 C 
BRANCH   2   3
ATOM      3  C   UNL     1      -8.127  24.251  34.455  1.00  0.00     0.000 C 
BRANCH   3   4
ATOM      4  C   UNL     1      -8.256  24.182  32.925  1.00  0.00     0.000 C 
BRANCH   4   5
ATOM      5  C   UNL     1      -6.930  24.485  32.204  1.00  0.00     0.000 C 
BRANCH   5   6
ATOM      6  C   UNL     1      -6.358  25.866  32.571  1.00  0.00     0.006 C 
BRANCH   6   7
ATOM      7  C   UNL     1      -4.948  25.822  33.182  1.00  0.00     0.053 C 
BRANCH   7   8
ATOM      8  C   UNL     1      -3.907  25.470  32.164  1.00  0.00     0.041 C 
ATOM      9  O   UNL     1      -3.609  26.287  31.253  1.00  0.00    -0.550 OA
ATOM     10  O   UNL     1      -3.289  24.226  32.203  1.00  0.00    -0.550 OA
ENDBRANCH   7   8
ENDBRANCH   6   7
ENDBRANCH   5   6
ENDBRANCH   4   5
ENDBRANCH   3   4
ENDBRANCH   2   3
ENDBRANCH   1   2
BRANCH   1  11
ATOM     11  C   UNL     1      -7.106  23.525  36.949  1.00  0.00     0.000 C 
BRANCH  11  12
ATOM     12  C   UNL     1      -7.068  24.217  38.320  1.00  0.00    -0.000 C 
BRANCH  12  13
ATOM     13  C   UNL     1      -7.462  25.703  38.254  1.00  0.00    -0.000 C 
BRANCH  13  14
ATOM     14  C   UNL     1      -7.040  26.429  36.963  1.00  0.00    -0.000 C 
BRANCH  14  15
ATOM     15  C   UNL     1      -6.078  27.602  37.222  1.00  0.00    -0.000 C 
BRANCH  15  16
ATOM     16  C   UNL     1      -5.729  28.366  35.927  1.00  0.00    -0.000 C 
BRANCH  16  17
ATOM     17  C   UNL     1      -4.244  28.752  35.823  1.00  0.00    -0.003 C 
ATOM     18  C   UNL     1      -3.835  29.182  34.416  1.00  0.00     0.004 C 
ENDBRANCH  16  17
ENDBRANCH  15  16
ENDBRANCH  14  15
ENDBRANCH  13  14
ENDBRANCH  12  13
ENDBRANCH  11  12
ENDBRANCH   1  11
TORSDOF 14
ENDMDL
MODEL 3
REMARK VINA RESULT:    -4.256      1.254      3.746
REMARK INTER + INTRA:          -9.094
REMARK INTER:                  -7.772
REMARK INTRA:                  -1.323
REMARK UNBOUND:                -1.356
REMARK SMILES CCCCCCCCCCCCCCCC(=O)[O-]
REMARK SMILES IDX 9 1 10 2 11 3 12 4 13 5 14 6 15 7 16 8 17 9 18 10 8 11 7 12
REMARK SMILES IDX 6 13 5 14 4 15 3 16 2 17 1 18
REMARK H PARENT
REMARK Flexibility Score: inf
ROOT
ATOM      1  C   UNL     1      -7.209  26.213  37.296  1.00  0.00     0.000 C 
ENDROOT
BRANCH   1   2
ATOM      2  C   UNL     1      -6.302  27.230  38.007  1.00  0.00     0.000 C 
BRANCH   2   3
ATOM      3  C   UNL     1      -5.847  28.368  37.077  1.00  0.00     0.000 C 
BRANCH   3   4
ATOM      4  C   UNL     1      -5.944  27.989  35.590  1.00  0.00     0.000 C 
BRANCH   4   5
ATOM      5  C   UNL     1      -4.962  28.785  34.711  1.00  0.00     0.000 C 
BRANCH   5   6
ATOM      6  C   UNL     1      -3.504  28.661  35.188  1.00  0.00     0.006 C 
BRANCH   6   7
ATOM      7  C   UNL     1      -2.463  29.130  34.159  1.00  0.00     0.053 C 
BRANCH   7   8
ATOM      8  C   UNL     1      -1.119  29.349  34.783  1.00  0.00     0.041 C 
ATOM      9  O   UNL     1      -0.446  28.371  35.200  1.00  0.00    -0.550 OA
ATOM     10  O   UNL     1      -0.624  30.639  34.930  1.00  0.00    -0.550 OA
ENDBRANCH   7   8
ENDBRANCH   6   7
ENDBRANCH   5   6
ENDBRANCH   4   5
ENDBRANCH   3   4
ENDBRANCH   2   3
ENDBRANCH   1   2
BRANCH   1  11
ATOM     11  C   UNL     1      -7.285  24.867  38.032  1.00  0.00     0.000 C 
BRANCH  11  12
ATOM     12  C   UNL     1      -7.344  23.700  37.035  1.00  0.00    -0.000 C 
BRANCH  12  13
ATOM     13  C   UNL     1      -8.708  23.577  36.334  1.00  0.00    -0.000 C 
BRANCH  13  14
ATOM     14  C   UNL     1      -8.640  23.415  34.804  1.00  0.00    -0.000 C 
BRANCH  14  15
ATOM     15  C   UNL     1      -8.153  24.687  34.088  1.00  0.00    -0.000 C 
BRANCH  15  16
ATOM     16  C   UNL     1      -7.683  24.401  32.647  1.00  0.00    -0.000 C 
BRANCH  16  17
ATOM     17  C   UNL     1      -6.251  24.883  32.360  1.00  0.00    -0.003 C 
ATOM     18  C   UNL     1      -5.386  24.969  33.614  1.00  0.00     0.004 C 
ENDBRANCH  16  17
ENDBRANCH  15  16
ENDBRANCH  14  15
ENDBRANCH  13  14
ENDBRANCH  12  13
ENDBRANCH  11  12
ENDBRANCH   1  11
TORSDOF 14
ENDMDL
MODEL 4
REMARK VINA RESULT:    -3.922      2.255      3.928
REMARK INTER + INTRA:          -8.487
REMARK INTER:                  -7.593
REMARK INTRA:                  -0.894
REMARK UNBOUND:                -1.356
REMARK SMILES CCCCCCCCCCCCCCCC(=O)[O-]
REMARK SMILES IDX 9 1 10 2 11 3 12 4 13 5 14 6 15 7 16 8 17 9 18 10 8 11 7 12
REMARK SMILES IDX 6 13 5 14 4 15 3 16 2 17 1 18
REMARK H PARENT
REMARK Flexibility Score: inf
ROOT
ATOM      1  C   UNL     1      -5.127  28.870  34.546  1.00  0.00     0.000 C 
ENDROOT
BRANCH   1   2
ATOM      2  C   UNL     1      -3.615  28.648  34.387  1.00  0.00     0.000 C 
BRANCH   2   3
ATOM      3  C   UNL     1      -2.784  29.544  35.323  1.00  0.00     0.000 C 
BRANCH   3   4
ATOM      4  C   UNL     1      -1.952  30.585  34.556  1.00  0.00     0.000 C 
BRANCH   4   5
ATOM      5  C   UNL     1      -0.439  30.319  34.648  1.00  0.00     0.000 C 
BRANCH   5   6
ATOM      6  C   UNL     1       0.307  31.401  35.449  1.00  0.00     0.006 C 
BRANCH   6   7
ATOM      7  C   UNL     1      -0.576  32.579  35.891  1.00  0.00     0.053 C 
BRANCH   7   8
ATOM      8  C   UNL     1       0.212  33.629  36.612  1.00  0.00     0.041 C 
ATOM      9  O   UNL     1      -0.147  34.835  36.567  1.00  0.00    -0.550 OA
ATOM     10  O   UNL     1       1.362  33.279  37.309  1.00  0.00    -0.550 OA
ENDBRANCH   7   8
ENDBRANCH   6   7
ENDBRANCH   5   6
ENDBRANCH   4   5
ENDBRANCH   3   4
ENDBRANCH   2   3
ENDBRANCH   1   2
BRANCH   1  11
ATOM     11  C   UNL     1      -5.792  27.813  35.441  1.00  0.00     0.000 C 
BRANCH  11  12
ATOM     12  C   UNL     1      -7.065  27.259  34.781  1.00  0.00    -0.000 C 
BRANCH  12  13
ATOM     13  C   UNL     1      -6.791  26.050  33.870  1.00  0.00    -0.000 C 
BRANCH  13  14
ATOM     14  C   UNL     1      -7.617  24.793  34.195  1.00  0.00    -0.000 C 
BRANCH  14  15
ATOM     15  C   UNL     1      -7.208  24.133  35.523  1.00  0.00    -0.000 C 
BRANCH  15  16
ATOM     16  C   UNL     1      -8.327  24.212  36.583  1.00  0.00    -0.000 C 
BRANCH  16  17
ATOM     17  C   UNL     1      -7.807  24.456  38.009  1.00  0.00    -0.003 C 
ATOM     18  C   UNL     1      -7.318  25.884  38.232  1.00  0.00     0.004 C 
ENDBRANCH  16  17
ENDBRANCH  15  16
ENDBRANCH  14  15
ENDBRANCH  13  14
ENDBRANCH  12  13
ENDBRANCH  11  12
ENDBRANCH   1  11
TORSDOF 14
ENDMDL
MODEL 5
REMARK VINA RESULT:    -3.914      3.810      6.537
REMARK INTER + INTRA:          -8.474
REMARK INTER:                  -7.148
REMARK INTRA:                  -1.326
REMARK UNBOUND:                -1.356
REMARK SMILES CCCCCCCCCCCCCCCC(=O)[O-]
REMARK SMILES IDX 9 1 10 2 11 3 12 4 13 5 14 6 15 7 16 8 17 9 18 10 8 11 7 12
REMARK SMILES IDX 6 13 5 14 4 15 3 16 2 17 1 18
REMARK H PARENT
REMARK Flexibility Score: inf
ROOT
ATOM      1  C   UNL     1      -7.899  24.931  33.032  1.00  0.00     0.000 C 
ENDROOT
BRANCH   1   2
ATOM      2  C   UNL     1      -7.769  24.381  34.461  1.00  0.00     0.000 C 
BRANCH   2   3
ATOM      3  C   UNL     1      -8.406  25.308  35.511  1.00  0.00     0.000 C 
BRANCH   3   4
ATOM      4  C   UNL     1      -7.358  26.032  36.372  1.00  0.00     0.000 C 
BRANCH   4   5
ATOM      5  C   UNL     1      -7.510  25.726  37.872  1.00  0.00     0.000 C 
BRANCH   5   6
ATOM      6  C   UNL     1      -7.804  24.241  38.149  1.00  0.00     0.006 C 
BRANCH   6   7
ATOM      7  C   UNL     1      -6.570  23.328  38.067  1.00  0.00     0.053 C 
BRANCH   7   8
ATOM      8  C   UNL     1      -6.431  22.466  39.284  1.00  0.00     0.041 C 
ATOM      9  O   UNL     1      -7.043  21.369  39.359  1.00  0.00    -0.550 OA
ATOM     10  O   UNL     1      -5.646  22.890  40.350  1.00  0.00    -0.550 OA
ENDBRANCH   7   8
ENDBRANCH   6   7
ENDBRANCH   5   6
ENDBRANCH   4   5
ENDBRANCH   3   4
ENDBRANCH   2   3
ENDBRANCH   1   2
BRANCH   1  11
ATOM     11  C   UNL     1      -6.671  24.622  32.161  1.00  0.00     0.000 C 
BRANCH  11  12
ATOM     12  C   UNL     1      -5.399  25.225  32.776  1.00  0.00    -0.000 C 
BRANCH  12  13
ATOM     13  C   UNL     1      -4.510  25.935  31.740  1.00  0.00    -0.000 C 
BRANCH  13  14
ATOM     14  C   UNL     1      -3.177  26.476  32.290  1.00  0.00    -0.000 C 
BRANCH  14  15
ATOM     15  C   UNL     1      -3.061  26.342  33.818  1.00  0.00    -0.000 C 
BRANCH  15  16
ATOM     16  C   UNL     1      -2.791  27.698  34.503  1.00  0.00    -0.000 C 
BRANCH  16  17
ATOM     17  C   UNL     1      -3.838  28.774  34.171  1.00  0.00    -0.003 C 
ATOM     18  C   UNL     1      -5.196  28.507  34.815  1.00  0.00     0.004 C 
ENDBRANCH  16  17
ENDBRANCH  15  16
ENDBRANCH  14  15
ENDBRANCH  13  14
ENDBRANCH  12  13
ENDBRANCH  11  12
ENDBRANCH   1  11
TORSDOF 14
ENDMDL
MODEL 6
REMARK VINA RESULT:    -3.896      4.034      8.181
REMARK INTER + INTRA:          -8.441
REMARK INTER:                  -7.720
REMARK INTRA:                  -0.721
REMARK UNBOUND:                -1.356
REMARK SMILES CCCCCCCCCCCCCCCC(=O)[O-]
REMARK SMILES IDX 9 1 10 2 11 3 12 4 13 5 14 6 15 7 16 8 17 9 18 10 8 11 7 12
REMARK SMILES IDX 6 13 5 14 4 15 3 16 2 17 1 18
REMARK H PARENT
REMARK Flexibility Score: inf
ROOT
ATOM      1  C   UNL     1      -4.473  28.237  34.547  1.00  0.00     0.000 C 
ENDROOT
BRANCH   1   2
ATOM      2  C   UNL     1      -3.712  27.621  33.362  1.00  0.00     0.000 C 
BRANCH   2   3
ATOM      3  C   UNL     1      -4.455  26.424  32.741  1.00  0.00     0.000 C 
BRANCH   3   4
ATOM      4  C   UNL     1      -5.982  26.598  32.773  1.00  0.00     0.000 C 
BRANCH   4   5
ATOM      5  C   UNL     1      -6.733  25.265  32.608  1.00  0.00     0.000 C 
BRANCH   5   6
ATOM      6  C   UNL     1      -7.825  25.061  33.674  1.00  0.00     0.006 C 
BRANCH   6   7
ATOM      7  C   UNL     1      -7.722  26.020  34.871  1.00  0.00     0.053 C 
BRANCH   7   8
ATOM      8  C   UNL     1      -8.143  25.364  36.151  1.00  0.00     0.041 C 
ATOM      9  O   UNL     1      -8.967  24.412  36.135  1.00  0.00    -0.550 OA
ATOM     10  O   UNL     1      -7.649  25.826  37.364  1.00  0.00    -0.550 OA
ENDBRANCH   7   8
ENDBRANCH   6   7
ENDBRANCH   5   6
ENDBRANCH   4   5
ENDBRANCH   3   4
ENDBRANCH   2   3
ENDBRANCH   1   2
BRANCH   1  11
ATOM     11  C   UNL     1      -3.582  29.127  35.427  1.00  0.00     0.000 C 
BRANCH  11  12
ATOM     12  C   UNL     1      -2.245  29.423  34.730  1.00  0.00    -0.000 C 
BRANCH  12  13
ATOM     13  C   UNL     1      -1.964  30.929  34.583  1.00  0.00    -0.000 C 
BRANCH  13  14
ATOM     14  C   UNL     1      -0.664  31.414  35.249  1.00  0.00    -0.000 C 
BRANCH  14  15
ATOM     15  C   UNL     1      -0.830  32.759  35.978  1.00  0.00    -0.000 C 
BRANCH  15  16
ATOM     16  C   UNL     1       0.486  33.235  36.629  1.00  0.00    -0.000 C 
BRANCH  16  17
ATOM     17  C   UNL     1       0.412  34.664  37.191  1.00  0.00    -0.003 C 
ATOM     18  C   UNL     1       0.488  34.713  38.715  1.00  0.00     0.004 C 
ENDBRANCH  16  17
ENDBRANCH  15  16
ENDBRANCH  14  15
ENDBRANCH  13  14
ENDBRANCH  12  13
ENDBRANCH  11  12
ENDBRANCH   1  11
TORSDOF 14
ENDMDL
MODEL 7
REMARK VINA RESULT:    -3.880      3.217      7.500
REMARK INTER + INTRA:          -8.411
REMARK INTER:                  -7.402
REMARK INTRA:                  -1.009
REMARK UNBOUND:                -1.356
REMARK SMILES CCCCCCCCCCCCCCCC(=O)[O-]
REMARK SMILES IDX 9 1 10 2 11 3 12 4 13 5 14 6 15 7 16 8 17 9 18 10 8 11 7 12
REMARK SMILES IDX 6 13 5 14 4 15 3 16 2 17 1 18
REMARK H PARENT
REMARK Flexibility Score: inf
ROOT
ATOM      1  C   UNL     1      -5.948  28.000  34.234  1.00  0.00     0.000 C 
ENDROOT
BRANCH   1   2
ATOM      2  C   UNL     1      -5.506  26.566  33.902  1.00  0.00     0.000 C 
BRANCH   2   3
ATOM      3  C   UNL     1      -5.951  26.121  32.498  1.00  0.00     0.000 C 
BRANCH   3   4
ATOM      4  C   UNL     1      -6.561  24.709  32.494  1.00  0.00     0.000 C 
BRANCH   4   5
ATOM      5  C   UNL     1      -8.020  24.693  32.985  1.00  0.00     0.000 C 
BRANCH   5   6
ATOM      6  C   UNL     1      -8.166  24.085  34.392  1.00  0.00     0.006 C 
BRANCH   6   7
ATOM      7  C   UNL     1      -8.534  25.103  35.483  1.00  0.00     0.053 C 
BRANCH   7   8
ATOM      8  C   UNL     1      -7.551  25.090  36.614  1.00  0.00     0.041 C 
ATOM      9  O   UNL     1      -7.177  23.999  37.117  1.00  0.00    -0.550 OA
ATOM     10  O   UNL     1      -7.073  26.287  37.133  1.00  0.00    -0.550 OA
ENDBRANCH   7   8
ENDBRANCH   6   7
ENDBRANCH   5   6
ENDBRANCH   4   5
ENDBRANCH   3   4
ENDBRANCH   2   3
ENDBRANCH   1   2
BRANCH   1  11
ATOM     11  C   UNL     1      -4.863  28.802  34.969  1.00  0.00     0.000 C 
BRANCH  11  12
ATOM     12  C   UNL     1      -3.467  28.453  34.432  1.00  0.00    -0.000 C 
BRANCH  12  13
ATOM     13  C   UNL     1      -2.353  29.319  35.046  1.00  0.00    -0.000 C 
BRANCH  13  14
ATOM     14  C   UNL     1      -2.306  30.772  34.539  1.00  0.00    -0.000 C 
BRANCH  14  15
ATOM     15  C   UNL     1      -1.139  31.578  35.135  1.00  0.00    -0.000 C 
BRANCH  15  16
ATOM     16  C   UNL     1       0.183  30.781  35.129  1.00  0.00    -0.000 C 
BRANCH  16  17
ATOM     17  C   UNL     1       1.350  31.521  35.803  1.00  0.00    -0.003 C 
ATOM     18  C   UNL     1       0.928  32.832  36.460  1.00  0.00     0.004 C 
ENDBRANCH  16  17
ENDBRANCH  15  16
ENDBRANCH  14  15
ENDBRANCH  13  14
ENDBRANCH  12  13
ENDBRANCH  11  12
ENDBRANCH   1  11
TORSDOF 14
ENDMDL
MODEL 8
REMARK VINA RESULT:    -3.878      2.319      3.112
REMARK INTER + INTRA:          -8.407
REMARK INTER:                  -7.175
REMARK INTRA:                  -1.232
REMARK UNBOUND:                -1.356
REMARK SMILES CCCCCCCCCCCCCCCC(=O)[O-]
REMARK SMILES IDX 9 1 10 2 11 3 12 4 13 5 14 6 15 7 16 8 17 9 18 10 8 11 7 12
REMARK SMILES IDX 6 13 5 14 4 15 3 16 2 17 1 18
REMARK H PARENT
REMARK Flexibility Score: inf
ROOT
ATOM      1  C   UNL     1      -4.975  24.434  31.228  1.00  0.00     0.000 C 
ENDROOT
BRANCH   1   2
ATOM      2  C   UNL     1      -3.449  24.612  31.254  1.00  0.00     0.000 C 
BRANCH   2   3
ATOM      3  C   UNL     1      -3.026  26.091  31.244  1.00  0.00     0.000 C 
BRANCH   3   4
ATOM      4  C   UNL     1      -2.090  26.444  32.412  1.00  0.00     0.000 C 
BRANCH   4   5
ATOM      5  C   UNL     1      -2.856  26.780  33.704  1.00  0.00     0.000 C 
BRANCH   5   6
ATOM      6  C   UNL     1      -3.967  27.823  33.482  1.00  0.00     0.006 C 
BRANCH   6   7
ATOM      7  C   UNL     1      -4.248  28.714  34.702  1.00  0.00     0.053 C 
BRANCH   7   8
ATOM      8  C   UNL     1      -5.415  28.218  35.500  1.00  0.00     0.041 C 
ATOM      9  O   UNL     1      -6.376  27.641  34.927  1.00  0.00    -0.550 OA
ATOM     10  O   UNL     1      -5.454  28.420  36.874  1.00  0.00    -0.550 OA
ENDBRANCH   7   8
ENDBRANCH   6   7
ENDBRANCH   5   6
ENDBRANCH   4   5
ENDBRANCH   3   4
ENDBRANCH   2   3
ENDBRANCH   1   2
BRANCH   1  11
ATOM     11  C   UNL     1      -5.625  24.675  32.599  1.00  0.00     0.000 C 
BRANCH  11  12
ATOM     12  C   UNL     1      -6.956  25.428  32.450  1.00  0.00    -0.000 C 
BRANCH  12  13
ATOM     13  C   UNL     1      -8.184  24.519  32.639  1.00  0.00    -0.000 C 
BRANCH  13  14
ATOM     14  C   UNL     1      -8.221  23.748  33.971  1.00  0.00    -0.000 C 
BRANCH  14  15
ATOM     15  C   UNL     1      -7.913  24.638  35.188  1.00  0.00    -0.000 C 
BRANCH  15  16
ATOM     16  C   UNL     1      -7.297  23.837  36.354  1.00  0.00    -0.000 C 
BRANCH  16  17
ATOM     17  C   UNL     1      -7.777  24.300  37.740  1.00  0.00    -0.003 C 
ATOM     18  C   UNL     1      -7.521  25.783  37.998  1.00  0.00     0.004 C 
ENDBRANCH  16  17
ENDBRANCH  15  16
ENDBRANCH  14  15
ENDBRANCH  13  14
ENDBRANCH  12  13
ENDBRANCH  11  12
ENDBRANCH   1  11
TORSDOF 14
ENDMDL
MODEL 9
REMARK VINA RESULT:    -3.749      9.979     12.684
REMARK INTER + INTRA:          -8.173
REMARK INTER:                  -5.445
REMARK INTRA:                  -2.728
REMARK UNBOUND:                -1.356
REMARK SMILES CCCCCCCCCCCCCCCC(=O)[O-]
REMARK SMILES IDX 9 1 10 2 11 3 12 4 13 5 14 6 15 7 16 8 17 9 18 10 8 11 7 12
REMARK SMILES IDX 6 13 5 14 4 15 3 16 2 17 1 18
REMARK H PARENT
REMARK Flexibility Score: inf
ROOT
ATOM      1  C   UNL     1       0.377  34.457  38.537  1.00  0.00     0.000 C 
ENDROOT
BRANCH   1   2
ATOM      2  C   UNL     1       0.362  34.961  37.085  1.00  0.00     0.000 C 
BRANCH   2   3
ATOM      3  C   UNL     1       0.548  33.826  36.063  1.00  0.00     0.000 C 
BRANCH   3   4
ATOM      4  C   UNL     1       1.404  32.673  36.613  1.00  0.00     0.000 C 
BRANCH   4   5
ATOM      5  C   UNL     1       2.909  32.883  36.369  1.00  0.00     0.000 C 
BRANCH   5   6
ATOM      6  C   UNL     1       3.787  32.091  37.353  1.00  0.00     0.006 C 
BRANCH   6   7
ATOM      7  C   UNL     1       3.034  31.564  38.586  1.00  0.00     0.053 C 
BRANCH   7   8
ATOM      8  C   UNL     1       3.061  30.068  38.661  1.00  0.00     0.041 C 
ATOM      9  O   UNL     1       2.819  29.377  37.638  1.00  0.00    -0.550 OA
ATOM     10  O   UNL     1       3.324  29.438  39.872  1.00  0.00    -0.550 OA
ENDBRANCH   7   8
ENDBRANCH   6   7
ENDBRANCH   5   6
ENDBRANCH   4   5
ENDBRANCH   3   4
ENDBRANCH   2   3
ENDBRANCH   1   2
BRANCH   1  11
ATOM     11  C   UNL     1       1.064  35.438  39.499  1.00  0.00     0.000 C 
BRANCH  11  12
ATOM     12  C   UNL     1       2.344  34.825  40.085  1.00  0.00    -0.000 C 
BRANCH  12  13
ATOM     13  C   UNL     1       3.615  35.248  39.327  1.00  0.00    -0.000 C 
BRANCH  13  14
ATOM     14  C   UNL     1       3.485  36.553  38.521  1.00  0.00    -0.000 C 
BRANCH  14  15
ATOM     15  C   UNL     1       3.864  36.383  37.040  1.00  0.00    -0.000 C 
BRANCH  15  16
ATOM     16  C   UNL     1       3.185  37.437  36.139  1.00  0.00    -0.000 C 
BRANCH  16  17
ATOM     17  C   UNL     1       2.564  36.846  34.863  1.00  0.00    -0.003 C 
ATOM     18  C   UNL     1       3.442  35.784  34.206  1.00  0.00     0.004 C 
ENDBRANCH  16  17
ENDBRANCH  15  16
ENDBRANCH  14  15
ENDBRANCH  13  14
ENDBRANCH  12  13
ENDBRANCH  11  12
ENDBRANCH   1  11
TORSDOF 14
ENDMDL
