MODEL 1
REMARK VINA RESULT:    -3.263      0.000      0.000
REMARK INTER + INTRA:          -6.477
REMARK INTER:                  -5.553
REMARK INTRA:                  -0.924
REMARK UNBOUND:                -0.924
REMARK SMILES CCCCCCCCCCCCCC(=O)[O-]
REMARK SMILES IDX 8 1 9 2 10 3 11 4 12 5 13 6 14 7 15 8 16 9 7 10 6 11 5 12
REMARK SMILES IDX 4 13 3 14 2 15 1 16
REMARK H PARENT
REMARK Flexibility Score: inf
ROOT
ATOM      1  C   UNL     1      11.372  31.144 -11.094  1.00  0.00     0.000 C 
ENDROOT
BRANCH   1   2
ATOM      2  C   UNL     1      10.707  32.422 -10.557  1.00  0.00     0.000 C 
BRANCH   2   3
ATOM      3  C   UNL     1       9.677  32.131  -9.452  1.00  0.00     0.000 C 
BRANCH   3   4
ATOM      4  C   UNL     1       9.346  30.633  -9.322  1.00  0.00     0.000 C 
BRANCH   4   5
ATOM      5  C   UNL     1       9.595  30.026  -7.929  1.00  0.00     0.006 C 
BRANCH   5   6
ATOM      6  C   UNL     1      10.094  28.576  -7.988  1.00  0.00     0.053 C 
BRANCH   6   7
ATOM      7  C   UNL     1      11.530  28.535  -8.405  1.00  0.00     0.041 C 
ATOM      8  O   UNL     1      11.865  27.951  -9.469  1.00  0.00    -0.550 OA
ATOM      9  O   UNL     1      12.506  29.098  -7.592  1.00  0.00    -0.550 OA
ENDBRANCH   6   7
ENDBRANCH   5   6
ENDBRANCH   4   5
ENDBRANCH   3   4
ENDBRANCH   2   3
ENDBRANCH   1   2
BRANCH   1  10
ATOM     10  C   UNL     1      12.838  31.007 -10.654  1.00  0.00     0.000 C 
BRANCH  10  11
ATOM     11  C   UNL     1      13.297  32.249  -9.881  1.00  0.00    -0.000 C 
BRANCH  11  12
ATOM     12  C   UNL     1      14.387  31.894  -8.864  1.00  0.00    -0.000 C 
BRANCH  12  13
ATOM     13  C   UNL     1      15.785  32.003  -9.493  1.00  0.00    -0.000 C 
BRANCH  13  14
ATOM     14  C   UNL     1      15.757  32.583 -10.919  1.00  0.00    -0.000 C 
BRANCH  14  15
ATOM     15  C   UNL     1      15.880  34.115 -10.996  1.00  0.00    -0.003 C 
ATOM     16  C   UNL     1      16.629  34.716  -9.806  1.00  0.00     0.004 C 
ENDBRANCH  14  15
ENDBRANCH  13  14
ENDBRANCH  12  13
ENDBRANCH  11  12
ENDBRANCH  10  11
ENDBRANCH   1  10
TORSDOF 12
ENDMDL
MODEL 2
REMARK VINA RESULT:    -3.157      0.895      1.549
REMARK INTER + INTRA:          -6.295
REMARK INTER:                  -5.474
REMARK INTRA:                  -0.821
REMARK UNBOUND:                -0.924
REMARK SMILES CCCCCCCCCCCCCC(=O)[O-]
REMARK SMILES IDX 8 1 9 2 10 3 11 4 12 5 13 6 14 7 15 8 16 9 7 10 6 11 5 12
REMARK SMILES IDX 4 13 3 14 2 15 1 16
REMARK H PARENT
REMARK Flexibility Score: inf
ROOT
ATOM      1  C   UNL     1      10.397  32.166 -10.537  1.00  0.00     0.000 C 
ENDROOT
BRANCH   1   2
ATOM      2  C   UNL     1      10.306  32.017  -9.010  1.00  0.00     0.000 C 
BRANCH   2   3
ATOM      3  C   UNL     1       9.155  31.094  -8.575  1.00  0.00     0.000 C 
BRANCH   3   4
ATOM      4  C   UNL     1       8.972  29.884  -9.510  1.00  0.00     0.000 C 
BRANCH   4   5
ATOM      5  C   UNL     1       9.221  28.511  -8.860  1.00  0.00     0.006 C 
BRANCH   5   6
ATOM      6  C   UNL     1      10.287  28.554  -7.758  1.00  0.00     0.053 C 
BRANCH   6   7
ATOM      7  C   UNL     1      11.655  28.635  -8.359  1.00  0.00     0.041 C 
ATOM      8  O   UNL     1      11.882  28.134  -9.491  1.00  0.00    -0.550 OA
ATOM      9  O   UNL     1      12.694  29.222  -7.645  1.00  0.00    -0.550 OA
ENDBRANCH   6   7
ENDBRANCH   5   6
ENDBRANCH   4   5
ENDBRANCH   3   4
ENDBRANCH   2   3
ENDBRANCH   1   2
BRANCH   1  10
ATOM     10  C   UNL     1      11.654  31.505 -11.124  1.00  0.00     0.000 C 
BRANCH  10  11
ATOM     11  C   UNL     1      12.871  31.741 -10.221  1.00  0.00    -0.000 C 
BRANCH  11  12
ATOM     12  C   UNL     1      14.134  31.994 -11.052  1.00  0.00    -0.000 C 
BRANCH  12  13
ATOM     13  C   UNL     1      14.455  33.494 -11.125  1.00  0.00    -0.000 C 
BRANCH  13  14
ATOM     14  C   UNL     1      15.839  33.840 -10.545  1.00  0.00    -0.000 C 
BRANCH  14  15
ATOM     15  C   UNL     1      16.466  32.743  -9.667  1.00  0.00    -0.003 C 
ATOM     16  C   UNL     1      15.808  32.628  -8.293  1.00  0.00     0.004 C 
ENDBRANCH  14  15
ENDBRANCH  13  14
ENDBRANCH  12  13
ENDBRANCH  11  12
ENDBRANCH  10  11
ENDBRANCH   1  10
TORSDOF 12
ENDMDL
MODEL 3
REMARK VINA RESULT:    -3.002     12.328     13.072
REMARK INTER + INTRA:          -6.031
REMARK INTER:                  -5.778
REMARK INTRA:                  -0.253
REMARK UNBOUND:                -0.924
REMARK SMILES CCCCCCCCCCCCCC(=O)[O-]
REMARK SMILES IDX 8 1 9 2 10 3 11 4 12 5 13 6 14 7 15 8 16 9 7 10 6 11 5 12
REMARK SMILES IDX 4 13 3 14 2 15 1 16
REMARK H PARENT
REMARK Flexibility Score: inf
ROOT
ATOM      1  C   UNL     1      22.200  21.278 -10.062  1.00  0.00     0.000 C 
ENDROOT
BRANCH   1   2
ATOM      2  C   UNL     1      21.534  20.140 -10.854  1.00  0.00     0.000 C 
BRANCH   2   3
ATOM      3  C   UNL     1      20.013  20.323 -10.982  1.00  0.00     0.000 C 
BRANCH   3   4
ATOM      4  C   UNL     1      19.246  18.987 -10.965  1.00  0.00     0.000 C 
BRANCH   4   5
ATOM      5  C   UNL     1      17.714  19.111 -11.053  1.00  0.00     0.006 C 
BRANCH   5   6
ATOM      6  C   UNL     1      16.981  17.886 -10.493  1.00  0.00     0.053 C 
BRANCH   6   7
ATOM      7  C   UNL     1      15.766  18.309  -9.728  1.00  0.00     0.041 C 
ATOM      8  O   UNL     1      15.163  19.371 -10.031  1.00  0.00    -0.550 OA
ATOM      9  O   UNL     1      15.330  17.554  -8.645  1.00  0.00    -0.550 OA
ENDBRANCH   6   7
ENDBRANCH   5   6
ENDBRANCH   4   5
ENDBRANCH   3   4
ENDBRANCH   2   3
ENDBRANCH   1   2
BRANCH   1  10
ATOM     10  C   UNL     1      22.629  22.452 -10.956  1.00  0.00     0.000 C 
BRANCH  10  11
ATOM     11  C   UNL     1      23.507  23.440 -10.181  1.00  0.00    -0.000 C 
BRANCH  11  12
ATOM     12  C   UNL     1      24.483  24.164 -11.116  1.00  0.00    -0.000 C 
BRANCH  12  13
ATOM     13  C   UNL     1      24.285  25.686 -11.049  1.00  0.00    -0.000 C 
BRANCH  13  14
ATOM     14  C   UNL     1      25.609  26.467 -11.124  1.00  0.00    -0.000 C 
BRANCH  14  15
ATOM     15  C   UNL     1      25.609  27.814 -10.380  1.00  0.00    -0.003 C 
ATOM     16  C   UNL     1      26.996  28.225  -9.889  1.00  0.00     0.004 C 
ENDBRANCH  14  15
ENDBRANCH  13  14
ENDBRANCH  12  13
ENDBRANCH  11  12
ENDBRANCH  10  11
ENDBRANCH   1  10
TORSDOF 12
ENDMDL
MODEL 4
REMARK VINA RESULT:    -2.980      1.993      6.063
REMARK INTER + INTRA:          -5.994
REMARK INTER:                  -4.952
REMARK INTRA:                  -1.042
REMARK UNBOUND:                -0.924
REMARK SMILES CCCCCCCCCCCCCC(=O)[O-]
REMARK SMILES IDX 8 1 9 2 10 3 11 4 12 5 13 6 14 7 15 8 16 9 7 10 6 11 5 12
REMARK SMILES IDX 4 13 3 14 2 15 1 16
REMARK H PARENT
REMARK Flexibility Score: inf
ROOT
ATOM      1  C   UNL     1      12.408  31.741  -9.993  1.00  0.00     0.000 C 
ENDROOT
BRANCH   1   2
ATOM      2  C   UNL     1      13.387  32.416 -10.967  1.00  0.00     0.000 C 
BRANCH   2   3
ATOM      3  C   UNL     1      13.226  33.945 -11.000  1.00  0.00     0.000 C 
BRANCH   3   4
ATOM      4  C   UNL     1      14.570  34.687 -11.125  1.00  0.00     0.000 C 
BRANCH   4   5
ATOM      5  C   UNL     1      15.820  33.814 -10.920  1.00  0.00     0.006 C 
BRANCH   5   6
ATOM      6  C   UNL     1      16.332  33.831  -9.473  1.00  0.00     0.053 C 
BRANCH   6   7
ATOM      7  C   UNL     1      16.070  32.516  -8.811  1.00  0.00     0.041 C 
ATOM      8  O   UNL     1      16.757  31.506  -9.111  1.00  0.00    -0.550 OA
ATOM      9  O   UNL     1      15.031  32.394  -7.896  1.00  0.00    -0.550 OA
ENDBRANCH   6   7
ENDBRANCH   5   6
ENDBRANCH   4   5
ENDBRANCH   3   4
ENDBRANCH   2   3
ENDBRANCH   1   2
BRANCH   1  10
ATOM     10  C   UNL     1      11.027  31.491 -10.617  1.00  0.00     0.000 C 
BRANCH  10  11
ATOM     11  C   UNL     1       9.937  32.265  -9.866  1.00  0.00    -0.000 C 
BRANCH  11  12
ATOM     12  C   UNL     1       9.168  31.348  -8.908  1.00  0.00    -0.000 C 
BRANCH  12  13
ATOM     13  C   UNL     1       9.185  29.894  -9.405  1.00  0.00    -0.000 C 
BRANCH  13  14
ATOM     14  C   UNL     1       9.301  28.871  -8.260  1.00  0.00    -0.000 C 
BRANCH  14  15
ATOM     15  C   UNL     1      10.705  28.273  -8.067  1.00  0.00    -0.003 C 
ATOM     16  C   UNL     1      11.504  28.189  -9.367  1.00  0.00     0.004 C 
ENDBRANCH  14  15
ENDBRANCH  13  14
ENDBRANCH  12  13
ENDBRANCH  11  12
ENDBRANCH  10  11
ENDBRANCH   1  10
TORSDOF 12
ENDMDL
MODEL 5
REMARK VINA RESULT:    -2.962     13.477     15.999
REMARK INTER + INTRA:          -5.964
REMARK INTER:                  -5.462
REMARK INTRA:                  -0.502
REMARK UNBOUND:                -0.924
REMARK SMILES CCCCCCCCCCCCCC(=O)[O-]
REMARK SMILES IDX 8 1 9 2 10 3 11 4 12 5 13 6 14 7 15 8 16 9 7 10 6 11 5 12
REMARK SMILES IDX 4 13 3 14 2 15 1 16
REMARK H PARENT
REMARK Flexibility Score: inf
ROOT
ATOM      1  C   UNL     1      22.429  20.702 -10.038  1.00  0.00     0.000 C 
ENDROOT
BRANCH   1   2
ATOM      2  C   UNL     1      22.199  21.908 -10.964  1.00  0.00     0.000 C 
BRANCH   2   3
ATOM      3  C   UNL     1      22.657  23.233 -10.332  1.00  0.00     0.000 C 
BRANCH   3   4
ATOM      4  C   UNL     1      23.918  23.811 -11.001  1.00  0.00     0.000 C 
BRANCH   4   5
ATOM      5  C   UNL     1      25.249  23.202 -10.525  1.00  0.00     0.006 C 
BRANCH   5   6
ATOM      6  C   UNL     1      26.476  23.902 -11.123  1.00  0.00     0.053 C 
BRANCH   6   7
ATOM      7  C   UNL     1      27.707  23.553 -10.347  1.00  0.00     0.041 C 
ATOM      8  O   UNL     1      28.409  22.564 -10.682  1.00  0.00    -0.550 OA
ATOM      9  O   UNL     1      28.050  24.292  -9.221  1.00  0.00    -0.550 OA
ENDBRANCH   6   7
ENDBRANCH   5   6
ENDBRANCH   4   5
ENDBRANCH   3   4
ENDBRANCH   2   3
ENDBRANCH   1   2
BRANCH   1  10
ATOM     10  C   UNL     1      22.260  19.357 -10.762  1.00  0.00     0.000 C 
BRANCH  10  11
ATOM     11  C   UNL     1      20.777  19.033 -10.979  1.00  0.00    -0.000 C 
BRANCH  11  12
ATOM     12  C   UNL     1      20.532  17.520 -10.943  1.00  0.00    -0.000 C 
BRANCH  12  13
ATOM     13  C   UNL     1      19.039  17.200 -11.115  1.00  0.00    -0.000 C 
BRANCH  13  14
ATOM     14  C   UNL     1      18.127  18.393 -10.775  1.00  0.00    -0.000 C 
BRANCH  14  15
ATOM     15  C   UNL     1      16.755  18.012 -10.190  1.00  0.00    -0.003 C 
ATOM     16  C   UNL     1      16.178  19.088  -9.271  1.00  0.00     0.004 C 
ENDBRANCH  14  15
ENDBRANCH  13  14
ENDBRANCH  12  13
ENDBRANCH  11  12
ENDBRANCH  10  11
ENDBRANCH   1  10
TORSDOF 12
ENDMDL
MODEL 6
REMARK VINA RESULT:    -2.918     18.475     20.793
REMARK INTER + INTRA:          -5.889
REMARK INTER:                  -5.334
REMARK INTRA:                  -0.555
REMARK UNBOUND:                -0.924
REMARK SMILES CCCCCCCCCCCCCC(=O)[O-]
REMARK SMILES IDX 8 1 9 2 10 3 11 4 12 5 13 6 14 7 15 8 16 9 7 10 6 11 5 12
REMARK SMILES IDX 4 13 3 14 2 15 1 16
REMARK H PARENT
REMARK Flexibility Score: inf
ROOT
ATOM      1  C   UNL     1      27.368  25.136   0.501  1.00  0.00     0.000 C 
ENDROOT
BRANCH   1   2
ATOM      2  C   UNL     1      28.473  25.832   1.313  1.00  0.00     0.000 C 
BRANCH   2   3
ATOM      3  C   UNL     1      28.683  25.190   2.694  1.00  0.00     0.000 C 
BRANCH   3   4
ATOM      4  C   UNL     1      29.125  26.204   3.766  1.00  0.00     0.000 C 
BRANCH   4   5
ATOM      5  C   UNL     1      29.044  27.681   3.341  1.00  0.00     0.006 C 
BRANCH   5   6
ATOM      6  C   UNL     1      28.960  28.643   4.533  1.00  0.00     0.053 C 
BRANCH   6   7
ATOM      7  C   UNL     1      28.986  30.063   4.061  1.00  0.00     0.041 C 
ATOM      8  O   UNL     1      28.914  31.008   4.888  1.00  0.00    -0.550 OA
ATOM      9  O   UNL     1      29.039  30.342   2.700  1.00  0.00    -0.550 OA
ENDBRANCH   6   7
ENDBRANCH   5   6
ENDBRANCH   4   5
ENDBRANCH   3   4
ENDBRANCH   2   3
ENDBRANCH   1   2
BRANCH   1  10
ATOM     10  C   UNL     1      27.866  24.621  -0.859  1.00  0.00     0.000 C 
BRANCH  10  11
ATOM     11  C   UNL     1      26.722  23.984  -1.656  1.00  0.00    -0.000 C 
BRANCH  11  12
ATOM     12  C   UNL     1      27.260  23.165  -2.835  1.00  0.00    -0.000 C 
BRANCH  12  13
ATOM     13  C   UNL     1      28.733  22.788  -2.618  1.00  0.00    -0.000 C 
BRANCH  13  14
ATOM     14  C   UNL     1      28.915  21.344  -2.114  1.00  0.00    -0.000 C 
BRANCH  14  15
ATOM     15  C   UNL     1      28.153  20.277  -2.919  1.00  0.00    -0.003 C 
ATOM     16  C   UNL     1      28.085  18.927  -2.207  1.00  0.00     0.004 C 
ENDBRANCH  14  15
ENDBRANCH  13  14
ENDBRANCH  12  13
ENDBRANCH  11  12
ENDBRANCH  10  11
ENDBRANCH   1  10
TORSDOF 12
ENDMDL
MODEL 7
REMARK VINA RESULT:    -2.613     18.906     20.918
REMARK INTER + INTRA:          -5.370
REMARK INTER:                  -4.673
REMARK INTRA:                  -0.698
REMARK UNBOUND:                -0.924
REMARK SMILES CCCCCCCCCCCCCC(=O)[O-]
REMARK SMILES IDX 8 1 9 2 10 3 11 4 12 5 13 6 14 7 15 8 16 9 7 10 6 11 5 12
REMARK SMILES IDX 4 13 3 14 2 15 1 16
REMARK H PARENT
REMARK Flexibility Score: inf
ROOT
ATOM      1  C   UNL     1      27.406  23.065  -2.487  1.00  0.00     0.000 C 
ENDROOT
BRANCH   1   2
ATOM      2  C   UNL     1      28.837  23.619  -2.391  1.00  0.00     0.000 C 
BRANCH   2   3
ATOM      3  C   UNL     1      28.909  25.123  -2.703  1.00  0.00     0.000 C 
BRANCH   3   4
ATOM      4  C   UNL     1      28.994  25.995  -1.436  1.00  0.00     0.000 C 
BRANCH   4   5
ATOM      5  C   UNL     1      29.125  25.216  -0.114  1.00  0.00     0.006 C 
BRANCH   5   6
ATOM      6  C   UNL     1      27.980  25.503   0.866  1.00  0.00     0.053 C 
BRANCH   6   7
ATOM      7  C   UNL     1      28.519  26.018   2.163  1.00  0.00     0.041 C 
ATOM      8  O   UNL     1      28.518  25.286   3.186  1.00  0.00    -0.550 OA
ATOM      9  O   UNL     1      28.978  27.327   2.253  1.00  0.00    -0.550 OA
ENDBRANCH   6   7
ENDBRANCH   5   6
ENDBRANCH   4   5
ENDBRANCH   3   4
ENDBRANCH   2   3
ENDBRANCH   1   2
BRANCH   1  10
ATOM     10  C   UNL     1      27.372  21.548  -2.733  1.00  0.00     0.000 C 
BRANCH  10  11
ATOM     11  C   UNL     1      28.784  20.998  -2.965  1.00  0.00    -0.000 C 
BRANCH  11  12
ATOM     12  C   UNL     1      28.767  19.833  -3.961  1.00  0.00    -0.000 C 
BRANCH  12  13
ATOM     13  C   UNL     1      29.087  18.504  -3.260  1.00  0.00    -0.000 C 
BRANCH  13  14
ATOM     14  C   UNL     1      29.074  18.617  -1.725  1.00  0.00    -0.000 C 
BRANCH  14  15
ATOM     15  C   UNL     1      28.201  17.573  -1.006  1.00  0.00    -0.003 C 
ATOM     16  C   UNL     1      28.911  16.912   0.175  1.00  0.00     0.004 C 
ENDBRANCH  14  15
ENDBRANCH  13  14
ENDBRANCH  12  13
ENDBRANCH  11  12
ENDBRANCH  10  11
ENDBRANCH   1  10
TORSDOF 12
ENDMDL
MODEL 8
REMARK VINA RESULT:    -2.596     12.389     15.185
REMARK INTER + INTRA:          -5.341
REMARK INTER:                  -4.977
REMARK INTRA:                  -0.364
REMARK UNBOUND:                -0.924
REMARK SMILES CCCCCCCCCCCCCC(=O)[O-]
REMARK SMILES IDX 8 1 9 2 10 3 11 4 12 5 13 6 14 7 15 8 16 9 7 10 6 11 5 12
REMARK SMILES IDX 4 13 3 14 2 15 1 16
REMARK H PARENT
REMARK Flexibility Score: inf
ROOT
ATOM      1  C   UNL     1      22.007  20.611 -10.077  1.00  0.00     0.000 C 
ENDROOT
BRANCH   1   2
ATOM      2  C   UNL     1      22.727  21.552 -11.057  1.00  0.00     0.000 C 
BRANCH   2   3
ATOM      3  C   UNL     1      23.251  22.826 -10.374  1.00  0.00     0.000 C 
BRANCH   3   4
ATOM      4  C   UNL     1      24.445  23.456 -11.115  1.00  0.00     0.000 C 
BRANCH   4   5
ATOM      5  C   UNL     1      24.480  24.995 -11.110  1.00  0.00     0.006 C 
BRANCH   5   6
ATOM      6  C   UNL     1      25.905  25.561 -11.057  1.00  0.00     0.053 C 
BRANCH   6   7
ATOM      7  C   UNL     1      25.872  27.033 -10.790  1.00  0.00     0.041 C 
ATOM      8  O   UNL     1      26.942  27.667 -10.596  1.00  0.00    -0.550 OA
ATOM      9  O   UNL     1      24.654  27.696 -10.705  1.00  0.00    -0.550 OA
ENDBRANCH   6   7
ENDBRANCH   5   6
ENDBRANCH   4   5
ENDBRANCH   3   4
ENDBRANCH   2   3
ENDBRANCH   1   2
BRANCH   1  10
ATOM     10  C   UNL     1      21.633  19.263 -10.714  1.00  0.00     0.000 C 
BRANCH  10  11
ATOM     11  C   UNL     1      20.154  19.239 -11.116  1.00  0.00    -0.000 C 
BRANCH  11  12
ATOM     12  C   UNL     1      19.608  17.806 -11.125  1.00  0.00    -0.000 C 
BRANCH  12  13
ATOM     13  C   UNL     1      18.072  17.802 -11.096  1.00  0.00    -0.000 C 
BRANCH  13  14
ATOM     14  C   UNL     1      17.474  19.176 -10.742  1.00  0.00    -0.000 C 
BRANCH  14  15
ATOM     15  C   UNL     1      16.460  19.162  -9.585  1.00  0.00    -0.003 C 
ATOM     16  C   UNL     1      15.020  19.381 -10.050  1.00  0.00     0.004 C 
ENDBRANCH  14  15
ENDBRANCH  13  14
ENDBRANCH  12  13
ENDBRANCH  11  12
ENDBRANCH  10  11
ENDBRANCH   1  10
TORSDOF 12
ENDMDL
MODEL 9
REMARK VINA RESULT:    -2.549     12.950     14.357
REMARK INTER + INTRA:          -5.261
REMARK INTER:                  -4.888
REMARK INTRA:                  -0.373
REMARK UNBOUND:                -0.924
REMARK SMILES CCCCCCCCCCCCCC(=O)[O-]
REMARK SMILES IDX 8 1 9 2 10 3 11 4 12 5 13 6 14 7 15 8 16 9 7 10 6 11 5 12
REMARK SMILES IDX 4 13 3 14 2 15 1 16
REMARK H PARENT
REMARK Flexibility Score: inf
ROOT
ATOM      1  C   UNL     1      21.775  20.879  -9.924  1.00  0.00     0.000 C 
ENDROOT
BRANCH   1   2
ATOM      2  C   UNL     1      21.329  19.955 -11.069  1.00  0.00     0.000 C 
BRANCH   2   3
ATOM      3  C   UNL     1      19.840  19.582 -10.980  1.00  0.00     0.000 C 
BRANCH   3   4
ATOM      4  C   UNL     1      19.591  18.069 -11.125  1.00  0.00     0.000 C 
BRANCH   4   5
ATOM      5  C   UNL     1      18.184  17.596 -10.717  1.00  0.00     0.006 C 
BRANCH   5   6
ATOM      6  C   UNL     1      17.082  18.592 -11.100  1.00  0.00     0.053 C 
BRANCH   6   7
ATOM      7  C   UNL     1      16.081  18.714  -9.995  1.00  0.00     0.041 C 
ATOM      8  O   UNL     1      16.298  18.172  -8.880  1.00  0.00    -0.550 OA
ATOM      9  O   UNL     1      14.883  19.384 -10.214  1.00  0.00    -0.550 OA
ENDBRANCH   6   7
ENDBRANCH   5   6
ENDBRANCH   4   5
ENDBRANCH   3   4
ENDBRANCH   2   3
ENDBRANCH   1   2
BRANCH   1  10
ATOM     10  C   UNL     1      23.301  21.058  -9.866  1.00  0.00     0.000 C 
BRANCH  10  11
ATOM     11  C   UNL     1      23.725  22.368 -10.538  1.00  0.00    -0.000 C 
BRANCH  11  12
ATOM     12  C   UNL     1      25.149  22.267 -11.096  1.00  0.00    -0.000 C 
BRANCH  12  13
ATOM     13  C   UNL     1      25.872  23.620 -11.014  1.00  0.00    -0.000 C 
BRANCH  13  14
ATOM     14  C   UNL     1      27.404  23.479 -10.948  1.00  0.00    -0.000 C 
BRANCH  14  15
ATOM     15  C   UNL     1      28.088  24.343  -9.874  1.00  0.00    -0.003 C 
ATOM     16  C   UNL     1      29.121  23.570  -9.054  1.00  0.00     0.004 C 
ENDBRANCH  14  15
ENDBRANCH  13  14
ENDBRANCH  12  13
ENDBRANCH  11  12
ENDBRANCH  10  11
ENDBRANCH   1  10
TORSDOF 12
ENDMDL
