MODEL 1
REMARK VINA RESULT:    -5.475      0.000      0.000
REMARK INTER + INTRA:          -5.795
REMARK INTER:                  -5.795
REMARK INTRA:                   0.000
REMARK UNBOUND:                 0.000
REMARK SMILES O=c1ccc2cc(O)c(O)cc2o1
REMARK SMILES IDX 4 1 3 2 2 3 1 4 13 5 12 6 11 7 9 8 7 9 6 10 5 11 8 12 10 14
REMARK H PARENT 8 13 10 15
REMARK Flexibility Score: inf
ROOT
ATOM      1  C   UNL     1      70.251  49.781   6.181  1.00  0.00     0.019 A 
ATOM      2  C   UNL     1      70.064  49.612   4.810  1.00  0.00     0.094 A 
ATOM      3  C   UNL     1      71.000  48.869   4.083  1.00  0.00     0.336 A 
ATOM      4  O   UNL     1      70.849  48.706   2.845  1.00  0.00    -0.246 OA
ATOM      5  O   UNL     1      72.053  48.332   4.695  1.00  0.00    -0.423 OA
ATOM      6  C   UNL     1      72.270  48.468   6.001  1.00  0.00     0.142 A 
ATOM      7  C   UNL     1      73.394  47.882   6.588  1.00  0.00     0.098 A 
ATOM      8  C   UNL     1      73.630  48.020   7.961  1.00  0.00     0.161 A 
ATOM      9  C   UNL     1      72.731  48.754   8.757  1.00  0.00     0.158 A 
ATOM     10  C   UNL     1      71.601  49.346   8.172  1.00  0.00     0.062 A 
ATOM     11  C   UNL     1      71.367  49.206   6.797  1.00  0.00     0.022 A 
ENDROOT
BRANCH   9  12
ATOM     12  O   UNL     1      72.963  48.894  10.125  1.00  0.00    -0.504 OA
ATOM     13  H   UNL     1      73.816  48.556  10.556  1.00  0.00     0.293 HD
ENDBRANCH   9  12
BRANCH   8  14
ATOM     14  O   UNL     1      74.760  47.423   8.518  1.00  0.00    -0.504 OA
ATOM     15  H   UNL     1      75.684  47.545   8.122  1.00  0.00     0.293 HD
ENDBRANCH   8  14
TORSDOF 2
ENDMDL
MODEL 2
REMARK VINA RESULT:    -5.450      1.146      2.421
REMARK INTER + INTRA:          -5.768
REMARK INTER:                  -5.768
REMARK INTRA:                   0.000
REMARK UNBOUND:                 0.000
REMARK SMILES O=c1ccc2cc(O)c(O)cc2o1
REMARK SMILES IDX 4 1 3 2 2 3 1 4 13 5 12 6 11 7 9 8 7 9 6 10 5 11 8 12 10 14
REMARK H PARENT 8 13 10 15
REMARK Flexibility Score: inf
ROOT
ATOM      1  C   UNL     1      73.436  47.904   5.319  1.00  0.00     0.019 A 
ATOM      2  C   UNL     1      72.785  47.967   4.087  1.00  0.00     0.094 A 
ATOM      3  C   UNL     1      71.472  48.448   4.037  1.00  0.00     0.336 A 
ATOM      4  O   UNL     1      70.869  48.512   2.935  1.00  0.00    -0.246 OA
ATOM      5  O   UNL     1      70.857  48.839   5.150  1.00  0.00    -0.423 OA
ATOM      6  C   UNL     1      71.440  48.796   6.345  1.00  0.00     0.142 A 
ATOM      7  C   UNL     1      70.743  49.220   7.480  1.00  0.00     0.098 A 
ATOM      8  C   UNL     1      71.349  49.178   8.741  1.00  0.00     0.161 A 
ATOM      9  C   UNL     1      72.669  48.706   8.870  1.00  0.00     0.158 A 
ATOM     10  C   UNL     1      73.373  48.278   7.734  1.00  0.00     0.062 A 
ATOM     11  C   UNL     1      72.764  48.321   6.472  1.00  0.00     0.022 A 
ENDROOT
BRANCH   9  12
ATOM     12  O   UNL     1      73.275  48.663  10.125  1.00  0.00    -0.504 OA
ATOM     13  H   UNL     1      72.805  49.005  10.954  1.00  0.00     0.293 HD
ENDBRANCH   9  12
BRANCH   8  14
ATOM     14  O   UNL     1      70.628  49.609   9.854  1.00  0.00    -0.504 OA
ATOM     15  H   UNL     1      70.437  49.000  10.640  1.00  0.00     0.293 HD
ENDBRANCH   8  14
TORSDOF 2
ENDMDL
MODEL 3
REMARK VINA RESULT:    -5.390      1.892      2.258
REMARK INTER + INTRA:          -5.705
REMARK INTER:                  -5.705
REMARK INTRA:                   0.000
REMARK UNBOUND:                 0.000
REMARK SMILES O=c1ccc2cc(O)c(O)cc2o1
REMARK SMILES IDX 4 1 3 2 2 3 1 4 13 5 12 6 11 7 9 8 7 9 6 10 5 11 8 12 10 14
REMARK H PARENT 8 13 10 15
REMARK Flexibility Score: inf
ROOT
ATOM      1  C   UNL     1      69.950  49.966   4.969  1.00  0.00     0.019 A 
ATOM      2  C   UNL     1      69.854  50.397   3.646  1.00  0.00     0.094 A 
ATOM      3  C   UNL     1      70.580  49.722   2.658  1.00  0.00     0.336 A 
ATOM      4  O   UNL     1      70.506  50.096   1.459  1.00  0.00    -0.246 OA
ATOM      5  O   UNL     1      71.349  48.685   2.979  1.00  0.00    -0.423 OA
ATOM      6  C   UNL     1      71.469  48.241   4.228  1.00  0.00     0.142 A 
ATOM      7  C   UNL     1      72.293  47.146   4.504  1.00  0.00     0.098 A 
ATOM      8  C   UNL     1      72.425  46.673   5.815  1.00  0.00     0.161 A 
ATOM      9  C   UNL     1      71.725  47.301   6.862  1.00  0.00     0.158 A 
ATOM     10  C   UNL     1      70.897  48.401   6.590  1.00  0.00     0.062 A 
ATOM     11  C   UNL     1      70.767  48.873   5.276  1.00  0.00     0.022 A 
ENDROOT
BRANCH   9  12
ATOM     12  O   UNL     1      71.855  46.831   8.169  1.00  0.00    -0.504 OA
ATOM     13  H   UNL     1      71.197  47.092   8.894  1.00  0.00     0.293 HD
ENDBRANCH   9  12
BRANCH   8  14
ATOM     14  O   UNL     1      73.253  45.578   6.060  1.00  0.00    -0.504 OA
ATOM     15  H   UNL     1      72.953  44.790   6.619  1.00  0.00     0.293 HD
ENDBRANCH   8  14
TORSDOF 2
ENDMDL
MODEL 4
REMARK VINA RESULT:    -5.121      1.980      5.003
REMARK INTER + INTRA:          -5.420
REMARK INTER:                  -5.420
REMARK INTRA:                   0.000
REMARK UNBOUND:                 0.000
REMARK SMILES O=c1ccc2cc(O)c(O)cc2o1
REMARK SMILES IDX 4 1 3 2 2 3 1 4 13 5 12 6 11 7 9 8 7 9 6 10 5 11 8 12 10 14
REMARK H PARENT 8 13 10 15
REMARK Flexibility Score: inf
ROOT
ATOM      1  C   UNL     1      72.717  48.560   7.095  1.00  0.00     0.019 A 
ATOM      2  C   UNL     1      73.514  48.200   8.182  1.00  0.00     0.094 A 
ATOM      3  C   UNL     1      74.231  47.000   8.130  1.00  0.00     0.336 A 
ATOM      4  O   UNL     1      74.955  46.658   9.101  1.00  0.00    -0.246 OA
ATOM      5  O   UNL     1      74.152  46.216   7.058  1.00  0.00    -0.423 OA
ATOM      6  C   UNL     1      73.405  46.521   6.000  1.00  0.00     0.142 A 
ATOM      7  C   UNL     1      73.361  45.657   4.902  1.00  0.00     0.098 A 
ATOM      8  C   UNL     1      72.577  45.971   3.785  1.00  0.00     0.161 A 
ATOM      9  C   UNL     1      71.829  47.162   3.764  1.00  0.00     0.158 A 
ATOM     10  C   UNL     1      71.868  48.032   4.865  1.00  0.00     0.062 A 
ATOM     11  C   UNL     1      72.654  47.716   5.982  1.00  0.00     0.022 A 
ENDROOT
BRANCH   9  12
ATOM     12  O   UNL     1      71.047  47.477   2.653  1.00  0.00    -0.504 OA
ATOM     13  H   UNL     1      70.899  48.436   2.362  1.00  0.00     0.293 HD
ENDBRANCH   9  12
BRANCH   8  14
ATOM     14  O   UNL     1      72.555  45.089   2.705  1.00  0.00    -0.504 OA
ATOM     15  H   UNL     1      72.846  45.369   1.776  1.00  0.00     0.293 HD
ENDBRANCH   8  14
TORSDOF 2
ENDMDL
MODEL 5
REMARK VINA RESULT:    -5.113      1.996      5.105
REMARK INTER + INTRA:          -5.412
REMARK INTER:                  -5.412
REMARK INTRA:                   0.000
REMARK UNBOUND:                 0.000
REMARK SMILES O=c1ccc2cc(O)c(O)cc2o1
REMARK SMILES IDX 4 1 3 2 2 3 1 4 13 5 12 6 11 7 9 8 7 9 6 10 5 11 8 12 10 14
REMARK H PARENT 8 13 10 15
REMARK Flexibility Score: inf
ROOT
ATOM      1  C   UNL     1      74.011  46.585   7.168  1.00  0.00     0.019 A 
ATOM      2  C   UNL     1      73.949  47.562   8.162  1.00  0.00     0.094 A 
ATOM      3  C   UNL     1      73.148  48.690   7.956  1.00  0.00     0.336 A 
ATOM      4  O   UNL     1      73.079  49.581   8.842  1.00  0.00    -0.246 OA
ATOM      5  O   UNL     1      72.455  48.826   6.828  1.00  0.00    -0.423 OA
ATOM      6  C   UNL     1      72.485  47.920   5.854  1.00  0.00     0.142 A 
ATOM      7  C   UNL     1      71.737  48.117   4.691  1.00  0.00     0.098 A 
ATOM      8  C   UNL     1      71.763  47.169   3.662  1.00  0.00     0.161 A 
ATOM      9  C   UNL     1      72.546  46.007   3.797  1.00  0.00     0.158 A 
ATOM     10  C   UNL     1      73.301  45.804   4.964  1.00  0.00     0.062 A 
ATOM     11  C   UNL     1      73.273  46.756   5.993  1.00  0.00     0.022 A 
ENDROOT
BRANCH   9  12
ATOM     12  O   UNL     1      72.574  45.061   2.774  1.00  0.00    -0.504 OA
ATOM     13  H   UNL     1      72.011  44.219   2.814  1.00  0.00     0.293 HD
ENDBRANCH   9  12
BRANCH   8  14
ATOM     14  O   UNL     1      71.005  47.394   2.514  1.00  0.00    -0.504 OA
ATOM     15  H   UNL     1      71.067  48.257   1.988  1.00  0.00     0.293 HD
ENDBRANCH   8  14
TORSDOF 2
ENDMDL
MODEL 6
REMARK VINA RESULT:    -5.061      1.231      4.593
REMARK INTER + INTRA:          -5.357
REMARK INTER:                  -5.357
REMARK INTRA:                   0.000
REMARK UNBOUND:                 0.000
REMARK SMILES O=c1ccc2cc(O)c(O)cc2o1
REMARK SMILES IDX 4 1 3 2 2 3 1 4 13 5 12 6 11 7 9 8 7 9 6 10 5 11 8 12 10 14
REMARK H PARENT 8 13 10 15
REMARK Flexibility Score: inf
ROOT
ATOM      1  C   UNL     1      70.994  49.982   7.962  1.00  0.00     0.019 A 
ATOM      2  C   UNL     1      71.735  49.283   8.916  1.00  0.00     0.094 A 
ATOM      3  C   UNL     1      72.457  48.153   8.519  1.00  0.00     0.336 A 
ATOM      4  O   UNL     1      73.131  47.509   9.365  1.00  0.00    -0.246 OA
ATOM      5  O   UNL     1      72.437  47.753   7.250  1.00  0.00    -0.423 OA
ATOM      6  C   UNL     1      71.744  48.390   6.309  1.00  0.00     0.142 A 
ATOM      7  C   UNL     1      71.761  47.922   4.992  1.00  0.00     0.098 A 
ATOM      8  C   UNL     1      71.035  48.586   3.996  1.00  0.00     0.161 A 
ATOM      9  C   UNL     1      70.284  49.732   4.319  1.00  0.00     0.158 A 
ATOM     10  C   UNL     1      70.264  50.205   5.641  1.00  0.00     0.062 A 
ATOM     11  C   UNL     1      70.991  49.538   6.637  1.00  0.00     0.022 A 
ENDROOT
BRANCH   9  12
ATOM     12  O   UNL     1      69.560  50.395   3.329  1.00  0.00    -0.504 OA
ATOM     13  H   UNL     1      70.022  50.887   2.573  1.00  0.00     0.293 HD
ENDBRANCH   9  12
BRANCH   8  14
ATOM     14  O   UNL     1      71.072  48.097   2.691  1.00  0.00    -0.504 OA
ATOM     15  H   UNL     1      70.468  47.345   2.381  1.00  0.00     0.293 HD
ENDBRANCH   8  14
TORSDOF 2
ENDMDL
MODEL 7
REMARK VINA RESULT:    -5.012      2.397      4.140
REMARK INTER + INTRA:          -5.305
REMARK INTER:                  -5.305
REMARK INTRA:                   0.000
REMARK UNBOUND:                 0.000
REMARK SMILES O=c1ccc2cc(O)c(O)cc2o1
REMARK SMILES IDX 4 1 3 2 2 3 1 4 13 5 12 6 11 7 9 8 7 9 6 10 5 11 8 12 10 14
REMARK H PARENT 8 13 10 15
REMARK Flexibility Score: inf
ROOT
ATOM      1  C   UNL     1      70.638  48.916   4.931  1.00  0.00     0.019 A 
ATOM      2  C   UNL     1      70.567  49.707   6.078  1.00  0.00     0.094 A 
ATOM      3  C   UNL     1      71.421  49.425   7.149  1.00  0.00     0.336 A 
ATOM      4  O   UNL     1      71.373  50.128   8.192  1.00  0.00    -0.246 OA
ATOM      5  O   UNL     1      72.287  48.418   7.072  1.00  0.00    -0.423 OA
ATOM      6  C   UNL     1      72.387  47.639   5.998  1.00  0.00     0.142 A 
ATOM      7  C   UNL     1      73.316  46.595   5.975  1.00  0.00     0.098 A 
ATOM      8  C   UNL     1      73.427  45.771   4.849  1.00  0.00     0.161 A 
ATOM      9  C   UNL     1      72.602  45.994   3.731  1.00  0.00     0.158 A 
ATOM     10  C   UNL     1      71.667  47.041   3.749  1.00  0.00     0.062 A 
ATOM     11  C   UNL     1      71.557  47.864   4.878  1.00  0.00     0.022 A 
ENDROOT
BRANCH   9  12
ATOM     12  O   UNL     1      72.711  45.175   2.608  1.00  0.00    -0.504 OA
ATOM     13  H   UNL     1      71.992  45.154   1.894  1.00  0.00     0.293 HD
ENDBRANCH   9  12
BRANCH   8  14
ATOM     14  O   UNL     1      74.364  44.738   4.855  1.00  0.00    -0.504 OA
ATOM     15  H   UNL     1      75.275  44.834   4.424  1.00  0.00     0.293 HD
ENDBRANCH   8  14
TORSDOF 2
ENDMDL
MODEL 8
REMARK VINA RESULT:    -4.909      2.735      4.134
REMARK INTER + INTRA:          -5.196
REMARK INTER:                  -5.196
REMARK INTRA:                   0.000
REMARK UNBOUND:                 0.000
REMARK SMILES O=c1ccc2cc(O)c(O)cc2o1
REMARK SMILES IDX 4 1 3 2 2 3 1 4 13 5 12 6 11 7 9 8 7 9 6 10 5 11 8 12 10 14
REMARK H PARENT 8 13 10 15
REMARK Flexibility Score: inf
ROOT
ATOM      1  C   UNL     1      72.633  49.412   8.686  1.00  0.00     0.019 A 
ATOM      2  C   UNL     1      73.550  48.834   7.808  1.00  0.00     0.094 A 
ATOM      3  C   UNL     1      73.080  48.004   6.785  1.00  0.00     0.336 A 
ATOM      4  O   UNL     1      73.892  47.474   5.983  1.00  0.00    -0.246 OA
ATOM      5  O   UNL     1      71.776  47.772   6.653  1.00  0.00    -0.423 OA
ATOM      6  C   UNL     1      70.868  48.302   7.468  1.00  0.00     0.142 A 
ATOM      7  C   UNL     1      69.511  48.021   7.281  1.00  0.00     0.098 A 
ATOM      8  C   UNL     1      68.549  48.575   8.133  1.00  0.00     0.161 A 
ATOM      9  C   UNL     1      68.947  49.420   9.186  1.00  0.00     0.158 A 
ATOM     10  C   UNL     1      70.308  49.705   9.379  1.00  0.00     0.062 A 
ATOM     11  C   UNL     1      71.269  49.149   8.524  1.00  0.00     0.022 A 
ENDROOT
BRANCH   9  12
ATOM     12  O   UNL     1      67.990  49.973  10.037  1.00  0.00    -0.504 OA
ATOM     13  H   UNL     1      67.818  50.971  10.065  1.00  0.00     0.293 HD
ENDBRANCH   9  12
BRANCH   8  14
ATOM     14  O   UNL     1      67.204  48.276   7.921  1.00  0.00    -0.504 OA
ATOM     15  H   UNL     1      66.550  48.962   7.564  1.00  0.00     0.293 HD
ENDBRANCH   8  14
TORSDOF 2
ENDMDL
MODEL 9
REMARK VINA RESULT:    -4.906      2.041      4.321
REMARK INTER + INTRA:          -5.192
REMARK INTER:                  -5.192
REMARK INTRA:                   0.000
REMARK UNBOUND:                 0.000
REMARK SMILES O=c1ccc2cc(O)c(O)cc2o1
REMARK SMILES IDX 4 1 3 2 2 3 1 4 13 5 12 6 11 7 9 8 7 9 6 10 5 11 8 12 10 14
REMARK H PARENT 8 13 10 15
REMARK Flexibility Score: inf
ROOT
ATOM      1  C   UNL     1      72.088  49.033   8.903  1.00  0.00     0.019 A 
ATOM      2  C   UNL     1      70.956  49.405   9.628  1.00  0.00     0.094 A 
ATOM      3  C   UNL     1      69.721  49.467   8.974  1.00  0.00     0.336 A 
ATOM      4  O   UNL     1      68.688  49.801   9.611  1.00  0.00    -0.246 OA
ATOM      5  O   UNL     1      69.631  49.174   7.679  1.00  0.00    -0.423 OA
ATOM      6  C   UNL     1      70.685  48.815   6.950  1.00  0.00     0.142 A 
ATOM      7  C   UNL     1      70.529  48.519   5.593  1.00  0.00     0.098 A 
ATOM      8  C   UNL     1      71.632  48.141   4.819  1.00  0.00     0.161 A 
ATOM      9  C   UNL     1      72.907  48.056   5.409  1.00  0.00     0.158 A 
ATOM     10  C   UNL     1      73.070  48.352   6.771  1.00  0.00     0.062 A 
ATOM     11  C   UNL     1      71.963  48.732   7.544  1.00  0.00     0.022 A 
ENDROOT
BRANCH   9  12
ATOM     12  O   UNL     1      74.008  47.679   4.640  1.00  0.00    -0.504 OA
ATOM     13  H   UNL     1      74.169  46.713   4.381  1.00  0.00     0.293 HD
ENDBRANCH   9  12
BRANCH   8  14
ATOM     14  O   UNL     1      71.445  47.851   3.468  1.00  0.00    -0.504 OA
ATOM     15  H   UNL     1      71.071  46.964   3.154  1.00  0.00     0.293 HD
ENDBRANCH   8  14
TORSDOF 2
ENDMDL
