MODEL 1
REMARK VINA RESULT:    -4.530      0.000      0.000
REMARK INTER + INTRA:          -9.597
REMARK INTER:                  -8.503
REMARK INTRA:                  -1.094
REMARK UNBOUND:                -1.094
REMARK SMILES CCCCCCCCC=CCCCCCCCC(=O)[O-]
REMARK SMILES IDX 10 1 9 2 11 3 12 4 13 5 14 6 15 7 16 8 17 9 18 10 19 11
REMARK SMILES IDX 20 12 8 13 7 14 6 15 5 16 4 17 3 18 2 19 1 20
REMARK H PARENT
REMARK Flexibility Score: inf
ROOT
ATOM      1  C   UNL     1      20.245 -20.511 -19.681  1.00  0.00    -0.031 C 
ATOM      2  C   UNL     1      19.341 -21.439 -20.051  1.00  0.00    -0.031 C 
ENDROOT
BRANCH   1   3
ATOM      3  C   UNL     1      21.299 -20.700 -18.617  1.00  0.00     0.027 C 
BRANCH   3   4
ATOM      4  C   UNL     1      21.140 -19.677 -17.483  1.00  0.00     0.004 C 
BRANCH   4   5
ATOM      5  C   UNL     1      22.239 -18.603 -17.516  1.00  0.00     0.000 C 
BRANCH   5   6
ATOM      6  C   UNL     1      21.734 -17.226 -17.056  1.00  0.00     0.000 C 
BRANCH   6   7
ATOM      7  C   UNL     1      20.229 -17.217 -16.752  1.00  0.00     0.000 C 
BRANCH   7   8
ATOM      8  C   UNL     1      19.819 -15.914 -16.049  1.00  0.00     0.006 C 
BRANCH   8   9
ATOM      9  C   UNL     1      18.434 -16.016 -15.397  1.00  0.00     0.053 C 
BRANCH   9  10
ATOM     10  C   UNL     1      17.458 -15.061 -16.015  1.00  0.00     0.041 C 
ATOM     11  O   UNL     1      17.583 -13.821 -15.834  1.00  0.00    -0.550 OA
ATOM     12  O   UNL     1      16.430 -15.540 -16.817  1.00  0.00    -0.550 OA
ENDBRANCH   9  10
ENDBRANCH   8   9
ENDBRANCH   7   8
ENDBRANCH   6   7
ENDBRANCH   5   6
ENDBRANCH   4   5
ENDBRANCH   3   4
ENDBRANCH   1   3
BRANCH   2  13
ATOM     13  C   UNL     1      19.198 -22.803 -19.423  1.00  0.00     0.027 C 
BRANCH  13  14
ATOM     14  C   UNL     1      18.175 -23.676 -20.165  1.00  0.00     0.004 C 
BRANCH  14  15
ATOM     15  C   UNL     1      17.317 -24.507 -19.198  1.00  0.00     0.000 C 
BRANCH  15  16
ATOM     16  C   UNL     1      16.934 -23.687 -17.960  1.00  0.00     0.000 C 
BRANCH  16  17
ATOM     17  C   UNL     1      15.430 -23.802 -17.668  1.00  0.00    -0.000 C 
BRANCH  17  18
ATOM     18  C   UNL     1      14.618 -22.653 -18.285  1.00  0.00    -0.000 C 
BRANCH  18  19
ATOM     19  C   UNL     1      13.838 -23.086 -19.535  1.00  0.00    -0.003 C 
ATOM     20  C   UNL     1      13.539 -24.582 -19.505  1.00  0.00     0.004 C 
ENDBRANCH  18  19
ENDBRANCH  17  18
ENDBRANCH  16  17
ENDBRANCH  15  16
ENDBRANCH  14  15
ENDBRANCH  13  14
ENDBRANCH   2  13
TORSDOF 15
ENDMDL
MODEL 2
REMARK VINA RESULT:    -4.425      0.968      1.550
REMARK INTER + INTRA:          -9.399
REMARK INTER:                  -8.279
REMARK INTRA:                  -1.120
REMARK UNBOUND:                -1.094
REMARK SMILES CCCCCCCCC=CCCCCCCCC(=O)[O-]
REMARK SMILES IDX 10 1 9 2 11 3 12 4 13 5 14 6 15 7 16 8 17 9 18 10 19 11
REMARK SMILES IDX 20 12 8 13 7 14 6 15 5 16 4 17 3 18 2 19 1 20
REMARK H PARENT
REMARK Flexibility Score: inf
ROOT
ATOM      1  C   UNL     1      20.956 -20.114 -18.750  1.00  0.00    -0.031 C 
ATOM      2  C   UNL     1      20.404 -21.015 -19.586  1.00  0.00    -0.031 C 
ENDROOT
BRANCH   1   3
ATOM      3  C   UNL     1      21.526 -20.429 -17.388  1.00  0.00     0.027 C 
BRANCH   3   4
ATOM      4  C   UNL     1      22.283 -19.227 -16.806  1.00  0.00     0.004 C 
BRANCH   4   5
ATOM      5  C   UNL     1      22.225 -18.004 -17.735  1.00  0.00     0.000 C 
BRANCH   5   6
ATOM      6  C   UNL     1      21.579 -16.781 -17.064  1.00  0.00     0.000 C 
BRANCH   6   7
ATOM      7  C   UNL     1      20.189 -17.087 -16.486  1.00  0.00     0.000 C 
BRANCH   7   8
ATOM      8  C   UNL     1      19.466 -15.792 -16.084  1.00  0.00     0.006 C 
BRANCH   8   9
ATOM      9  C   UNL     1      18.068 -16.061 -15.512  1.00  0.00     0.053 C 
BRANCH   9  10
ATOM     10  C   UNL     1      17.103 -14.972 -15.868  1.00  0.00     0.041 C 
ATOM     11  O   UNL     1      17.008 -13.946 -15.142  1.00  0.00    -0.550 OA
ATOM     12  O   UNL     1      16.333 -15.075 -17.019  1.00  0.00    -0.550 OA
ENDBRANCH   9  10
ENDBRANCH   8   9
ENDBRANCH   7   8
ENDBRANCH   6   7
ENDBRANCH   5   6
ENDBRANCH   4   5
ENDBRANCH   3   4
ENDBRANCH   1   3
BRANCH   2  13
ATOM     13  C   UNL     1      20.214 -22.478 -19.276  1.00  0.00     0.027 C 
BRANCH  13  14
ATOM     14  C   UNL     1      18.729 -22.868 -19.213  1.00  0.00     0.004 C 
BRANCH  14  15
ATOM     15  C   UNL     1      18.505 -24.346 -19.569  1.00  0.00     0.000 C 
BRANCH  15  16
ATOM     16  C   UNL     1      17.425 -24.494 -20.647  1.00  0.00     0.000 C 
BRANCH  16  17
ATOM     17  C   UNL     1      16.116 -23.819 -20.210  1.00  0.00    -0.000 C 
BRANCH  17  18
ATOM     18  C   UNL     1      15.170 -24.782 -19.476  1.00  0.00    -0.000 C 
BRANCH  18  19
ATOM     19  C   UNL     1      14.511 -24.141 -18.247  1.00  0.00    -0.003 C 
ATOM     20  C   UNL     1      15.560 -23.568 -17.297  1.00  0.00     0.004 C 
ENDBRANCH  18  19
ENDBRANCH  17  18
ENDBRANCH  16  17
ENDBRANCH  15  16
ENDBRANCH  14  15
ENDBRANCH  13  14
ENDBRANCH   2  13
TORSDOF 15
ENDMDL
MODEL 3
REMARK VINA RESULT:    -4.305      1.271      1.858
REMARK INTER + INTRA:          -9.174
REMARK INTER:                  -8.088
REMARK INTRA:                  -1.086
REMARK UNBOUND:                -1.094
REMARK SMILES CCCCCCCCC=CCCCCCCCC(=O)[O-]
REMARK SMILES IDX 10 1 9 2 11 3 12 4 13 5 14 6 15 7 16 8 17 9 18 10 19 11
REMARK SMILES IDX 20 12 8 13 7 14 6 15 5 16 4 17 3 18 2 19 1 20
REMARK H PARENT
REMARK Flexibility Score: inf
ROOT
ATOM      1  C   UNL     1      21.004 -19.429 -18.207  1.00  0.00    -0.031 C 
ATOM      2  C   UNL     1      20.399 -20.201 -19.130  1.00  0.00    -0.031 C 
ENDROOT
BRANCH   1   3
ATOM      3  C   UNL     1      21.755 -19.941 -17.002  1.00  0.00     0.027 C 
BRANCH   3   4
ATOM      4  C   UNL     1      23.104 -19.228 -16.837  1.00  0.00     0.004 C 
BRANCH   4   5
ATOM      5  C   UNL     1      23.169 -17.922 -17.645  1.00  0.00     0.000 C 
BRANCH   5   6
ATOM      6  C   UNL     1      23.400 -16.689 -16.758  1.00  0.00     0.000 C 
BRANCH   6   7
ATOM      7  C   UNL     1      22.496 -15.506 -17.138  1.00  0.00     0.000 C 
BRANCH   7   8
ATOM      8  C   UNL     1      21.321 -15.377 -16.156  1.00  0.00     0.006 C 
BRANCH   8   9
ATOM      9  C   UNL     1      20.188 -16.361 -16.475  1.00  0.00     0.053 C 
BRANCH   9  10
ATOM     10  C   UNL     1      18.931 -16.020 -15.733  1.00  0.00     0.041 C 
ATOM     11  O   UNL     1      18.659 -16.597 -14.647  1.00  0.00    -0.550 OA
ATOM     12  O   UNL     1      18.078 -15.040 -16.225  1.00  0.00    -0.550 OA
ENDBRANCH   9  10
ENDBRANCH   8   9
ENDBRANCH   7   8
ENDBRANCH   6   7
ENDBRANCH   5   6
ENDBRANCH   4   5
ENDBRANCH   3   4
ENDBRANCH   1   3
BRANCH   2  13
ATOM     13  C   UNL     1      20.324 -21.706 -19.081  1.00  0.00     0.027 C 
BRANCH  13  14
ATOM     14  C   UNL     1      19.048 -22.244 -19.747  1.00  0.00     0.004 C 
BRANCH  14  15
ATOM     15  C   UNL     1      18.713 -23.670 -19.283  1.00  0.00     0.000 C 
BRANCH  15  16
ATOM     16  C   UNL     1      17.196 -23.881 -19.206  1.00  0.00     0.000 C 
BRANCH  16  17
ATOM     17  C   UNL     1      16.681 -23.654 -17.777  1.00  0.00    -0.000 C 
BRANCH  17  18
ATOM     18  C   UNL     1      15.151 -23.759 -17.675  1.00  0.00    -0.000 C 
BRANCH  18  19
ATOM     19  C   UNL     1      14.520 -24.415 -18.912  1.00  0.00    -0.003 C 
ATOM     20  C   UNL     1      13.631 -23.429 -19.663  1.00  0.00     0.004 C 
ENDBRANCH  18  19
ENDBRANCH  17  18
ENDBRANCH  16  17
ENDBRANCH  15  16
ENDBRANCH  14  15
ENDBRANCH  13  14
ENDBRANCH   2  13
TORSDOF 15
ENDMDL
MODEL 4
REMARK VINA RESULT:    -4.233      2.889      7.949
REMARK INTER + INTRA:          -9.038
REMARK INTER:                  -7.633
REMARK INTRA:                  -1.405
REMARK UNBOUND:                -1.094
REMARK SMILES CCCCCCCCC=CCCCCCCCC(=O)[O-]
REMARK SMILES IDX 10 1 9 2 11 3 12 4 13 5 14 6 15 7 16 8 17 9 18 10 19 11
REMARK SMILES IDX 20 12 8 13 7 14 6 15 5 16 4 17 3 18 2 19 1 20
REMARK H PARENT
REMARK Flexibility Score: inf
ROOT
ATOM      1  C   UNL     1      21.276 -19.875 -17.465  1.00  0.00    -0.031 C 
ATOM      2  C   UNL     1      22.487 -19.514 -17.000  1.00  0.00    -0.031 C 
ENDROOT
BRANCH   1   3
ATOM      3  C   UNL     1      20.691 -19.449 -18.790  1.00  0.00     0.027 C 
BRANCH   3   4
ATOM      4  C   UNL     1      20.392 -20.659 -19.685  1.00  0.00     0.004 C 
BRANCH   4   5
ATOM      5  C   UNL     1      20.457 -21.983 -18.908  1.00  0.00     0.000 C 
BRANCH   5   6
ATOM      6  C   UNL     1      19.482 -23.038 -19.453  1.00  0.00     0.000 C 
BRANCH   6   7
ATOM      7  C   UNL     1      18.014 -22.705 -19.145  1.00  0.00     0.000 C 
BRANCH   7   8
ATOM      8  C   UNL     1      17.210 -23.983 -18.863  1.00  0.00     0.006 C 
BRANCH   8   9
ATOM      9  C   UNL     1      16.500 -23.935 -17.503  1.00  0.00     0.053 C 
BRANCH   9  10
ATOM     10  C   UNL     1      15.079 -23.477 -17.634  1.00  0.00     0.041 C 
ATOM     11  O   UNL     1      14.653 -22.523 -16.931  1.00  0.00    -0.550 OA
ATOM     12  O   UNL     1      14.237 -24.082 -18.558  1.00  0.00    -0.550 OA
ENDBRANCH   9  10
ENDBRANCH   8   9
ENDBRANCH   7   8
ENDBRANCH   6   7
ENDBRANCH   5   6
ENDBRANCH   4   5
ENDBRANCH   3   4
ENDBRANCH   1   3
BRANCH   2  13
ATOM     13  C   UNL     1      23.437 -18.577 -17.703  1.00  0.00     0.027 C 
BRANCH  13  14
ATOM     14  C   UNL     1      24.423 -17.914 -16.728  1.00  0.00     0.004 C 
BRANCH  14  15
ATOM     15  C   UNL     1      23.993 -16.488 -16.354  1.00  0.00     0.000 C 
BRANCH  15  16
ATOM     16  C   UNL     1      22.963 -15.944 -17.353  1.00  0.00     0.000 C 
BRANCH  16  17
ATOM     17  C   UNL     1      21.726 -15.398 -16.625  1.00  0.00    -0.000 C 
BRANCH  17  18
ATOM     18  C   UNL     1      20.563 -16.403 -16.599  1.00  0.00    -0.000 C 
BRANCH  18  19
ATOM     19  C   UNL     1      19.221 -15.744 -16.248  1.00  0.00    -0.003 C 
ATOM     20  C   UNL     1      18.517 -16.500 -15.124  1.00  0.00     0.004 C 
ENDBRANCH  18  19
ENDBRANCH  17  18
ENDBRANCH  16  17
ENDBRANCH  15  16
ENDBRANCH  14  15
ENDBRANCH  13  14
ENDBRANCH   2  13
TORSDOF 15
ENDMDL
MODEL 5
REMARK VINA RESULT:    -4.148      2.747      5.051
REMARK INTER + INTRA:          -8.880
REMARK INTER:                  -6.821
REMARK INTRA:                  -2.059
REMARK UNBOUND:                -1.094
REMARK SMILES CCCCCCCCC=CCCCCCCCC(=O)[O-]
REMARK SMILES IDX 10 1 9 2 11 3 12 4 13 5 14 6 15 7 16 8 17 9 18 10 19 11
REMARK SMILES IDX 20 12 8 13 7 14 6 15 5 16 4 17 3 18 2 19 1 20
REMARK H PARENT
REMARK Flexibility Score: inf
ROOT
ATOM      1  C   UNL     1      14.687 -20.456 -20.077  1.00  0.00    -0.031 C 
ATOM      2  C   UNL     1      13.757 -21.425 -19.978  1.00  0.00    -0.031 C 
ENDROOT
BRANCH   1   3
ATOM      3  C   UNL     1      15.773 -20.396 -21.125  1.00  0.00     0.027 C 
BRANCH   3   4
ATOM      4  C   UNL     1      17.002 -21.213 -20.705  1.00  0.00     0.004 C 
BRANCH   4   5
ATOM      5  C   UNL     1      18.313 -20.443 -20.932  1.00  0.00     0.000 C 
BRANCH   5   6
ATOM      6  C   UNL     1      19.554 -21.342 -20.815  1.00  0.00     0.000 C 
BRANCH   6   7
ATOM      7  C   UNL     1      19.933 -21.645 -19.358  1.00  0.00     0.000 C 
BRANCH   7   8
ATOM      8  C   UNL     1      21.194 -20.870 -18.947  1.00  0.00     0.006 C 
BRANCH   8   9
ATOM      9  C   UNL     1      20.899 -19.393 -18.655  1.00  0.00     0.053 C 
BRANCH   9  10
ATOM     10  C   UNL     1      21.397 -18.983 -17.302  1.00  0.00     0.041 C 
ATOM     11  O   UNL     1      21.769 -19.855 -16.472  1.00  0.00    -0.550 OA
ATOM     12  O   UNL     1      21.482 -17.637 -16.972  1.00  0.00    -0.550 OA
ENDBRANCH   9  10
ENDBRANCH   8   9
ENDBRANCH   7   8
ENDBRANCH   6   7
ENDBRANCH   5   6
ENDBRANCH   4   5
ENDBRANCH   3   4
ENDBRANCH   1   3
BRANCH   2  13
ATOM     13  C   UNL     1      13.681 -22.642 -20.866  1.00  0.00     0.027 C 
BRANCH  13  14
ATOM     14  C   UNL     1      13.341 -23.915 -20.076  1.00  0.00     0.004 C 
BRANCH  14  15
ATOM     15  C   UNL     1      14.374 -25.028 -20.304  1.00  0.00     0.000 C 
BRANCH  15  16
ATOM     16  C   UNL     1      15.770 -24.442 -20.550  1.00  0.00     0.000 C 
BRANCH  16  17
ATOM     17  C   UNL     1      16.724 -24.792 -19.399  1.00  0.00    -0.000 C 
BRANCH  17  18
ATOM     18  C   UNL     1      16.829 -23.669 -18.355  1.00  0.00    -0.000 C 
BRANCH  18  19
ATOM     19  C   UNL     1      15.936 -23.914 -17.131  1.00  0.00    -0.003 C 
ATOM     20  C   UNL     1      14.908 -22.797 -16.969  1.00  0.00     0.004 C 
ENDBRANCH  18  19
ENDBRANCH  17  18
ENDBRANCH  16  17
ENDBRANCH  15  16
ENDBRANCH  14  15
ENDBRANCH  13  14
ENDBRANCH   2  13
TORSDOF 15
ENDMDL
MODEL 6
REMARK VINA RESULT:    -4.126     12.612     14.516
REMARK INTER + INTRA:          -8.838
REMARK INTER:                  -7.718
REMARK INTRA:                  -1.120
REMARK UNBOUND:                -1.094
REMARK SMILES CCCCCCCCC=CCCCCCCCC(=O)[O-]
REMARK SMILES IDX 10 1 9 2 11 3 12 4 13 5 14 6 15 7 16 8 17 9 18 10 19 11
REMARK SMILES IDX 20 12 8 13 7 14 6 15 5 16 4 17 3 18 2 19 1 20
REMARK H PARENT
REMARK Flexibility Score: inf
ROOT
ATOM      1  C   UNL     1       6.067 -17.647 -15.503  1.00  0.00    -0.031 C 
ATOM      2  C   UNL     1       5.997 -16.915 -16.632  1.00  0.00    -0.031 C 
ENDROOT
BRANCH   1   3
ATOM      3  C   UNL     1       5.262 -18.893 -15.224  1.00  0.00     0.027 C 
BRANCH   3   4
ATOM      4  C   UNL     1       6.027 -19.861 -14.311  1.00  0.00     0.004 C 
BRANCH   4   5
ATOM      5  C   UNL     1       5.165 -21.063 -13.892  1.00  0.00     0.000 C 
BRANCH   5   6
ATOM      6  C   UNL     1       5.281 -21.381 -12.393  1.00  0.00     0.000 C 
BRANCH   6   7
ATOM      7  C   UNL     1       5.732 -22.825 -12.125  1.00  0.00     0.000 C 
BRANCH   7   8
ATOM      8  C   UNL     1       5.574 -23.182 -10.640  1.00  0.00     0.006 C 
BRANCH   8   9
ATOM      9  C   UNL     1       5.504 -21.936  -9.747  1.00  0.00     0.053 C 
BRANCH   9  10
ATOM     10  C   UNL     1       6.268 -22.122  -8.472  1.00  0.00     0.041 C 
ATOM     11  O   UNL     1       6.147 -23.186  -7.809  1.00  0.00    -0.550 OA
ATOM     12  O   UNL     1       7.139 -21.133  -8.033  1.00  0.00    -0.550 OA
ENDBRANCH   9  10
ENDBRANCH   8   9
ENDBRANCH   7   8
ENDBRANCH   6   7
ENDBRANCH   5   6
ENDBRANCH   4   5
ENDBRANCH   3   4
ENDBRANCH   1   3
BRANCH   2  13
ATOM     13  C   UNL     1       5.060 -17.190 -17.782  1.00  0.00     0.027 C 
BRANCH  13  14
ATOM     14  C   UNL     1       5.460 -16.420 -19.050  1.00  0.00     0.004 C 
BRANCH  14  15
ATOM     15  C   UNL     1       4.914 -17.083 -20.323  1.00  0.00     0.000 C 
BRANCH  15  16
ATOM     16  C   UNL     1       5.851 -18.195 -20.810  1.00  0.00     0.000 C 
BRANCH  16  17
ATOM     17  C   UNL     1       5.264 -19.582 -20.507  1.00  0.00    -0.000 C 
BRANCH  17  18
ATOM     18  C   UNL     1       6.314 -20.563 -19.963  1.00  0.00    -0.000 C 
BRANCH  18  19
ATOM     19  C   UNL     1       5.757 -21.471 -18.857  1.00  0.00    -0.003 C 
ATOM     20  C   UNL     1       6.694 -21.505 -17.652  1.00  0.00     0.004 C 
ENDBRANCH  18  19
ENDBRANCH  17  18
ENDBRANCH  16  17
ENDBRANCH  15  16
ENDBRANCH  14  15
ENDBRANCH  13  14
ENDBRANCH   2  13
TORSDOF 15
ENDMDL
MODEL 7
REMARK VINA RESULT:    -4.091      2.361      3.011
REMARK INTER + INTRA:          -8.772
REMARK INTER:                  -7.467
REMARK INTRA:                  -1.305
REMARK UNBOUND:                -1.094
REMARK SMILES CCCCCCCCC=CCCCCCCCC(=O)[O-]
REMARK SMILES IDX 10 1 9 2 11 3 12 4 13 5 14 6 15 7 16 8 17 9 18 10 19 11
REMARK SMILES IDX 20 12 8 13 7 14 6 15 5 16 4 17 3 18 2 19 1 20
REMARK H PARENT
REMARK Flexibility Score: inf
ROOT
ATOM      1  C   UNL     1      21.007 -19.705 -18.775  1.00  0.00    -0.031 C 
ATOM      2  C   UNL     1      20.487 -20.732 -19.474  1.00  0.00    -0.031 C 
ENDROOT
BRANCH   1   3
ATOM      3  C   UNL     1      21.270 -19.710 -17.288  1.00  0.00     0.027 C 
BRANCH   3   4
ATOM      4  C   UNL     1      22.763 -19.529 -16.983  1.00  0.00     0.004 C 
BRANCH   4   5
ATOM      5  C   UNL     1      23.592 -19.317 -18.259  1.00  0.00     0.000 C 
BRANCH   5   6
ATOM      6  C   UNL     1      24.602 -18.167 -18.125  1.00  0.00     0.000 C 
BRANCH   6   7
ATOM      7  C   UNL     1      24.208 -16.932 -18.948  1.00  0.00     0.000 C 
BRANCH   7   8
ATOM      8  C   UNL     1      24.247 -15.662 -18.083  1.00  0.00     0.006 C 
BRANCH   8   9
ATOM      9  C   UNL     1      23.601 -15.876 -16.708  1.00  0.00     0.053 C 
BRANCH   9  10
ATOM     10  C   UNL     1      22.184 -15.389 -16.679  1.00  0.00     0.041 C 
ATOM     11  O   UNL     1      21.938 -14.154 -16.640  1.00  0.00    -0.550 OA
ATOM     12  O   UNL     1      21.136 -16.298 -16.728  1.00  0.00    -0.550 OA
ENDBRANCH   9  10
ENDBRANCH   8   9
ENDBRANCH   7   8
ENDBRANCH   6   7
ENDBRANCH   5   6
ENDBRANCH   4   5
ENDBRANCH   3   4
ENDBRANCH   1   3
BRANCH   2  13
ATOM     13  C   UNL     1      20.029 -22.039 -18.876  1.00  0.00     0.027 C 
BRANCH  13  14
ATOM     14  C   UNL     1      19.875 -23.138 -19.939  1.00  0.00     0.004 C 
BRANCH  14  15
ATOM     15  C   UNL     1      18.604 -23.974 -19.724  1.00  0.00     0.000 C 
BRANCH  15  16
ATOM     16  C   UNL     1      17.467 -23.111 -19.163  1.00  0.00     0.000 C 
BRANCH  16  17
ATOM     17  C   UNL     1      16.859 -23.752 -17.906  1.00  0.00    -0.000 C 
BRANCH  17  18
ATOM     18  C   UNL     1      15.452 -23.219 -17.591  1.00  0.00    -0.000 C 
BRANCH  18  19
ATOM     19  C   UNL     1      14.463 -23.448 -18.743  1.00  0.00    -0.003 C 
ATOM     20  C   UNL     1      13.898 -22.124 -19.253  1.00  0.00     0.004 C 
ENDBRANCH  18  19
ENDBRANCH  17  18
ENDBRANCH  16  17
ENDBRANCH  15  16
ENDBRANCH  14  15
ENDBRANCH  13  14
ENDBRANCH   2  13
TORSDOF 15
ENDMDL
MODEL 8
REMARK VINA RESULT:    -4.061      3.259      8.319
REMARK INTER + INTRA:          -8.715
REMARK INTER:                  -7.224
REMARK INTRA:                  -1.491
REMARK UNBOUND:                -1.094
REMARK SMILES CCCCCCCCC=CCCCCCCCC(=O)[O-]
REMARK SMILES IDX 10 1 9 2 11 3 12 4 13 5 14 6 15 7 16 8 17 9 18 10 19 11
REMARK SMILES IDX 20 12 8 13 7 14 6 15 5 16 4 17 3 18 2 19 1 20
REMARK H PARENT
REMARK Flexibility Score: inf
ROOT
ATOM      1  C   UNL     1      20.641 -20.412 -19.313  1.00  0.00    -0.031 C 
ATOM      2  C   UNL     1      20.869 -19.249 -18.673  1.00  0.00    -0.031 C 
ENDROOT
BRANCH   1   3
ATOM      3  C   UNL     1      20.641 -21.776 -18.665  1.00  0.00     0.027 C 
BRANCH   3   4
ATOM      4  C   UNL     1      19.525 -22.665 -19.230  1.00  0.00     0.004 C 
BRANCH   4   5
ATOM      5  C   UNL     1      18.587 -21.888 -20.168  1.00  0.00     0.000 C 
BRANCH   5   6
ATOM      6  C   UNL     1      17.224 -22.576 -20.345  1.00  0.00     0.000 C 
BRANCH   6   7
ATOM      7  C   UNL     1      17.260 -24.067 -19.977  1.00  0.00     0.000 C 
BRANCH   7   8
ATOM      8  C   UNL     1      16.104 -24.425 -19.030  1.00  0.00     0.006 C 
BRANCH   8   9
ATOM      9  C   UNL     1      16.201 -23.685 -17.690  1.00  0.00     0.053 C 
BRANCH   9  10
ATOM     10  C   UNL     1      14.965 -22.886 -17.406  1.00  0.00     0.041 C 
ATOM     11  O   UNL     1      14.665 -22.580 -16.222  1.00  0.00    -0.550 OA
ATOM     12  O   UNL     1      14.164 -22.451 -18.454  1.00  0.00    -0.550 OA
ENDBRANCH   9  10
ENDBRANCH   8   9
ENDBRANCH   7   8
ENDBRANCH   6   7
ENDBRANCH   5   6
ENDBRANCH   4   5
ENDBRANCH   3   4
ENDBRANCH   1   3
BRANCH   2  13
ATOM     13  C   UNL     1      21.215 -19.122 -17.211  1.00  0.00     0.027 C 
BRANCH  13  14
ATOM     14  C   UNL     1      22.684 -19.479 -16.931  1.00  0.00     0.004 C 
BRANCH  14  15
ATOM     15  C   UNL     1      23.623 -18.957 -18.028  1.00  0.00     0.000 C 
BRANCH  15  16
ATOM     16  C   UNL     1      24.894 -18.349 -17.421  1.00  0.00     0.000 C 
BRANCH  16  17
ATOM     17  C   UNL     1      24.571 -17.568 -16.139  1.00  0.00    -0.000 C 
BRANCH  17  18
ATOM     18  C   UNL     1      24.569 -16.046 -16.358  1.00  0.00    -0.000 C 
BRANCH  18  19
ATOM     19  C   UNL     1      23.522 -15.599 -17.389  1.00  0.00    -0.003 C 
ATOM     20  C   UNL     1      22.158 -15.397 -16.734  1.00  0.00     0.004 C 
ENDBRANCH  18  19
ENDBRANCH  17  18
ENDBRANCH  16  17
ENDBRANCH  15  16
ENDBRANCH  14  15
ENDBRANCH  13  14
ENDBRANCH   2  13
TORSDOF 15
ENDMDL
MODEL 9
REMARK VINA RESULT:    -4.013      3.445      8.614
REMARK INTER + INTRA:          -8.626
REMARK INTER:                  -7.185
REMARK INTRA:                  -1.440
REMARK UNBOUND:                -1.094
REMARK SMILES CCCCCCCCC=CCCCCCCCC(=O)[O-]
REMARK SMILES IDX 10 1 9 2 11 3 12 4 13 5 14 6 15 7 16 8 17 9 18 10 19 11
REMARK SMILES IDX 20 12 8 13 7 14 6 15 5 16 4 17 3 18 2 19 1 20
REMARK H PARENT
REMARK Flexibility Score: inf
ROOT
ATOM      1  C   UNL     1      21.376 -19.722 -17.768  1.00  0.00    -0.031 C 
ATOM      2  C   UNL     1      22.701 -19.552 -17.599  1.00  0.00    -0.031 C 
ENDROOT
BRANCH   1   3
ATOM      3  C   UNL     1      20.722 -20.287 -19.006  1.00  0.00     0.027 C 
BRANCH   3   4
ATOM      4  C   UNL     1      20.598 -21.814 -18.927  1.00  0.00     0.004 C 
BRANCH   4   5
ATOM      5  C   UNL     1      19.203 -22.303 -19.346  1.00  0.00     0.000 C 
BRANCH   5   6
ATOM      6  C   UNL     1      19.182 -23.798 -19.703  1.00  0.00     0.000 C 
BRANCH   6   7
ATOM      7  C   UNL     1      17.865 -24.484 -19.309  1.00  0.00     0.000 C 
BRANCH   7   8
ATOM      8  C   UNL     1      17.091 -23.638 -18.287  1.00  0.00     0.006 C 
BRANCH   8   9
ATOM      9  C   UNL     1      15.612 -24.039 -18.201  1.00  0.00     0.053 C 
BRANCH   9  10
ATOM     10  C   UNL     1      14.750 -22.893 -17.767  1.00  0.00     0.041 C 
ATOM     11  O   UNL     1      14.021 -22.295 -18.603  1.00  0.00    -0.550 OA
ATOM     12  O   UNL     1      14.726 -22.508 -16.433  1.00  0.00    -0.550 OA
ENDBRANCH   9  10
ENDBRANCH   8   9
ENDBRANCH   7   8
ENDBRANCH   6   7
ENDBRANCH   5   6
ENDBRANCH   4   5
ENDBRANCH   3   4
ENDBRANCH   1   3
BRANCH   2  13
ATOM     13  C   UNL     1      23.749 -19.847 -18.643  1.00  0.00     0.027 C 
BRANCH  13  14
ATOM     14  C   UNL     1      24.933 -18.870 -18.566  1.00  0.00     0.004 C 
BRANCH  14  15
ATOM     15  C   UNL     1      24.950 -17.891 -19.750  1.00  0.00     0.000 C 
BRANCH  15  16
ATOM     16  C   UNL     1      24.668 -16.458 -19.282  1.00  0.00     0.000 C 
BRANCH  16  17
ATOM     17  C   UNL     1      23.209 -16.306 -18.826  1.00  0.00    -0.000 C 
BRANCH  17  18
ATOM     18  C   UNL     1      23.091 -15.786 -17.384  1.00  0.00    -0.000 C 
BRANCH  18  19
ATOM     19  C   UNL     1      24.458 -15.600 -16.710  1.00  0.00    -0.003 C 
ATOM     20  C   UNL     1      24.678 -16.642 -15.617  1.00  0.00     0.004 C 
ENDBRANCH  18  19
ENDBRANCH  17  18
ENDBRANCH  16  17
ENDBRANCH  15  16
ENDBRANCH  14  15
ENDBRANCH  13  14
ENDBRANCH   2  13
TORSDOF 15
ENDMDL
