MODEL 1
REMARK VINA RESULT:    -3.826      0.000      0.000
REMARK INTER + INTRA:         -10.185
REMARK INTER:                  -7.405
REMARK INTRA:                  -2.780
REMARK UNBOUND:                -2.780
REMARK SMILES CCCCCCCCCCCCCCCCCC(=O)[O-]
REMARK SMILES IDX 10 1 11 2 12 3 13 4 14 5 15 6 16 7 17 8 18 9 19 10 20 11
REMARK SMILES IDX 9 12 8 13 7 14 6 15 5 16 4 17 3 18 2 19 1 20
REMARK H PARENT
REMARK Flexibility Score: inf
ROOT
ATOM      1  C   UNL     1     129.881 143.800 109.196  1.00  0.00     0.000 C 
ENDROOT
BRANCH   1   2
ATOM      2  C   UNL     1     130.521 145.095 109.728  1.00  0.00     0.000 C 
BRANCH   2   3
ATOM      3  C   UNL     1     131.317 145.845 108.648  1.00  0.00     0.000 C 
BRANCH   3   4
ATOM      4  C   UNL     1     130.601 145.852 107.286  1.00  0.00     0.000 C 
BRANCH   4   5
ATOM      5  C   UNL     1     131.574 145.687 106.108  1.00  0.00     0.000 C 
BRANCH   5   6
ATOM      6  C   UNL     1     132.271 144.319 106.103  1.00  0.00     0.000 C 
BRANCH   6   7
ATOM      7  C   UNL     1     133.630 144.398 105.394  1.00  0.00     0.006 C 
BRANCH   7   8
ATOM      8  C   UNL     1     134.134 145.841 105.263  1.00  0.00     0.053 C 
BRANCH   8   9
ATOM      9  C   UNL     1     135.292 146.109 106.175  1.00  0.00     0.041 C 
ATOM     10  O   UNL     1     136.469 145.884 105.791  1.00  0.00    -0.550 OA
ATOM     11  O   UNL     1     135.066 146.579 107.463  1.00  0.00    -0.550 OA
ENDBRANCH   8   9
ENDBRANCH   7   8
ENDBRANCH   6   7
ENDBRANCH   5   6
ENDBRANCH   4   5
ENDBRANCH   3   4
ENDBRANCH   2   3
ENDBRANCH   1   2
BRANCH   1  12
ATOM     12  C   UNL     1     128.349 143.807 109.321  1.00  0.00     0.000 C 
BRANCH  12  13
ATOM     13  C   UNL     1     127.803 145.165 109.790  1.00  0.00    -0.000 C 
BRANCH  13  14
ATOM     14  C   UNL     1     127.010 145.900 108.696  1.00  0.00    -0.000 C 
BRANCH  14  15
ATOM     15  C   UNL     1     126.891 145.103 107.379  1.00  0.00    -0.000 C 
BRANCH  15  16
ATOM     16  C   UNL     1     127.000 146.006 106.142  1.00  0.00    -0.000 C 
BRANCH  16  17
ATOM     17  C   UNL     1     127.721 145.284 104.996  1.00  0.00    -0.000 C 
BRANCH  17  18
ATOM     18  C   UNL     1     127.638 143.752 105.107  1.00  0.00    -0.000 C 
BRANCH  18  19
ATOM     19  C   UNL     1     129.014 143.063 105.204  1.00  0.00    -0.003 C 
ATOM     20  C   UNL     1     129.011 141.887 106.181  1.00  0.00     0.004 C 
ENDBRANCH  18  19
ENDBRANCH  17  18
ENDBRANCH  16  17
ENDBRANCH  15  16
ENDBRANCH  14  15
ENDBRANCH  13  14
ENDBRANCH  12  13
ENDBRANCH   1  12
TORSDOF 16
ENDMDL
MODEL 2
REMARK VINA RESULT:    -3.821      1.287      3.358
REMARK INTER + INTRA:         -10.175
REMARK INTER:                  -7.373
REMARK INTRA:                  -2.801
REMARK UNBOUND:                -2.780
REMARK SMILES CCCCCCCCCCCCCCCCCC(=O)[O-]
REMARK SMILES IDX 10 1 11 2 12 3 13 4 14 5 15 6 16 7 17 8 18 9 19 10 20 11
REMARK SMILES IDX 9 12 8 13 7 14 6 15 5 16 4 17 3 18 2 19 1 20
REMARK H PARENT
REMARK Flexibility Score: inf
ROOT
ATOM      1  C   UNL     1     127.120 145.079 107.503  1.00  0.00     0.000 C 
ENDROOT
BRANCH   1   2
ATOM      2  C   UNL     1     127.357 145.987 108.722  1.00  0.00     0.000 C 
BRANCH   2   3
ATOM      3  C   UNL     1     128.829 146.010 109.162  1.00  0.00     0.000 C 
BRANCH   3   4
ATOM      4  C   UNL     1     129.701 145.032 108.356  1.00  0.00     0.000 C 
BRANCH   4   5
ATOM      5  C   UNL     1     130.999 145.680 107.849  1.00  0.00     0.000 C 
BRANCH   5   6
ATOM      6  C   UNL     1     130.995 145.901 106.329  1.00  0.00     0.000 C 
BRANCH   6   7
ATOM      7  C   UNL     1     132.292 146.582 105.871  1.00  0.00     0.006 C 
BRANCH   7   8
ATOM      8  C   UNL     1     133.511 146.112 106.675  1.00  0.00     0.053 C 
BRANCH   8   9
ATOM      9  C   UNL     1     134.720 145.948 105.805  1.00  0.00     0.041 C 
ATOM     10  O   UNL     1     135.732 146.676 105.981  1.00  0.00    -0.550 OA
ATOM     11  O   UNL     1     134.715 145.013 104.778  1.00  0.00    -0.550 OA
ENDBRANCH   8   9
ENDBRANCH   7   8
ENDBRANCH   6   7
ENDBRANCH   5   6
ENDBRANCH   4   5
ENDBRANCH   3   4
ENDBRANCH   2   3
ENDBRANCH   1   2
BRANCH   1  12
ATOM     12  C   UNL     1     126.875 145.878 106.213  1.00  0.00     0.000 C 
BRANCH  12  13
ATOM     13  C   UNL     1     127.604 145.278 105.001  1.00  0.00    -0.000 C 
BRANCH  13  14
ATOM     14  C   UNL     1     127.593 143.739 104.999  1.00  0.00    -0.000 C 
BRANCH  14  15
ATOM     15  C   UNL     1     128.979 143.111 105.257  1.00  0.00    -0.000 C 
BRANCH  15  16
ATOM     16  C   UNL     1     128.931 142.020 106.338  1.00  0.00    -0.000 C 
BRANCH  16  17
ATOM     17  C   UNL     1     130.341 141.679 106.838  1.00  0.00    -0.000 C 
BRANCH  17  18
ATOM     18  C   UNL     1     131.392 141.688 105.715  1.00  0.00    -0.000 C 
BRANCH  18  19
ATOM     19  C   UNL     1     132.641 142.532 106.043  1.00  0.00    -0.003 C 
ATOM     20  C   UNL     1     132.943 142.571 107.541  1.00  0.00     0.004 C 
ENDBRANCH  18  19
ENDBRANCH  17  18
ENDBRANCH  16  17
ENDBRANCH  15  16
ENDBRANCH  14  15
ENDBRANCH  13  14
ENDBRANCH  12  13
ENDBRANCH   1  12
TORSDOF 16
ENDMDL
MODEL 3
REMARK VINA RESULT:    -3.804      1.542      3.900
REMARK INTER + INTRA:         -10.143
REMARK INTER:                  -7.422
REMARK INTRA:                  -2.721
REMARK UNBOUND:                -2.780
REMARK SMILES CCCCCCCCCCCCCCCCCC(=O)[O-]
REMARK SMILES IDX 10 1 11 2 12 3 13 4 14 5 15 6 16 7 17 8 18 9 19 10 20 11
REMARK SMILES IDX 9 12 8 13 7 14 6 15 5 16 4 17 3 18 2 19 1 20
REMARK H PARENT
REMARK Flexibility Score: inf
ROOT
ATOM      1  C   UNL     1     127.623 141.325 106.154  1.00  0.00     0.000 C 
ENDROOT
BRANCH   1   2
ATOM      2  C   UNL     1     129.114 141.254 106.530  1.00  0.00     0.000 C 
BRANCH   2   3
ATOM      3  C   UNL     1     129.437 142.042 107.809  1.00  0.00     0.000 C 
BRANCH   3   4
ATOM      4  C   UNL     1     130.461 143.164 107.567  1.00  0.00     0.000 C 
BRANCH   4   5
ATOM      5  C   UNL     1     131.221 142.994 106.242  1.00  0.00     0.000 C 
BRANCH   5   6
ATOM      6  C   UNL     1     131.882 144.296 105.768  1.00  0.00     0.000 C 
BRANCH   6   7
ATOM      7  C   UNL     1     131.245 145.514 106.451  1.00  0.00     0.006 C 
BRANCH   7   8
ATOM      8  C   UNL     1     132.192 146.721 106.489  1.00  0.00     0.053 C 
BRANCH   8   9
ATOM      9  C   UNL     1     133.006 146.748 107.747  1.00  0.00     0.041 C 
ATOM     10  O   UNL     1     132.438 146.800 108.869  1.00  0.00    -0.550 OA
ATOM     11  O   UNL     1     134.393 146.748 107.676  1.00  0.00    -0.550 OA
ENDBRANCH   8   9
ENDBRANCH   7   8
ENDBRANCH   6   7
ENDBRANCH   5   6
ENDBRANCH   4   5
ENDBRANCH   3   4
ENDBRANCH   2   3
ENDBRANCH   1   2
BRANCH   1  12
ATOM     12  C   UNL     1     127.082 142.764 106.161  1.00  0.00     0.000 C 
BRANCH  12  13
ATOM     13  C   UNL     1     127.662 143.616 105.021  1.00  0.00    -0.000 C 
BRANCH  13  14
ATOM     14  C   UNL     1     127.800 145.101 105.397  1.00  0.00    -0.000 C 
BRANCH  14  15
ATOM     15  C   UNL     1     126.938 145.514 106.609  1.00  0.00    -0.000 C 
BRANCH  15  16
ATOM     16  C   UNL     1     127.789 146.035 107.777  1.00  0.00    -0.000 C 
BRANCH  16  17
ATOM     17  C   UNL     1     127.653 145.124 109.005  1.00  0.00    -0.000 C 
BRANCH  17  18
ATOM     18  C   UNL     1     128.777 145.334 110.033  1.00  0.00    -0.000 C 
BRANCH  18  19
ATOM     19  C   UNL     1     128.695 144.381 111.243  1.00  0.00    -0.003 C 
ATOM     20  C   UNL     1     127.255 144.029 111.613  1.00  0.00     0.004 C 
ENDBRANCH  18  19
ENDBRANCH  17  18
ENDBRANCH  16  17
ENDBRANCH  15  16
ENDBRANCH  14  15
ENDBRANCH  13  14
ENDBRANCH  12  13
ENDBRANCH   1  12
TORSDOF 16
ENDMDL
MODEL 4
REMARK VINA RESULT:    -3.768      2.321      5.715
REMARK INTER + INTRA:         -10.073
REMARK INTER:                  -7.432
REMARK INTRA:                  -2.640
REMARK UNBOUND:                -2.780
REMARK SMILES CCCCCCCCCCCCCCCCCC(=O)[O-]
REMARK SMILES IDX 10 1 11 2 12 3 13 4 14 5 15 6 16 7 17 8 18 9 19 10 20 11
REMARK SMILES IDX 9 12 8 13 7 14 6 15 5 16 4 17 3 18 2 19 1 20
REMARK H PARENT
REMARK Flexibility Score: inf
ROOT
ATOM      1  C   UNL     1     129.801 141.652 106.067  1.00  0.00     0.000 C 
ENDROOT
BRANCH   1   2
ATOM      2  C   UNL     1     128.467 140.905 106.238  1.00  0.00     0.000 C 
BRANCH   2   3
ATOM      3  C   UNL     1     127.323 141.834 106.674  1.00  0.00     0.000 C 
BRANCH   3   4
ATOM      4  C   UNL     1     127.266 143.128 105.844  1.00  0.00     0.000 C 
BRANCH   4   5
ATOM      5  C   UNL     1     127.202 144.389 106.721  1.00  0.00     0.000 C 
BRANCH   5   6
ATOM      6  C   UNL     1     127.453 144.090 108.206  1.00  0.00     0.000 C 
BRANCH   6   7
ATOM      7  C   UNL     1     127.234 145.345 109.062  1.00  0.00     0.006 C 
BRANCH   7   8
ATOM      8  C   UNL     1     128.404 146.332 108.959  1.00  0.00     0.053 C 
BRANCH   8   9
ATOM      9  C   UNL     1     129.528 145.958 109.875  1.00  0.00     0.041 C 
ATOM     10  O   UNL     1     130.696 146.368 109.647  1.00  0.00    -0.550 OA
ATOM     11  O   UNL     1     129.289 145.130 110.965  1.00  0.00    -0.550 OA
ENDBRANCH   8   9
ENDBRANCH   7   8
ENDBRANCH   6   7
ENDBRANCH   5   6
ENDBRANCH   4   5
ENDBRANCH   3   4
ENDBRANCH   2   3
ENDBRANCH   1   2
BRANCH   1  12
ATOM     12  C   UNL     1     130.459 141.997 107.412  1.00  0.00     0.000 C 
BRANCH  12  13
ATOM     13  C   UNL     1     130.954 143.451 107.470  1.00  0.00    -0.000 C 
BRANCH  13  14
ATOM     14  C   UNL     1     130.892 144.157 106.105  1.00  0.00    -0.000 C 
BRANCH  14  15
ATOM     15  C   UNL     1     130.568 145.663 106.203  1.00  0.00    -0.000 C 
BRANCH  15  16
ATOM     16  C   UNL     1     131.753 146.541 105.773  1.00  0.00    -0.000 C 
BRANCH  16  17
ATOM     17  C   UNL     1     132.837 146.572 106.859  1.00  0.00    -0.000 C 
BRANCH  17  18
ATOM     18  C   UNL     1     134.186 146.016 106.374  1.00  0.00    -0.000 C 
BRANCH  18  19
ATOM     19  C   UNL     1     134.350 146.041 104.840  1.00  0.00    -0.003 C 
ATOM     20  C   UNL     1     134.650 144.658 104.262  1.00  0.00     0.004 C 
ENDBRANCH  18  19
ENDBRANCH  17  18
ENDBRANCH  16  17
ENDBRANCH  15  16
ENDBRANCH  14  15
ENDBRANCH  13  14
ENDBRANCH  12  13
ENDBRANCH   1  12
TORSDOF 16
ENDMDL
MODEL 5
REMARK VINA RESULT:    -3.749      1.995      5.592
REMARK INTER + INTRA:         -10.037
REMARK INTER:                  -7.470
REMARK INTRA:                  -2.567
REMARK UNBOUND:                -2.780
REMARK SMILES CCCCCCCCCCCCCCCCCC(=O)[O-]
REMARK SMILES IDX 10 1 11 2 12 3 13 4 14 5 15 6 16 7 17 8 18 9 19 10 20 11
REMARK SMILES IDX 9 12 8 13 7 14 6 15 5 16 4 17 3 18 2 19 1 20
REMARK H PARENT
REMARK Flexibility Score: inf
ROOT
ATOM      1  C   UNL     1     129.075 142.690 105.474  1.00  0.00     0.000 C 
ENDROOT
BRANCH   1   2
ATOM      2  C   UNL     1     127.892 143.583 105.058  1.00  0.00     0.000 C 
BRANCH   2   3
ATOM      3  C   UNL     1     127.020 144.000 106.253  1.00  0.00     0.000 C 
BRANCH   3   4
ATOM      4  C   UNL     1     126.972 145.526 106.442  1.00  0.00     0.000 C 
BRANCH   4   5
ATOM      5  C   UNL     1     127.408 145.960 107.851  1.00  0.00     0.000 C 
BRANCH   5   6
ATOM      6  C   UNL     1     127.552 144.776 108.817  1.00  0.00     0.000 C 
BRANCH   6   7
ATOM      7  C   UNL     1     128.451 145.144 110.005  1.00  0.00     0.006 C 
BRANCH   7   8
ATOM      8  C   UNL     1     129.445 146.260 109.659  1.00  0.00     0.053 C 
BRANCH   8   9
ATOM      9  C   UNL     1     130.864 145.799 109.788  1.00  0.00     0.041 C 
ATOM     10  O   UNL     1     131.791 146.635 109.950  1.00  0.00    -0.550 OA
ATOM     11  O   UNL     1     131.165 144.446 109.697  1.00  0.00    -0.550 OA
ENDBRANCH   8   9
ENDBRANCH   7   8
ENDBRANCH   6   7
ENDBRANCH   5   6
ENDBRANCH   4   5
ENDBRANCH   3   4
ENDBRANCH   2   3
ENDBRANCH   1   2
BRANCH   1  12
ATOM     12  C   UNL     1     129.988 143.367 106.508  1.00  0.00     0.000 C 
BRANCH  12  13
ATOM     13  C   UNL     1     131.037 144.283 105.857  1.00  0.00    -0.000 C 
BRANCH  13  14
ATOM     14  C   UNL     1     130.818 145.769 106.185  1.00  0.00    -0.000 C 
BRANCH  14  15
ATOM     15  C   UNL     1     132.114 146.608 106.145  1.00  0.00    -0.000 C 
BRANCH  15  16
ATOM     16  C   UNL     1     133.286 145.900 106.842  1.00  0.00    -0.000 C 
BRANCH  16  17
ATOM     17  C   UNL     1     134.598 146.130 106.080  1.00  0.00    -0.000 C 
BRANCH  17  18
ATOM     18  C   UNL     1     134.504 145.739 104.595  1.00  0.00    -0.000 C 
BRANCH  18  19
ATOM     19  C   UNL     1     135.037 144.323 104.293  1.00  0.00    -0.003 C 
ATOM     20  C   UNL     1     133.914 143.318 104.040  1.00  0.00     0.004 C 
ENDBRANCH  18  19
ENDBRANCH  17  18
ENDBRANCH  16  17
ENDBRANCH  15  16
ENDBRANCH  14  15
ENDBRANCH  13  14
ENDBRANCH  12  13
ENDBRANCH   1  12
TORSDOF 16
ENDMDL
MODEL 6
REMARK VINA RESULT:    -3.719      2.645      5.427
REMARK INTER + INTRA:          -9.978
REMARK INTER:                  -7.684
REMARK INTRA:                  -2.294
REMARK UNBOUND:                -2.780
REMARK SMILES CCCCCCCCCCCCCCCCCC(=O)[O-]
REMARK SMILES IDX 10 1 11 2 12 3 13 4 14 5 15 6 16 7 17 8 18 9 19 10 20 11
REMARK SMILES IDX 9 12 8 13 7 14 6 15 5 16 4 17 3 18 2 19 1 20
REMARK H PARENT
REMARK Flexibility Score: inf
ROOT
ATOM      1  C   UNL     1     127.013 145.831 106.143  1.00  0.00     0.000 C 
ENDROOT
BRANCH   1   2
ATOM      2  C   UNL     1     127.094 145.106 107.498  1.00  0.00     0.000 C 
BRANCH   2   3
ATOM      3  C   UNL     1     127.698 145.986 108.603  1.00  0.00     0.000 C 
BRANCH   3   4
ATOM      4  C   UNL     1     128.872 145.303 109.325  1.00  0.00     0.000 C 
BRANCH   4   5
ATOM      5  C   UNL     1     129.861 146.312 109.929  1.00  0.00     0.000 C 
BRANCH   5   6
ATOM      6  C   UNL     1     131.306 145.793 109.936  1.00  0.00     0.000 C 
BRANCH   6   7
ATOM      7  C   UNL     1     132.216 146.715 110.759  1.00  0.00     0.006 C 
BRANCH   7   8
ATOM      8  C   UNL     1     131.585 147.108 112.101  1.00  0.00     0.053 C 
BRANCH   8   9
ATOM      9  C   UNL     1     132.478 146.766 113.254  1.00  0.00     0.041 C 
ATOM     10  O   UNL     1     132.023 146.759 114.429  1.00  0.00    -0.550 OA
ATOM     11  O   UNL     1     133.820 146.484 113.034  1.00  0.00    -0.550 OA
ENDBRANCH   8   9
ENDBRANCH   7   8
ENDBRANCH   6   7
ENDBRANCH   5   6
ENDBRANCH   4   5
ENDBRANCH   3   4
ENDBRANCH   2   3
ENDBRANCH   1   2
BRANCH   1  12
ATOM     12  C   UNL     1     127.338 144.906 104.960  1.00  0.00     0.000 C 
BRANCH  12  13
ATOM     13  C   UNL     1     127.863 143.534 105.413  1.00  0.00    -0.000 C 
BRANCH  13  14
ATOM     14  C   UNL     1     129.376 143.369 105.185  1.00  0.00    -0.000 C 
BRANCH  14  15
ATOM     15  C   UNL     1     130.184 143.219 106.492  1.00  0.00    -0.000 C 
BRANCH  15  16
ATOM     16  C   UNL     1     131.276 144.291 106.625  1.00  0.00    -0.000 C 
BRANCH  16  17
ATOM     17  C   UNL     1     130.765 145.658 106.149  1.00  0.00    -0.000 C 
BRANCH  17  18
ATOM     18  C   UNL     1     131.897 146.675 105.926  1.00  0.00    -0.000 C 
BRANCH  18  19
ATOM     19  C   UNL     1     133.308 146.087 106.133  1.00  0.00    -0.003 C 
ATOM     20  C   UNL     1     134.165 146.168 104.871  1.00  0.00     0.004 C 
ENDBRANCH  18  19
ENDBRANCH  17  18
ENDBRANCH  16  17
ENDBRANCH  15  16
ENDBRANCH  14  15
ENDBRANCH  13  14
ENDBRANCH  12  13
ENDBRANCH   1  12
TORSDOF 16
ENDMDL
MODEL 7
REMARK VINA RESULT:    -3.693      2.075      3.773
REMARK INTER + INTRA:          -9.927
REMARK INTER:                  -7.430
REMARK INTRA:                  -2.497
REMARK UNBOUND:                -2.780
REMARK SMILES CCCCCCCCCCCCCCCCCC(=O)[O-]
REMARK SMILES IDX 10 1 11 2 12 3 13 4 14 5 15 6 16 7 17 8 18 9 19 10 20 11
REMARK SMILES IDX 9 12 8 13 7 14 6 15 5 16 4 17 3 18 2 19 1 20
REMARK H PARENT
REMARK Flexibility Score: inf
ROOT
ATOM      1  C   UNL     1     130.444 143.216 106.702  1.00  0.00     0.000 C 
ENDROOT
BRANCH   1   2
ATOM      2  C   UNL     1     131.530 144.305 106.754  1.00  0.00     0.000 C 
BRANCH   2   3
ATOM      3  C   UNL     1     131.071 145.626 106.115  1.00  0.00     0.000 C 
BRANCH   3   4
ATOM      4  C   UNL     1     132.234 146.606 105.887  1.00  0.00     0.000 C 
BRANCH   4   5
ATOM      5  C   UNL     1     133.597 146.002 106.263  1.00  0.00     0.000 C 
BRANCH   5   6
ATOM      6  C   UNL     1     134.612 146.071 105.113  1.00  0.00     0.000 C 
BRANCH   6   7
ATOM      7  C   UNL     1     134.534 144.813 104.237  1.00  0.00     0.006 C 
BRANCH   7   8
ATOM      8  C   UNL     1     134.911 143.542 105.009  1.00  0.00     0.053 C 
BRANCH   8   9
ATOM      9  C   UNL     1     133.983 142.408 104.696  1.00  0.00     0.041 C 
ATOM     10  O   UNL     1     132.986 142.591 103.950  1.00  0.00    -0.550 OA
ATOM     11  O   UNL     1     134.204 141.156 105.255  1.00  0.00    -0.550 OA
ENDBRANCH   8   9
ENDBRANCH   7   8
ENDBRANCH   6   7
ENDBRANCH   5   6
ENDBRANCH   4   5
ENDBRANCH   3   4
ENDBRANCH   2   3
ENDBRANCH   1   2
BRANCH   1  12
ATOM     12  C   UNL     1     129.791 143.101 105.316  1.00  0.00     0.000 C 
BRANCH  12  13
ATOM     13  C   UNL     1     128.257 143.161 105.381  1.00  0.00    -0.000 C 
BRANCH  13  14
ATOM     14  C   UNL     1     127.690 144.504 104.890  1.00  0.00    -0.000 C 
BRANCH  14  15
ATOM     15  C   UNL     1     127.332 145.478 106.033  1.00  0.00    -0.000 C 
BRANCH  15  16
ATOM     16  C   UNL     1     127.181 144.759 107.382  1.00  0.00    -0.000 C 
BRANCH  16  17
ATOM     17  C   UNL     1     127.354 145.740 108.550  1.00  0.00    -0.000 C 
BRANCH  17  18
ATOM     18  C   UNL     1     128.827 146.083 108.830  1.00  0.00    -0.000 C 
BRANCH  18  19
ATOM     19  C   UNL     1     129.303 145.666 110.237  1.00  0.00    -0.003 C 
ATOM     20  C   UNL     1     130.229 144.450 110.203  1.00  0.00     0.004 C 
ENDBRANCH  18  19
ENDBRANCH  17  18
ENDBRANCH  16  17
ENDBRANCH  15  16
ENDBRANCH  14  15
ENDBRANCH  13  14
ENDBRANCH  12  13
ENDBRANCH   1  12
TORSDOF 16
ENDMDL
MODEL 8
REMARK VINA RESULT:    -3.646      1.775      4.247
REMARK INTER + INTRA:          -9.836
REMARK INTER:                  -7.501
REMARK INTRA:                  -2.335
REMARK UNBOUND:                -2.780
REMARK SMILES CCCCCCCCCCCCCCCCCC(=O)[O-]
REMARK SMILES IDX 10 1 11 2 12 3 13 4 14 5 15 6 16 7 17 8 18 9 19 10 20 11
REMARK SMILES IDX 9 12 8 13 7 14 6 15 5 16 4 17 3 18 2 19 1 20
REMARK H PARENT
REMARK Flexibility Score: inf
ROOT
ATOM      1  C   UNL     1     127.506 143.601 106.198  1.00  0.00     0.000 C 
ENDROOT
BRANCH   1   2
ATOM      2  C   UNL     1     128.425 142.793 105.264  1.00  0.00     0.000 C 
BRANCH   2   3
ATOM      3  C   UNL     1     129.858 142.675 105.804  1.00  0.00     0.000 C 
BRANCH   3   4
ATOM      4  C   UNL     1     130.002 143.250 107.224  1.00  0.00     0.000 C 
BRANCH   4   5
ATOM      5  C   UNL     1     131.034 144.386 107.298  1.00  0.00     0.000 C 
BRANCH   5   6
ATOM      6  C   UNL     1     130.740 145.518 106.303  1.00  0.00     0.000 C 
BRANCH   6   7
ATOM      7  C   UNL     1     131.941 146.467 106.182  1.00  0.00     0.006 C 
BRANCH   7   8
ATOM      8  C   UNL     1     133.260 145.790 106.578  1.00  0.00     0.053 C 
BRANCH   8   9
ATOM      9  C   UNL     1     133.908 146.475 107.741  1.00  0.00     0.041 C 
ATOM     10  O   UNL     1     135.135 146.753 107.711  1.00  0.00    -0.550 OA
ATOM     11  O   UNL     1     133.161 146.778 108.873  1.00  0.00    -0.550 OA
ENDBRANCH   8   9
ENDBRANCH   7   8
ENDBRANCH   6   7
ENDBRANCH   5   6
ENDBRANCH   4   5
ENDBRANCH   3   4
ENDBRANCH   2   3
ENDBRANCH   1   2
BRANCH   1  12
ATOM     12  C   UNL     1     127.186 144.998 105.645  1.00  0.00     0.000 C 
BRANCH  12  13
ATOM     13  C   UNL     1     126.876 146.014 106.755  1.00  0.00    -0.000 C 
BRANCH  13  14
ATOM     14  C   UNL     1     127.135 145.455 108.165  1.00  0.00    -0.000 C 
BRANCH  14  15
ATOM     15  C   UNL     1     128.216 146.231 108.947  1.00  0.00    -0.000 C 
BRANCH  15  16
ATOM     16  C   UNL     1     128.823 145.395 110.084  1.00  0.00    -0.000 C 
BRANCH  16  17
ATOM     17  C   UNL     1     127.851 144.298 110.539  1.00  0.00    -0.000 C 
BRANCH  17  18
ATOM     18  C   UNL     1     128.407 143.447 111.693  1.00  0.00    -0.000 C 
BRANCH  18  19
ATOM     19  C   UNL     1     129.085 144.276 112.803  1.00  0.00    -0.003 C 
ATOM     20  C   UNL     1     128.084 144.802 113.832  1.00  0.00     0.004 C 
ENDBRANCH  18  19
ENDBRANCH  17  18
ENDBRANCH  16  17
ENDBRANCH  15  16
ENDBRANCH  14  15
ENDBRANCH  13  14
ENDBRANCH  12  13
ENDBRANCH   1  12
TORSDOF 16
ENDMDL
MODEL 9
REMARK VINA RESULT:    -3.572      2.864      5.866
REMARK INTER + INTRA:          -9.693
REMARK INTER:                  -7.157
REMARK INTRA:                  -2.536
REMARK UNBOUND:                -2.780
REMARK SMILES CCCCCCCCCCCCCCCCCC(=O)[O-]
REMARK SMILES IDX 10 1 11 2 12 3 13 4 14 5 15 6 16 7 17 8 18 9 19 10 20 11
REMARK SMILES IDX 9 12 8 13 7 14 6 15 5 16 4 17 3 18 2 19 1 20
REMARK H PARENT
REMARK Flexibility Score: inf
ROOT
ATOM      1  C   UNL     1     130.801 144.948 107.304  1.00  0.00     0.000 C 
ENDROOT
BRANCH   1   2
ATOM      2  C   UNL     1     129.819 145.141 108.474  1.00  0.00     0.000 C 
BRANCH   2   3
ATOM      3  C   UNL     1     128.605 146.000 108.089  1.00  0.00     0.000 C 
BRANCH   3   4
ATOM      4  C   UNL     1     127.454 145.164 107.502  1.00  0.00     0.000 C 
BRANCH   4   5
ATOM      5  C   UNL     1     127.064 145.610 106.084  1.00  0.00     0.000 C 
BRANCH   5   6
ATOM      6  C   UNL     1     127.590 144.660 104.999  1.00  0.00     0.000 C 
BRANCH   6   7
ATOM      7  C   UNL     1     127.602 143.209 105.500  1.00  0.00     0.006 C 
BRANCH   7   8
ATOM      8  C   UNL     1     129.012 142.606 105.502  1.00  0.00     0.053 C 
BRANCH   8   9
ATOM      9  C   UNL     1     129.120 141.451 106.450  1.00  0.00     0.041 C 
ATOM     10  O   UNL     1     128.666 140.321 106.128  1.00  0.00    -0.550 OA
ATOM     11  O   UNL     1     129.695 141.630 107.701  1.00  0.00    -0.550 OA
ENDBRANCH   8   9
ENDBRANCH   7   8
ENDBRANCH   6   7
ENDBRANCH   5   6
ENDBRANCH   4   5
ENDBRANCH   3   4
ENDBRANCH   2   3
ENDBRANCH   1   2
BRANCH   1  12
ATOM     12  C   UNL     1     130.691 146.065 106.254  1.00  0.00     0.000 C 
BRANCH  12  13
ATOM     13  C   UNL     1     132.039 146.751 105.981  1.00  0.00    -0.000 C 
BRANCH  13  14
ATOM     14  C   UNL     1     133.120 146.373 107.009  1.00  0.00    -0.000 C 
BRANCH  14  15
ATOM     15  C   UNL     1     134.453 145.929 106.368  1.00  0.00    -0.000 C 
BRANCH  15  16
ATOM     16  C   UNL     1     134.394 145.947 104.833  1.00  0.00    -0.000 C 
BRANCH  16  17
ATOM     17  C   UNL     1     134.751 144.571 104.254  1.00  0.00    -0.000 C 
BRANCH  17  18
ATOM     18  C   UNL     1     133.614 143.546 104.399  1.00  0.00    -0.000 C 
BRANCH  18  19
ATOM     19  C   UNL     1     133.978 142.339 105.287  1.00  0.00    -0.003 C 
ATOM     20  C   UNL     1     133.040 142.191 106.485  1.00  0.00     0.004 C 
ENDBRANCH  18  19
ENDBRANCH  17  18
ENDBRANCH  16  17
ENDBRANCH  15  16
ENDBRANCH  14  15
ENDBRANCH  13  14
ENDBRANCH  12  13
ENDBRANCH   1  12
TORSDOF 16
ENDMDL
