MODEL 1
REMARK VINA RESULT:    34.867      0.000      0.000
REMARK INTER + INTRA:          40.704
REMARK INTER:                  40.982
REMARK INTRA:                  -0.278
REMARK UNBOUND:                -0.278
REMARK SMILES O=c1cc(-c2ccc(O)c(O)c2)oc2cc(O)cc(O)c12
REMARK SMILES IDX 4 1 3 2 2 3 1 4 21 5 19 6 18 7 16 8 15 9 14 10 13 11 5 12
REMARK SMILES IDX 6 13 7 14 8 15 12 16 10 17 9 18 11 20 20 22 17 24
REMARK H PARENT 9 19 11 21 20 23 17 25
REMARK Flexibility Score: inf
ROOT
ATOM      1  C   UNL     1       9.322  67.668   6.963  1.00  0.00     0.138 A 
ATOM      2  C   UNL     1       9.356  68.822   7.758  1.00  0.00     0.100 A 
ATOM      3  C   UNL     1       9.409  70.078   7.152  1.00  0.00     0.197 A 
ATOM      4  O   UNL     1       9.500  71.090   7.892  1.00  0.00    -0.289 OA
ATOM      5  C   UNL     1       9.396  70.177   5.740  1.00  0.00     0.107 A 
ATOM      6  C   UNL     1       9.407  71.406   5.013  1.00  0.00     0.134 A 
ATOM      7  C   UNL     1       9.510  71.380   3.617  1.00  0.00     0.093 A 
ATOM      8  C   UNL     1       9.545  70.170   2.918  1.00  0.00     0.123 A 
ATOM      9  C   UNL     1       9.481  68.966   3.616  1.00  0.00     0.094 A 
ATOM     10  C   UNL     1       9.412  68.959   5.011  1.00  0.00     0.146 A 
ATOM     11  O   UNL     1       9.368  67.788   5.639  1.00  0.00    -0.456 OA
ENDROOT
BRANCH   1  12
ATOM     12  C   UNL     1       9.265  66.308   7.555  1.00  0.00     0.021 A 
ATOM     13  C   UNL     1      10.297  65.880   8.406  1.00  0.00     0.016 A 
ATOM     14  C   UNL     1      10.270  64.602   8.970  1.00  0.00     0.051 A 
ATOM     15  C   UNL     1       9.219  63.726   8.687  1.00  0.00     0.157 A 
ATOM     16  C   UNL     1       8.215  65.416   7.260  1.00  0.00     0.062 A 
ATOM     17  C   UNL     1       8.187  64.132   7.825  1.00  0.00     0.158 A 
BRANCH  15  18
ATOM     18  O   UNL     1       9.218  62.457   9.265  1.00  0.00    -0.504 OA
ATOM     19  H   UNL     1       8.363  61.947   9.442  1.00  0.00     0.293 HD
ENDBRANCH  15  18
BRANCH  17  20
ATOM     20  O   UNL     1       7.142  63.259   7.528  1.00  0.00    -0.504 OA
ATOM     21  H   UNL     1       6.630  63.320   6.657  1.00  0.00     0.293 HD
ENDBRANCH  17  20
ENDBRANCH   1  12
BRANCH   6  22
ATOM     22  O   UNL     1       9.291  72.666   5.607  1.00  0.00    -0.507 OA
ATOM     23  H   UNL     1       9.490  72.868   6.575  1.00  0.00     0.293 HD
ENDBRANCH   6  22
BRANCH   8  24
ATOM     24  O   UNL     1       9.633  70.154   1.528  1.00  0.00    -0.508 OA
ATOM     25  H   UNL     1      10.457  69.807   1.053  1.00  0.00     0.293 HD
ENDBRANCH   8  24
TORSDOF 5
ENDMDL
