MODEL 1
REMARK VINA RESULT:    -3.655      0.000      0.000
REMARK INTER + INTRA:          -6.786
REMARK INTER:                  -5.792
REMARK INTRA:                  -0.994
REMARK UNBOUND:                -0.994
REMARK SMILES CCCCCCCCCCCC(=O)[O-]
REMARK SMILES IDX 7 1 8 2 9 3 10 4 11 5 12 6 13 7 14 8 6 9 5 10 4 11 3 12 2 13
REMARK SMILES IDX 1 14
REMARK H PARENT
REMARK Flexibility Score: inf
ROOT
ATOM      1  C   UNL     1      16.852  16.011  16.240  1.00  0.00     0.000 C 
ENDROOT
BRANCH   1   2
ATOM      2  C   UNL     1      17.563  14.866  15.489  1.00  0.00     0.000 C 
BRANCH   2   3
ATOM      3  C   UNL     1      19.055  14.692  15.824  1.00  0.00     0.000 C 
BRANCH   3   4
ATOM      4  C   UNL     1      19.355  13.373  16.550  1.00  0.00     0.006 C 
BRANCH   4   5
ATOM      5  C   UNL     1      20.858  13.214  16.797  1.00  0.00     0.053 C 
BRANCH   5   6
ATOM      6  C   UNL     1      21.105  12.300  17.955  1.00  0.00     0.041 C 
ATOM      7  O   UNL     1      20.462  11.223  18.059  1.00  0.00    -0.550 OA
ATOM      8  O   UNL     1      22.009  12.662  18.946  1.00  0.00    -0.550 OA
ENDBRANCH   5   6
ENDBRANCH   4   5
ENDBRANCH   3   4
ENDBRANCH   2   3
ENDBRANCH   1   2
BRANCH   1   9
ATOM      9  C   UNL     1      17.651  17.323  16.340  1.00  0.00     0.000 C 
BRANCH   9  10
ATOM     10  C   UNL     1      17.765  17.905  17.762  1.00  0.00    -0.000 C 
BRANCH  10  11
ATOM     11  C   UNL     1      18.530  16.994  18.746  1.00  0.00    -0.000 C 
BRANCH  11  12
ATOM     12  C   UNL     1      17.635  16.464  19.876  1.00  0.00    -0.000 C 
BRANCH  12  13
ATOM     13  C   UNL     1      18.443  15.616  20.865  1.00  0.00    -0.003 C 
ATOM     14  C   UNL     1      19.587  14.891  20.163  1.00  0.00     0.004 C 
ENDBRANCH  12  13
ENDBRANCH  11  12
ENDBRANCH  10  11
ENDBRANCH   9  10
ENDBRANCH   1   9
TORSDOF 10
ENDMDL
MODEL 2
REMARK VINA RESULT:    -3.634      0.993      1.539
REMARK INTER + INTRA:          -6.752
REMARK INTER:                  -5.586
REMARK INTRA:                  -1.167
REMARK UNBOUND:                -0.994
REMARK SMILES CCCCCCCCCCCC(=O)[O-]
REMARK SMILES IDX 7 1 8 2 9 3 10 4 11 5 12 6 13 7 14 8 6 9 5 10 4 11 3 12 2 13
REMARK SMILES IDX 1 14
REMARK H PARENT
REMARK Flexibility Score: inf
ROOT
ATOM      1  C   UNL     1      17.459  14.910  15.329  1.00  0.00     0.000 C 
ENDROOT
BRANCH   1   2
ATOM      2  C   UNL     1      18.954  14.599  15.550  1.00  0.00     0.000 C 
BRANCH   2   3
ATOM      3  C   UNL     1      19.243  13.307  16.335  1.00  0.00     0.000 C 
BRANCH   3   4
ATOM      4  C   UNL     1      20.639  13.294  16.973  1.00  0.00     0.006 C 
BRANCH   4   5
ATOM      5  C   UNL     1      20.705  12.286  18.125  1.00  0.00     0.053 C 
BRANCH   5   6
ATOM      6  C   UNL     1      21.678  12.743  19.166  1.00  0.00     0.041 C 
ATOM      7  O   UNL     1      21.360  12.716  20.384  1.00  0.00    -0.550 OA
ATOM      8  O   UNL     1      22.917  13.244  18.788  1.00  0.00    -0.550 OA
ENDBRANCH   5   6
ENDBRANCH   4   5
ENDBRANCH   3   4
ENDBRANCH   2   3
ENDBRANCH   1   2
BRANCH   1   9
ATOM      9  C   UNL     1      16.846  15.914  16.323  1.00  0.00     0.000 C 
BRANCH   9  10
ATOM     10  C   UNL     1      17.640  17.223  16.493  1.00  0.00    -0.000 C 
BRANCH  10  11
ATOM     11  C   UNL     1      18.039  17.523  17.954  1.00  0.00    -0.000 C 
BRANCH  11  12
ATOM     12  C   UNL     1      17.743  16.347  18.898  1.00  0.00    -0.000 C 
BRANCH  12  13
ATOM     13  C   UNL     1      19.041  15.679  19.366  1.00  0.00    -0.003 C 
ATOM     14  C   UNL     1      18.931  15.219  20.816  1.00  0.00     0.004 C 
ENDBRANCH  12  13
ENDBRANCH  11  12
ENDBRANCH  10  11
ENDBRANCH   9  10
ENDBRANCH   1   9
TORSDOF 10
ENDMDL
MODEL 3
REMARK VINA RESULT:    -3.609      2.877      5.373
REMARK INTER + INTRA:          -6.713
REMARK INTER:                  -5.542
REMARK INTRA:                  -1.171
REMARK UNBOUND:                -0.994
REMARK SMILES CCCCCCCCCCCC(=O)[O-]
REMARK SMILES IDX 7 1 8 2 9 3 10 4 11 5 12 6 13 7 14 8 6 9 5 10 4 11 3 12 2 13
REMARK SMILES IDX 1 14
REMARK H PARENT
REMARK Flexibility Score: inf
ROOT
ATOM      1  C   UNL     1      20.643  12.712  18.233  1.00  0.00     0.000 C 
ENDROOT
BRANCH   1   2
ATOM      2  C   UNL     1      21.087  14.048  18.864  1.00  0.00     0.000 C 
BRANCH   2   3
ATOM      3  C   UNL     1      20.183  14.568  19.996  1.00  0.00     0.000 C 
BRANCH   3   4
ATOM      4  C   UNL     1      19.041  15.458  19.488  1.00  0.00     0.006 C 
BRANCH   4   5
ATOM      5  C   UNL     1      18.086  15.828  20.628  1.00  0.00     0.053 C 
BRANCH   5   6
ATOM      6  C   UNL     1      17.390  17.119  20.331  1.00  0.00     0.041 C 
ATOM      7  O   UNL     1      17.673  17.764  19.288  1.00  0.00    -0.550 OA
ATOM      8  O   UNL     1      16.466  17.633  21.230  1.00  0.00    -0.550 OA
ENDBRANCH   5   6
ENDBRANCH   4   5
ENDBRANCH   3   4
ENDBRANCH   2   3
ENDBRANCH   1   2
BRANCH   1   9
ATOM      9  C   UNL     1      19.807  12.842  16.946  1.00  0.00     0.000 C 
BRANCH   9  10
ATOM     10  C   UNL     1      20.264  13.959  15.988  1.00  0.00    -0.000 C 
BRANCH  10  11
ATOM     11  C   UNL     1      19.112  14.852  15.481  1.00  0.00    -0.000 C 
BRANCH  11  12
ATOM     12  C   UNL     1      17.741  14.400  16.006  1.00  0.00    -0.000 C 
BRANCH  12  13
ATOM     13  C   UNL     1      16.888  15.604  16.422  1.00  0.00    -0.003 C 
ATOM     14  C   UNL     1      17.462  16.904  15.867  1.00  0.00     0.004 C 
ENDBRANCH  12  13
ENDBRANCH  11  12
ENDBRANCH  10  11
ENDBRANCH   9  10
ENDBRANCH   1   9
TORSDOF 10
ENDMDL
MODEL 4
REMARK VINA RESULT:    -3.594      2.468      4.645
REMARK INTER + INTRA:          -6.689
REMARK INTER:                  -5.570
REMARK INTRA:                  -1.119
REMARK UNBOUND:                -0.994
REMARK SMILES CCCCCCCCCCCC(=O)[O-]
REMARK SMILES IDX 7 1 8 2 9 3 10 4 11 5 12 6 13 7 14 8 6 9 5 10 4 11 3 12 2 13
REMARK SMILES IDX 1 14
REMARK H PARENT
REMARK Flexibility Score: inf
ROOT
ATOM      1  C   UNL     1      16.941  16.019  16.369  1.00  0.00     0.000 C 
ENDROOT
BRANCH   1   2
ATOM      2  C   UNL     1      17.937  17.134  16.753  1.00  0.00     0.000 C 
BRANCH   2   3
ATOM      3  C   UNL     1      17.785  17.682  18.183  1.00  0.00     0.000 C 
BRANCH   3   4
ATOM      4  C   UNL     1      17.406  16.598  19.202  1.00  0.00     0.006 C 
BRANCH   4   5
ATOM      5  C   UNL     1      17.306  17.184  20.614  1.00  0.00     0.053 C 
BRANCH   5   6
ATOM      6  C   UNL     1      17.852  16.221  21.621  1.00  0.00     0.041 C 
ATOM      7  O   UNL     1      18.580  15.263  21.250  1.00  0.00    -0.550 OA
ATOM      8  O   UNL     1      17.516  16.352  22.961  1.00  0.00    -0.550 OA
ENDBRANCH   5   6
ENDBRANCH   4   5
ENDBRANCH   3   4
ENDBRANCH   2   3
ENDBRANCH   1   2
BRANCH   1   9
ATOM      9  C   UNL     1      17.515  14.914  15.463  1.00  0.00     0.000 C 
BRANCH   9  10
ATOM     10  C   UNL     1      18.933  15.187  14.929  1.00  0.00    -0.000 C 
BRANCH  10  11
ATOM     11  C   UNL     1      19.984  14.160  15.403  1.00  0.00    -0.000 C 
BRANCH  11  12
ATOM     12  C   UNL     1      19.384  13.084  16.320  1.00  0.00    -0.000 C 
BRANCH  12  13
ATOM     13  C   UNL     1      20.091  13.063  17.680  1.00  0.00    -0.003 C 
ATOM     14  C   UNL     1      20.243  14.473  18.243  1.00  0.00     0.004 C 
ENDBRANCH  12  13
ENDBRANCH  11  12
ENDBRANCH  10  11
ENDBRANCH   9  10
ENDBRANCH   1   9
TORSDOF 10
ENDMDL
MODEL 5
REMARK VINA RESULT:    -3.558      2.387      4.313
REMARK INTER + INTRA:          -6.632
REMARK INTER:                  -5.303
REMARK INTRA:                  -1.329
REMARK UNBOUND:                -0.994
REMARK SMILES CCCCCCCCCCCC(=O)[O-]
REMARK SMILES IDX 7 1 8 2 9 3 10 4 11 5 12 6 13 7 14 8 6 9 5 10 4 11 3 12 2 13
REMARK SMILES IDX 1 14
REMARK H PARENT
REMARK Flexibility Score: inf
ROOT
ATOM      1  C   UNL     1      17.393  14.951  15.566  1.00  0.00     0.000 C 
ENDROOT
BRANCH   1   2
ATOM      2  C   UNL     1      16.895  15.973  16.610  1.00  0.00     0.000 C 
BRANCH   2   3
ATOM      3  C   UNL     1      17.746  17.250  16.731  1.00  0.00     0.000 C 
BRANCH   3   4
ATOM      4  C   UNL     1      18.273  17.484  18.154  1.00  0.00     0.006 C 
BRANCH   4   5
ATOM      5  C   UNL     1      17.467  16.677  19.177  1.00  0.00     0.053 C 
BRANCH   5   6
ATOM      6  C   UNL     1      18.192  16.613  20.484  1.00  0.00     0.041 C 
ATOM      7  O   UNL     1      18.005  15.643  21.264  1.00  0.00    -0.550 OA
ATOM      8  O   UNL     1      19.036  17.649  20.862  1.00  0.00    -0.550 OA
ENDBRANCH   5   6
ENDBRANCH   4   5
ENDBRANCH   3   4
ENDBRANCH   2   3
ENDBRANCH   1   2
BRANCH   1   9
ATOM      9  C   UNL     1      18.786  15.243  14.978  1.00  0.00     0.000 C 
BRANCH   9  10
ATOM     10  C   UNL     1      19.911  14.326  15.494  1.00  0.00    -0.000 C 
BRANCH  10  11
ATOM     11  C   UNL     1      19.400  13.062  16.218  1.00  0.00    -0.000 C 
BRANCH  11  12
ATOM     12  C   UNL     1      20.049  12.870  17.597  1.00  0.00    -0.000 C 
BRANCH  12  13
ATOM     13  C   UNL     1      20.139  14.202  18.352  1.00  0.00    -0.003 C 
ATOM     14  C   UNL     1      20.748  14.009  19.737  1.00  0.00     0.004 C 
ENDBRANCH  12  13
ENDBRANCH  11  12
ENDBRANCH  10  11
ENDBRANCH   9  10
ENDBRANCH   1   9
TORSDOF 10
ENDMDL
MODEL 6
REMARK VINA RESULT:    -3.542      2.963      4.959
REMARK INTER + INTRA:          -6.607
REMARK INTER:                  -4.929
REMARK INTRA:                  -1.678
REMARK UNBOUND:                -0.994
REMARK SMILES CCCCCCCCCCCC(=O)[O-]
REMARK SMILES IDX 7 1 8 2 9 3 10 4 11 5 12 6 13 7 14 8 6 9 5 10 4 11 3 12 2 13
REMARK SMILES IDX 1 14
REMARK H PARENT
REMARK Flexibility Score: inf
ROOT
ATOM      1  C   UNL     1      20.189  14.295  16.022  1.00  0.00     0.000 C 
ENDROOT
BRANCH   1   2
ATOM      2  C   UNL     1      20.842  14.620  17.382  1.00  0.00     0.000 C 
BRANCH   2   3
ATOM      3  C   UNL     1      19.888  14.593  18.588  1.00  0.00     0.000 C 
BRANCH   3   4
ATOM      4  C   UNL     1      19.508  15.995  19.083  1.00  0.00     0.006 C 
BRANCH   4   5
ATOM      5  C   UNL     1      18.216  15.956  19.905  1.00  0.00     0.053 C 
BRANCH   5   6
ATOM      6  C   UNL     1      17.700  17.340  20.138  1.00  0.00     0.041 C 
ATOM      7  O   UNL     1      18.297  18.330  19.639  1.00  0.00    -0.550 OA
ATOM      8  O   UNL     1      16.590  17.542  20.947  1.00  0.00    -0.550 OA
ENDBRANCH   5   6
ENDBRANCH   4   5
ENDBRANCH   3   4
ENDBRANCH   2   3
ENDBRANCH   1   2
BRANCH   1   9
ATOM      9  C   UNL     1      18.708  13.880  16.091  1.00  0.00     0.000 C 
BRANCH   9  10
ATOM     10  C   UNL     1      17.736  14.825  15.359  1.00  0.00    -0.000 C 
BRANCH  10  11
ATOM     11  C   UNL     1      16.851  15.662  16.307  1.00  0.00    -0.000 C 
BRANCH  11  12
ATOM     12  C   UNL     1      17.323  17.119  16.422  1.00  0.00    -0.000 C 
BRANCH  12  13
ATOM     13  C   UNL     1      18.338  17.455  15.323  1.00  0.00    -0.003 C 
ATOM     14  C   UNL     1      19.620  18.033  15.915  1.00  0.00     0.004 C 
ENDBRANCH  12  13
ENDBRANCH  11  12
ENDBRANCH  10  11
ENDBRANCH   9  10
ENDBRANCH   1   9
TORSDOF 10
ENDMDL
MODEL 7
REMARK VINA RESULT:    -3.485      1.031      1.910
REMARK INTER + INTRA:          -6.516
REMARK INTER:                  -5.568
REMARK INTRA:                  -0.947
REMARK UNBOUND:                -0.994
REMARK SMILES CCCCCCCCCCCC(=O)[O-]
REMARK SMILES IDX 7 1 8 2 9 3 10 4 11 5 12 6 13 7 14 8 6 9 5 10 4 11 3 12 2 13
REMARK SMILES IDX 1 14
REMARK H PARENT
REMARK Flexibility Score: inf
ROOT
ATOM      1  C   UNL     1      17.734  17.187  16.597  1.00  0.00     0.000 C 
ENDROOT
BRANCH   1   2
ATOM      2  C   UNL     1      16.947  15.889  16.317  1.00  0.00     0.000 C 
BRANCH   2   3
ATOM      3  C   UNL     1      17.689  14.846  15.464  1.00  0.00     0.000 C 
BRANCH   3   4
ATOM      4  C   UNL     1      19.069  14.482  16.031  1.00  0.00     0.006 C 
BRANCH   4   5
ATOM      5  C   UNL     1      19.107  13.019  16.483  1.00  0.00     0.053 C 
BRANCH   5   6
ATOM      6  C   UNL     1      20.284  12.776  17.374  1.00  0.00     0.041 C 
ATOM      7  O   UNL     1      21.145  13.679  17.544  1.00  0.00    -0.550 OA
ATOM      8  O   UNL     1      20.456  11.538  17.977  1.00  0.00    -0.550 OA
ENDBRANCH   5   6
ENDBRANCH   4   5
ENDBRANCH   3   4
ENDBRANCH   2   3
ENDBRANCH   1   2
BRANCH   1   9
ATOM      9  C   UNL     1      17.866  17.563  18.085  1.00  0.00     0.000 C 
BRANCH   9  10
ATOM     10  C   UNL     1      17.668  16.394  19.068  1.00  0.00    -0.000 C 
BRANCH  10  11
ATOM     11  C   UNL     1      18.988  15.743  19.534  1.00  0.00    -0.000 C 
BRANCH  11  12
ATOM     12  C   UNL     1      18.891  15.167  20.955  1.00  0.00    -0.000 C 
BRANCH  12  13
ATOM     13  C   UNL     1      17.936  15.998  21.821  1.00  0.00    -0.003 C 
ATOM     14  C   UNL     1      18.660  16.590  23.027  1.00  0.00     0.004 C 
ENDBRANCH  12  13
ENDBRANCH  11  12
ENDBRANCH  10  11
ENDBRANCH   9  10
ENDBRANCH   1   9
TORSDOF 10
ENDMDL
MODEL 8
REMARK VINA RESULT:    -3.452      2.560      4.308
REMARK INTER + INTRA:          -6.464
REMARK INTER:                  -5.380
REMARK INTRA:                  -1.084
REMARK UNBOUND:                -0.994
REMARK SMILES CCCCCCCCCCCC(=O)[O-]
REMARK SMILES IDX 7 1 8 2 9 3 10 4 11 5 12 6 13 7 14 8 6 9 5 10 4 11 3 12 2 13
REMARK SMILES IDX 1 14
REMARK H PARENT
REMARK Flexibility Score: inf
ROOT
ATOM      1  C   UNL     1      19.990  14.353  15.456  1.00  0.00     0.000 C 
ENDROOT
BRANCH   1   2
ATOM      2  C   UNL     1      18.865  15.248  14.896  1.00  0.00     0.000 C 
BRANCH   2   3
ATOM      3  C   UNL     1      17.451  14.914  15.403  1.00  0.00     0.000 C 
BRANCH   3   4
ATOM      4  C   UNL     1      16.982  15.846  16.528  1.00  0.00     0.006 C 
BRANCH   4   5
ATOM      5  C   UNL     1      17.701  17.197  16.456  1.00  0.00     0.053 C 
BRANCH   5   6
ATOM      6  C   UNL     1      18.263  17.565  17.792  1.00  0.00     0.041 C 
ATOM      7  O   UNL     1      17.496  17.736  18.776  1.00  0.00    -0.550 OA
ATOM      8  O   UNL     1      19.629  17.768  17.940  1.00  0.00    -0.550 OA
ENDBRANCH   5   6
ENDBRANCH   4   5
ENDBRANCH   3   4
ENDBRANCH   2   3
ENDBRANCH   1   2
BRANCH   1   9
ATOM      9  C   UNL     1      19.514  13.072  16.166  1.00  0.00     0.000 C 
BRANCH   9  10
ATOM     10  C   UNL     1      20.011  12.914  17.616  1.00  0.00    -0.000 C 
BRANCH  10  11
ATOM     11  C   UNL     1      20.072  14.243  18.400  1.00  0.00    -0.000 C 
BRANCH  11  12
ATOM     12  C   UNL     1      20.997  14.162  19.624  1.00  0.00    -0.000 C 
BRANCH  12  13
ATOM     13  C   UNL     1      20.221  14.432  20.918  1.00  0.00    -0.003 C 
ATOM     14  C   UNL     1      18.929  15.194  20.636  1.00  0.00     0.004 C 
ENDBRANCH  12  13
ENDBRANCH  11  12
ENDBRANCH  10  11
ENDBRANCH   9  10
ENDBRANCH   1   9
TORSDOF 10
ENDMDL
MODEL 9
REMARK VINA RESULT:    -3.432      2.970      4.533
REMARK INTER + INTRA:          -6.433
REMARK INTER:                  -5.146
REMARK INTRA:                  -1.287
REMARK UNBOUND:                -0.994
REMARK SMILES CCCCCCCCCCCC(=O)[O-]
REMARK SMILES IDX 7 1 8 2 9 3 10 4 11 5 12 6 13 7 14 8 6 9 5 10 4 11 3 12 2 13
REMARK SMILES IDX 1 14
REMARK H PARENT
REMARK Flexibility Score: inf
ROOT
ATOM      1  C   UNL     1      20.609  14.170  18.274  1.00  0.00     0.000 C 
ENDROOT
BRANCH   1   2
ATOM      2  C   UNL     1      20.048  12.908  17.586  1.00  0.00     0.000 C 
BRANCH   2   3
ATOM      3  C   UNL     1      19.197  13.172  16.331  1.00  0.00     0.000 C 
BRANCH   3   4
ATOM      4  C   UNL     1      19.153  14.655  15.939  1.00  0.00     0.006 C 
BRANCH   4   5
ATOM      5  C   UNL     1      17.763  15.045  15.424  1.00  0.00     0.053 C 
BRANCH   5   6
ATOM      6  C   UNL     1      17.875  16.064  14.334  1.00  0.00     0.041 C 
ATOM      7  O   UNL     1      17.840  17.292  14.610  1.00  0.00    -0.550 OA
ATOM      8  O   UNL     1      17.966  15.658  13.010  1.00  0.00    -0.550 OA
ENDBRANCH   5   6
ENDBRANCH   4   5
ENDBRANCH   3   4
ENDBRANCH   2   3
ENDBRANCH   1   2
BRANCH   1   9
ATOM      9  C   UNL     1      19.964  14.517  19.629  1.00  0.00     0.000 C 
BRANCH   9  10
ATOM     10  C   UNL     1      19.416  15.953  19.736  1.00  0.00    -0.000 C 
BRANCH  10  11
ATOM     11  C   UNL     1      17.881  16.043  19.602  1.00  0.00    -0.000 C 
BRANCH  11  12
ATOM     12  C   UNL     1      17.442  17.050  18.528  1.00  0.00    -0.000 C 
BRANCH  12  13
ATOM     13  C   UNL     1      18.650  17.786  17.938  1.00  0.00    -0.003 C 
ATOM     14  C   UNL     1      18.376  19.281  17.810  1.00  0.00     0.004 C 
ENDBRANCH  12  13
ENDBRANCH  11  12
ENDBRANCH  10  11
ENDBRANCH   9  10
ENDBRANCH   1   9
TORSDOF 10
ENDMDL
