MODEL 1
REMARK VINA RESULT:    -3.180      0.000      0.000
REMARK INTER + INTRA:          -7.178
REMARK INTER:                  -5.411
REMARK INTRA:                  -1.767
REMARK UNBOUND:                -1.767
REMARK SMILES CCCCCCCCCCCCCC(=O)[O-]
REMARK SMILES IDX 8 1 9 2 10 3 11 4 12 5 13 6 14 7 15 8 16 9 7 10 6 11 5 12
REMARK SMILES IDX 4 13 3 14 2 15 1 16
REMARK H PARENT
REMARK Flexibility Score: inf
ROOT
ATOM      1  C   UNL     1      56.423  26.185  50.034  1.00  0.00     0.000 C 
ENDROOT
BRANCH   1   2
ATOM      2  C   UNL     1      56.628  26.742  51.457  1.00  0.00     0.000 C 
BRANCH   2   3
ATOM      3  C   UNL     1      57.232  28.159  51.521  1.00  0.00     0.000 C 
BRANCH   3   4
ATOM      4  C   UNL     1      57.395  28.860  50.158  1.00  0.00     0.000 C 
BRANCH   4   5
ATOM      5  C   UNL     1      58.841  29.232  49.785  1.00  0.00     0.006 C 
BRANCH   5   6
ATOM      6  C   UNL     1      59.579  28.100  49.059  1.00  0.00     0.053 C 
BRANCH   6   7
ATOM      7  C   UNL     1      60.533  27.419  49.988  1.00  0.00     0.041 C 
ATOM      8  O   UNL     1      60.943  28.009  51.022  1.00  0.00    -0.550 OA
ATOM      9  O   UNL     1      61.009  26.149  49.686  1.00  0.00    -0.550 OA
ENDBRANCH   6   7
ENDBRANCH   5   6
ENDBRANCH   4   5
ENDBRANCH   3   4
ENDBRANCH   2   3
ENDBRANCH   1   2
BRANCH   1  10
ATOM     10  C   UNL     1      54.958  25.905  49.651  1.00  0.00     0.000 C 
BRANCH  10  11
ATOM     11  C   UNL     1      53.959  26.752  50.453  1.00  0.00    -0.000 C 
BRANCH  11  12
ATOM     12  C   UNL     1      53.257  27.775  49.547  1.00  0.00    -0.000 C 
BRANCH  12  13
ATOM     13  C   UNL     1      53.318  29.204  50.112  1.00  0.00    -0.000 C 
BRANCH  13  14
ATOM     14  C   UNL     1      53.710  29.235  51.600  1.00  0.00    -0.000 C 
BRANCH  14  15
ATOM     15  C   UNL     1      54.301  30.588  52.024  1.00  0.00    -0.003 C 
ATOM     16  C   UNL     1      55.050  30.514  53.354  1.00  0.00     0.004 C 
ENDBRANCH  14  15
ENDBRANCH  13  14
ENDBRANCH  12  13
ENDBRANCH  11  12
ENDBRANCH  10  11
ENDBRANCH   1  10
TORSDOF 12
ENDMDL
MODEL 2
REMARK VINA RESULT:    -3.168      2.567      4.524
REMARK INTER + INTRA:          -7.158
REMARK INTER:                  -6.356
REMARK INTRA:                  -0.801
REMARK UNBOUND:                -1.767
REMARK SMILES CCCCCCCCCCCCCC(=O)[O-]
REMARK SMILES IDX 8 1 9 2 10 3 11 4 12 5 13 6 14 7 15 8 16 9 7 10 6 11 5 12
REMARK SMILES IDX 4 13 3 14 2 15 1 16
REMARK H PARENT
REMARK Flexibility Score: inf
ROOT
ATOM      1  C   UNL     1      58.812  29.185  49.918  1.00  0.00     0.000 C 
ENDROOT
BRANCH   1   2
ATOM      2  C   UNL     1      59.672  28.128  49.196  1.00  0.00     0.000 C 
BRANCH   2   3
ATOM      3  C   UNL     1      59.259  26.665  49.453  1.00  0.00     0.000 C 
BRANCH   3   4
ATOM      4  C   UNL     1      60.417  25.715  49.816  1.00  0.00     0.000 C 
BRANCH   4   5
ATOM      5  C   UNL     1      59.985  24.343  50.366  1.00  0.00     0.006 C 
BRANCH   5   6
ATOM      6  C   UNL     1      61.146  23.559  50.991  1.00  0.00     0.053 C 
BRANCH   6   7
ATOM      7  C   UNL     1      61.580  22.455  50.080  1.00  0.00     0.041 C 
ATOM      8  O   UNL     1      62.623  21.797  50.333  1.00  0.00    -0.550 OA
ATOM      9  O   UNL     1      60.859  22.184  48.924  1.00  0.00    -0.550 OA
ENDBRANCH   6   7
ENDBRANCH   5   6
ENDBRANCH   4   5
ENDBRANCH   3   4
ENDBRANCH   2   3
ENDBRANCH   1   2
BRANCH   1  10
ATOM     10  C   UNL     1      58.542  28.898  51.406  1.00  0.00     0.000 C 
BRANCH  10  11
ATOM     11  C   UNL     1      57.059  28.629  51.703  1.00  0.00    -0.000 C 
BRANCH  11  12
ATOM     12  C   UNL     1      56.213  28.763  50.427  1.00  0.00    -0.000 C 
BRANCH  12  13
ATOM     13  C   UNL     1      55.340  27.525  50.164  1.00  0.00    -0.000 C 
BRANCH  13  14
ATOM     14  C   UNL     1      53.860  27.883  49.939  1.00  0.00    -0.000 C 
BRANCH  14  15
ATOM     15  C   UNL     1      53.085  26.758  49.236  1.00  0.00    -0.003 C 
ATOM     16  C   UNL     1      53.903  25.475  49.096  1.00  0.00     0.004 C 
ENDBRANCH  14  15
ENDBRANCH  13  14
ENDBRANCH  12  13
ENDBRANCH  11  12
ENDBRANCH  10  11
ENDBRANCH   1  10
TORSDOF 12
ENDMDL
MODEL 3
REMARK VINA RESULT:    -3.153     11.145     13.149
REMARK INTER + INTRA:          -7.132
REMARK INTER:                  -5.220
REMARK INTRA:                  -1.913
REMARK UNBOUND:                -1.767
REMARK SMILES CCCCCCCCCCCCCC(=O)[O-]
REMARK SMILES IDX 8 1 9 2 10 3 11 4 12 5 13 6 14 7 15 8 16 9 7 10 6 11 5 12
REMARK SMILES IDX 4 13 3 14 2 15 1 16
REMARK H PARENT
REMARK Flexibility Score: inf
ROOT
ATOM      1  C   UNL     1      63.913  32.473  59.707  1.00  0.00     0.000 C 
ENDROOT
BRANCH   1   2
ATOM      2  C   UNL     1      62.718  32.484  58.734  1.00  0.00     0.000 C 
BRANCH   2   3
ATOM      3  C   UNL     1      61.357  32.139  59.369  1.00  0.00     0.000 C 
BRANCH   3   4
ATOM      4  C   UNL     1      61.343  32.120  60.911  1.00  0.00     0.000 C 
BRANCH   4   5
ATOM      5  C   UNL     1      60.963  30.767  61.541  1.00  0.00     0.006 C 
BRANCH   5   6
ATOM      6  C   UNL     1      62.179  29.868  61.800  1.00  0.00     0.053 C 
BRANCH   6   7
ATOM      7  C   UNL     1      62.273  28.804  60.754  1.00  0.00     0.041 C 
ATOM      8  O   UNL     1      63.054  28.943  59.776  1.00  0.00    -0.550 OA
ATOM      9  O   UNL     1      61.462  27.679  60.832  1.00  0.00    -0.550 OA
ENDBRANCH   6   7
ENDBRANCH   5   6
ENDBRANCH   4   5
ENDBRANCH   3   4
ENDBRANCH   2   3
ENDBRANCH   1   2
BRANCH   1  10
ATOM     10  C   UNL     1      64.555  33.849  59.965  1.00  0.00     0.000 C 
BRANCH  10  11
ATOM     11  C   UNL     1      64.159  34.448  61.323  1.00  0.00    -0.000 C 
BRANCH  11  12
ATOM     12  C   UNL     1      64.331  35.974  61.319  1.00  0.00    -0.000 C 
BRANCH  12  13
ATOM     13  C   UNL     1      63.027  36.715  60.978  1.00  0.00    -0.000 C 
BRANCH  13  14
ATOM     14  C   UNL     1      61.812  35.772  60.914  1.00  0.00    -0.000 C 
BRANCH  14  15
ATOM     15  C   UNL     1      61.047  35.891  59.588  1.00  0.00    -0.003 C 
ATOM     16  C   UNL     1      61.971  36.117  58.391  1.00  0.00     0.004 C 
ENDBRANCH  14  15
ENDBRANCH  13  14
ENDBRANCH  12  13
ENDBRANCH  11  12
ENDBRANCH  10  11
ENDBRANCH   1  10
TORSDOF 12
ENDMDL
MODEL 4
REMARK VINA RESULT:    -3.116     11.809     13.077
REMARK INTER + INTRA:          -7.069
REMARK INTER:                  -6.115
REMARK INTRA:                  -0.954
REMARK UNBOUND:                -1.767
REMARK SMILES CCCCCCCCCCCCCC(=O)[O-]
REMARK SMILES IDX 8 1 9 2 10 3 11 4 12 5 13 6 14 7 15 8 16 9 7 10 6 11 5 12
REMARK SMILES IDX 4 13 3 14 2 15 1 16
REMARK H PARENT
REMARK Flexibility Score: inf
ROOT
ATOM      1  C   UNL     1      60.995  30.566  61.653  1.00  0.00     0.000 C 
ENDROOT
BRANCH   1   2
ATOM      2  C   UNL     1      62.307  29.778  61.844  1.00  0.00     0.000 C 
BRANCH   2   3
ATOM      3  C   UNL     1      62.291  28.340  61.289  1.00  0.00     0.000 C 
BRANCH   3   4
ATOM      4  C   UNL     1      63.313  28.063  60.169  1.00  0.00     0.000 C 
BRANCH   4   5
ATOM      5  C   UNL     1      64.609  27.371  60.628  1.00  0.00     0.006 C 
BRANCH   5   6
ATOM      6  C   UNL     1      65.721  28.365  60.985  1.00  0.00     0.053 C 
BRANCH   6   7
ATOM      7  C   UNL     1      65.912  29.354  59.879  1.00  0.00     0.041 C 
ATOM      8  O   UNL     1      66.439  28.998  58.793  1.00  0.00    -0.550 OA
ATOM      9  O   UNL     1      65.552  30.683  60.066  1.00  0.00    -0.550 OA
ENDBRANCH   6   7
ENDBRANCH   5   6
ENDBRANCH   4   5
ENDBRANCH   3   4
ENDBRANCH   2   3
ENDBRANCH   1   2
BRANCH   1  10
ATOM     10  C   UNL     1      61.115  31.824  60.774  1.00  0.00     0.000 C 
BRANCH  10  11
ATOM     11  C   UNL     1      62.571  32.252  60.539  1.00  0.00    -0.000 C 
BRANCH  11  12
ATOM     12  C   UNL     1      62.635  33.647  59.898  1.00  0.00    -0.000 C 
BRANCH  12  13
ATOM     13  C   UNL     1      61.715  34.661  60.599  1.00  0.00    -0.000 C 
BRANCH  13  14
ATOM     14  C   UNL     1      62.470  35.916  61.071  1.00  0.00    -0.000 C 
BRANCH  14  15
ATOM     15  C   UNL     1      63.968  35.863  60.733  1.00  0.00    -0.003 C 
ATOM     16  C   UNL     1      64.852  35.802  61.978  1.00  0.00     0.004 C 
ENDBRANCH  14  15
ENDBRANCH  13  14
ENDBRANCH  12  13
ENDBRANCH  11  12
ENDBRANCH  10  11
ENDBRANCH   1  10
TORSDOF 12
ENDMDL
MODEL 5
REMARK VINA RESULT:    -3.099     11.793     13.328
REMARK INTER + INTRA:          -7.041
REMARK INTER:                  -5.700
REMARK INTRA:                  -1.340
REMARK UNBOUND:                -1.767
REMARK SMILES CCCCCCCCCCCCCC(=O)[O-]
REMARK SMILES IDX 8 1 9 2 10 3 11 4 12 5 13 6 14 7 15 8 16 9 7 10 6 11 5 12
REMARK SMILES IDX 4 13 3 14 2 15 1 16
REMARK H PARENT
REMARK Flexibility Score: inf
ROOT
ATOM      1  C   UNL     1      62.955  32.612  59.456  1.00  0.00     0.000 C 
ENDROOT
BRANCH   1   2
ATOM      2  C   UNL     1      61.945  32.635  60.622  1.00  0.00     0.000 C 
BRANCH   2   3
ATOM      3  C   UNL     1      60.951  31.458  60.646  1.00  0.00     0.000 C 
BRANCH   3   4
ATOM      4  C   UNL     1      61.142  30.466  61.811  1.00  0.00     0.000 C 
BRANCH   4   5
ATOM      5  C   UNL     1      62.485  29.713  61.810  1.00  0.00     0.006 C 
BRANCH   5   6
ATOM      6  C   UNL     1      62.611  28.722  60.646  1.00  0.00     0.053 C 
BRANCH   6   7
ATOM      7  C   UNL     1      63.887  27.949  60.755  1.00  0.00     0.041 C 
ATOM      8  O   UNL     1      63.866  26.733  61.082  1.00  0.00    -0.550 OA
ATOM      9  O   UNL     1      65.104  28.584  60.544  1.00  0.00    -0.550 OA
ENDBRANCH   6   7
ENDBRANCH   5   6
ENDBRANCH   4   5
ENDBRANCH   3   4
ENDBRANCH   2   3
ENDBRANCH   1   2
BRANCH   1  10
ATOM     10  C   UNL     1      64.247  33.414  59.699  1.00  0.00     0.000 C 
BRANCH  10  11
ATOM     11  C   UNL     1      64.295  34.061  61.092  1.00  0.00    -0.000 C 
BRANCH  11  12
ATOM     12  C   UNL     1      64.561  35.570  60.985  1.00  0.00    -0.000 C 
BRANCH  12  13
ATOM     13  C   UNL     1      63.426  36.414  61.590  1.00  0.00    -0.000 C 
BRANCH  13  14
ATOM     14  C   UNL     1      62.435  36.920  60.527  1.00  0.00    -0.000 C 
BRANCH  14  15
ATOM     15  C   UNL     1      61.081  36.199  60.596  1.00  0.00    -0.003 C 
ATOM     16  C   UNL     1      60.625  35.668  59.238  1.00  0.00     0.004 C 
ENDBRANCH  14  15
ENDBRANCH  13  14
ENDBRANCH  12  13
ENDBRANCH  11  12
ENDBRANCH  10  11
ENDBRANCH   1  10
TORSDOF 12
ENDMDL
MODEL 6
REMARK VINA RESULT:    -3.092     11.449     13.231
REMARK INTER + INTRA:          -7.028
REMARK INTER:                  -5.170
REMARK INTRA:                  -1.858
REMARK UNBOUND:                -1.767
REMARK SMILES CCCCCCCCCCCCCC(=O)[O-]
REMARK SMILES IDX 8 1 9 2 10 3 11 4 12 5 13 6 14 7 15 8 16 9 7 10 6 11 5 12
REMARK SMILES IDX 4 13 3 14 2 15 1 16
REMARK H PARENT
REMARK Flexibility Score: inf
ROOT
ATOM      1  C   UNL     1      63.342  32.208  59.077  1.00  0.00     0.000 C 
ENDROOT
BRANCH   1   2
ATOM      2  C   UNL     1      64.112  32.744  60.301  1.00  0.00     0.000 C 
BRANCH   2   3
ATOM      3  C   UNL     1      64.593  34.203  60.180  1.00  0.00     0.000 C 
BRANCH   3   4
ATOM      4  C   UNL     1      64.258  35.101  61.388  1.00  0.00     0.000 C 
BRANCH   4   5
ATOM      5  C   UNL     1      62.990  35.959  61.229  1.00  0.00     0.006 C 
BRANCH   5   6
ATOM      6  C   UNL     1      62.627  36.220  59.762  1.00  0.00     0.053 C 
BRANCH   6   7
ATOM      7  C   UNL     1      61.244  35.730  59.471  1.00  0.00     0.041 C 
ATOM      8  O   UNL     1      60.321  35.899  60.311  1.00  0.00    -0.550 OA
ATOM      9  O   UNL     1      60.983  35.043  58.292  1.00  0.00    -0.550 OA
ENDBRANCH   6   7
ENDBRANCH   5   6
ENDBRANCH   4   5
ENDBRANCH   3   4
ENDBRANCH   2   3
ENDBRANCH   1   2
BRANCH   1  10
ATOM     10  C   UNL     1      61.879  31.814  59.351  1.00  0.00     0.000 C 
BRANCH  10  11
ATOM     11  C   UNL     1      61.398  32.238  60.747  1.00  0.00    -0.000 C 
BRANCH  11  12
ATOM     12  C   UNL     1      60.949  31.018  61.565  1.00  0.00    -0.000 C 
BRANCH  12  13
ATOM     13  C   UNL     1      61.254  29.687  60.857  1.00  0.00    -0.000 C 
BRANCH  13  14
ATOM     14  C   UNL     1      62.269  28.826  61.630  1.00  0.00    -0.000 C 
BRANCH  14  15
ATOM     15  C   UNL     1      63.723  29.205  61.312  1.00  0.00    -0.003 C 
ATOM     16  C   UNL     1      64.184  28.686  59.950  1.00  0.00     0.004 C 
ENDBRANCH  14  15
ENDBRANCH  13  14
ENDBRANCH  12  13
ENDBRANCH  11  12
ENDBRANCH  10  11
ENDBRANCH   1  10
TORSDOF 12
ENDMDL
MODEL 7
REMARK VINA RESULT:    -3.070     10.628     13.064
REMARK INTER + INTRA:          -6.991
REMARK INTER:                  -5.311
REMARK INTRA:                  -1.679
REMARK UNBOUND:                -1.767
REMARK SMILES CCCCCCCCCCCCCC(=O)[O-]
REMARK SMILES IDX 8 1 9 2 10 3 11 4 12 5 13 6 14 7 15 8 16 9 7 10 6 11 5 12
REMARK SMILES IDX 4 13 3 14 2 15 1 16
REMARK H PARENT
REMARK Flexibility Score: inf
ROOT
ATOM      1  C   UNL     1      60.229  35.011  58.239  1.00  0.00     0.000 C 
ENDROOT
BRANCH   1   2
ATOM      2  C   UNL     1      61.138  33.787  58.016  1.00  0.00     0.000 C 
BRANCH   2   3
ATOM      3  C   UNL     1      60.582  32.454  58.556  1.00  0.00     0.000 C 
BRANCH   3   4
ATOM      4  C   UNL     1      61.555  31.654  59.445  1.00  0.00     0.000 C 
BRANCH   4   5
ATOM      5  C   UNL     1      61.386  31.878  60.959  1.00  0.00     0.006 C 
BRANCH   5   6
ATOM      6  C   UNL     1      61.081  30.584  61.722  1.00  0.00     0.053 C 
BRANCH   6   7
ATOM      7  C   UNL     1      62.270  29.677  61.709  1.00  0.00     0.041 C 
ATOM      8  O   UNL     1      62.115  28.428  61.720  1.00  0.00    -0.550 OA
ATOM      9  O   UNL     1      63.552  30.212  61.733  1.00  0.00    -0.550 OA
ENDBRANCH   6   7
ENDBRANCH   5   6
ENDBRANCH   4   5
ENDBRANCH   3   4
ENDBRANCH   2   3
ENDBRANCH   1   2
BRANCH   1  10
ATOM     10  C   UNL     1      60.816  36.099  59.157  1.00  0.00     0.000 C 
BRANCH  10  11
ATOM     11  C   UNL     1      61.072  35.600  60.587  1.00  0.00    -0.000 C 
BRANCH  11  12
ATOM     12  C   UNL     1      62.483  35.986  61.057  1.00  0.00    -0.000 C 
BRANCH  12  13
ATOM     13  C   UNL     1      63.442  34.785  61.095  1.00  0.00    -0.000 C 
BRANCH  13  14
ATOM     14  C   UNL     1      64.750  35.048  60.327  1.00  0.00    -0.000 C 
BRANCH  14  15
ATOM     15  C   UNL     1      64.640  34.685  58.839  1.00  0.00    -0.003 C 
ATOM     16  C   UNL     1      64.795  33.185  58.584  1.00  0.00     0.004 C 
ENDBRANCH  14  15
ENDBRANCH  13  14
ENDBRANCH  12  13
ENDBRANCH  11  12
ENDBRANCH  10  11
ENDBRANCH   1  10
TORSDOF 12
ENDMDL
MODEL 8
REMARK VINA RESULT:    -3.050      1.751      3.263
REMARK INTER + INTRA:          -6.957
REMARK INTER:                  -5.342
REMARK INTRA:                  -1.615
REMARK UNBOUND:                -1.767
REMARK SMILES CCCCCCCCCCCCCC(=O)[O-]
REMARK SMILES IDX 8 1 9 2 10 3 11 4 12 5 13 6 14 7 15 8 16 9 7 10 6 11 5 12
REMARK SMILES IDX 4 13 3 14 2 15 1 16
REMARK H PARENT
REMARK Flexibility Score: inf
ROOT
ATOM      1  C   UNL     1      57.058  27.010  51.977  1.00  0.00     0.000 C 
ENDROOT
BRANCH   1   2
ATOM      2  C   UNL     1      57.359  26.386  50.600  1.00  0.00     0.000 C 
BRANCH   2   3
ATOM      3  C   UNL     1      58.706  25.643  50.501  1.00  0.00     0.000 C 
BRANCH   3   4
ATOM      4  C   UNL     1      59.677  26.193  49.437  1.00  0.00     0.000 C 
BRANCH   4   5
ATOM      5  C   UNL     1      59.660  27.724  49.270  1.00  0.00     0.006 C 
BRANCH   5   6
ATOM      6  C   UNL     1      60.940  28.394  49.786  1.00  0.00     0.053 C 
BRANCH   6   7
ATOM      7  C   UNL     1      60.603  29.586  50.623  1.00  0.00     0.041 C 
ATOM      8  O   UNL     1      59.533  29.614  51.286  1.00  0.00    -0.550 OA
ATOM      9  O   UNL     1      61.449  30.689  50.635  1.00  0.00    -0.550 OA
ENDBRANCH   6   7
ENDBRANCH   5   6
ENDBRANCH   4   5
ENDBRANCH   3   4
ENDBRANCH   2   3
ENDBRANCH   1   2
BRANCH   1  10
ATOM     10  C   UNL     1      56.404  28.404  51.930  1.00  0.00     0.000 C 
BRANCH  10  11
ATOM     11  C   UNL     1      55.988  28.820  50.511  1.00  0.00    -0.000 C 
BRANCH  11  12
ATOM     12  C   UNL     1      54.500  29.199  50.467  1.00  0.00    -0.000 C 
BRANCH  12  13
ATOM     13  C   UNL     1      53.634  28.118  49.800  1.00  0.00    -0.000 C 
BRANCH  13  14
ATOM     14  C   UNL     1      53.126  27.067  50.802  1.00  0.00    -0.000 C 
BRANCH  14  15
ATOM     15  C   UNL     1      53.662  25.659  50.500  1.00  0.00    -0.003 C 
ATOM     16  C   UNL     1      54.162  25.515  49.063  1.00  0.00     0.004 C 
ENDBRANCH  14  15
ENDBRANCH  13  14
ENDBRANCH  12  13
ENDBRANCH  11  12
ENDBRANCH  10  11
ENDBRANCH   1  10
TORSDOF 12
ENDMDL
MODEL 9
REMARK VINA RESULT:    -3.013     10.765     12.823
REMARK INTER + INTRA:          -6.894
REMARK INTER:                  -4.966
REMARK INTRA:                  -1.929
REMARK UNBOUND:                -1.767
REMARK SMILES CCCCCCCCCCCCCC(=O)[O-]
REMARK SMILES IDX 8 1 9 2 10 3 11 4 12 5 13 6 14 7 15 8 16 9 7 10 6 11 5 12
REMARK SMILES IDX 4 13 3 14 2 15 1 16
REMARK H PARENT
REMARK Flexibility Score: inf
ROOT
ATOM      1  C   UNL     1      61.521  31.582  58.252  1.00  0.00     0.000 C 
ENDROOT
BRANCH   1   2
ATOM      2  C   UNL     1      61.959  33.060  58.251  1.00  0.00     0.000 C 
BRANCH   2   3
ATOM      3  C   UNL     1      61.193  33.968  59.233  1.00  0.00     0.000 C 
BRANCH   3   4
ATOM      4  C   UNL     1      61.840  34.115  60.625  1.00  0.00     0.000 C 
BRANCH   4   5
ATOM      5  C   UNL     1      62.642  35.411  60.836  1.00  0.00     0.006 C 
BRANCH   5   6
ATOM      6  C   UNL     1      64.159  35.182  60.823  1.00  0.00     0.053 C 
BRANCH   6   7
ATOM      7  C   UNL     1      64.769  35.790  59.601  1.00  0.00     0.041 C 
ATOM      8  O   UNL     1      66.009  36.000  59.548  1.00  0.00    -0.550 OA
ATOM      9  O   UNL     1      63.960  36.172  58.537  1.00  0.00    -0.550 OA
ENDBRANCH   6   7
ENDBRANCH   5   6
ENDBRANCH   4   5
ENDBRANCH   3   4
ENDBRANCH   2   3
ENDBRANCH   1   2
BRANCH   1  10
ATOM     10  C   UNL     1      60.224  31.289  59.028  1.00  0.00     0.000 C 
BRANCH  10  11
ATOM     11  C   UNL     1      60.385  30.157  60.055  1.00  0.00    -0.000 C 
BRANCH  11  12
ATOM     12  C   UNL     1      61.153  30.647  61.292  1.00  0.00    -0.000 C 
BRANCH  12  13
ATOM     13  C   UNL     1      62.232  29.653  61.749  1.00  0.00    -0.000 C 
BRANCH  13  14
ATOM     14  C   UNL     1      63.544  29.799  60.957  1.00  0.00    -0.000 C 
BRANCH  14  15
ATOM     15  C   UNL     1      64.099  31.230  61.000  1.00  0.00    -0.003 C 
ATOM     16  C   UNL     1      64.875  31.600  59.735  1.00  0.00     0.004 C 
ENDBRANCH  14  15
ENDBRANCH  13  14
ENDBRANCH  12  13
ENDBRANCH  11  12
ENDBRANCH  10  11
ENDBRANCH   1  10
TORSDOF 12
ENDMDL
