MODEL 1
REMARK VINA RESULT:     8.472      0.000      0.000
REMARK INTER + INTRA:          10.553
REMARK INTER:                  10.206
REMARK INTRA:                   0.347
REMARK UNBOUND:                 0.347
REMARK SMILES O=c1c(O)c(-c2ccc(O)c(O)c2)oc2cc(O)cc(O)c12
REMARK SMILES IDX 5 1 3 2 2 3 1 4 22 5 20 6 19 7 17 8 16 9 15 10 14 11 6 12
REMARK SMILES IDX 7 13 8 14 9 15 13 16 11 17 10 18 12 20 4 22 21 24 18 26
REMARK H PARENT 10 19 12 21 4 23 21 25 18 27
REMARK Flexibility Score: inf
ROOT
ATOM      1  C   UNL     1      19.763  11.357  11.845  1.00  0.00     0.180 A 
ATOM      2  C   UNL     1      18.525  11.008  12.411  1.00  0.00     0.208 A 
ATOM      3  C   UNL     1      18.231   9.651  12.622  1.00  0.00     0.238 A 
ATOM      4  O   UNL     1      17.100   9.341  13.079  1.00  0.00    -0.285 OA
ATOM      5  C   UNL     1      19.184   8.662  12.280  1.00  0.00     0.111 A 
ATOM      6  C   UNL     1      19.008   7.261  12.487  1.00  0.00     0.134 A 
ATOM      7  C   UNL     1      19.963   6.364  11.991  1.00  0.00     0.093 A 
ATOM      8  C   UNL     1      21.118   6.822  11.352  1.00  0.00     0.123 A 
ATOM      9  C   UNL     1      21.327   8.190  11.198  1.00  0.00     0.094 A 
ATOM     10  C   UNL     1      20.375   9.108  11.650  1.00  0.00     0.146 A 
ATOM     11  O   UNL     1      20.609  10.403  11.474  1.00  0.00    -0.452 OA
ENDROOT
BRANCH   1  12
ATOM     12  C   UNL     1      20.155  12.766  11.615  1.00  0.00     0.025 A 
ATOM     13  C   UNL     1      21.507  13.154  11.592  1.00  0.00     0.016 A 
ATOM     14  C   UNL     1      21.854  14.486  11.350  1.00  0.00     0.051 A 
ATOM     15  C   UNL     1      20.861  15.445  11.114  1.00  0.00     0.157 A 
ATOM     16  C   UNL     1      19.165  13.728  11.359  1.00  0.00     0.062 A 
ATOM     17  C   UNL     1      19.509  15.062  11.116  1.00  0.00     0.158 A 
BRANCH  15  18
ATOM     18  O   UNL     1      21.211  16.773  10.875  1.00  0.00    -0.504 OA
ATOM     19  H   UNL     1      22.133  17.127  11.100  1.00  0.00     0.293 HD
ENDBRANCH  15  18
BRANCH  17  20
ATOM     20  O   UNL     1      18.496  15.990  10.878  1.00  0.00    -0.504 OA
ATOM     21  H   UNL     1      18.288  16.738  11.530  1.00  0.00     0.293 HD
ENDBRANCH  17  20
ENDBRANCH   1  12
BRANCH   2  22
ATOM     22  O   UNL     1      17.589  11.998  12.722  1.00  0.00    -0.502 OA
ATOM     23  H   UNL     1      16.688  11.786  13.133  1.00  0.00     0.293 HD
ENDBRANCH   2  22
BRANCH   6  24
ATOM     24  O   UNL     1      17.938   6.705  13.193  1.00  0.00    -0.507 OA
ATOM     25  H   UNL     1      17.558   5.784  13.030  1.00  0.00     0.293 HD
ENDBRANCH   6  24
BRANCH   8  26
ATOM     26  O   UNL     1      22.070   5.924  10.875  1.00  0.00    -0.508 OA
ATOM     27  H   UNL     1      23.058   6.152  10.869  1.00  0.00     0.293 HD
ENDBRANCH   8  26
TORSDOF 6
ENDMDL
MODEL 2
REMARK VINA RESULT:    11.083      1.254      3.098
REMARK INTER + INTRA:          13.698
REMARK INTER:                  13.154
REMARK INTRA:                   0.544
REMARK UNBOUND:                 0.347
REMARK SMILES O=c1c(O)c(-c2ccc(O)c(O)c2)oc2cc(O)cc(O)c12
REMARK SMILES IDX 5 1 3 2 2 3 1 4 22 5 20 6 19 7 17 8 16 9 15 10 14 11 6 12
REMARK SMILES IDX 7 13 8 14 9 15 13 16 11 17 10 18 12 20 4 22 21 24 18 26
REMARK H PARENT 10 19 12 21 4 23 21 25 18 27
REMARK Flexibility Score: inf
ROOT
ATOM      1  C   UNL     1      20.262  10.953  11.694  1.00  0.00     0.180 A 
ATOM      2  C   UNL     1      21.427  10.284  11.284  1.00  0.00     0.208 A 
ATOM      3  C   UNL     1      21.459   8.881  11.330  1.00  0.00     0.238 A 
ATOM      4  O   UNL     1      22.524   8.289  11.014  1.00  0.00    -0.285 OA
ATOM      5  C   UNL     1      20.319   8.164  11.768  1.00  0.00     0.111 A 
ATOM      6  C   UNL     1      20.226   6.741  11.817  1.00  0.00     0.134 A 
ATOM      7  C   UNL     1      19.098   6.142  12.391  1.00  0.00     0.093 A 
ATOM      8  C   UNL     1      18.032   6.914  12.859  1.00  0.00     0.123 A 
ATOM      9  C   UNL     1      18.088   8.302  12.761  1.00  0.00     0.094 A 
ATOM     10  C   UNL     1      19.216   8.929  12.227  1.00  0.00     0.146 A 
ATOM     11  O   UNL     1      19.233  10.256  12.162  1.00  0.00    -0.452 OA
ENDROOT
BRANCH   1  12
ATOM     12  C   UNL     1      20.143  12.428  11.651  1.00  0.00     0.025 A 
ATOM     13  C   UNL     1      18.952  13.077  12.022  1.00  0.00     0.016 A 
ATOM     14  C   UNL     1      18.870  14.472  11.995  1.00  0.00     0.051 A 
ATOM     15  C   UNL     1      19.979  15.238  11.613  1.00  0.00     0.157 A 
ATOM     16  C   UNL     1      21.257  13.202  11.288  1.00  0.00     0.062 A 
ATOM     17  C   UNL     1      21.179  14.599  11.261  1.00  0.00     0.158 A 
BRANCH  15  18
ATOM     18  O   UNL     1      19.894  16.630  11.587  1.00  0.00    -0.504 OA
ATOM     19  H   UNL     1      20.497  17.209  12.159  1.00  0.00     0.293 HD
ENDBRANCH  15  18
BRANCH  17  20
ATOM     20  O   UNL     1      22.303  15.333  10.882  1.00  0.00    -0.504 OA
ATOM     21  H   UNL     1      22.228  16.240  10.436  1.00  0.00     0.293 HD
ENDBRANCH  17  20
ENDBRANCH   1  12
BRANCH   2  22
ATOM     22  O   UNL     1      22.548  11.011  10.875  1.00  0.00    -0.502 OA
ATOM     23  H   UNL     1      23.008  10.848   9.988  1.00  0.00     0.293 HD
ENDBRANCH   2  22
BRANCH   6  24
ATOM     24  O   UNL     1      21.192   5.877  11.294  1.00  0.00    -0.507 OA
ATOM     25  H   UNL     1      21.857   5.355  11.846  1.00  0.00     0.293 HD
ENDBRANCH   6  24
BRANCH   8  26
ATOM     26  O   UNL     1      16.906   6.309  13.415  1.00  0.00    -0.508 OA
ATOM     27  H   UNL     1      16.987   5.560  14.093  1.00  0.00     0.293 HD
ENDBRANCH   8  26
TORSDOF 6
ENDMDL
