MODEL 1
REMARK VINA RESULT:    -4.815      0.000      0.000
REMARK INTER + INTRA:          -5.665
REMARK INTER:                  -5.519
REMARK INTRA:                  -0.146
REMARK UNBOUND:                -0.146
REMARK SMILES O=C([O-])C=Cc1ccc(O)cc1
REMARK SMILES IDX 6 1 7 2 12 3 8 4 11 5 9 6 5 7 4 8 2 9 1 10 3 11 10 12
REMARK H PARENT 10 13
REMARK Flexibility Score: inf
ROOT
ATOM      1  C   UNL     1      16.027  -7.425  13.407  1.00  0.00    -0.025 A 
ATOM      2  C   UNL     1      15.268  -8.408  12.747  1.00  0.00     0.012 A 
ATOM      3  C   UNL     1      17.389  -7.679  13.665  1.00  0.00     0.012 A 
ATOM      4  C   UNL     1      15.847  -9.625  12.377  1.00  0.00     0.047 A 
ATOM      5  C   UNL     1      17.965  -8.898  13.292  1.00  0.00     0.047 A 
ATOM      6  C   UNL     1      17.195  -9.875  12.649  1.00  0.00     0.115 A 
ENDROOT
BRANCH   1   7
ATOM      7  C   UNL     1      15.369  -6.146  13.770  1.00  0.00     0.010 C 
ATOM      8  C   UNL     1      14.080  -6.046  14.125  1.00  0.00     0.025 C 
BRANCH   8   9
ATOM      9  C   UNL     1      13.465  -4.754  14.467  1.00  0.00     0.064 C 
ATOM     10  O   UNL     1      12.955  -4.049  13.558  1.00  0.00    -0.545 OA
ATOM     11  O   UNL     1      13.436  -4.298  15.780  1.00  0.00    -0.545 OA
ENDBRANCH   8   9
ENDBRANCH   1   7
BRANCH   6  12
ATOM     12  O   UNL     1      17.759 -11.093  12.276  1.00  0.00    -0.508 OA
ATOM     13  H   UNL     1      17.517 -11.541  11.400  1.00  0.00     0.293 HD
ENDBRANCH   6  12
TORSDOF 3
ENDMDL
MODEL 2
REMARK VINA RESULT:    -4.728      0.140      1.405
REMARK INTER + INTRA:          -5.565
REMARK INTER:                  -5.426
REMARK INTRA:                  -0.139
REMARK UNBOUND:                -0.146
REMARK SMILES O=C([O-])C=Cc1ccc(O)cc1
REMARK SMILES IDX 6 1 7 2 12 3 8 4 11 5 9 6 5 7 4 8 2 9 1 10 3 11 10 12
REMARK H PARENT 10 13
REMARK Flexibility Score: inf
ROOT
ATOM      1  C   UNL     1      15.892  -7.465  13.307  1.00  0.00    -0.025 A 
ATOM      2  C   UNL     1      17.250  -7.689  13.592  1.00  0.00     0.012 A 
ATOM      3  C   UNL     1      15.153  -8.485  12.675  1.00  0.00     0.012 A 
ATOM      4  C   UNL     1      17.863  -8.893  13.233  1.00  0.00     0.047 A 
ATOM      5  C   UNL     1      15.769  -9.688  12.319  1.00  0.00     0.047 A 
ATOM      6  C   UNL     1      17.127  -9.895  12.594  1.00  0.00     0.115 A 
ENDROOT
BRANCH   1   7
ATOM      7  C   UNL     1      15.285  -6.174  13.718  1.00  0.00     0.010 C 
ATOM      8  C   UNL     1      13.974  -6.004  13.938  1.00  0.00     0.025 C 
BRANCH   8   9
ATOM      9  C   UNL     1      13.414  -4.702  14.333  1.00  0.00     0.064 C 
ATOM     10  O   UNL     1      12.919  -3.947  13.456  1.00  0.00    -0.545 OA
ATOM     11  O   UNL     1      13.419  -4.292  15.661  1.00  0.00    -0.545 OA
ENDBRANCH   8   9
ENDBRANCH   1   7
BRANCH   6  12
ATOM     12  O   UNL     1      17.751 -11.089  12.240  1.00  0.00    -0.508 OA
ATOM     13  H   UNL     1      18.005 -11.780  12.937  1.00  0.00     0.293 HD
ENDBRANCH   6  12
TORSDOF 3
ENDMDL
MODEL 3
REMARK VINA RESULT:    -4.554      3.816      5.571
REMARK INTER + INTRA:          -5.366
REMARK INTER:                  -5.215
REMARK INTRA:                  -0.151
REMARK UNBOUND:                -0.146
REMARK SMILES O=C([O-])C=Cc1ccc(O)cc1
REMARK SMILES IDX 6 1 7 2 12 3 8 4 11 5 9 6 5 7 4 8 2 9 1 10 3 11 10 12
REMARK H PARENT 10 13
REMARK Flexibility Score: inf
ROOT
ATOM      1  C   UNL     1      14.716 -11.228  12.485  1.00  0.00    -0.025 A 
ATOM      2  C   UNL     1      13.602 -10.379  12.618  1.00  0.00     0.012 A 
ATOM      3  C   UNL     1      14.501 -12.589  12.191  1.00  0.00     0.012 A 
ATOM      4  C   UNL     1      12.305 -10.883  12.485  1.00  0.00     0.047 A 
ATOM      5  C   UNL     1      13.201 -13.088  12.057  1.00  0.00     0.047 A 
ATOM      6  C   UNL     1      12.099 -12.236  12.206  1.00  0.00     0.115 A 
ENDROOT
BRANCH   1   7
ATOM      7  C   UNL     1      16.073 -10.644  12.626  1.00  0.00     0.010 C 
ATOM      8  C   UNL     1      16.321  -9.327  12.619  1.00  0.00     0.025 C 
BRANCH   8   9
ATOM      9  C   UNL     1      17.685  -8.792  12.750  1.00  0.00     0.064 C 
ATOM     10  O   UNL     1      18.113  -7.966  11.903  1.00  0.00    -0.545 OA
ATOM     11  O   UNL     1      18.511  -9.183  13.798  1.00  0.00    -0.545 OA
ENDBRANCH   8   9
ENDBRANCH   1   7
BRANCH   6  12
ATOM     12  O   UNL     1      10.801 -12.724  12.077  1.00  0.00    -0.508 OA
ATOM     13  H   UNL     1      10.014 -12.102  11.936  1.00  0.00     0.293 HD
ENDBRANCH   6  12
TORSDOF 3
ENDMDL
MODEL 4
REMARK VINA RESULT:    -4.530      3.414      4.517
REMARK INTER + INTRA:          -5.338
REMARK INTER:                  -5.192
REMARK INTRA:                  -0.146
REMARK UNBOUND:                -0.146
REMARK SMILES O=C([O-])C=Cc1ccc(O)cc1
REMARK SMILES IDX 6 1 7 2 12 3 8 4 11 5 9 6 5 7 4 8 2 9 1 10 3 11 10 12
REMARK H PARENT 10 13
REMARK Flexibility Score: inf
ROOT
ATOM      1  C   UNL     1      15.655 -10.170  12.413  1.00  0.00    -0.025 A 
ATOM      2  C   UNL     1      16.449 -11.329  12.362  1.00  0.00     0.012 A 
ATOM      3  C   UNL     1      14.259 -10.309  12.554  1.00  0.00     0.012 A 
ATOM      4  C   UNL     1      15.862 -12.597  12.423  1.00  0.00     0.047 A 
ATOM      5  C   UNL     1      13.677 -11.579  12.617  1.00  0.00     0.047 A 
ATOM      6  C   UNL     1      14.477 -12.726  12.549  1.00  0.00     0.115 A 
ENDROOT
BRANCH   1   7
ATOM      7  C   UNL     1      16.325  -8.848  12.353  1.00  0.00     0.010 C 
ATOM      8  C   UNL     1      17.503  -8.583  12.936  1.00  0.00     0.025 C 
BRANCH   8   9
ATOM      9  C   UNL     1      18.127  -7.252  12.860  1.00  0.00     0.064 C 
ATOM     10  O   UNL     1      18.854  -6.963  11.875  1.00  0.00    -0.545 OA
ATOM     11  O   UNL     1      17.922  -6.307  13.858  1.00  0.00    -0.545 OA
ENDBRANCH   8   9
ENDBRANCH   1   7
BRANCH   6  12
ATOM     12  O   UNL     1      13.906 -13.995  12.609  1.00  0.00    -0.508 OA
ATOM     13  H   UNL     1      14.468 -14.821  12.777  1.00  0.00     0.293 HD
ENDBRANCH   6  12
TORSDOF 3
ENDMDL
MODEL 5
REMARK VINA RESULT:    -4.406      3.104      5.484
REMARK INTER + INTRA:          -5.196
REMARK INTER:                  -5.048
REMARK INTRA:                  -0.148
REMARK UNBOUND:                -0.146
REMARK SMILES O=C([O-])C=Cc1ccc(O)cc1
REMARK SMILES IDX 6 1 7 2 12 3 8 4 11 5 9 6 5 7 4 8 2 9 1 10 3 11 10 12
REMARK H PARENT 10 13
REMARK Flexibility Score: inf
ROOT
ATOM      1  C   UNL     1      16.131 -10.054  12.634  1.00  0.00    -0.025 A 
ATOM      2  C   UNL     1      15.420  -8.844  12.535  1.00  0.00     0.012 A 
ATOM      3  C   UNL     1      17.488 -10.015  13.011  1.00  0.00     0.012 A 
ATOM      4  C   UNL     1      16.056  -7.624  12.782  1.00  0.00     0.047 A 
ATOM      5  C   UNL     1      18.120  -8.792  13.258  1.00  0.00     0.047 A 
ATOM      6  C   UNL     1      17.406  -7.593  13.142  1.00  0.00     0.115 A 
ENDROOT
BRANCH   1   7
ATOM      7  C   UNL     1      15.409 -11.324  12.371  1.00  0.00     0.010 C 
ATOM      8  C   UNL     1      14.104 -11.504  12.621  1.00  0.00     0.025 C 
BRANCH   8   9
ATOM      9  C   UNL     1      13.432 -12.785  12.355  1.00  0.00     0.064 C 
ATOM     10  O   UNL     1      12.267 -12.788  11.877  1.00  0.00    -0.545 OA
ATOM     11  O   UNL     1      14.062 -13.995  12.620  1.00  0.00    -0.545 OA
ENDBRANCH   8   9
ENDBRANCH   1   7
BRANCH   6  12
ATOM     12  O   UNL     1      18.027  -6.370  13.384  1.00  0.00    -0.508 OA
ATOM     13  H   UNL     1      18.009  -5.623  12.699  1.00  0.00     0.293 HD
ENDBRANCH   6  12
TORSDOF 3
ENDMDL
MODEL 6
REMARK VINA RESULT:    -4.112      2.096      2.668
REMARK INTER + INTRA:          -4.859
REMARK INTER:                  -4.710
REMARK INTRA:                  -0.149
REMARK UNBOUND:                -0.146
REMARK SMILES O=C([O-])C=Cc1ccc(O)cc1
REMARK SMILES IDX 6 1 7 2 12 3 8 4 11 5 9 6 5 7 4 8 2 9 1 10 3 11 10 12
REMARK H PARENT 10 13
REMARK Flexibility Score: inf
ROOT
ATOM      1  C   UNL     1      14.890  -9.431  12.561  1.00  0.00    -0.025 A 
ATOM      2  C   UNL     1      13.658 -10.102  12.659  1.00  0.00     0.012 A 
ATOM      3  C   UNL     1      16.064 -10.190  12.385  1.00  0.00     0.012 A 
ATOM      4  C   UNL     1      13.602 -11.497  12.608  1.00  0.00     0.047 A 
ATOM      5  C   UNL     1      16.004 -11.586  12.332  1.00  0.00     0.047 A 
ATOM      6  C   UNL     1      14.772 -12.244  12.446  1.00  0.00     0.115 A 
ENDROOT
BRANCH   1   7
ATOM      7  C   UNL     1      14.895  -7.948  12.612  1.00  0.00     0.010 C 
ATOM      8  C   UNL     1      13.996  -7.222  13.291  1.00  0.00     0.025 C 
BRANCH   8   9
ATOM      9  C   UNL     1      14.033  -5.752  13.304  1.00  0.00     0.064 C 
ATOM     10  O   UNL     1      14.078  -5.122  12.215  1.00  0.00    -0.545 OA
ATOM     11  O   UNL     1      14.016  -5.044  14.501  1.00  0.00    -0.545 OA
ENDBRANCH   8   9
ENDBRANCH   1   7
BRANCH   6  12
ATOM     12  O   UNL     1      14.702 -13.634  12.398  1.00  0.00    -0.508 OA
ATOM     13  H   UNL     1      14.127 -14.158  13.047  1.00  0.00     0.293 HD
ENDBRANCH   6  12
TORSDOF 3
ENDMDL
MODEL 7
REMARK VINA RESULT:    -4.006      2.831      5.584
REMARK INTER + INTRA:          -4.738
REMARK INTER:                  -4.592
REMARK INTRA:                  -0.146
REMARK UNBOUND:                -0.146
REMARK SMILES O=C([O-])C=Cc1ccc(O)cc1
REMARK SMILES IDX 6 1 7 2 12 3 8 4 11 5 9 6 5 7 4 8 2 9 1 10 3 11 10 12
REMARK H PARENT 10 13
REMARK Flexibility Score: inf
ROOT
ATOM      1  C   UNL     1      16.455  -8.349  12.667  1.00  0.00    -0.025 A 
ATOM      2  C   UNL     1      17.794  -8.209  12.259  1.00  0.00     0.012 A 
ATOM      3  C   UNL     1      15.801  -7.240  13.243  1.00  0.00     0.012 A 
ATOM      4  C   UNL     1      18.471  -7.000  12.443  1.00  0.00     0.047 A 
ATOM      5  C   UNL     1      16.482  -6.032  13.423  1.00  0.00     0.047 A 
ATOM      6  C   UNL     1      17.820  -5.910  13.027  1.00  0.00     0.115 A 
ENDROOT
BRANCH   1   7
ATOM      7  C   UNL     1      15.777  -9.649  12.442  1.00  0.00     0.010 C 
ATOM      8  C   UNL     1      16.368 -10.839  12.623  1.00  0.00     0.025 C 
BRANCH   8   9
ATOM      9  C   UNL     1      15.660 -12.104  12.376  1.00  0.00     0.064 C 
ATOM     10  O   UNL     1      16.235 -13.196  12.623  1.00  0.00    -0.545 OA
ATOM     11  O   UNL     1      14.364 -12.115  11.875  1.00  0.00    -0.545 OA
ENDBRANCH   8   9
ENDBRANCH   1   7
BRANCH   6  12
ATOM     12  O   UNL     1      18.507  -4.711  13.205  1.00  0.00    -0.508 OA
ATOM     13  H   UNL     1      18.232  -3.866  12.719  1.00  0.00     0.293 HD
ENDBRANCH   6  12
TORSDOF 3
ENDMDL
MODEL 8
REMARK VINA RESULT:    -3.437      3.271      4.407
REMARK INTER + INTRA:          -4.086
REMARK INTER:                  -3.933
REMARK INTRA:                  -0.153
REMARK UNBOUND:                -0.146
REMARK SMILES O=C([O-])C=Cc1ccc(O)cc1
REMARK SMILES IDX 6 1 7 2 12 3 8 4 11 5 9 6 5 7 4 8 2 9 1 10 3 11 10 12
REMARK H PARENT 10 13
REMARK Flexibility Score: inf
ROOT
ATOM      1  C   UNL     1      16.231  -7.510  12.441  1.00  0.00    -0.025 A 
ATOM      2  C   UNL     1      16.717  -8.830  12.442  1.00  0.00     0.012 A 
ATOM      3  C   UNL     1      14.842  -7.298  12.555  1.00  0.00     0.012 A 
ATOM      4  C   UNL     1      15.836  -9.912  12.530  1.00  0.00     0.047 A 
ATOM      5  C   UNL     1      13.965  -8.384  12.644  1.00  0.00     0.047 A 
ATOM      6  C   UNL     1      14.460  -9.694  12.630  1.00  0.00     0.115 A 
ENDROOT
BRANCH   1   7
ATOM      7  C   UNL     1      17.206  -6.396  12.355  1.00  0.00     0.010 C 
ATOM      8  C   UNL     1      18.519  -6.569  12.147  1.00  0.00     0.025 C 
BRANCH   8   9
ATOM      9  C   UNL     1      19.452  -5.434  12.080  1.00  0.00     0.064 C 
ATOM     10  O   UNL     1      20.676  -5.647  11.876  1.00  0.00    -0.545 OA
ATOM     11  O   UNL     1      19.005  -4.127  12.237  1.00  0.00    -0.545 OA
ENDBRANCH   8   9
ENDBRANCH   1   7
BRANCH   6  12
ATOM     12  O   UNL     1      13.594 -10.782  12.716  1.00  0.00    -0.508 OA
ATOM     13  H   UNL     1      13.844 -11.689  12.339  1.00  0.00     0.293 HD
ENDBRANCH   6  12
TORSDOF 3
ENDMDL
