MODEL 1
REMARK VINA RESULT:    -6.805      0.000      0.000
REMARK INTER + INTRA:          -8.388
REMARK INTER:                  -8.197
REMARK INTRA:                  -0.191
REMARK UNBOUND:                -0.191
REMARK SMILES O=c1c(O)c(-c2ccc(O)c(O)c2)oc2cc(O)cc(O)c12
REMARK SMILES IDX 5 1 3 2 2 3 1 4 22 5 20 6 19 7 17 8 16 9 15 10 14 11 6 12
REMARK SMILES IDX 7 13 8 14 9 15 13 16 11 17 10 18 12 20 4 22 21 24 18 26
REMARK H PARENT 10 19 12 21 4 23 21 25 18 27
REMARK Flexibility Score: inf
ROOT
ATOM      1  C   UNL     1     169.569 143.410 154.110  1.00  0.00     0.180 A 
ATOM      2  C   UNL     1     169.469 144.781 153.814  1.00  0.00     0.208 A 
ATOM      3  C   UNL     1     169.691 145.210 152.495  1.00  0.00     0.238 A 
ATOM      4  O   UNL     1     169.547 146.431 152.225  1.00  0.00    -0.285 OA
ATOM      5  C   UNL     1     170.024 144.267 151.494  1.00  0.00     0.111 A 
ATOM      6  C   UNL     1     170.309 144.594 150.134  1.00  0.00     0.134 A 
ATOM      7  C   UNL     1     170.499 143.568 149.201  1.00  0.00     0.093 A 
ATOM      8  C   UNL     1     170.479 142.227 149.592  1.00  0.00     0.123 A 
ATOM      9  C   UNL     1     170.261 141.899 150.928  1.00  0.00     0.094 A 
ATOM     10  C   UNL     1     170.032 142.900 151.875  1.00  0.00     0.146 A 
ATOM     11  O   UNL     1     169.818 142.543 153.136  1.00  0.00    -0.452 OA
ENDROOT
BRANCH   1  12
ATOM     12  C   UNL     1     169.373 142.884 155.481  1.00  0.00     0.025 A 
ATOM     13  C   UNL     1     170.475 142.386 156.193  1.00  0.00     0.016 A 
ATOM     14  C   UNL     1     170.317 141.906 157.495  1.00  0.00     0.051 A 
ATOM     15  C   UNL     1     169.062 141.929 158.111  1.00  0.00     0.157 A 
ATOM     16  C   UNL     1     168.116 142.927 156.109  1.00  0.00     0.062 A 
ATOM     17  C   UNL     1     167.956 142.446 157.417  1.00  0.00     0.158 A 
BRANCH  15  18
ATOM     18  O   UNL     1     168.935 141.440 159.411  1.00  0.00    -0.504 OA
ATOM     19  H   UNL     1     168.568 140.516 159.604  1.00  0.00     0.293 HD
ENDBRANCH  15  18
BRANCH  17  20
ATOM     20  O   UNL     1     166.704 142.486 158.030  1.00  0.00    -0.504 OA
ATOM     21  H   UNL     1     166.438 143.244 158.647  1.00  0.00     0.293 HD
ENDBRANCH  17  20
ENDBRANCH   1  12
BRANCH   2  22
ATOM     22  O   UNL     1     169.117 145.692 154.813  1.00  0.00    -0.502 OA
ATOM     23  H   UNL     1     169.028 146.685 154.636  1.00  0.00     0.293 HD
ENDBRANCH   2  22
BRANCH   6  24
ATOM     24  O   UNL     1     170.442 145.902 149.658  1.00  0.00    -0.507 OA
ATOM     25  H   UNL     1     171.012 146.172 148.870  1.00  0.00     0.293 HD
ENDBRANCH   6  24
BRANCH   8  26
ATOM     26  O   UNL     1     170.685 141.211 148.660  1.00  0.00    -0.508 OA
ATOM     27  H   UNL     1     171.106 141.399 147.758  1.00  0.00     0.293 HD
ENDBRANCH   8  26
TORSDOF 6
ENDMDL
MODEL 2
REMARK VINA RESULT:    -6.801      1.734      6.838
REMARK INTER + INTRA:          -8.384
REMARK INTER:                  -8.130
REMARK INTRA:                  -0.253
REMARK UNBOUND:                -0.191
REMARK SMILES O=c1c(O)c(-c2ccc(O)c(O)c2)oc2cc(O)cc(O)c12
REMARK SMILES IDX 5 1 3 2 2 3 1 4 22 5 20 6 19 7 17 8 16 9 15 10 14 11 6 12
REMARK SMILES IDX 7 13 8 14 9 15 13 16 11 17 10 18 12 20 4 22 21 24 18 26
REMARK H PARENT 10 19 12 21 4 23 21 25 18 27
REMARK Flexibility Score: inf
ROOT
ATOM      1  C   UNL     1     170.092 143.893 153.353  1.00  0.00     0.180 A 
ATOM      2  C   UNL     1     171.115 144.634 153.971  1.00  0.00     0.208 A 
ATOM      3  C   UNL     1     171.066 144.835 155.361  1.00  0.00     0.238 A 
ATOM      4  O   UNL     1     172.012 145.451 155.916  1.00  0.00    -0.285 OA
ATOM      5  C   UNL     1     169.987 144.308 156.110  1.00  0.00     0.111 A 
ATOM      6  C   UNL     1     169.814 144.485 157.516  1.00  0.00     0.134 A 
ATOM      7  C   UNL     1     168.779 143.811 158.176  1.00  0.00     0.093 A 
ATOM      8  C   UNL     1     167.872 143.017 157.470  1.00  0.00     0.123 A 
ATOM      9  C   UNL     1     167.997 142.885 156.089  1.00  0.00     0.094 A 
ATOM     10  C   UNL     1     169.041 143.517 155.408  1.00  0.00     0.146 A 
ATOM     11  O   UNL     1     169.129 143.357 154.093  1.00  0.00    -0.452 OA
ENDROOT
BRANCH   1  12
ATOM     12  C   UNL     1     170.063 143.660 151.891  1.00  0.00     0.025 A 
ATOM     13  C   UNL     1     169.733 144.718 151.029  1.00  0.00     0.016 A 
ATOM     14  C   UNL     1     169.720 144.526 149.646  1.00  0.00     0.051 A 
ATOM     15  C   UNL     1     170.052 143.281 149.101  1.00  0.00     0.157 A 
ATOM     16  C   UNL     1     170.416 142.415 151.341  1.00  0.00     0.062 A 
ATOM     17  C   UNL     1     170.405 142.220 149.951  1.00  0.00     0.158 A 
BRANCH  15  18
ATOM     18  O   UNL     1     170.027 143.119 147.716  1.00  0.00    -0.504 OA
ATOM     19  H   UNL     1     170.816 143.368 147.132  1.00  0.00     0.293 HD
ENDBRANCH  15  18
BRANCH  17  20
ATOM     20  O   UNL     1     170.750 140.981 149.415  1.00  0.00    -0.504 OA
ATOM     21  H   UNL     1     170.956 140.184 150.007  1.00  0.00     0.293 HD
ENDBRANCH  17  20
ENDBRANCH   1  12
BRANCH   2  22
ATOM     22  O   UNL     1     172.183 145.125 153.215  1.00  0.00    -0.502 OA
ATOM     23  H   UNL     1     172.503 144.671 152.368  1.00  0.00     0.293 HD
ENDBRANCH   2  22
BRANCH   6  24
ATOM     24  O   UNL     1     170.608 145.328 158.299  1.00  0.00    -0.507 OA
ATOM     25  H   UNL     1     170.468 146.323 158.397  1.00  0.00     0.293 HD
ENDBRANCH   6  24
BRANCH   8  26
ATOM     26  O   UNL     1     166.836 142.361 158.131  1.00  0.00    -0.508 OA
ATOM     27  H   UNL     1     166.943 141.413 158.474  1.00  0.00     0.293 HD
ENDBRANCH   8  26
TORSDOF 6
ENDMDL
MODEL 3
REMARK VINA RESULT:    -6.790      2.160      3.242
REMARK INTER + INTRA:          -8.370
REMARK INTER:                  -8.079
REMARK INTRA:                  -0.291
REMARK UNBOUND:                -0.191
REMARK SMILES O=c1c(O)c(-c2ccc(O)c(O)c2)oc2cc(O)cc(O)c12
REMARK SMILES IDX 5 1 3 2 2 3 1 4 22 5 20 6 19 7 17 8 16 9 15 10 14 11 6 12
REMARK SMILES IDX 7 13 8 14 9 15 13 16 11 17 10 18 12 20 4 22 21 24 18 26
REMARK H PARENT 10 19 12 21 4 23 21 25 18 27
REMARK Flexibility Score: inf
ROOT
ATOM      1  C   UNL     1     170.123 143.662 152.537  1.00  0.00     0.180 A 
ATOM      2  C   UNL     1     171.381 143.034 152.528  1.00  0.00     0.208 A 
ATOM      3  C   UNL     1     172.054 142.875 151.305  1.00  0.00     0.238 A 
ATOM      4  O   UNL     1     173.203 142.362 151.310  1.00  0.00    -0.285 OA
ATOM      5  C   UNL     1     171.453 143.331 150.107  1.00  0.00     0.111 A 
ATOM      6  C   UNL     1     172.026 143.185 148.808  1.00  0.00     0.134 A 
ATOM      7  C   UNL     1     171.405 143.788 147.707  1.00  0.00     0.093 A 
ATOM      8  C   UNL     1     170.198 144.476 147.850  1.00  0.00     0.123 A 
ATOM      9  C   UNL     1     169.600 144.573 149.104  1.00  0.00     0.094 A 
ATOM     10  C   UNL     1     170.214 144.012 150.227  1.00  0.00     0.146 A 
ATOM     11  O   UNL     1     169.617 144.136 151.406  1.00  0.00    -0.452 OA
ENDROOT
BRANCH   1  12
ATOM     12  C   UNL     1     169.343 143.844 153.783  1.00  0.00     0.025 A 
ATOM     13  C   UNL     1     169.256 145.119 154.364  1.00  0.00     0.016 A 
ATOM     14  C   UNL     1     168.508 145.317 155.527  1.00  0.00     0.051 A 
ATOM     15  C   UNL     1     167.824 144.251 156.118  1.00  0.00     0.157 A 
ATOM     16  C   UNL     1     168.637 142.777 154.367  1.00  0.00     0.062 A 
ATOM     17  C   UNL     1     167.884 142.974 155.534  1.00  0.00     0.158 A 
BRANCH  15  18
ATOM     18  O   UNL     1     167.087 144.479 157.280  1.00  0.00    -0.504 OA
ATOM     19  H   UNL     1     167.381 145.149 157.980  1.00  0.00     0.293 HD
ENDBRANCH  15  18
BRANCH  17  20
ATOM     20  O   UNL     1     167.193 141.909 156.110  1.00  0.00    -0.504 OA
ATOM     21  H   UNL     1     167.387 141.598 157.054  1.00  0.00     0.293 HD
ENDBRANCH  17  20
ENDBRANCH   1  12
BRANCH   2  22
ATOM     22  O   UNL     1     171.965 142.613 153.726  1.00  0.00    -0.502 OA
ATOM     23  H   UNL     1     171.972 143.190 154.559  1.00  0.00     0.293 HD
ENDBRANCH   2  22
BRANCH   6  24
ATOM     24  O   UNL     1     173.179 142.441 148.542  1.00  0.00    -0.507 OA
ATOM     25  H   UNL     1     174.117 142.814 148.542  1.00  0.00     0.293 HD
ENDBRANCH   6  24
BRANCH   8  26
ATOM     26  O   UNL     1     169.578 145.061 146.747  1.00  0.00    -0.508 OA
ATOM     27  H   UNL     1     169.672 144.669 145.817  1.00  0.00     0.293 HD
ENDBRANCH   8  26
TORSDOF 6
ENDMDL
MODEL 4
REMARK VINA RESULT:    -6.662      1.947      6.867
REMARK INTER + INTRA:          -8.216
REMARK INTER:                  -7.949
REMARK INTRA:                  -0.267
REMARK UNBOUND:                -0.191
REMARK SMILES O=c1c(O)c(-c2ccc(O)c(O)c2)oc2cc(O)cc(O)c12
REMARK SMILES IDX 5 1 3 2 2 3 1 4 22 5 20 6 19 7 17 8 16 9 15 10 14 11 6 12
REMARK SMILES IDX 7 13 8 14 9 15 13 16 11 17 10 18 12 20 4 22 21 24 18 26
REMARK H PARENT 10 19 12 21 4 23 21 25 18 27
REMARK Flexibility Score: inf
ROOT
ATOM      1  C   UNL     1     170.732 144.149 152.928  1.00  0.00     0.180 A 
ATOM      2  C   UNL     1     171.443 144.874 153.900  1.00  0.00     0.208 A 
ATOM      3  C   UNL     1     171.023 144.811 155.239  1.00  0.00     0.238 A 
ATOM      4  O   UNL     1     171.696 145.418 156.113  1.00  0.00    -0.285 OA
ATOM      5  C   UNL     1     169.889 144.038 155.585  1.00  0.00     0.111 A 
ATOM      6  C   UNL     1     169.350 143.936 156.903  1.00  0.00     0.134 A 
ATOM      7  C   UNL     1     168.303 143.040 157.154  1.00  0.00     0.093 A 
ATOM      8  C   UNL     1     167.733 142.292 156.122  1.00  0.00     0.123 A 
ATOM      9  C   UNL     1     168.212 142.429 154.821  1.00  0.00     0.094 A 
ATOM     10  C   UNL     1     169.279 143.288 154.546  1.00  0.00     0.146 A 
ATOM     11  O   UNL     1     169.713 143.381 153.295  1.00  0.00    -0.452 OA
ENDROOT
BRANCH   1  12
ATOM     12  C   UNL     1     171.100 144.184 151.493  1.00  0.00     0.025 A 
ATOM     13  C   UNL     1     171.663 143.045 150.896  1.00  0.00     0.016 A 
ATOM     14  C   UNL     1     171.997 143.050 149.540  1.00  0.00     0.051 A 
ATOM     15  C   UNL     1     171.761 144.184 148.757  1.00  0.00     0.157 A 
ATOM     16  C   UNL     1     170.843 145.317 150.700  1.00  0.00     0.062 A 
ATOM     17  C   UNL     1     171.177 145.323 149.337  1.00  0.00     0.158 A 
BRANCH  15  18
ATOM     18  O   UNL     1     172.108 144.160 147.407  1.00  0.00    -0.504 OA
ATOM     19  H   UNL     1     171.431 144.338 146.674  1.00  0.00     0.293 HD
ENDBRANCH  15  18
BRANCH  17  20
ATOM     20  O   UNL     1     170.925 146.452 148.560  1.00  0.00    -0.504 OA
ATOM     21  H   UNL     1     170.001 146.863 148.503  1.00  0.00     0.293 HD
ENDBRANCH  17  20
ENDBRANCH   1  12
BRANCH   2  22
ATOM     22  O   UNL     1     172.574 145.611 153.539  1.00  0.00    -0.502 OA
ATOM     23  H   UNL     1     173.300 145.235 152.941  1.00  0.00     0.293 HD
ENDBRANCH   2  22
BRANCH   6  24
ATOM     24  O   UNL     1     169.785 144.705 157.986  1.00  0.00    -0.507 OA
ATOM     25  H   UNL     1     170.145 144.329 158.851  1.00  0.00     0.293 HD
ENDBRANCH   6  24
BRANCH   8  26
ATOM     26  O   UNL     1     166.681 141.414 156.376  1.00  0.00    -0.508 OA
ATOM     27  H   UNL     1     166.799 140.410 156.297  1.00  0.00     0.293 HD
ENDBRANCH   8  26
TORSDOF 6
ENDMDL
MODEL 5
REMARK VINA RESULT:    -6.489      1.939      3.475
REMARK INTER + INTRA:          -8.008
REMARK INTER:                  -7.726
REMARK INTRA:                  -0.282
REMARK UNBOUND:                -0.191
REMARK SMILES O=c1c(O)c(-c2ccc(O)c(O)c2)oc2cc(O)cc(O)c12
REMARK SMILES IDX 5 1 3 2 2 3 1 4 22 5 20 6 19 7 17 8 16 9 15 10 14 11 6 12
REMARK SMILES IDX 7 13 8 14 9 15 13 16 11 17 10 18 12 20 4 22 21 24 18 26
REMARK H PARENT 10 19 12 21 4 23 21 25 18 27
REMARK Flexibility Score: inf
ROOT
ATOM      1  C   UNL     1     170.351 143.315 152.844  1.00  0.00     0.180 A 
ATOM      2  C   UNL     1     171.127 142.168 152.600  1.00  0.00     0.208 A 
ATOM      3  C   UNL     1     171.755 142.024 151.351  1.00  0.00     0.238 A 
ATOM      4  O   UNL     1     172.493 141.023 151.157  1.00  0.00    -0.285 OA
ATOM      5  C   UNL     1     171.586 143.020 150.360  1.00  0.00     0.111 A 
ATOM      6  C   UNL     1     172.142 142.959 149.046  1.00  0.00     0.134 A 
ATOM      7  C   UNL     1     172.019 144.060 148.191  1.00  0.00     0.093 A 
ATOM      8  C   UNL     1     171.303 145.196 148.578  1.00  0.00     0.123 A 
ATOM      9  C   UNL     1     170.706 145.242 149.835  1.00  0.00     0.094 A 
ATOM     10  C   UNL     1     170.842 144.172 150.724  1.00  0.00     0.146 A 
ATOM     11  O   UNL     1     170.266 144.261 151.917  1.00  0.00    -0.452 OA
ENDROOT
BRANCH   1  12
ATOM     12  C   UNL     1     169.639 143.525 154.126  1.00  0.00     0.025 A 
ATOM     13  C   UNL     1     168.451 142.822 154.379  1.00  0.00     0.016 A 
ATOM     14  C   UNL     1     167.775 142.989 155.590  1.00  0.00     0.051 A 
ATOM     15  C   UNL     1     168.282 143.846 156.571  1.00  0.00     0.157 A 
ATOM     16  C   UNL     1     170.159 144.370 155.122  1.00  0.00     0.062 A 
ATOM     17  C   UNL     1     169.482 144.538 156.339  1.00  0.00     0.158 A 
BRANCH  15  18
ATOM     18  O   UNL     1     167.583 143.994 157.769  1.00  0.00    -0.504 OA
ATOM     19  H   UNL     1     166.629 144.333 157.796  1.00  0.00     0.293 HD
ENDBRANCH  15  18
BRANCH  17  20
ATOM     20  O   UNL     1     170.002 145.383 157.319  1.00  0.00    -0.504 OA
ATOM     21  H   UNL     1     170.688 145.060 157.991  1.00  0.00     0.293 HD
ENDBRANCH  17  20
ENDBRANCH   1  12
BRANCH   2  22
ATOM     22  O   UNL     1     171.299 141.209 153.601  1.00  0.00    -0.502 OA
ATOM     23  H   UNL     1     172.139 140.648 153.678  1.00  0.00     0.293 HD
ENDBRANCH   2  22
BRANCH   6  24
ATOM     24  O   UNL     1     172.796 141.837 148.528  1.00  0.00    -0.507 OA
ATOM     25  H   UNL     1     172.824 140.931 148.972  1.00  0.00     0.293 HD
ENDBRANCH   6  24
BRANCH   8  26
ATOM     26  O   UNL     1     171.171 146.282 147.715  1.00  0.00    -0.508 OA
ATOM     27  H   UNL     1     171.789 146.405 146.922  1.00  0.00     0.293 HD
ENDBRANCH   8  26
TORSDOF 6
ENDMDL
MODEL 6
REMARK VINA RESULT:    -6.472      3.003      3.405
REMARK INTER + INTRA:          -7.987
REMARK INTER:                  -7.657
REMARK INTRA:                  -0.331
REMARK UNBOUND:                -0.191
REMARK SMILES O=c1c(O)c(-c2ccc(O)c(O)c2)oc2cc(O)cc(O)c12
REMARK SMILES IDX 5 1 3 2 2 3 1 4 22 5 20 6 19 7 17 8 16 9 15 10 14 11 6 12
REMARK SMILES IDX 7 13 8 14 9 15 13 16 11 17 10 18 12 20 4 22 21 24 18 26
REMARK H PARENT 10 19 12 21 4 23 21 25 18 27
REMARK Flexibility Score: inf
ROOT
ATOM      1  C   UNL     1     170.691 145.034 155.595  1.00  0.00     0.180 A 
ATOM      2  C   UNL     1     169.661 145.689 154.897  1.00  0.00     0.208 A 
ATOM      3  C   UNL     1     169.592 145.554 153.500  1.00  0.00     0.238 A 
ATOM      4  O   UNL     1     168.637 146.098 152.887  1.00  0.00    -0.285 OA
ATOM      5  C   UNL     1     170.562 144.780 152.819  1.00  0.00     0.111 A 
ATOM      6  C   UNL     1     170.614 144.608 151.403  1.00  0.00     0.134 A 
ATOM      7  C   UNL     1     171.539 143.716 150.848  1.00  0.00     0.093 A 
ATOM      8  C   UNL     1     172.458 143.039 151.653  1.00  0.00     0.123 A 
ATOM      9  C   UNL     1     172.456 143.246 153.030  1.00  0.00     0.094 A 
ATOM     10  C   UNL     1     171.521 144.103 153.617  1.00  0.00     0.146 A 
ATOM     11  O   UNL     1     171.546 144.263 154.934  1.00  0.00    -0.452 OA
ENDROOT
BRANCH   1  12
ATOM     12  C   UNL     1     170.843 145.149 157.064  1.00  0.00     0.025 A 
ATOM     13  C   UNL     1     170.236 144.196 157.898  1.00  0.00     0.016 A 
ATOM     14  C   UNL     1     170.385 144.273 159.284  1.00  0.00     0.051 A 
ATOM     15  C   UNL     1     171.152 145.291 159.858  1.00  0.00     0.157 A 
ATOM     16  C   UNL     1     171.632 146.160 157.641  1.00  0.00     0.062 A 
ATOM     17  C   UNL     1     171.783 146.237 159.034  1.00  0.00     0.158 A 
BRANCH  15  18
ATOM     18  O   UNL     1     171.280 145.343 161.246  1.00  0.00    -0.504 OA
ATOM     19  H   UNL     1     170.833 144.667 161.853  1.00  0.00     0.293 HD
ENDBRANCH  15  18
BRANCH  17  20
ATOM     20  O   UNL     1     172.562 147.247 159.598  1.00  0.00    -0.504 OA
ATOM     21  H   UNL     1     173.307 147.696 159.079  1.00  0.00     0.293 HD
ENDBRANCH  17  20
ENDBRANCH   1  12
BRANCH   2  22
ATOM     22  O   UNL     1     168.701 146.429 155.592  1.00  0.00    -0.502 OA
ATOM     23  H   UNL     1     167.882 146.002 156.007  1.00  0.00     0.293 HD
ENDBRANCH   2  22
BRANCH   6  24
ATOM     24  O   UNL     1     169.803 145.305 150.503  1.00  0.00    -0.507 OA
ATOM     25  H   UNL     1     168.841 145.075 150.298  1.00  0.00     0.293 HD
ENDBRANCH   6  24
BRANCH   8  26
ATOM     26  O   UNL     1     173.386 142.164 151.092  1.00  0.00    -0.508 OA
ATOM     27  H   UNL     1     174.117 141.739 151.650  1.00  0.00     0.293 HD
ENDBRANCH   8  26
TORSDOF 6
ENDMDL
MODEL 7
REMARK VINA RESULT:    -6.424      3.647      7.751
REMARK INTER + INTRA:          -7.929
REMARK INTER:                  -7.713
REMARK INTRA:                  -0.216
REMARK UNBOUND:                -0.191
REMARK SMILES O=c1c(O)c(-c2ccc(O)c(O)c2)oc2cc(O)cc(O)c12
REMARK SMILES IDX 5 1 3 2 2 3 1 4 22 5 20 6 19 7 17 8 16 9 15 10 14 11 6 12
REMARK SMILES IDX 7 13 8 14 9 15 13 16 11 17 10 18 12 20 4 22 21 24 18 26
REMARK H PARENT 10 19 12 21 4 23 21 25 18 27
REMARK Flexibility Score: inf
ROOT
ATOM      1  C   UNL     1     171.043 145.157 155.769  1.00  0.00     0.180 A 
ATOM      2  C   UNL     1     170.137 144.636 156.709  1.00  0.00     0.208 A 
ATOM      3  C   UNL     1     170.502 144.613 158.066  1.00  0.00     0.238 A 
ATOM      4  O   UNL     1     169.666 144.196 158.910  1.00  0.00    -0.285 OA
ATOM      5  C   UNL     1     171.773 145.095 158.461  1.00  0.00     0.111 A 
ATOM      6  C   UNL     1     172.264 145.081 159.801  1.00  0.00     0.134 A 
ATOM      7  C   UNL     1     173.483 145.702 160.097  1.00  0.00     0.093 A 
ATOM      8  C   UNL     1     174.260 146.279 159.090  1.00  0.00     0.123 A 
ATOM      9  C   UNL     1     173.818 146.244 157.770  1.00  0.00     0.094 A 
ATOM     10  C   UNL     1     172.589 145.663 157.449  1.00  0.00     0.146 A 
ATOM     11  O   UNL     1     172.200 145.661 156.180  1.00  0.00    -0.452 OA
ENDROOT
BRANCH   1  12
ATOM     12  C   UNL     1     170.739 145.193 154.320  1.00  0.00     0.025 A 
ATOM     13  C   UNL     1     169.788 146.106 153.836  1.00  0.00     0.016 A 
ATOM     14  C   UNL     1     169.502 146.171 152.470  1.00  0.00     0.051 A 
ATOM     15  C   UNL     1     170.171 145.340 151.566  1.00  0.00     0.157 A 
ATOM     16  C   UNL     1     171.426 144.373 153.407  1.00  0.00     0.062 A 
ATOM     17  C   UNL     1     171.141 144.439 152.035  1.00  0.00     0.158 A 
BRANCH  15  18
ATOM     18  O   UNL     1     169.861 145.426 150.209  1.00  0.00    -0.504 OA
ATOM     19  H   UNL     1     170.510 145.129 149.490  1.00  0.00     0.293 HD
ENDBRANCH  15  18
BRANCH  17  20
ATOM     20  O   UNL     1     171.822 143.616 151.138  1.00  0.00    -0.504 OA
ATOM     21  H   UNL     1     171.785 142.606 151.210  1.00  0.00     0.293 HD
ENDBRANCH  17  20
ENDBRANCH   1  12
BRANCH   2  22
ATOM     22  O   UNL     1     168.878 144.187 156.300  1.00  0.00    -0.502 OA
ATOM     23  H   UNL     1     168.372 144.615 155.534  1.00  0.00     0.293 HD
ENDBRANCH   2  22
BRANCH   6  24
ATOM     24  O   UNL     1     171.610 144.452 160.865  1.00  0.00    -0.507 OA
ATOM     25  H   UNL     1     170.868 143.775 160.765  1.00  0.00     0.293 HD
ENDBRANCH   6  24
BRANCH   8  26
ATOM     26  O   UNL     1     175.480 146.881 159.390  1.00  0.00    -0.508 OA
ATOM     27  H   UNL     1     176.309 146.704 158.834  1.00  0.00     0.293 HD
ENDBRANCH   8  26
TORSDOF 6
ENDMDL
MODEL 8
REMARK VINA RESULT:    -6.381      2.333      7.261
REMARK INTER + INTRA:          -7.877
REMARK INTER:                  -7.549
REMARK INTRA:                  -0.329
REMARK UNBOUND:                -0.191
REMARK SMILES O=c1c(O)c(-c2ccc(O)c(O)c2)oc2cc(O)cc(O)c12
REMARK SMILES IDX 5 1 3 2 2 3 1 4 22 5 20 6 19 7 17 8 16 9 15 10 14 11 6 12
REMARK SMILES IDX 7 13 8 14 9 15 13 16 11 17 10 18 12 20 4 22 21 24 18 26
REMARK H PARENT 10 19 12 21 4 23 21 25 18 27
REMARK Flexibility Score: inf
ROOT
ATOM      1  C   UNL     1     170.289 143.837 153.895  1.00  0.00     0.180 A 
ATOM      2  C   UNL     1     169.509 142.887 154.577  1.00  0.00     0.208 A 
ATOM      3  C   UNL     1     169.427 142.954 155.978  1.00  0.00     0.238 A 
ATOM      4  O   UNL     1     168.683 142.135 156.579  1.00  0.00    -0.285 OA
ATOM      5  C   UNL     1     170.138 143.957 156.677  1.00  0.00     0.111 A 
ATOM      6  C   UNL     1     170.160 144.094 158.098  1.00  0.00     0.134 A 
ATOM      7  C   UNL     1     170.792 145.201 158.677  1.00  0.00     0.093 A 
ATOM      8  C   UNL     1     171.459 146.143 157.889  1.00  0.00     0.123 A 
ATOM      9  C   UNL     1     171.494 145.986 156.505  1.00  0.00     0.094 A 
ATOM     10  C   UNL     1     170.842 144.911 155.897  1.00  0.00     0.146 A 
ATOM     11  O   UNL     1     170.891 144.805 154.574  1.00  0.00    -0.452 OA
ENDROOT
BRANCH   1  12
ATOM     12  C   UNL     1     170.444 143.816 152.421  1.00  0.00     0.025 A 
ATOM     13  C   UNL     1     169.553 144.550 151.623  1.00  0.00     0.016 A 
ATOM     14  C   UNL     1     169.693 144.562 150.234  1.00  0.00     0.051 A 
ATOM     15  C   UNL     1     170.733 143.856 149.621  1.00  0.00     0.157 A 
ATOM     16  C   UNL     1     171.501 143.123 151.806  1.00  0.00     0.062 A 
ATOM     17  C   UNL     1     171.645 143.135 150.410  1.00  0.00     0.158 A 
BRANCH  15  18
ATOM     18  O   UNL     1     170.846 143.884 148.232  1.00  0.00    -0.504 OA
ATOM     19  H   UNL     1     170.105 143.554 147.625  1.00  0.00     0.293 HD
ENDBRANCH  15  18
BRANCH  17  20
ATOM     20  O   UNL     1     172.693 142.440 149.808  1.00  0.00    -0.504 OA
ATOM     21  H   UNL     1     172.572 141.497 149.457  1.00  0.00     0.293 HD
ENDBRANCH  17  20
ENDBRANCH   1  12
BRANCH   2  22
ATOM     22  O   UNL     1     168.797 141.919 153.864  1.00  0.00    -0.502 OA
ATOM     23  H   UNL     1     167.921 141.534 154.197  1.00  0.00     0.293 HD
ENDBRANCH   2  22
BRANCH   6  24
ATOM     24  O   UNL     1     169.604 143.163 158.980  1.00  0.00    -0.507 OA
ATOM     25  H   UNL     1     169.748 142.165 158.929  1.00  0.00     0.293 HD
ENDBRANCH   6  24
BRANCH   8  26
ATOM     26  O   UNL     1     172.098 147.234 158.473  1.00  0.00    -0.508 OA
ATOM     27  H   UNL     1     173.102 147.248 158.610  1.00  0.00     0.293 HD
ENDBRANCH   8  26
TORSDOF 6
ENDMDL
MODEL 9
REMARK VINA RESULT:    -6.276      3.578      5.547
REMARK INTER + INTRA:          -7.751
REMARK INTER:                  -7.473
REMARK INTRA:                  -0.278
REMARK UNBOUND:                -0.191
REMARK SMILES O=c1c(O)c(-c2ccc(O)c(O)c2)oc2cc(O)cc(O)c12
REMARK SMILES IDX 5 1 3 2 2 3 1 4 22 5 20 6 19 7 17 8 16 9 15 10 14 11 6 12
REMARK SMILES IDX 7 13 8 14 9 15 13 16 11 17 10 18 12 20 4 22 21 24 18 26
REMARK H PARENT 10 19 12 21 4 23 21 25 18 27
REMARK Flexibility Score: inf
ROOT
ATOM      1  C   UNL     1     171.121 144.628 157.466  1.00  0.00     0.180 A 
ATOM      2  C   UNL     1     169.936 143.932 157.763  1.00  0.00     0.208 A 
ATOM      3  C   UNL     1     168.900 143.918 156.814  1.00  0.00     0.238 A 
ATOM      4  O   UNL     1     167.863 143.248 157.062  1.00  0.00    -0.285 OA
ATOM      5  C   UNL     1     169.056 144.612 155.591  1.00  0.00     0.111 A 
ATOM      6  C   UNL     1     168.057 144.700 154.575  1.00  0.00     0.134 A 
ATOM      7  C   UNL     1     168.367 145.303 153.350  1.00  0.00     0.093 A 
ATOM      8  C   UNL     1     169.619 145.880 153.129  1.00  0.00     0.123 A 
ATOM      9  C   UNL     1     170.582 145.853 154.135  1.00  0.00     0.094 A 
ATOM     10  C   UNL     1     170.314 145.226 155.355  1.00  0.00     0.146 A 
ATOM     11  O   UNL     1     171.262 145.214 156.284  1.00  0.00    -0.452 OA
ENDROOT
BRANCH   1  12
ATOM     12  C   UNL     1     172.248 144.708 158.425  1.00  0.00     0.025 A 
ATOM     13  C   UNL     1     172.410 145.864 159.205  1.00  0.00     0.016 A 
ATOM     14  C   UNL     1     173.452 145.952 160.131  1.00  0.00     0.051 A 
ATOM     15  C   UNL     1     174.337 144.884 160.304  1.00  0.00     0.157 A 
ATOM     16  C   UNL     1     173.126 143.626 158.615  1.00  0.00     0.062 A 
ATOM     17  C   UNL     1     174.172 143.713 159.546  1.00  0.00     0.158 A 
BRANCH  15  18
ATOM     18  O   UNL     1     175.369 145.003 161.233  1.00  0.00    -0.504 OA
ATOM     19  H   UNL     1     176.326 144.758 161.009  1.00  0.00     0.293 HD
ENDBRANCH  15  18
BRANCH  17  20
ATOM     20  O   UNL     1     175.043 142.638 159.722  1.00  0.00    -0.504 OA
ATOM     21  H   UNL     1     174.718 141.679 159.687  1.00  0.00     0.293 HD
ENDBRANCH  17  20
ENDBRANCH   1  12
BRANCH   2  22
ATOM     22  O   UNL     1     169.813 143.234 158.967  1.00  0.00    -0.502 OA
ATOM     23  H   UNL     1     169.029 142.623 159.163  1.00  0.00     0.293 HD
ENDBRANCH   2  22
BRANCH   6  24
ATOM     24  O   UNL     1     166.747 144.237 154.728  1.00  0.00    -0.507 OA
ATOM     25  H   UNL     1     166.147 143.947 153.970  1.00  0.00     0.293 HD
ENDBRANCH   6  24
BRANCH   8  26
ATOM     26  O   UNL     1     169.915 146.493 151.912  1.00  0.00    -0.508 OA
ATOM     27  H   UNL     1     169.590 147.428 151.698  1.00  0.00     0.293 HD
ENDBRANCH   8  26
TORSDOF 6
ENDMDL
