MODEL 1
REMARK VINA RESULT:    -4.283      0.000      0.000
REMARK INTER + INTRA:         -10.405
REMARK INTER:                  -9.292
REMARK INTRA:                  -1.113
REMARK UNBOUND:                -1.113
REMARK SMILES CCCCCCCCCCCCCCCCCCCCCC(=O)[O-]
REMARK SMILES IDX 12 1 11 2 10 3 9 4 8 5 7 6 6 7 5 8 4 9 3 10 2 11 1 12 13 13
REMARK SMILES IDX 14 14 15 15 16 16 17 17 18 18 19 19 20 20 21 21 22 22 23 23
REMARK SMILES IDX 24 24
REMARK H PARENT
REMARK Flexibility Score: inf
ROOT
ATOM      1  C   UNL     1       1.118  16.010  22.014  1.00  0.00     0.000 C 
ENDROOT
BRANCH   1   2
ATOM      2  C   UNL     1      -0.243  16.369  22.639  1.00  0.00     0.000 C 
BRANCH   2   3
ATOM      3  C   UNL     1      -1.329  16.609  21.576  1.00  0.00     0.000 C 
BRANCH   3   4
ATOM      4  C   UNL     1      -2.676  15.975  21.964  1.00  0.00    -0.000 C 
BRANCH   4   5
ATOM      5  C   UNL     1      -3.733  17.020  22.348  1.00  0.00    -0.000 C 
BRANCH   5   6
ATOM      6  C   UNL     1      -5.143  16.418  22.483  1.00  0.00    -0.000 C 
BRANCH   6   7
ATOM      7  C   UNL     1      -5.383  15.236  21.526  1.00  0.00    -0.000 C 
BRANCH   7   8
ATOM      8  C   UNL     1      -6.859  14.972  21.178  1.00  0.00    -0.000 C 
BRANCH   8   9
ATOM      9  C   UNL     1      -7.833  15.605  22.182  1.00  0.00    -0.000 C 
BRANCH   9  10
ATOM     10  C   UNL     1      -8.741  16.632  21.490  1.00  0.00    -0.000 C 
BRANCH  10  11
ATOM     11  C   UNL     1      -8.138  17.170  20.182  1.00  0.00    -0.003 C 
ATOM     12  C   UNL     1      -8.433  18.654  19.963  1.00  0.00     0.004 C 
ENDBRANCH  10  11
ENDBRANCH   9  10
ENDBRANCH   8   9
ENDBRANCH   7   8
ENDBRANCH   6   7
ENDBRANCH   5   6
ENDBRANCH   4   5
ENDBRANCH   3   4
ENDBRANCH   2   3
ENDBRANCH   1   2
BRANCH   1  13
ATOM     13  C   UNL     1       2.264  16.021  23.037  1.00  0.00     0.000 C 
BRANCH  13  14
ATOM     14  C   UNL     1       3.632  15.718  22.404  1.00  0.00     0.000 C 
BRANCH  14  15
ATOM     15  C   UNL     1       4.073  16.793  21.394  1.00  0.00     0.000 C 
BRANCH  15  16
ATOM     16  C   UNL     1       5.575  16.792  21.045  1.00  0.00     0.000 C 
BRANCH  16  17
ATOM     17  C   UNL     1       6.449  15.861  21.905  1.00  0.00     0.000 C 
BRANCH  17  18
ATOM     18  C   UNL     1       7.868  16.415  22.129  1.00  0.00     0.000 C 
BRANCH  18  19
ATOM     19  C   UNL     1       8.396  17.205  20.919  1.00  0.00     0.000 C 
BRANCH  19  20
ATOM     20  C   UNL     1       9.780  16.728  20.453  1.00  0.00     0.006 C 
BRANCH  20  21
ATOM     21  C   UNL     1      10.083  15.323  20.979  1.00  0.00     0.053 C 
BRANCH  21  22
ATOM     22  C   UNL     1      10.465  14.412  19.855  1.00  0.00     0.041 C 
ATOM     23  O   UNL     1      10.972  14.882  18.800  1.00  0.00    -0.550 OA
ATOM     24  O   UNL     1      10.206  13.049  19.947  1.00  0.00    -0.550 OA
ENDBRANCH  21  22
ENDBRANCH  20  21
ENDBRANCH  19  20
ENDBRANCH  18  19
ENDBRANCH  17  18
ENDBRANCH  16  17
ENDBRANCH  15  16
ENDBRANCH  14  15
ENDBRANCH  13  14
ENDBRANCH   1  13
TORSDOF 20
ENDMDL
MODEL 2
REMARK VINA RESULT:    -4.254      5.685     13.761
REMARK INTER + INTRA:         -10.342
REMARK INTER:                  -8.972
REMARK INTRA:                  -1.370
REMARK UNBOUND:                -1.113
REMARK SMILES CCCCCCCCCCCCCCCCCCCCCC(=O)[O-]
REMARK SMILES IDX 12 1 11 2 10 3 9 4 8 5 7 6 6 7 5 8 4 9 3 10 2 11 1 12 13 13
REMARK SMILES IDX 14 14 15 15 16 16 17 17 18 18 19 19 20 20 21 21 22 22 23 23
REMARK SMILES IDX 24 24
REMARK H PARENT
REMARK Flexibility Score: inf
ROOT
ATOM      1  C   UNL     1       2.695  16.264  22.919  1.00  0.00     0.000 C 
ENDROOT
BRANCH   1   2
ATOM      2  C   UNL     1       4.050  15.563  22.708  1.00  0.00     0.000 C 
BRANCH   2   3
ATOM      3  C   UNL     1       4.924  16.284  21.668  1.00  0.00     0.000 C 
BRANCH   3   4
ATOM      4  C   UNL     1       6.420  16.228  22.025  1.00  0.00    -0.000 C 
BRANCH   4   5
ATOM      5  C   UNL     1       7.319  16.727  20.885  1.00  0.00    -0.000 C 
BRANCH   5   6
ATOM      6  C   UNL     1       8.694  17.210  21.379  1.00  0.00    -0.000 C 
BRANCH   6   7
ATOM      7  C   UNL     1       9.738  17.301  20.251  1.00  0.00    -0.000 C 
BRANCH   7   8
ATOM      8  C   UNL     1      10.444  15.976  19.912  1.00  0.00    -0.000 C 
BRANCH   8   9
ATOM      9  C   UNL     1      10.970  15.242  21.153  1.00  0.00    -0.000 C 
BRANCH   9  10
ATOM     10  C   UNL     1      10.615  13.749  21.097  1.00  0.00    -0.000 C 
BRANCH  10  11
ATOM     11  C   UNL     1       9.098  13.499  21.130  1.00  0.00    -0.003 C 
ATOM     12  C   UNL     1       8.573  13.241  22.543  1.00  0.00     0.004 C 
ENDBRANCH  10  11
ENDBRANCH   9  10
ENDBRANCH   8   9
ENDBRANCH   7   8
ENDBRANCH   6   7
ENDBRANCH   5   6
ENDBRANCH   4   5
ENDBRANCH   3   4
ENDBRANCH   2   3
ENDBRANCH   1   2
BRANCH   1  13
ATOM     13  C   UNL     1       1.705  16.002  21.773  1.00  0.00     0.000 C 
BRANCH  13  14
ATOM     14  C   UNL     1       0.236  16.084  22.224  1.00  0.00     0.000 C 
BRANCH  14  15
ATOM     15  C   UNL     1      -0.721  15.345  21.272  1.00  0.00     0.000 C 
BRANCH  15  16
ATOM     16  C   UNL     1      -2.146  15.929  21.186  1.00  0.00     0.000 C 
BRANCH  16  17
ATOM     17  C   UNL     1      -2.739  16.413  22.522  1.00  0.00     0.000 C 
BRANCH  17  18
ATOM     18  C   UNL     1      -4.192  16.904  22.384  1.00  0.00     0.000 C 
BRANCH  18  19
ATOM     19  C   UNL     1      -5.220  15.775  22.565  1.00  0.00     0.000 C 
BRANCH  19  20
ATOM     20  C   UNL     1      -5.746  15.228  21.229  1.00  0.00     0.006 C 
BRANCH  20  21
ATOM     21  C   UNL     1      -7.112  14.561  21.408  1.00  0.00     0.053 C 
BRANCH  21  22
ATOM     22  C   UNL     1      -8.153  15.579  21.751  1.00  0.00     0.041 C 
ATOM     23  O   UNL     1      -8.435  16.500  20.937  1.00  0.00    -0.550 OA
ATOM     24  O   UNL     1      -8.772  15.546  22.996  1.00  0.00    -0.550 OA
ENDBRANCH  21  22
ENDBRANCH  20  21
ENDBRANCH  19  20
ENDBRANCH  18  19
ENDBRANCH  17  18
ENDBRANCH  16  17
ENDBRANCH  15  16
ENDBRANCH  14  15
ENDBRANCH  13  14
ENDBRANCH   1  13
TORSDOF 20
ENDMDL
MODEL 3
REMARK VINA RESULT:    -4.229      5.519     13.508
REMARK INTER + INTRA:         -10.287
REMARK INTER:                  -9.026
REMARK INTRA:                  -1.260
REMARK UNBOUND:                -1.113
REMARK SMILES CCCCCCCCCCCCCCCCCCCCCC(=O)[O-]
REMARK SMILES IDX 12 1 11 2 10 3 9 4 8 5 7 6 6 7 5 8 4 9 3 10 2 11 1 12 13 13
REMARK SMILES IDX 14 14 15 15 16 16 17 17 18 18 19 19 20 20 21 21 22 22 23 23
REMARK SMILES IDX 24 24
REMARK H PARENT
REMARK Flexibility Score: inf
ROOT
ATOM      1  C   UNL     1       1.233  15.973  23.109  1.00  0.00     0.000 C 
ENDROOT
BRANCH   1   2
ATOM      2  C   UNL     1       2.163  16.328  21.933  1.00  0.00     0.000 C 
BRANCH   2   3
ATOM      3  C   UNL     1       3.643  16.071  22.261  1.00  0.00     0.000 C 
BRANCH   3   4
ATOM      4  C   UNL     1       4.586  16.642  21.188  1.00  0.00    -0.000 C 
BRANCH   4   5
ATOM      5  C   UNL     1       6.062  16.327  21.468  1.00  0.00    -0.000 C 
BRANCH   5   6
ATOM      6  C   UNL     1       6.269  15.582  22.798  1.00  0.00    -0.000 C 
BRANCH   6   7
ATOM      7  C   UNL     1       6.728  14.126  22.604  1.00  0.00    -0.000 C 
BRANCH   7   8
ATOM      8  C   UNL     1       7.820  13.927  21.536  1.00  0.00    -0.000 C 
BRANCH   8   9
ATOM      9  C   UNL     1       9.071  14.778  21.794  1.00  0.00    -0.000 C 
BRANCH   9  10
ATOM     10  C   UNL     1       9.838  15.032  20.487  1.00  0.00    -0.000 C 
BRANCH  10  11
ATOM     11  C   UNL     1      10.463  16.435  20.430  1.00  0.00    -0.003 C 
ATOM     12  C   UNL     1       9.417  17.549  20.481  1.00  0.00     0.004 C 
ENDBRANCH  10  11
ENDBRANCH   9  10
ENDBRANCH   8   9
ENDBRANCH   7   8
ENDBRANCH   6   7
ENDBRANCH   5   6
ENDBRANCH   4   5
ENDBRANCH   3   4
ENDBRANCH   2   3
ENDBRANCH   1   2
BRANCH   1  13
ATOM     13  C   UNL     1      -0.234  16.344  22.841  1.00  0.00     0.000 C 
BRANCH  13  14
ATOM     14  C   UNL     1      -0.788  15.696  21.560  1.00  0.00     0.000 C 
BRANCH  14  15
ATOM     15  C   UNL     1      -2.313  15.851  21.426  1.00  0.00     0.000 C 
BRANCH  15  16
ATOM     16  C   UNL     1      -3.040  16.332  22.700  1.00  0.00     0.000 C 
BRANCH  16  17
ATOM     17  C   UNL     1      -4.557  16.075  22.727  1.00  0.00     0.000 C 
BRANCH  17  18
ATOM     18  C   UNL     1      -5.086  15.490  21.404  1.00  0.00     0.000 C 
BRANCH  18  19
ATOM     19  C   UNL     1      -6.488  14.876  21.543  1.00  0.00     0.000 C 
BRANCH  19  20
ATOM     20  C   UNL     1      -7.426  15.720  22.419  1.00  0.00     0.006 C 
BRANCH  20  21
ATOM     21  C   UNL     1      -8.577  16.299  21.593  1.00  0.00     0.053 C 
BRANCH  21  22
ATOM     22  C   UNL     1      -8.134  17.530  20.866  1.00  0.00     0.041 C 
ATOM     23  O   UNL     1      -8.292  17.623  19.618  1.00  0.00    -0.550 OA
ATOM     24  O   UNL     1      -7.493  18.552  21.557  1.00  0.00    -0.550 OA
ENDBRANCH  21  22
ENDBRANCH  20  21
ENDBRANCH  19  20
ENDBRANCH  18  19
ENDBRANCH  17  18
ENDBRANCH  16  17
ENDBRANCH  15  16
ENDBRANCH  14  15
ENDBRANCH  13  14
ENDBRANCH   1  13
TORSDOF 20
ENDMDL
MODEL 4
REMARK VINA RESULT:    -4.169      5.659     13.898
REMARK INTER + INTRA:         -10.156
REMARK INTER:                  -8.966
REMARK INTRA:                  -1.190
REMARK UNBOUND:                -1.113
REMARK SMILES CCCCCCCCCCCCCCCCCCCCCC(=O)[O-]
REMARK SMILES IDX 12 1 11 2 10 3 9 4 8 5 7 6 6 7 5 8 4 9 3 10 2 11 1 12 13 13
REMARK SMILES IDX 14 14 15 15 16 16 17 17 18 18 19 19 20 20 21 21 22 22 23 23
REMARK SMILES IDX 24 24
REMARK H PARENT
REMARK Flexibility Score: inf
ROOT
ATOM      1  C   UNL     1       3.066  16.011  22.282  1.00  0.00     0.000 C 
ENDROOT
BRANCH   1   2
ATOM      2  C   UNL     1       4.169  15.335  23.118  1.00  0.00     0.000 C 
BRANCH   2   3
ATOM      3  C   UNL     1       4.910  14.240  22.332  1.00  0.00     0.000 C 
BRANCH   3   4
ATOM      4  C   UNL     1       6.394  14.581  22.115  1.00  0.00    -0.000 C 
BRANCH   4   5
ATOM      5  C   UNL     1       6.861  15.764  22.974  1.00  0.00    -0.000 C 
BRANCH   5   6
ATOM      6  C   UNL     1       8.146  16.419  22.436  1.00  0.00    -0.000 C 
BRANCH   6   7
ATOM      7  C   UNL     1       8.046  16.797  20.947  1.00  0.00    -0.000 C 
BRANCH   7   8
ATOM      8  C   UNL     1       9.274  17.535  20.382  1.00  0.00    -0.000 C 
BRANCH   8   9
ATOM      9  C   UNL     1      10.574  16.733  20.527  1.00  0.00    -0.000 C 
BRANCH   9  10
ATOM     10  C   UNL     1      10.446  15.357  19.857  1.00  0.00    -0.000 C 
BRANCH  10  11
ATOM     11  C   UNL     1      10.932  14.211  20.759  1.00  0.00    -0.003 C 
ATOM     12  C   UNL     1       9.933  13.056  20.837  1.00  0.00     0.004 C 
ENDBRANCH  10  11
ENDBRANCH   9  10
ENDBRANCH   8   9
ENDBRANCH   7   8
ENDBRANCH   6   7
ENDBRANCH   5   6
ENDBRANCH   4   5
ENDBRANCH   3   4
ENDBRANCH   2   3
ENDBRANCH   1   2
BRANCH   1  13
ATOM     13  C   UNL     1       1.700  16.009  22.987  1.00  0.00     0.000 C 
BRANCH  13  14
ATOM     14  C   UNL     1       0.520  16.005  22.000  1.00  0.00     0.000 C 
BRANCH  14  15
ATOM     15  C   UNL     1      -0.765  16.596  22.606  1.00  0.00     0.000 C 
BRANCH  15  16
ATOM     16  C   UNL     1      -1.962  16.698  21.639  1.00  0.00     0.000 C 
BRANCH  16  17
ATOM     17  C   UNL     1      -3.348  16.532  22.288  1.00  0.00     0.000 C 
BRANCH  17  18
ATOM     18  C   UNL     1      -4.245  15.538  21.529  1.00  0.00     0.000 C 
BRANCH  18  19
ATOM     19  C   UNL     1      -5.617  15.345  22.196  1.00  0.00     0.000 C 
BRANCH  19  20
ATOM     20  C   UNL     1      -6.706  14.905  21.206  1.00  0.00     0.006 C 
BRANCH  20  21
ATOM     21  C   UNL     1      -8.100  15.263  21.726  1.00  0.00     0.053 C 
BRANCH  21  22
ATOM     22  C   UNL     1      -8.439  16.680  21.386  1.00  0.00     0.041 C 
ATOM     23  O   UNL     1      -8.892  17.456  22.270  1.00  0.00    -0.550 OA
ATOM     24  O   UNL     1      -8.310  17.129  20.075  1.00  0.00    -0.550 OA
ENDBRANCH  21  22
ENDBRANCH  20  21
ENDBRANCH  19  20
ENDBRANCH  18  19
ENDBRANCH  17  18
ENDBRANCH  16  17
ENDBRANCH  15  16
ENDBRANCH  14  15
ENDBRANCH  13  14
ENDBRANCH   1  13
TORSDOF 20
ENDMDL
MODEL 5
REMARK VINA RESULT:    -4.130      1.102      1.782
REMARK INTER + INTRA:         -10.072
REMARK INTER:                  -9.050
REMARK INTRA:                  -1.022
REMARK UNBOUND:                -1.113
REMARK SMILES CCCCCCCCCCCCCCCCCCCCCC(=O)[O-]
REMARK SMILES IDX 12 1 11 2 10 3 9 4 8 5 7 6 6 7 5 8 4 9 3 10 2 11 1 12 13 13
REMARK SMILES IDX 14 14 15 15 16 16 17 17 18 18 19 19 20 20 21 21 22 22 23 23
REMARK SMILES IDX 24 24
REMARK H PARENT
REMARK Flexibility Score: inf
ROOT
ATOM      1  C   UNL     1      -0.658  16.062  21.630  1.00  0.00     0.000 C 
ENDROOT
BRANCH   1   2
ATOM      2  C   UNL     1      -1.299  17.459  21.536  1.00  0.00     0.000 C 
BRANCH   2   3
ATOM      3  C   UNL     1      -2.773  17.456  21.978  1.00  0.00     0.000 C 
BRANCH   3   4
ATOM      4  C   UNL     1      -3.262  16.050  22.366  1.00  0.00    -0.000 C 
BRANCH   4   5
ATOM      5  C   UNL     1      -4.776  16.000  22.618  1.00  0.00    -0.000 C 
BRANCH   5   6
ATOM      6  C   UNL     1      -5.574  15.595  21.366  1.00  0.00    -0.000 C 
BRANCH   6   7
ATOM      7  C   UNL     1      -6.622  14.504  21.651  1.00  0.00    -0.000 C 
BRANCH   7   8
ATOM      8  C   UNL     1      -8.086  14.958  21.511  1.00  0.00    -0.000 C 
BRANCH   8   9
ATOM      9  C   UNL     1      -8.479  16.035  22.531  1.00  0.00    -0.000 C 
BRANCH   9  10
ATOM     10  C   UNL     1      -8.708  17.387  21.838  1.00  0.00    -0.000 C 
BRANCH  10  11
ATOM     11  C   UNL     1      -8.546  17.305  20.312  1.00  0.00    -0.003 C 
ATOM     12  C   UNL     1      -8.524  18.682  19.646  1.00  0.00     0.004 C 
ENDBRANCH  10  11
ENDBRANCH   9  10
ENDBRANCH   8   9
ENDBRANCH   7   8
ENDBRANCH   6   7
ENDBRANCH   5   6
ENDBRANCH   4   5
ENDBRANCH   3   4
ENDBRANCH   2   3
ENDBRANCH   1   2
BRANCH   1  13
ATOM     13  C   UNL     1       0.527  16.016  22.608  1.00  0.00     0.000 C 
BRANCH  13  14
ATOM     14  C   UNL     1       1.889  16.030  21.894  1.00  0.00     0.000 C 
BRANCH  14  15
ATOM     15  C   UNL     1       3.071  16.167  22.871  1.00  0.00     0.000 C 
BRANCH  15  16
ATOM     16  C   UNL     1       4.292  15.277  22.556  1.00  0.00     0.000 C 
BRANCH  16  17
ATOM     17  C   UNL     1       5.474  15.997  21.882  1.00  0.00     0.000 C 
BRANCH  17  18
ATOM     18  C   UNL     1       6.839  15.524  22.412  1.00  0.00     0.000 C 
BRANCH  18  19
ATOM     19  C   UNL     1       7.330  14.238  21.725  1.00  0.00     0.000 C 
BRANCH  19  20
ATOM     20  C   UNL     1       8.785  14.338  21.242  1.00  0.00     0.006 C 
BRANCH  20  21
ATOM     21  C   UNL     1       9.362  15.729  21.521  1.00  0.00     0.053 C 
BRANCH  21  22
ATOM     22  C   UNL     1      10.160  16.210  20.350  1.00  0.00     0.041 C 
ATOM     23  O   UNL     1      10.386  17.441  20.197  1.00  0.00    -0.550 OA
ATOM     24  O   UNL     1      10.605  15.304  19.393  1.00  0.00    -0.550 OA
ENDBRANCH  21  22
ENDBRANCH  20  21
ENDBRANCH  19  20
ENDBRANCH  18  19
ENDBRANCH  17  18
ENDBRANCH  16  17
ENDBRANCH  15  16
ENDBRANCH  14  15
ENDBRANCH  13  14
ENDBRANCH   1  13
TORSDOF 20
ENDMDL
MODEL 6
REMARK VINA RESULT:    -4.001      1.002      2.219
REMARK INTER + INTRA:          -9.792
REMARK INTER:                  -8.882
REMARK INTRA:                  -0.911
REMARK UNBOUND:                -1.113
REMARK SMILES CCCCCCCCCCCCCCCCCCCCCC(=O)[O-]
REMARK SMILES IDX 12 1 11 2 10 3 9 4 8 5 7 6 6 7 5 8 4 9 3 10 2 11 1 12 13 13
REMARK SMILES IDX 14 14 15 15 16 16 17 17 18 18 19 19 20 20 21 21 22 22 23 23
REMARK SMILES IDX 24 24
REMARK H PARENT
REMARK Flexibility Score: inf
ROOT
ATOM      1  C   UNL     1       3.412  16.042  22.187  1.00  0.00     0.000 C 
ENDROOT
BRANCH   1   2
ATOM      2  C   UNL     1       2.073  16.272  22.911  1.00  0.00     0.000 C 
BRANCH   2   3
ATOM      3  C   UNL     1       0.884  16.332  21.936  1.00  0.00     0.000 C 
BRANCH   3   4
ATOM      4  C   UNL     1      -0.451  15.997  22.623  1.00  0.00    -0.000 C 
BRANCH   4   5
ATOM      5  C   UNL     1      -1.650  16.682  21.952  1.00  0.00    -0.000 C 
BRANCH   5   6
ATOM      6  C   UNL     1      -2.928  16.614  22.806  1.00  0.00    -0.000 C 
BRANCH   6   7
ATOM      7  C   UNL     1      -4.214  16.620  21.960  1.00  0.00    -0.000 C 
BRANCH   7   8
ATOM      8  C   UNL     1      -4.762  15.226  21.602  1.00  0.00    -0.000 C 
BRANCH   8   9
ATOM      9  C   UNL     1      -6.281  15.217  21.385  1.00  0.00    -0.000 C 
BRANCH   9  10
ATOM     10  C   UNL     1      -6.867  16.627  21.558  1.00  0.00    -0.000 C 
BRANCH  10  11
ATOM     11  C   UNL     1      -7.906  16.973  20.479  1.00  0.00    -0.003 C 
ATOM     12  C   UNL     1      -8.169  18.476  20.373  1.00  0.00     0.004 C 
ENDBRANCH  10  11
ENDBRANCH   9  10
ENDBRANCH   8   9
ENDBRANCH   7   8
ENDBRANCH   6   7
ENDBRANCH   5   6
ENDBRANCH   4   5
ENDBRANCH   3   4
ENDBRANCH   2   3
ENDBRANCH   1   2
BRANCH   1  13
ATOM     13  C   UNL     1       4.359  15.116  22.967  1.00  0.00     0.000 C 
BRANCH  13  14
ATOM     14  C   UNL     1       5.662  14.816  22.206  1.00  0.00     0.000 C 
BRANCH  14  15
ATOM     15  C   UNL     1       6.307  16.080  21.610  1.00  0.00     0.000 C 
BRANCH  15  16
ATOM     16  C   UNL     1       7.827  16.214  21.841  1.00  0.00     0.000 C 
BRANCH  16  17
ATOM     17  C   UNL     1       8.483  17.448  21.196  1.00  0.00     0.000 C 
BRANCH  17  18
ATOM     18  C   UNL     1       9.424  17.082  20.034  1.00  0.00     0.000 C 
BRANCH  18  19
ATOM     19  C   UNL     1      10.581  16.167  20.470  1.00  0.00     0.000 C 
BRANCH  19  20
ATOM     20  C   UNL     1      10.774  14.963  19.536  1.00  0.00     0.006 C 
BRANCH  20  21
ATOM     21  C   UNL     1      10.105  13.710  20.107  1.00  0.00     0.053 C 
BRANCH  21  22
ATOM     22  C   UNL     1      10.489  12.502  19.312  1.00  0.00     0.041 C 
ATOM     23  O   UNL     1      10.807  11.431  19.897  1.00  0.00    -0.550 OA
ATOM     24  O   UNL     1      10.553  12.575  17.925  1.00  0.00    -0.550 OA
ENDBRANCH  21  22
ENDBRANCH  20  21
ENDBRANCH  19  20
ENDBRANCH  18  19
ENDBRANCH  17  18
ENDBRANCH  16  17
ENDBRANCH  15  16
ENDBRANCH  14  15
ENDBRANCH  13  14
ENDBRANCH   1  13
TORSDOF 20
ENDMDL
MODEL 7
REMARK VINA RESULT:    -3.997      5.493     13.222
REMARK INTER + INTRA:          -9.784
REMARK INTER:                  -8.433
REMARK INTRA:                  -1.351
REMARK UNBOUND:                -1.113
REMARK SMILES CCCCCCCCCCCCCCCCCCCCCC(=O)[O-]
REMARK SMILES IDX 12 1 11 2 10 3 9 4 8 5 7 6 6 7 5 8 4 9 3 10 2 11 1 12 13 13
REMARK SMILES IDX 14 14 15 15 16 16 17 17 18 18 19 19 20 20 21 21 22 22 23 23
REMARK SMILES IDX 24 24
REMARK H PARENT
REMARK Flexibility Score: inf
ROOT
ATOM      1  C   UNL     1       3.083  16.670  21.804  1.00  0.00     0.000 C 
ENDROOT
BRANCH   1   2
ATOM      2  C   UNL     1       4.586  16.380  21.633  1.00  0.00     0.000 C 
BRANCH   2   3
ATOM      3  C   UNL     1       5.144  15.501  22.765  1.00  0.00     0.000 C 
BRANCH   3   4
ATOM      4  C   UNL     1       6.358  14.670  22.313  1.00  0.00    -0.000 C 
BRANCH   4   5
ATOM      5  C   UNL     1       6.307  13.223  22.822  1.00  0.00    -0.000 C 
BRANCH   5   6
ATOM      6  C   UNL     1       7.705  12.595  22.970  1.00  0.00    -0.000 C 
BRANCH   6   7
ATOM      7  C   UNL     1       8.831  13.643  23.004  1.00  0.00    -0.000 C 
BRANCH   7   8
ATOM      8  C   UNL     1       9.743  13.655  21.763  1.00  0.00    -0.000 C 
BRANCH   8   9
ATOM      9  C   UNL     1      10.431  15.009  21.538  1.00  0.00    -0.000 C 
BRANCH   9  10
ATOM     10  C   UNL     1      10.220  15.497  20.097  1.00  0.00    -0.000 C 
BRANCH  10  11
ATOM     11  C   UNL     1       9.656  16.926  20.032  1.00  0.00    -0.003 C 
ATOM     12  C   UNL     1       8.566  17.178  21.075  1.00  0.00     0.004 C 
ENDBRANCH  10  11
ENDBRANCH   9  10
ENDBRANCH   8   9
ENDBRANCH   7   8
ENDBRANCH   6   7
ENDBRANCH   5   6
ENDBRANCH   4   5
ENDBRANCH   3   4
ENDBRANCH   2   3
ENDBRANCH   1   2
BRANCH   1  13
ATOM     13  C   UNL     1       2.498  16.044  23.080  1.00  0.00     0.000 C 
BRANCH  13  14
ATOM     14  C   UNL     1       0.960  16.031  23.087  1.00  0.00     0.000 C 
BRANCH  14  15
ATOM     15  C   UNL     1       0.358  16.012  21.671  1.00  0.00     0.000 C 
BRANCH  15  16
ATOM     16  C   UNL     1      -1.180  15.904  21.611  1.00  0.00     0.000 C 
BRANCH  16  17
ATOM     17  C   UNL     1      -1.939  17.233  21.773  1.00  0.00     0.000 C 
BRANCH  17  18
ATOM     18  C   UNL     1      -3.416  17.032  22.157  1.00  0.00     0.000 C 
BRANCH  18  19
ATOM     19  C   UNL     1      -3.995  15.711  21.623  1.00  0.00     0.000 C 
BRANCH  19  20
ATOM     20  C   UNL     1      -5.418  15.435  22.131  1.00  0.00     0.006 C 
BRANCH  20  21
ATOM     21  C   UNL     1      -6.429  15.474  20.982  1.00  0.00     0.053 C 
BRANCH  21  22
ATOM     22  C   UNL     1      -7.279  16.702  21.073  1.00  0.00     0.041 C 
ATOM     23  O   UNL     1      -8.489  16.666  20.720  1.00  0.00    -0.550 OA
ATOM     24  O   UNL     1      -6.719  17.904  21.493  1.00  0.00    -0.550 OA
ENDBRANCH  21  22
ENDBRANCH  20  21
ENDBRANCH  19  20
ENDBRANCH  18  19
ENDBRANCH  17  18
ENDBRANCH  16  17
ENDBRANCH  15  16
ENDBRANCH  14  15
ENDBRANCH  13  14
ENDBRANCH   1  13
TORSDOF 20
ENDMDL
MODEL 8
REMARK VINA RESULT:    -3.707      5.753     14.228
REMARK INTER + INTRA:          -9.154
REMARK INTER:                  -8.572
REMARK INTRA:                  -0.582
REMARK UNBOUND:                -1.113
REMARK SMILES CCCCCCCCCCCCCCCCCCCCCC(=O)[O-]
REMARK SMILES IDX 12 1 11 2 10 3 9 4 8 5 7 6 6 7 5 8 4 9 3 10 2 11 1 12 13 13
REMARK SMILES IDX 14 14 15 15 16 16 17 17 18 18 19 19 20 20 21 21 22 22 23 23
REMARK SMILES IDX 24 24
REMARK H PARENT
REMARK Flexibility Score: inf
ROOT
ATOM      1  C   UNL     1       1.648  16.021  22.742  1.00  0.00     0.000 C 
ENDROOT
BRANCH   1   2
ATOM      2  C   UNL     1       2.823  16.319  21.793  1.00  0.00     0.000 C 
BRANCH   2   3
ATOM      3  C   UNL     1       4.159  15.776  22.329  1.00  0.00     0.000 C 
BRANCH   3   4
ATOM      4  C   UNL     1       5.369  16.369  21.587  1.00  0.00    -0.000 C 
BRANCH   4   5
ATOM      5  C   UNL     1       6.680  15.638  21.913  1.00  0.00    -0.000 C 
BRANCH   5   6
ATOM      6  C   UNL     1       7.886  16.590  21.999  1.00  0.00    -0.000 C 
BRANCH   6   7
ATOM      7  C   UNL     1       9.105  16.084  21.208  1.00  0.00    -0.000 C 
BRANCH   7   8
ATOM      8  C   UNL     1       9.150  14.560  20.990  1.00  0.00    -0.000 C 
BRANCH   8   9
ATOM      9  C   UNL     1      10.556  14.044  20.656  1.00  0.00    -0.000 C 
BRANCH   9  10
ATOM     10  C   UNL     1      10.489  12.655  20.003  1.00  0.00    -0.000 C 
BRANCH  10  11
ATOM     11  C   UNL     1      10.672  12.708  18.478  1.00  0.00    -0.003 C 
ATOM     12  C   UNL     1      10.122  11.468  17.773  1.00  0.00     0.004 C 
ENDBRANCH  10  11
ENDBRANCH   9  10
ENDBRANCH   8   9
ENDBRANCH   7   8
ENDBRANCH   6   7
ENDBRANCH   5   6
ENDBRANCH   4   5
ENDBRANCH   3   4
ENDBRANCH   2   3
ENDBRANCH   1   2
BRANCH   1  13
ATOM     13  C   UNL     1       0.293  15.985  22.018  1.00  0.00     0.000 C 
BRANCH  13  14
ATOM     14  C   UNL     1      -0.816  16.718  22.792  1.00  0.00     0.000 C 
BRANCH  14  15
ATOM     15  C   UNL     1      -2.021  17.083  21.905  1.00  0.00     0.000 C 
BRANCH  15  16
ATOM     16  C   UNL     1      -3.038  15.945  21.678  1.00  0.00     0.000 C 
BRANCH  16  17
ATOM     17  C   UNL     1      -4.450  16.206  22.232  1.00  0.00     0.000 C 
BRANCH  17  18
ATOM     18  C   UNL     1      -5.492  15.206  21.699  1.00  0.00     0.000 C 
BRANCH  18  19
ATOM     19  C   UNL     1      -6.932  15.583  22.088  1.00  0.00     0.000 C 
BRANCH  19  20
ATOM     20  C   UNL     1      -7.780  16.019  20.884  1.00  0.00     0.006 C 
BRANCH  20  21
ATOM     21  C   UNL     1      -8.828  17.056  21.296  1.00  0.00     0.053 C 
BRANCH  21  22
ATOM     22  C   UNL     1      -8.488  18.399  20.732  1.00  0.00     0.041 C 
ATOM     23  O   UNL     1      -8.228  18.527  19.505  1.00  0.00    -0.550 OA
ATOM     24  O   UNL     1      -8.400  19.503  21.573  1.00  0.00    -0.550 OA
ENDBRANCH  21  22
ENDBRANCH  20  21
ENDBRANCH  19  20
ENDBRANCH  18  19
ENDBRANCH  17  18
ENDBRANCH  16  17
ENDBRANCH  15  16
ENDBRANCH  14  15
ENDBRANCH  13  14
ENDBRANCH   1  13
TORSDOF 20
ENDMDL
MODEL 9
REMARK VINA RESULT:    -3.615      5.927     13.583
REMARK INTER + INTRA:          -8.954
REMARK INTER:                  -7.677
REMARK INTRA:                  -1.277
REMARK UNBOUND:                -1.113
REMARK SMILES CCCCCCCCCCCCCCCCCCCCCC(=O)[O-]
REMARK SMILES IDX 12 1 11 2 10 3 9 4 8 5 7 6 6 7 5 8 4 9 3 10 2 11 1 12 13 13
REMARK SMILES IDX 14 14 15 15 16 16 17 17 18 18 19 19 20 20 21 21 22 22 23 23
REMARK SMILES IDX 24 24
REMARK H PARENT
REMARK Flexibility Score: inf
ROOT
ATOM      1  C   UNL     1      -0.933  16.371  21.326  1.00  0.00     0.000 C 
ENDROOT
BRANCH   1   2
ATOM      2  C   UNL     1      -0.459  15.686  22.622  1.00  0.00     0.000 C 
BRANCH   2   3
ATOM      3  C   UNL     1       1.007  16.014  22.953  1.00  0.00     0.000 C 
BRANCH   3   4
ATOM      4  C   UNL     1       1.849  16.260  21.690  1.00  0.00    -0.000 C 
BRANCH   4   5
ATOM      5  C   UNL     1       3.272  16.741  22.011  1.00  0.00    -0.000 C 
BRANCH   5   6
ATOM      6  C   UNL     1       4.303  15.599  21.992  1.00  0.00    -0.000 C 
BRANCH   6   7
ATOM      7  C   UNL     1       5.495  15.854  22.933  1.00  0.00    -0.000 C 
BRANCH   7   8
ATOM      8  C   UNL     1       6.830  15.243  22.469  1.00  0.00    -0.000 C 
BRANCH   8   9
ATOM      9  C   UNL     1       7.958  16.278  22.363  1.00  0.00    -0.000 C 
BRANCH   9  10
ATOM     10  C   UNL     1       7.944  16.965  20.989  1.00  0.00    -0.000 C 
BRANCH  10  11
ATOM     11  C   UNL     1       9.343  17.409  20.534  1.00  0.00    -0.003 C 
ATOM     12  C   UNL     1      10.329  16.244  20.433  1.00  0.00     0.004 C 
ENDBRANCH  10  11
ENDBRANCH   9  10
ENDBRANCH   8   9
ENDBRANCH   7   8
ENDBRANCH   6   7
ENDBRANCH   5   6
ENDBRANCH   4   5
ENDBRANCH   3   4
ENDBRANCH   2   3
ENDBRANCH   1   2
BRANCH   1  13
ATOM     13  C   UNL     1      -2.139  17.297  21.550  1.00  0.00     0.000 C 
BRANCH  13  14
ATOM     14  C   UNL     1      -2.747  17.155  22.955  1.00  0.00     0.000 C 
BRANCH  14  15
ATOM     15  C   UNL     1      -3.939  16.181  22.993  1.00  0.00     0.000 C 
BRANCH  15  16
ATOM     16  C   UNL     1      -4.643  15.951  21.640  1.00  0.00     0.000 C 
BRANCH  16  17
ATOM     17  C   UNL     1      -5.714  14.845  21.636  1.00  0.00     0.000 C 
BRANCH  17  18
ATOM     18  C   UNL     1      -7.128  15.388  21.362  1.00  0.00     0.000 C 
BRANCH  18  19
ATOM     19  C   UNL     1      -7.666  16.256  22.512  1.00  0.00     0.000 C 
BRANCH  19  20
ATOM     20  C   UNL     1      -7.848  17.728  22.114  1.00  0.00     0.006 C 
BRANCH  20  21
ATOM     21  C   UNL     1      -8.055  17.868  20.603  1.00  0.00     0.053 C 
BRANCH  21  22
ATOM     22  C   UNL     1      -8.650  19.201  20.276  1.00  0.00     0.041 C 
ATOM     23  O   UNL     1      -9.125  19.928  21.190  1.00  0.00    -0.550 OA
ATOM     24  O   UNL     1      -8.734  19.617  18.952  1.00  0.00    -0.550 OA
ENDBRANCH  21  22
ENDBRANCH  20  21
ENDBRANCH  19  20
ENDBRANCH  18  19
ENDBRANCH  17  18
ENDBRANCH  16  17
ENDBRANCH  15  16
ENDBRANCH  14  15
ENDBRANCH  13  14
ENDBRANCH   1  13
TORSDOF 20
ENDMDL
