MODEL 1
REMARK VINA RESULT:    -1.168      0.000      0.000
REMARK INTER + INTRA:          -2.535
REMARK INTER:                  -1.988
REMARK INTRA:                  -0.547
REMARK UNBOUND:                -0.547
REMARK SMILES CCCCCCCCCCCCCC(=O)[O-]
REMARK SMILES IDX 8 1 9 2 10 3 11 4 12 5 13 6 14 7 15 8 16 9 7 10 6 11 5 12
REMARK SMILES IDX 4 13 3 14 2 15 1 16
REMARK H PARENT
REMARK Flexibility Score: inf
ROOT
ATOM      1  C   UNL     1      -5.017  35.854  19.166  1.00  0.00     0.000 C 
ENDROOT
BRANCH   1   2
ATOM      2  C   UNL     1      -5.724  35.874  20.526  1.00  0.00     0.000 C 
BRANCH   2   3
ATOM      3  C   UNL     1      -4.795  35.364  21.637  1.00  0.00     0.000 C 
BRANCH   3   4
ATOM      4  C   UNL     1      -5.477  34.348  22.572  1.00  0.00     0.000 C 
BRANCH   4   5
ATOM      5  C   UNL     1      -5.886  34.905  23.948  1.00  0.00     0.006 C 
BRANCH   5   6
ATOM      6  C   UNL     1      -6.125  36.419  23.934  1.00  0.00     0.053 C 
BRANCH   6   7
ATOM      7  C   UNL     1      -5.301  37.087  24.990  1.00  0.00     0.041 C 
ATOM      8  O   UNL     1      -4.680  36.397  25.841  1.00  0.00    -0.550 OA
ATOM      9  O   UNL     1      -5.181  38.471  25.005  1.00  0.00    -0.550 OA
ENDBRANCH   6   7
ENDBRANCH   5   6
ENDBRANCH   4   5
ENDBRANCH   3   4
ENDBRANCH   2   3
ENDBRANCH   1   2
BRANCH   1  10
ATOM     10  C   UNL     1      -5.232  34.513  18.452  1.00  0.00     0.000 C 
BRANCH  10  11
ATOM     11  C   UNL     1      -4.157  34.279  17.384  1.00  0.00    -0.000 C 
BRANCH  11  12
ATOM     12  C   UNL     1      -3.835  35.580  16.633  1.00  0.00    -0.000 C 
BRANCH  12  13
ATOM     13  C   UNL     1      -2.577  35.463  15.759  1.00  0.00    -0.000 C 
BRANCH  13  14
ATOM     14  C   UNL     1      -2.764  36.092  14.367  1.00  0.00    -0.000 C 
BRANCH  14  15
ATOM     15  C   UNL     1      -4.173  36.673  14.168  1.00  0.00    -0.003 C 
ATOM     16  C   UNL     1      -4.192  38.201  14.193  1.00  0.00     0.004 C 
ENDBRANCH  14  15
ENDBRANCH  13  14
ENDBRANCH  12  13
ENDBRANCH  11  12
ENDBRANCH  10  11
ENDBRANCH   1  10
TORSDOF 12
ENDMDL
MODEL 2
REMARK VINA RESULT:    -0.454      1.758      2.818
REMARK INTER + INTRA:          -1.320
REMARK INTER:                  -1.090
REMARK INTRA:                  -0.230
REMARK UNBOUND:                -0.547
REMARK SMILES CCCCCCCCCCCCCC(=O)[O-]
REMARK SMILES IDX 8 1 9 2 10 3 11 4 12 5 13 6 14 7 15 8 16 9 7 10 6 11 5 12
REMARK SMILES IDX 4 13 3 14 2 15 1 16
REMARK H PARENT
REMARK Flexibility Score: inf
ROOT
ATOM      1  C   UNL     1      -5.160  35.363  21.567  1.00  0.00     0.000 C 
ENDROOT
BRANCH   1   2
ATOM      2  C   UNL     1      -6.125  34.868  22.651  1.00  0.00     0.000 C 
BRANCH   2   3
ATOM      3  C   UNL     1      -5.482  34.958  24.043  1.00  0.00     0.000 C 
BRANCH   3   4
ATOM      4  C   UNL     1      -5.610  36.357  24.674  1.00  0.00     0.000 C 
BRANCH   4   5
ATOM      5  C   UNL     1      -6.124  37.454  23.724  1.00  0.00     0.006 C 
BRANCH   5   6
ATOM      6  C   UNL     1      -5.107  38.579  23.503  1.00  0.00     0.053 C 
BRANCH   6   7
ATOM      7  C   UNL     1      -5.352  39.254  22.190  1.00  0.00     0.041 C 
ATOM      8  O   UNL     1      -5.566  40.493  22.144  1.00  0.00    -0.550 OA
ATOM      9  O   UNL     1      -5.295  38.520  21.011  1.00  0.00    -0.550 OA
ENDBRANCH   6   7
ENDBRANCH   5   6
ENDBRANCH   4   5
ENDBRANCH   3   4
ENDBRANCH   2   3
ENDBRANCH   1   2
BRANCH   1  10
ATOM     10  C   UNL     1      -5.828  35.351  20.186  1.00  0.00     0.000 C 
BRANCH  10  11
ATOM     11  C   UNL     1      -4.786  35.475  19.068  1.00  0.00    -0.000 C 
BRANCH  11  12
ATOM     12  C   UNL     1      -4.794  34.230  18.169  1.00  0.00    -0.000 C 
BRANCH  12  13
ATOM     13  C   UNL     1      -3.799  34.335  17.004  1.00  0.00    -0.000 C 
BRANCH  13  14
ATOM     14  C   UNL     1      -3.697  35.764  16.440  1.00  0.00    -0.000 C 
BRANCH  14  15
ATOM     15  C   UNL     1      -3.156  35.792  15.002  1.00  0.00    -0.003 C 
ATOM     16  C   UNL     1      -3.954  36.722  14.089  1.00  0.00     0.004 C 
ENDBRANCH  14  15
ENDBRANCH  13  14
ENDBRANCH  12  13
ENDBRANCH  11  12
ENDBRANCH  10  11
ENDBRANCH   1  10
TORSDOF 12
ENDMDL
MODEL 3
REMARK VINA RESULT:    -0.440      1.233      2.465
REMARK INTER + INTRA:          -1.295
REMARK INTER:                  -0.774
REMARK INTRA:                  -0.521
REMARK UNBOUND:                -0.547
REMARK SMILES CCCCCCCCCCCCCC(=O)[O-]
REMARK SMILES IDX 8 1 9 2 10 3 11 4 12 5 13 6 14 7 15 8 16 9 7 10 6 11 5 12
REMARK SMILES IDX 4 13 3 14 2 15 1 16
REMARK H PARENT
REMARK Flexibility Score: inf
ROOT
ATOM      1  C   UNL     1      -4.249  35.184  17.753  1.00  0.00     0.000 C 
ENDROOT
BRANCH   1   2
ATOM      2  C   UNL     1      -4.852  33.871  18.268  1.00  0.00     0.000 C 
BRANCH   2   3
ATOM      3  C   UNL     1      -6.124  34.133  19.087  1.00  0.00     0.000 C 
BRANCH   3   4
ATOM      4  C   UNL     1      -5.962  35.284  20.097  1.00  0.00     0.000 C 
BRANCH   4   5
ATOM      5  C   UNL     1      -5.865  34.846  21.570  1.00  0.00     0.006 C 
BRANCH   5   6
ATOM      6  C   UNL     1      -5.301  35.940  22.484  1.00  0.00     0.053 C 
BRANCH   6   7
ATOM      7  C   UNL     1      -5.507  35.578  23.921  1.00  0.00     0.041 C 
ATOM      8  O   UNL     1      -5.926  34.432  24.232  1.00  0.00    -0.550 OA
ATOM      9  O   UNL     1      -5.190  36.491  24.919  1.00  0.00    -0.550 OA
ENDBRANCH   6   7
ENDBRANCH   5   6
ENDBRANCH   4   5
ENDBRANCH   3   4
ENDBRANCH   2   3
ENDBRANCH   1   2
BRANCH   1  10
ATOM     10  C   UNL     1      -3.729  35.027  16.319  1.00  0.00     0.000 C 
BRANCH  10  11
ATOM     11  C   UNL     1      -2.485  35.894  16.087  1.00  0.00    -0.000 C 
BRANCH  11  12
ATOM     12  C   UNL     1      -2.250  36.127  14.587  1.00  0.00    -0.000 C 
BRANCH  12  13
ATOM     13  C   UNL     1      -3.444  36.808  13.900  1.00  0.00    -0.000 C 
BRANCH  13  14
ATOM     14  C   UNL     1      -3.791  38.170  14.530  1.00  0.00    -0.000 C 
BRANCH  14  15
ATOM     15  C   UNL     1      -5.042  38.805  13.904  1.00  0.00    -0.003 C 
ATOM     16  C   UNL     1      -5.090  40.321  14.090  1.00  0.00     0.004 C 
ENDBRANCH  14  15
ENDBRANCH  13  14
ENDBRANCH  12  13
ENDBRANCH  11  12
ENDBRANCH  10  11
ENDBRANCH   1  10
TORSDOF 12
ENDMDL
MODEL 4
REMARK VINA RESULT:    -0.358      0.781      1.550
REMARK INTER + INTRA:          -1.156
REMARK INTER:                  -0.859
REMARK INTRA:                  -0.296
REMARK UNBOUND:                -0.547
REMARK SMILES CCCCCCCCCCCCCC(=O)[O-]
REMARK SMILES IDX 8 1 9 2 10 3 11 4 12 5 13 6 14 7 15 8 16 9 7 10 6 11 5 12
REMARK SMILES IDX 4 13 3 14 2 15 1 16
REMARK H PARENT
REMARK Flexibility Score: inf
ROOT
ATOM      1  C   UNL     1      -5.648  36.011  21.116  1.00  0.00     0.000 C 
ENDROOT
BRANCH   1   2
ATOM      2  C   UNL     1      -4.526  35.368  21.939  1.00  0.00     0.000 C 
BRANCH   2   3
ATOM      3  C   UNL     1      -5.032  34.119  22.678  1.00  0.00     0.000 C 
BRANCH   3   4
ATOM      4  C   UNL     1      -6.107  34.440  23.732  1.00  0.00     0.000 C 
BRANCH   4   5
ATOM      5  C   UNL     1      -6.125  35.900  24.219  1.00  0.00     0.006 C 
BRANCH   5   6
ATOM      6  C   UNL     1      -5.278  36.122  25.477  1.00  0.00     0.053 C 
BRANCH   6   7
ATOM      7  C   UNL     1      -4.853  37.554  25.575  1.00  0.00     0.041 C 
ATOM      8  O   UNL     1      -4.292  37.979  26.619  1.00  0.00    -0.550 OA
ATOM      9  O   UNL     1      -5.033  38.407  24.493  1.00  0.00    -0.550 OA
ENDBRANCH   6   7
ENDBRANCH   5   6
ENDBRANCH   4   5
ENDBRANCH   3   4
ENDBRANCH   2   3
ENDBRANCH   1   2
BRANCH   1  10
ATOM     10  C   UNL     1      -5.742  35.378  19.722  1.00  0.00     0.000 C 
BRANCH  10  11
ATOM     11  C   UNL     1      -4.417  35.522  18.962  1.00  0.00    -0.000 C 
BRANCH  11  12
ATOM     12  C   UNL     1      -4.439  34.706  17.661  1.00  0.00    -0.000 C 
BRANCH  12  13
ATOM     13  C   UNL     1      -4.304  35.586  16.409  1.00  0.00    -0.000 C 
BRANCH  13  14
ATOM     14  C   UNL     1      -2.950  35.401  15.699  1.00  0.00    -0.000 C 
BRANCH  14  15
ATOM     15  C   UNL     1      -2.885  36.142  14.355  1.00  0.00    -0.003 C 
ATOM     16  C   UNL     1      -3.858  37.318  14.281  1.00  0.00     0.004 C 
ENDBRANCH  14  15
ENDBRANCH  13  14
ENDBRANCH  12  13
ENDBRANCH  11  12
ENDBRANCH  10  11
ENDBRANCH   1  10
TORSDOF 12
ENDMDL
MODEL 5
REMARK VINA RESULT:    -0.295      4.136      8.013
REMARK INTER + INTRA:          -1.049
REMARK INTER:                  -0.484
REMARK INTRA:                  -0.566
REMARK UNBOUND:                -0.547
REMARK SMILES CCCCCCCCCCCCCC(=O)[O-]
REMARK SMILES IDX 8 1 9 2 10 3 11 4 12 5 13 6 14 7 15 8 16 9 7 10 6 11 5 12
REMARK SMILES IDX 4 13 3 14 2 15 1 16
REMARK H PARENT
REMARK Flexibility Score: inf
ROOT
ATOM      1  C   UNL     1      -6.123  35.443  21.447  1.00  0.00     0.000 C 
ENDROOT
BRANCH   1   2
ATOM      2  C   UNL     1      -5.689  36.008  20.089  1.00  0.00     0.000 C 
BRANCH   2   3
ATOM      3  C   UNL     1      -4.529  35.193  19.499  1.00  0.00     0.000 C 
BRANCH   3   4
ATOM      4  C   UNL     1      -4.784  34.751  18.046  1.00  0.00     0.000 C 
BRANCH   4   5
ATOM      5  C   UNL     1      -4.339  35.760  16.972  1.00  0.00     0.006 C 
BRANCH   5   6
ATOM      6  C   UNL     1      -3.354  35.162  15.961  1.00  0.00     0.053 C 
BRANCH   6   7
ATOM      7  C   UNL     1      -3.211  36.064  14.775  1.00  0.00     0.041 C 
ATOM      8  O   UNL     1      -2.081  36.251  14.253  1.00  0.00    -0.550 OA
ATOM      9  O   UNL     1      -4.335  36.659  14.216  1.00  0.00    -0.550 OA
ENDBRANCH   6   7
ENDBRANCH   5   6
ENDBRANCH   4   5
ENDBRANCH   3   4
ENDBRANCH   2   3
ENDBRANCH   1   2
BRANCH   1  10
ATOM     10  C   UNL     1      -4.909  35.007  22.276  1.00  0.00     0.000 C 
BRANCH  10  11
ATOM     11  C   UNL     1      -5.328  34.593  23.692  1.00  0.00    -0.000 C 
BRANCH  11  12
ATOM     12  C   UNL     1      -6.108  35.720  24.385  1.00  0.00    -0.000 C 
BRANCH  12  13
ATOM     13  C   UNL     1      -5.204  36.639  25.220  1.00  0.00    -0.000 C 
BRANCH  13  14
ATOM     14  C   UNL     1      -5.224  38.097  24.725  1.00  0.00    -0.000 C 
BRANCH  14  15
ATOM     15  C   UNL     1      -5.419  38.199  23.204  1.00  0.00    -0.003 C 
ATOM     16  C   UNL     1      -5.560  39.642  22.723  1.00  0.00     0.004 C 
ENDBRANCH  14  15
ENDBRANCH  13  14
ENDBRANCH  12  13
ENDBRANCH  11  12
ENDBRANCH  10  11
ENDBRANCH   1  10
TORSDOF 12
ENDMDL
MODEL 6
REMARK VINA RESULT:    -0.132      3.775      6.642
REMARK INTER + INTRA:          -0.772
REMARK INTER:                  -0.250
REMARK INTRA:                  -0.522
REMARK UNBOUND:                -0.547
REMARK SMILES CCCCCCCCCCCCCC(=O)[O-]
REMARK SMILES IDX 8 1 9 2 10 3 11 4 12 5 13 6 14 7 15 8 16 9 7 10 6 11 5 12
REMARK SMILES IDX 4 13 3 14 2 15 1 16
REMARK H PARENT
REMARK Flexibility Score: inf
ROOT
ATOM      1  C   UNL     1      -6.002  35.924  24.427  1.00  0.00     0.000 C 
ENDROOT
BRANCH   1   2
ATOM      2  C   UNL     1      -6.118  34.396  24.459  1.00  0.00     0.000 C 
BRANCH   2   3
ATOM      3  C   UNL     1      -6.033  33.808  23.042  1.00  0.00     0.000 C 
BRANCH   3   4
ATOM      4  C   UNL     1      -4.871  34.393  22.218  1.00  0.00     0.000 C 
BRANCH   4   5
ATOM      5  C   UNL     1      -5.266  35.523  21.250  1.00  0.00     0.006 C 
BRANCH   5   6
ATOM      6  C   UNL     1      -6.106  35.030  20.066  1.00  0.00     0.053 C 
BRANCH   6   7
ATOM      7  C   UNL     1      -5.232  34.757  18.883  1.00  0.00     0.041 C 
ATOM      8  O   UNL     1      -4.298  35.547  18.588  1.00  0.00    -0.550 OA
ATOM      9  O   UNL     1      -5.420  33.602  18.133  1.00  0.00    -0.550 OA
ENDBRANCH   6   7
ENDBRANCH   5   6
ENDBRANCH   4   5
ENDBRANCH   3   4
ENDBRANCH   2   3
ENDBRANCH   1   2
BRANCH   1  10
ATOM     10  C   UNL     1      -5.123  36.434  25.577  1.00  0.00     0.000 C 
BRANCH  10  11
ATOM     11  C   UNL     1      -4.743  37.906  25.369  1.00  0.00    -0.000 C 
BRANCH  11  12
ATOM     12  C   UNL     1      -5.556  38.526  24.223  1.00  0.00    -0.000 C 
BRANCH  12  13
ATOM     13  C   UNL     1      -4.829  39.701  23.551  1.00  0.00    -0.000 C 
BRANCH  13  14
ATOM     14  C   UNL     1      -5.293  39.933  22.102  1.00  0.00    -0.000 C 
BRANCH  14  15
ATOM     15  C   UNL     1      -5.860  38.659  21.455  1.00  0.00    -0.003 C 
ATOM     16  C   UNL     1      -5.438  38.500  19.995  1.00  0.00     0.004 C 
ENDBRANCH  14  15
ENDBRANCH  13  14
ENDBRANCH  12  13
ENDBRANCH  11  12
ENDBRANCH  10  11
ENDBRANCH   1  10
TORSDOF 12
ENDMDL
MODEL 7
REMARK VINA RESULT:     0.583      3.906      7.510
REMARK INTER + INTRA:           0.446
REMARK INTER:                   1.302
REMARK INTRA:                  -0.856
REMARK UNBOUND:                -0.547
REMARK SMILES CCCCCCCCCCCCCC(=O)[O-]
REMARK SMILES IDX 8 1 9 2 10 3 11 4 12 5 13 6 14 7 15 8 16 9 7 10 6 11 5 12
REMARK SMILES IDX 4 13 3 14 2 15 1 16
REMARK H PARENT
REMARK Flexibility Score: inf
ROOT
ATOM      1  C   UNL     1      -4.480  39.477  23.009  1.00  0.00     0.000 C 
ENDROOT
BRANCH   1   2
ATOM      2  C   UNL     1      -5.320  39.836  21.778  1.00  0.00     0.000 C 
BRANCH   2   3
ATOM      3  C   UNL     1      -6.119  38.621  21.284  1.00  0.00     0.000 C 
BRANCH   3   4
ATOM      4  C   UNL     1      -5.261  37.348  21.161  1.00  0.00     0.000 C 
BRANCH   4   5
ATOM      5  C   UNL     1      -5.151  36.775  19.736  1.00  0.00     0.006 C 
BRANCH   5   6
ATOM      6  C   UNL     1      -5.812  35.399  19.591  1.00  0.00     0.053 C 
BRANCH   6   7
ATOM      7  C   UNL     1      -5.142  34.608  18.513  1.00  0.00     0.041 C 
ATOM      8  O   UNL     1      -5.609  33.494  18.159  1.00  0.00    -0.550 OA
ATOM      9  O   UNL     1      -4.027  35.125  17.864  1.00  0.00    -0.550 OA
ENDBRANCH   6   7
ENDBRANCH   5   6
ENDBRANCH   4   5
ENDBRANCH   3   4
ENDBRANCH   2   3
ENDBRANCH   1   2
BRANCH   1  10
ATOM     10  C   UNL     1      -5.368  38.994  24.162  1.00  0.00     0.000 C 
BRANCH  10  11
ATOM     11  C   UNL     1      -4.751  37.774  24.859  1.00  0.00    -0.000 C 
BRANCH  11  12
ATOM     12  C   UNL     1      -5.807  37.018  25.679  1.00  0.00    -0.000 C 
BRANCH  12  13
ATOM     13  C   UNL     1      -6.120  35.629  25.103  1.00  0.00    -0.000 C 
BRANCH  13  14
ATOM     14  C   UNL     1      -5.439  35.385  23.744  1.00  0.00    -0.000 C 
BRANCH  14  15
ATOM     15  C   UNL     1      -6.119  34.267  22.938  1.00  0.00    -0.003 C 
ATOM     16  C   UNL     1      -6.059  32.912  23.642  1.00  0.00     0.004 C 
ENDBRANCH  14  15
ENDBRANCH  13  14
ENDBRANCH  12  13
ENDBRANCH  11  12
ENDBRANCH  10  11
ENDBRANCH   1  10
TORSDOF 12
ENDMDL
