MODEL 1
REMARK VINA RESULT:    -6.517      0.000      0.000
REMARK INTER + INTRA:          -8.084
REMARK INTER:                  -7.851
REMARK INTRA:                  -0.233
REMARK UNBOUND:                -0.233
REMARK SMILES O=c1c(O)c(-c2ccc(O)c(O)c2)oc2cc(O)cc(O)c12
REMARK SMILES IDX 5 1 3 2 2 3 1 4 22 5 20 6 19 7 17 8 16 9 15 10 14 11 6 12
REMARK SMILES IDX 7 13 8 14 9 15 13 16 11 17 10 18 12 20 4 22 21 24 18 26
REMARK H PARENT 10 19 12 21 4 23 21 25 18 27
REMARK Flexibility Score: inf
ROOT
ATOM      1  C   UNL     1     -31.109  28.247  12.191  1.00  0.00     0.180 A 
ATOM      2  C   UNL     1     -31.491  27.294  13.150  1.00  0.00     0.208 A 
ATOM      3  C   UNL     1     -32.793  26.769  13.108  1.00  0.00     0.238 A 
ATOM      4  O   UNL     1     -33.111  25.876  13.936  1.00  0.00    -0.285 OA
ATOM      5  C   UNL     1     -33.700  27.215  12.118  1.00  0.00     0.111 A 
ATOM      6  C   UNL     1     -35.055  26.781  12.006  1.00  0.00     0.134 A 
ATOM      7  C   UNL     1     -35.824  27.190  10.909  1.00  0.00     0.093 A 
ATOM      8  C   UNL     1     -35.305  28.069   9.956  1.00  0.00     0.123 A 
ATOM      9  C   UNL     1     -34.003  28.546  10.088  1.00  0.00     0.094 A 
ATOM     10  C   UNL     1     -33.200  28.127  11.152  1.00  0.00     0.146 A 
ATOM     11  O   UNL     1     -31.962  28.597  11.235  1.00  0.00    -0.452 OA
ENDROOT
BRANCH   1  12
ATOM     12  C   UNL     1     -29.763  28.864  12.186  1.00  0.00     0.025 A 
ATOM     13  C   UNL     1     -29.364  29.757  13.194  1.00  0.00     0.016 A 
ATOM     14  C   UNL     1     -28.098  30.345  13.154  1.00  0.00     0.051 A 
ATOM     15  C   UNL     1     -27.213  30.067  12.107  1.00  0.00     0.157 A 
ATOM     16  C   UNL     1     -28.886  28.601  11.122  1.00  0.00     0.062 A 
ATOM     17  C   UNL     1     -27.613  29.186  11.075  1.00  0.00     0.158 A 
BRANCH  15  18
ATOM     18  O   UNL     1     -25.961  30.684  12.129  1.00  0.00    -0.504 OA
ATOM     19  H   UNL     1     -25.291  30.631  11.376  1.00  0.00     0.293 HD
ENDBRANCH  15  18
BRANCH  17  20
ATOM     20  O   UNL     1     -26.789  28.868   9.993  1.00  0.00    -0.504 OA
ATOM     21  H   UNL     1     -26.245  28.020   9.928  1.00  0.00     0.293 HD
ENDBRANCH  17  20
ENDBRANCH   1  12
BRANCH   2  22
ATOM     22  O   UNL     1     -30.572  26.852  14.106  1.00  0.00    -0.502 OA
ATOM     23  H   UNL     1     -30.822  26.713  15.077  1.00  0.00     0.293 HD
ENDBRANCH   2  22
BRANCH   6  24
ATOM     24  O   UNL     1     -35.698  25.977  12.952  1.00  0.00    -0.507 OA
ATOM     25  H   UNL     1     -35.731  24.968  12.921  1.00  0.00     0.293 HD
ENDBRANCH   6  24
BRANCH   8  26
ATOM     26  O   UNL     1     -36.082  28.484   8.875  1.00  0.00    -0.508 OA
ATOM     27  H   UNL     1     -37.092  28.536   8.938  1.00  0.00     0.293 HD
ENDBRANCH   8  26
TORSDOF 6
ENDMDL
MODEL 2
REMARK VINA RESULT:    -6.328     16.827     18.467
REMARK INTER + INTRA:          -7.856
REMARK INTER:                  -7.805
REMARK INTRA:                  -0.051
REMARK UNBOUND:                -0.233
REMARK SMILES O=c1c(O)c(-c2ccc(O)c(O)c2)oc2cc(O)cc(O)c12
REMARK SMILES IDX 5 1 3 2 2 3 1 4 22 5 20 6 19 7 17 8 16 9 15 10 14 11 6 12
REMARK SMILES IDX 7 13 8 14 9 15 13 16 11 17 10 18 12 20 4 22 21 24 18 26
REMARK H PARENT 10 19 12 21 4 23 21 25 18 27
REMARK Flexibility Score: inf
ROOT
ATOM      1  C   UNL     1     -30.881  45.301  15.233  1.00  0.00     0.180 A 
ATOM      2  C   UNL     1     -31.433  45.557  13.966  1.00  0.00     0.208 A 
ATOM      3  C   UNL     1     -30.589  45.560  12.843  1.00  0.00     0.238 A 
ATOM      4  O   UNL     1     -31.098  45.736  11.706  1.00  0.00    -0.285 OA
ATOM      5  C   UNL     1     -29.203  45.324  13.005  1.00  0.00     0.111 A 
ATOM      6  C   UNL     1     -28.250  45.344  11.943  1.00  0.00     0.134 A 
ATOM      7  C   UNL     1     -26.924  44.968  12.197  1.00  0.00     0.093 A 
ATOM      8  C   UNL     1     -26.506  44.636  13.488  1.00  0.00     0.123 A 
ATOM      9  C   UNL     1     -27.415  44.672  14.542  1.00  0.00     0.094 A 
ATOM     10  C   UNL     1     -28.752  45.008  14.313  1.00  0.00     0.146 A 
ATOM     11  O   UNL     1     -29.589  45.019  15.343  1.00  0.00    -0.452 OA
ENDROOT
BRANCH   1  12
ATOM     12  C   UNL     1     -31.703  45.306  16.465  1.00  0.00     0.025 A 
ATOM     13  C   UNL     1     -31.378  46.125  17.558  1.00  0.00     0.016 A 
ATOM     14  C   UNL     1     -32.154  46.093  18.719  1.00  0.00     0.051 A 
ATOM     15  C   UNL     1     -33.257  45.239  18.818  1.00  0.00     0.157 A 
ATOM     16  C   UNL     1     -32.796  44.431  16.570  1.00  0.00     0.062 A 
ATOM     17  C   UNL     1     -33.581  44.394  17.730  1.00  0.00     0.158 A 
BRANCH  15  18
ATOM     18  O   UNL     1     -33.994  45.260  20.003  1.00  0.00    -0.504 OA
ATOM     19  H   UNL     1     -34.423  44.445  20.417  1.00  0.00     0.293 HD
ENDBRANCH  15  18
BRANCH  17  20
ATOM     20  O   UNL     1     -34.660  43.509  17.759  1.00  0.00    -0.504 OA
ATOM     21  H   UNL     1     -35.420  43.522  17.094  1.00  0.00     0.293 HD
ENDBRANCH  17  20
ENDBRANCH   1  12
BRANCH   2  22
ATOM     22  O   UNL     1     -32.808  45.766  13.827  1.00  0.00    -0.502 OA
ATOM     23  H   UNL     1     -33.395  46.053  14.601  1.00  0.00     0.293 HD
ENDBRANCH   2  22
BRANCH   6  24
ATOM     24  O   UNL     1     -28.542  45.748  10.637  1.00  0.00    -0.507 OA
ATOM     25  H   UNL     1     -28.172  46.578  10.196  1.00  0.00     0.293 HD
ENDBRANCH   6  24
BRANCH   8  26
ATOM     26  O   UNL     1     -25.181  44.279  13.735  1.00  0.00    -0.508 OA
ATOM     27  H   UNL     1     -24.409  44.844  13.403  1.00  0.00     0.293 HD
ENDBRANCH   8  26
TORSDOF 6
ENDMDL
MODEL 3
REMARK VINA RESULT:    -6.294      1.627      3.008
REMARK INTER + INTRA:          -7.815
REMARK INTER:                  -7.559
REMARK INTRA:                  -0.256
REMARK UNBOUND:                -0.233
REMARK SMILES O=c1c(O)c(-c2ccc(O)c(O)c2)oc2cc(O)cc(O)c12
REMARK SMILES IDX 5 1 3 2 2 3 1 4 22 5 20 6 19 7 17 8 16 9 15 10 14 11 6 12
REMARK SMILES IDX 7 13 8 14 9 15 13 16 11 17 10 18 12 20 4 22 21 24 18 26
REMARK H PARENT 10 19 12 21 4 23 21 25 18 27
REMARK Flexibility Score: inf
ROOT
ATOM      1  C   UNL     1     -31.658  28.792  11.416  1.00  0.00     0.180 A 
ATOM      2  C   UNL     1     -32.263  28.521  10.177  1.00  0.00     0.208 A 
ATOM      3  C   UNL     1     -33.440  27.756  10.146  1.00  0.00     0.238 A 
ATOM      4  O   UNL     1     -34.007  27.562   9.039  1.00  0.00    -0.285 OA
ATOM      5  C   UNL     1     -33.987  27.256  11.353  1.00  0.00     0.111 A 
ATOM      6  C   UNL     1     -35.152  26.437  11.436  1.00  0.00     0.134 A 
ATOM      7  C   UNL     1     -35.678  26.108  12.692  1.00  0.00     0.093 A 
ATOM      8  C   UNL     1     -35.042  26.517  13.867  1.00  0.00     0.123 A 
ATOM      9  C   UNL     1     -33.871  27.268  13.796  1.00  0.00     0.094 A 
ATOM     10  C   UNL     1     -33.342  27.641  12.558  1.00  0.00     0.146 A 
ATOM     11  O   UNL     1     -32.231  28.365  12.535  1.00  0.00    -0.452 OA
ENDROOT
BRANCH   1  12
ATOM     12  C   UNL     1     -30.403  29.570  11.526  1.00  0.00     0.025 A 
ATOM     13  C   UNL     1     -30.387  30.962  11.342  1.00  0.00     0.016 A 
ATOM     14  C   UNL     1     -29.187  31.671  11.426  1.00  0.00     0.051 A 
ATOM     15  C   UNL     1     -27.982  31.008  11.682  1.00  0.00     0.157 A 
ATOM     16  C   UNL     1     -29.192  28.900  11.761  1.00  0.00     0.062 A 
ATOM     17  C   UNL     1     -27.983  29.604  11.849  1.00  0.00     0.158 A 
BRANCH  15  18
ATOM     18  O   UNL     1     -26.818  31.776  11.759  1.00  0.00    -0.504 OA
ATOM     19  H   UNL     1     -26.548  32.465  11.072  1.00  0.00     0.293 HD
ENDBRANCH  15  18
BRANCH  17  20
ATOM     20  O   UNL     1     -26.820  28.872  12.098  1.00  0.00    -0.504 OA
ATOM     21  H   UNL     1     -26.812  27.908  12.395  1.00  0.00     0.293 HD
ENDBRANCH  17  20
ENDBRANCH   1  12
BRANCH   2  22
ATOM     22  O   UNL     1     -31.718  29.041   9.000  1.00  0.00    -0.502 OA
ATOM     23  H   UNL     1     -30.782  29.425   8.958  1.00  0.00     0.293 HD
ENDBRANCH   2  22
BRANCH   6  24
ATOM     24  O   UNL     1     -35.810  25.899  10.325  1.00  0.00    -0.507 OA
ATOM     25  H   UNL     1     -36.795  25.680  10.292  1.00  0.00     0.293 HD
ENDBRANCH   6  24
BRANCH   8  26
ATOM     26  O   UNL     1     -35.564  26.173  15.113  1.00  0.00    -0.508 OA
ATOM     27  H   UNL     1     -35.247  25.350  15.611  1.00  0.00     0.293 HD
ENDBRANCH   8  26
TORSDOF 6
ENDMDL
MODEL 4
REMARK VINA RESULT:    -6.289      2.897      5.405
REMARK INTER + INTRA:          -7.809
REMARK INTER:                  -7.551
REMARK INTRA:                  -0.258
REMARK UNBOUND:                -0.233
REMARK SMILES O=c1c(O)c(-c2ccc(O)c(O)c2)oc2cc(O)cc(O)c12
REMARK SMILES IDX 5 1 3 2 2 3 1 4 22 5 20 6 19 7 17 8 16 9 15 10 14 11 6 12
REMARK SMILES IDX 7 13 8 14 9 15 13 16 11 17 10 18 12 20 4 22 21 24 18 26
REMARK H PARENT 10 19 12 21 4 23 21 25 18 27
REMARK Flexibility Score: inf
ROOT
ATOM      1  C   UNL     1     -32.934  27.130  13.997  1.00  0.00     0.180 A 
ATOM      2  C   UNL     1     -31.717  27.072  13.297  1.00  0.00     0.208 A 
ATOM      3  C   UNL     1     -31.735  27.120  11.894  1.00  0.00     0.238 A 
ATOM      4  O   UNL     1     -30.639  27.121  11.275  1.00  0.00    -0.285 OA
ATOM      5  C   UNL     1     -32.971  27.209  11.209  1.00  0.00     0.111 A 
ATOM      6  C   UNL     1     -33.110  27.224   9.789  1.00  0.00     0.134 A 
ATOM      7  C   UNL     1     -34.370  27.446   9.220  1.00  0.00     0.093 A 
ATOM      8  C   UNL     1     -35.506  27.590  10.021  1.00  0.00     0.123 A 
ATOM      9  C   UNL     1     -35.389  27.518  11.407  1.00  0.00     0.094 A 
ATOM     10  C   UNL     1     -34.140  27.332  12.004  1.00  0.00     0.146 A 
ATOM     11  O   UNL     1     -34.071  27.280  13.329  1.00  0.00    -0.452 OA
ENDROOT
BRANCH   1  12
ATOM     12  C   UNL     1     -32.996  27.060  15.476  1.00  0.00     0.025 A 
ATOM     13  C   UNL     1     -33.455  25.908  16.134  1.00  0.00     0.016 A 
ATOM     14  C   UNL     1     -33.528  25.875  17.529  1.00  0.00     0.051 A 
ATOM     15  C   UNL     1     -33.160  26.989  18.290  1.00  0.00     0.157 A 
ATOM     16  C   UNL     1     -32.648  28.187  16.236  1.00  0.00     0.062 A 
ATOM     17  C   UNL     1     -32.716  28.162  17.636  1.00  0.00     0.158 A 
BRANCH  15  18
ATOM     18  O   UNL     1     -33.251  26.889  19.680  1.00  0.00    -0.504 OA
ATOM     19  H   UNL     1     -33.539  26.054  20.169  1.00  0.00     0.293 HD
ENDBRANCH  15  18
BRANCH  17  20
ATOM     20  O   UNL     1     -32.341  29.316  18.327  1.00  0.00    -0.504 OA
ATOM     21  H   UNL     1     -31.751  29.316  19.146  1.00  0.00     0.293 HD
ENDBRANCH  17  20
ENDBRANCH   1  12
BRANCH   2  22
ATOM     22  O   UNL     1     -30.508  27.005  13.995  1.00  0.00    -0.502 OA
ATOM     23  H   UNL     1     -30.056  27.825  14.380  1.00  0.00     0.293 HD
ENDBRANCH   2  22
BRANCH   6  24
ATOM     24  O   UNL     1     -32.056  26.999   8.898  1.00  0.00    -0.507 OA
ATOM     25  H   UNL     1     -32.035  27.318   7.940  1.00  0.00     0.293 HD
ENDBRANCH   6  24
BRANCH   8  26
ATOM     26  O   UNL     1     -36.758  27.796   9.447  1.00  0.00    -0.508 OA
ATOM     27  H   UNL     1     -37.208  28.704   9.465  1.00  0.00     0.293 HD
ENDBRANCH   8  26
TORSDOF 6
ENDMDL
MODEL 5
REMARK VINA RESULT:    -6.285      3.285      4.009
REMARK INTER + INTRA:          -7.805
REMARK INTER:                  -7.472
REMARK INTRA:                  -0.333
REMARK UNBOUND:                -0.233
REMARK SMILES O=c1c(O)c(-c2ccc(O)c(O)c2)oc2cc(O)cc(O)c12
REMARK SMILES IDX 5 1 3 2 2 3 1 4 22 5 20 6 19 7 17 8 16 9 15 10 14 11 6 12
REMARK SMILES IDX 7 13 8 14 9 15 13 16 11 17 10 18 12 20 4 22 21 24 18 26
REMARK H PARENT 10 19 12 21 4 23 21 25 18 27
REMARK Flexibility Score: inf
ROOT
ATOM      1  C   UNL     1     -32.110  27.675  14.814  1.00  0.00     0.180 A 
ATOM      2  C   UNL     1     -33.325  27.076  15.188  1.00  0.00     0.208 A 
ATOM      3  C   UNL     1     -34.186  26.599  14.187  1.00  0.00     0.238 A 
ATOM      4  O   UNL     1     -35.248  26.016  14.531  1.00  0.00    -0.285 OA
ATOM      5  C   UNL     1     -33.829  26.740  12.825  1.00  0.00     0.111 A 
ATOM      6  C   UNL     1     -34.643  26.329  11.728  1.00  0.00     0.134 A 
ATOM      7  C   UNL     1     -34.133  26.398  10.425  1.00  0.00     0.093 A 
ATOM      8  C   UNL     1     -32.862  26.925  10.177  1.00  0.00     0.123 A 
ATOM      9  C   UNL     1     -32.084  27.384  11.236  1.00  0.00     0.094 A 
ATOM     10  C   UNL     1     -32.551  27.295  12.550  1.00  0.00     0.146 A 
ATOM     11  O   UNL     1     -31.773  27.734  13.531  1.00  0.00    -0.452 OA
ENDROOT
BRANCH   1  12
ATOM     12  C   UNL     1     -31.162  28.224  15.811  1.00  0.00     0.025 A 
ATOM     13  C   UNL     1     -31.251  29.555  16.248  1.00  0.00     0.016 A 
ATOM     14  C   UNL     1     -30.330  30.057  17.170  1.00  0.00     0.051 A 
ATOM     15  C   UNL     1     -29.300  29.250  17.663  1.00  0.00     0.157 A 
ATOM     16  C   UNL     1     -30.115  27.419  16.287  1.00  0.00     0.062 A 
ATOM     17  C   UNL     1     -29.189  27.914  17.213  1.00  0.00     0.158 A 
BRANCH  15  18
ATOM     18  O   UNL     1     -28.416  29.812  18.587  1.00  0.00    -0.504 OA
ATOM     19  H   UNL     1     -27.433  29.961  18.411  1.00  0.00     0.293 HD
ENDBRANCH  15  18
BRANCH  17  20
ATOM     20  O   UNL     1     -28.182  27.052  17.653  1.00  0.00    -0.504 OA
ATOM     21  H   UNL     1     -27.481  27.302  18.335  1.00  0.00     0.293 HD
ENDBRANCH  17  20
ENDBRANCH   1  12
BRANCH   2  22
ATOM     22  O   UNL     1     -33.648  26.929  16.540  1.00  0.00    -0.502 OA
ATOM     23  H   UNL     1     -33.821  26.025  16.962  1.00  0.00     0.293 HD
ENDBRANCH   2  22
BRANCH   6  24
ATOM     24  O   UNL     1     -35.959  25.875  11.858  1.00  0.00    -0.507 OA
ATOM     25  H   UNL     1     -36.499  25.460  11.112  1.00  0.00     0.293 HD
ENDBRANCH   6  24
BRANCH   8  26
ATOM     26  O   UNL     1     -32.369  27.004   8.876  1.00  0.00    -0.508 OA
ATOM     27  H   UNL     1     -31.374  27.048   8.687  1.00  0.00     0.293 HD
ENDBRANCH   8  26
TORSDOF 6
ENDMDL
MODEL 6
REMARK VINA RESULT:    -6.209      2.185      3.485
REMARK INTER + INTRA:          -7.713
REMARK INTER:                  -7.469
REMARK INTRA:                  -0.244
REMARK UNBOUND:                -0.233
REMARK SMILES O=c1c(O)c(-c2ccc(O)c(O)c2)oc2cc(O)cc(O)c12
REMARK SMILES IDX 5 1 3 2 2 3 1 4 22 5 20 6 19 7 17 8 16 9 15 10 14 11 6 12
REMARK SMILES IDX 7 13 8 14 9 15 13 16 11 17 10 18 12 20 4 22 21 24 18 26
REMARK H PARENT 10 19 12 21 4 23 21 25 18 27
REMARK Flexibility Score: inf
ROOT
ATOM      1  C   UNL     1     -31.455  29.349  12.243  1.00  0.00     0.180 A 
ATOM      2  C   UNL     1     -31.396  28.930  10.903  1.00  0.00     0.208 A 
ATOM      3  C   UNL     1     -32.354  28.017  10.432  1.00  0.00     0.238 A 
ATOM      4  O   UNL     1     -32.328  27.688   9.218  1.00  0.00    -0.285 OA
ATOM      5  C   UNL     1     -33.346  27.522  11.311  1.00  0.00     0.111 A 
ATOM      6  C   UNL     1     -34.340  26.564  10.952  1.00  0.00     0.134 A 
ATOM      7  C   UNL     1     -35.353  26.243  11.865  1.00  0.00     0.093 A 
ATOM      8  C   UNL     1     -35.368  26.799  13.147  1.00  0.00     0.123 A 
ATOM      9  C   UNL     1     -34.368  27.690  13.527  1.00  0.00     0.094 A 
ATOM     10  C   UNL     1     -33.365  28.056  12.626  1.00  0.00     0.146 A 
ATOM     11  O   UNL     1     -32.437  28.917  13.025  1.00  0.00    -0.452 OA
ENDROOT
BRANCH   1  12
ATOM     12  C   UNL     1     -30.466  30.290  12.818  1.00  0.00     0.025 A 
ATOM     13  C   UNL     1     -29.137  29.903  13.049  1.00  0.00     0.016 A 
ATOM     14  C   UNL     1     -28.229  30.801  13.616  1.00  0.00     0.051 A 
ATOM     15  C   UNL     1     -28.630  32.092  13.974  1.00  0.00     0.157 A 
ATOM     16  C   UNL     1     -30.877  31.578  13.198  1.00  0.00     0.062 A 
ATOM     17  C   UNL     1     -29.973  32.485  13.765  1.00  0.00     0.158 A 
BRANCH  15  18
ATOM     18  O   UNL     1     -27.673  32.942  14.531  1.00  0.00    -0.504 OA
ATOM     19  H   UNL     1     -26.744  33.071  14.156  1.00  0.00     0.293 HD
ENDBRANCH  15  18
BRANCH  17  20
ATOM     20  O   UNL     1     -30.449  33.753  14.105  1.00  0.00    -0.504 OA
ATOM     21  H   UNL     1     -31.358  33.926  14.507  1.00  0.00     0.293 HD
ENDBRANCH  17  20
ENDBRANCH   1  12
BRANCH   2  22
ATOM     22  O   UNL     1     -30.420  29.448  10.047  1.00  0.00    -0.502 OA
ATOM     23  H   UNL     1     -29.830  30.229  10.305  1.00  0.00     0.293 HD
ENDBRANCH   2  22
BRANCH   6  24
ATOM     24  O   UNL     1     -34.364  25.881   9.732  1.00  0.00    -0.507 OA
ATOM     25  H   UNL     1     -35.179  25.431   9.342  1.00  0.00     0.293 HD
ENDBRANCH   6  24
BRANCH   8  26
ATOM     26  O   UNL     1     -36.370  26.462  14.055  1.00  0.00    -0.508 OA
ATOM     27  H   UNL     1     -36.283  26.670  15.043  1.00  0.00     0.293 HD
ENDBRANCH   8  26
TORSDOF 6
ENDMDL
MODEL 7
REMARK VINA RESULT:    -6.184     15.061     17.346
REMARK INTER + INTRA:          -7.682
REMARK INTER:                  -7.359
REMARK INTRA:                  -0.323
REMARK UNBOUND:                -0.233
REMARK SMILES O=c1c(O)c(-c2ccc(O)c(O)c2)oc2cc(O)cc(O)c12
REMARK SMILES IDX 5 1 3 2 2 3 1 4 22 5 20 6 19 7 17 8 16 9 15 10 14 11 6 12
REMARK SMILES IDX 7 13 8 14 9 15 13 16 11 17 10 18 12 20 4 22 21 24 18 26
REMARK H PARENT 10 19 12 21 4 23 21 25 18 27
REMARK Flexibility Score: inf
ROOT
ATOM      1  C   UNL     1     -31.520  44.550  12.406  1.00  0.00     0.180 A 
ATOM      2  C   UNL     1     -30.677  45.063  13.407  1.00  0.00     0.208 A 
ATOM      3  C   UNL     1     -29.303  44.780  13.351  1.00  0.00     0.238 A 
ATOM      4  O   UNL     1     -28.545  45.287  14.220  1.00  0.00    -0.285 OA
ATOM      5  C   UNL     1     -28.791  43.975  12.305  1.00  0.00     0.111 A 
ATOM      6  C   UNL     1     -27.423  43.592  12.173  1.00  0.00     0.134 A 
ATOM      7  C   UNL     1     -27.006  42.902  11.028  1.00  0.00     0.093 A 
ATOM      8  C   UNL     1     -27.922  42.525  10.042  1.00  0.00     0.123 A 
ATOM      9  C   UNL     1     -29.270  42.842  10.191  1.00  0.00     0.094 A 
ATOM     10  C   UNL     1     -29.710  43.561  11.305  1.00  0.00     0.146 A 
ATOM     11  O   UNL     1     -31.001  43.853  11.403  1.00  0.00    -0.452 OA
ENDROOT
BRANCH   1  12
ATOM     12  C   UNL     1     -32.982  44.784  12.412  1.00  0.00     0.025 A 
ATOM     13  C   UNL     1     -33.544  45.912  11.793  1.00  0.00     0.016 A 
ATOM     14  C   UNL     1     -34.924  46.124  11.833  1.00  0.00     0.051 A 
ATOM     15  C   UNL     1     -35.766  45.227  12.499  1.00  0.00     0.157 A 
ATOM     16  C   UNL     1     -33.822  43.894  13.100  1.00  0.00     0.062 A 
ATOM     17  C   UNL     1     -35.208  44.099  13.144  1.00  0.00     0.158 A 
BRANCH  15  18
ATOM     18  O   UNL     1     -37.136  45.494  12.497  1.00  0.00    -0.504 OA
ATOM     19  H   UNL     1     -37.533  46.416  12.606  1.00  0.00     0.293 HD
ENDBRANCH  15  18
BRANCH  17  20
ATOM     20  O   UNL     1     -35.982  43.165  13.836  1.00  0.00    -0.504 OA
ATOM     21  H   UNL     1     -35.651  42.630  14.625  1.00  0.00     0.293 HD
ENDBRANCH  17  20
ENDBRANCH   1  12
BRANCH   2  22
ATOM     22  O   UNL     1     -31.200  45.873  14.419  1.00  0.00    -0.502 OA
ATOM     23  H   UNL     1     -30.821  46.787  14.634  1.00  0.00     0.293 HD
ENDBRANCH   2  22
BRANCH   6  24
ATOM     24  O   UNL     1     -26.446  43.838  13.142  1.00  0.00    -0.507 OA
ATOM     25  H   UNL     1     -25.798  44.612  13.120  1.00  0.00     0.293 HD
ENDBRANCH   6  24
BRANCH   8  26
ATOM     26  O   UNL     1     -27.501  41.824   8.913  1.00  0.00    -0.508 OA
ATOM     27  H   UNL     1     -27.084  40.904   8.985  1.00  0.00     0.293 HD
ENDBRANCH   8  26
TORSDOF 6
ENDMDL
MODEL 8
REMARK VINA RESULT:    -6.177     15.253     17.494
REMARK INTER + INTRA:          -7.675
REMARK INTER:                  -7.340
REMARK INTRA:                  -0.335
REMARK UNBOUND:                -0.233
REMARK SMILES O=c1c(O)c(-c2ccc(O)c(O)c2)oc2cc(O)cc(O)c12
REMARK SMILES IDX 5 1 3 2 2 3 1 4 22 5 20 6 19 7 17 8 16 9 15 10 14 11 6 12
REMARK SMILES IDX 7 13 8 14 9 15 13 16 11 17 10 18 12 20 4 22 21 24 18 26
REMARK H PARENT 10 19 12 21 4 23 21 25 18 27
REMARK Flexibility Score: inf
ROOT
ATOM      1  C   UNL     1     -31.416  44.249  12.032  1.00  0.00     0.180 A 
ATOM      2  C   UNL     1     -30.957  43.411  11.001  1.00  0.00     0.208 A 
ATOM      3  C   UNL     1     -29.584  43.133  10.909  1.00  0.00     0.238 A 
ATOM      4  O   UNL     1     -29.186  42.339  10.017  1.00  0.00    -0.285 OA
ATOM      5  C   UNL     1     -28.685  43.710  11.839  1.00  0.00     0.111 A 
ATOM      6  C   UNL     1     -27.270  43.529  11.816  1.00  0.00     0.134 A 
ATOM      7  C   UNL     1     -26.491  44.041  12.861  1.00  0.00     0.093 A 
ATOM      8  C   UNL     1     -27.071  44.781  13.895  1.00  0.00     0.123 A 
ATOM      9  C   UNL     1     -28.444  45.013  13.894  1.00  0.00     0.094 A 
ATOM     10  C   UNL     1     -29.252  44.486  12.884  1.00  0.00     0.146 A 
ATOM     11  O   UNL     1     -30.557  44.721  12.927  1.00  0.00    -0.452 OA
ENDROOT
BRANCH   1  12
ATOM     12  C   UNL     1     -32.846  44.607  12.178  1.00  0.00     0.025 A 
ATOM     13  C   UNL     1     -33.389  45.725  11.526  1.00  0.00     0.016 A 
ATOM     14  C   UNL     1     -34.735  46.057  11.699  1.00  0.00     0.051 A 
ATOM     15  C   UNL     1     -35.558  45.293  12.533  1.00  0.00     0.157 A 
ATOM     16  C   UNL     1     -33.664  43.852  13.033  1.00  0.00     0.062 A 
ATOM     17  C   UNL     1     -35.015  44.177  13.212  1.00  0.00     0.158 A 
BRANCH  15  18
ATOM     18  O   UNL     1     -36.895  45.675  12.659  1.00  0.00    -0.504 OA
ATOM     19  H   UNL     1     -37.659  45.027  12.787  1.00  0.00     0.293 HD
ENDBRANCH  15  18
BRANCH  17  20
ATOM     20  O   UNL     1     -35.771  43.373  14.067  1.00  0.00    -0.504 OA
ATOM     21  H   UNL     1     -35.456  43.060  14.974  1.00  0.00     0.293 HD
ENDBRANCH  17  20
ENDBRANCH   1  12
BRANCH   2  22
ATOM     22  O   UNL     1     -31.864  42.836  10.107  1.00  0.00    -0.502 OA
ATOM     23  H   UNL     1     -32.376  41.988  10.321  1.00  0.00     0.293 HD
ENDBRANCH   2  22
BRANCH   6  24
ATOM     24  O   UNL     1     -26.581  42.885  10.784  1.00  0.00    -0.507 OA
ATOM     25  H   UNL     1     -25.835  42.218  10.920  1.00  0.00     0.293 HD
ENDBRANCH   6  24
BRANCH   8  26
ATOM     26  O   UNL     1     -26.286  45.300  14.923  1.00  0.00    -0.508 OA
ATOM     27  H   UNL     1     -26.198  46.298  15.072  1.00  0.00     0.293 HD
ENDBRANCH   8  26
TORSDOF 6
ENDMDL
