MODEL 1
REMARK VINA RESULT:    -3.925      0.000      0.000
REMARK INTER + INTRA:          -7.805
REMARK INTER:                  -6.220
REMARK INTRA:                  -1.585
REMARK UNBOUND:                -1.585
REMARK SMILES CCCCCCCCCCCC(=O)[O-]
REMARK SMILES IDX 7 1 8 2 9 3 10 4 11 5 12 6 13 7 14 8 6 9 5 10 4 11 3 12 2 13
REMARK SMILES IDX 1 14
REMARK H PARENT
REMARK Flexibility Score: inf
ROOT
ATOM      1  C   UNL     1      -6.794  37.774  19.622  1.00  0.00     0.000 C 
ENDROOT
BRANCH   1   2
ATOM      2  C   UNL     1      -5.537  37.855  18.744  1.00  0.00     0.000 C 
BRANCH   2   3
ATOM      3  C   UNL     1      -4.607  38.979  19.217  1.00  0.00     0.000 C 
BRANCH   3   4
ATOM      4  C   UNL     1      -3.138  38.622  18.965  1.00  0.00     0.006 C 
BRANCH   4   5
ATOM      5  C   UNL     1      -2.943  37.104  18.911  1.00  0.00     0.053 C 
BRANCH   5   6
ATOM      6  C   UNL     1      -2.289  36.705  17.627  1.00  0.00     0.041 C 
ATOM      7  O   UNL     1      -2.716  37.155  16.531  1.00  0.00    -0.550 OA
ATOM      8  O   UNL     1      -1.238  35.797  17.634  1.00  0.00    -0.550 OA
ENDBRANCH   5   6
ENDBRANCH   4   5
ENDBRANCH   3   4
ENDBRANCH   2   3
ENDBRANCH   1   2
BRANCH   1   9
ATOM      9  C   UNL     1      -7.106  39.097  20.347  1.00  0.00     0.000 C 
BRANCH   9  10
ATOM     10  C   UNL     1      -7.453  38.956  21.840  1.00  0.00    -0.000 C 
BRANCH  10  11
ATOM     11  C   UNL     1      -6.518  37.987  22.586  1.00  0.00    -0.000 C 
BRANCH  11  12
ATOM     12  C   UNL     1      -5.132  38.607  22.863  1.00  0.00    -0.000 C 
BRANCH  12  13
ATOM     13  C   UNL     1      -3.964  37.623  22.672  1.00  0.00    -0.003 C 
ATOM     14  C   UNL     1      -4.412  36.250  22.180  1.00  0.00     0.004 C 
ENDBRANCH  12  13
ENDBRANCH  11  12
ENDBRANCH  10  11
ENDBRANCH   9  10
ENDBRANCH   1   9
TORSDOF 10
ENDMDL
MODEL 2
REMARK VINA RESULT:    -3.801      0.811      1.545
REMARK INTER + INTRA:          -7.608
REMARK INTER:                  -6.060
REMARK INTRA:                  -1.548
REMARK UNBOUND:                -1.585
REMARK SMILES CCCCCCCCCCCC(=O)[O-]
REMARK SMILES IDX 7 1 8 2 9 3 10 4 11 5 12 6 13 7 14 8 6 9 5 10 4 11 3 12 2 13
REMARK SMILES IDX 1 14
REMARK H PARENT
REMARK Flexibility Score: inf
ROOT
ATOM      1  C   UNL     1      -6.883  39.441  20.285  1.00  0.00     0.000 C 
ENDROOT
BRANCH   1   2
ATOM      2  C   UNL     1      -6.956  38.269  19.295  1.00  0.00     0.000 C 
BRANCH   2   3
ATOM      3  C   UNL     1      -5.552  37.819  18.873  1.00  0.00     0.000 C 
BRANCH   3   4
ATOM      4  C   UNL     1      -4.503  38.877  19.236  1.00  0.00     0.006 C 
BRANCH   4   5
ATOM      5  C   UNL     1      -3.138  38.232  19.496  1.00  0.00     0.053 C 
BRANCH   5   6
ATOM      6  C   UNL     1      -2.635  37.555  18.261  1.00  0.00     0.041 C 
ATOM      7  O   UNL     1      -2.268  36.351  18.303  1.00  0.00    -0.550 OA
ATOM      8  O   UNL     1      -2.524  38.267  17.073  1.00  0.00    -0.550 OA
ENDBRANCH   5   6
ENDBRANCH   4   5
ENDBRANCH   3   4
ENDBRANCH   2   3
ENDBRANCH   1   2
BRANCH   1   9
ATOM      9  C   UNL     1      -7.807  39.257  21.503  1.00  0.00     0.000 C 
BRANCH   9  10
ATOM     10  C   UNL     1      -7.128  38.674  22.755  1.00  0.00    -0.000 C 
BRANCH  10  11
ATOM     11  C   UNL     1      -5.706  39.220  22.977  1.00  0.00    -0.000 C 
BRANCH  11  12
ATOM     12  C   UNL     1      -4.631  38.118  22.868  1.00  0.00    -0.000 C 
BRANCH  12  13
ATOM     13  C   UNL     1      -5.168  36.782  22.325  1.00  0.00    -0.003 C 
ATOM     14  C   UNL     1      -4.105  35.688  22.265  1.00  0.00     0.004 C 
ENDBRANCH  12  13
ENDBRANCH  11  12
ENDBRANCH  10  11
ENDBRANCH   9  10
ENDBRANCH   1   9
TORSDOF 10
ENDMDL
MODEL 3
REMARK VINA RESULT:    -3.759      1.315      1.440
REMARK INTER + INTRA:          -7.542
REMARK INTER:                  -6.191
REMARK INTRA:                  -1.351
REMARK UNBOUND:                -1.585
REMARK SMILES CCCCCCCCCCCC(=O)[O-]
REMARK SMILES IDX 7 1 8 2 9 3 10 4 11 5 12 6 13 7 14 8 6 9 5 10 4 11 3 12 2 13
REMARK SMILES IDX 1 14
REMARK H PARENT
REMARK Flexibility Score: inf
ROOT
ATOM      1  C   UNL     1      -7.127  37.895  19.633  1.00  0.00     0.000 C 
ENDROOT
BRANCH   1   2
ATOM      2  C   UNL     1      -6.022  37.777  18.573  1.00  0.00     0.000 C 
BRANCH   2   3
ATOM      3  C   UNL     1      -4.806  38.633  18.949  1.00  0.00     0.000 C 
BRANCH   3   4
ATOM      4  C   UNL     1      -3.649  38.406  17.969  1.00  0.00     0.006 C 
BRANCH   4   5
ATOM      5  C   UNL     1      -2.718  37.296  18.465  1.00  0.00     0.053 C 
BRANCH   5   6
ATOM      6  C   UNL     1      -1.416  37.871  18.926  1.00  0.00     0.041 C 
ATOM      7  O   UNL     1      -0.374  37.714  18.238  1.00  0.00    -0.550 OA
ATOM      8  O   UNL     1      -1.343  38.540  20.142  1.00  0.00    -0.550 OA
ENDBRANCH   5   6
ENDBRANCH   4   5
ENDBRANCH   3   4
ENDBRANCH   2   3
ENDBRANCH   1   2
BRANCH   1   9
ATOM      9  C   UNL     1      -7.057  39.212  20.430  1.00  0.00     0.000 C 
BRANCH   9  10
ATOM     10  C   UNL     1      -7.545  39.119  21.887  1.00  0.00    -0.000 C 
BRANCH  10  11
ATOM     11  C   UNL     1      -6.651  38.224  22.764  1.00  0.00    -0.000 C 
BRANCH  11  12
ATOM     12  C   UNL     1      -5.241  38.819  22.963  1.00  0.00    -0.000 C 
BRANCH  12  13
ATOM     13  C   UNL     1      -4.107  37.894  22.490  1.00  0.00    -0.003 C 
ATOM     14  C   UNL     1      -4.596  36.512  22.069  1.00  0.00     0.004 C 
ENDBRANCH  12  13
ENDBRANCH  11  12
ENDBRANCH  10  11
ENDBRANCH   9  10
ENDBRANCH   1   9
TORSDOF 10
ENDMDL
MODEL 4
REMARK VINA RESULT:    -3.678      1.470      2.856
REMARK INTER + INTRA:          -7.414
REMARK INTER:                  -6.068
REMARK INTRA:                  -1.345
REMARK UNBOUND:                -1.585
REMARK SMILES CCCCCCCCCCCC(=O)[O-]
REMARK SMILES IDX 7 1 8 2 9 3 10 4 11 5 12 6 13 7 14 8 6 9 5 10 4 11 3 12 2 13
REMARK SMILES IDX 1 14
REMARK H PARENT
REMARK Flexibility Score: inf
ROOT
ATOM      1  C   UNL     1      -4.488  36.781  22.254  1.00  0.00     0.000 C 
ENDROOT
BRANCH   1   2
ATOM      2  C   UNL     1      -3.838  36.795  20.862  1.00  0.00     0.000 C 
BRANCH   2   3
ATOM      3  C   UNL     1      -3.036  38.084  20.644  1.00  0.00     0.000 C 
BRANCH   3   4
ATOM      4  C   UNL     1      -2.119  37.961  19.421  1.00  0.00     0.006 C 
BRANCH   4   5
ATOM      5  C   UNL     1      -2.747  37.064  18.351  1.00  0.00     0.053 C 
BRANCH   5   6
ATOM      6  C   UNL     1      -3.530  37.883  17.375  1.00  0.00     0.041 C 
ATOM      7  O   UNL     1      -3.274  39.107  17.223  1.00  0.00    -0.550 OA
ATOM      8  O   UNL     1      -4.578  37.307  16.667  1.00  0.00    -0.550 OA
ENDBRANCH   5   6
ENDBRANCH   4   5
ENDBRANCH   3   4
ENDBRANCH   2   3
ENDBRANCH   1   2
BRANCH   1   9
ATOM      9  C   UNL     1      -4.310  38.108  23.013  1.00  0.00     0.000 C 
BRANCH   9  10
ATOM     10  C   UNL     1      -5.604  38.915  23.229  1.00  0.00    -0.000 C 
BRANCH  10  11
ATOM     11  C   UNL     1      -6.855  38.198  22.693  1.00  0.00    -0.000 C 
BRANCH  11  12
ATOM     12  C   UNL     1      -7.579  39.019  21.604  1.00  0.00    -0.000 C 
BRANCH  12  13
ATOM     13  C   UNL     1      -6.711  39.307  20.367  1.00  0.00    -0.003 C 
ATOM     14  C   UNL     1      -6.845  38.246  19.279  1.00  0.00     0.004 C 
ENDBRANCH  12  13
ENDBRANCH  11  12
ENDBRANCH  10  11
ENDBRANCH   9  10
ENDBRANCH   1   9
TORSDOF 10
ENDMDL
MODEL 5
REMARK VINA RESULT:    -3.585      2.529      4.504
REMARK INTER + INTRA:          -7.266
REMARK INTER:                  -5.919
REMARK INTRA:                  -1.347
REMARK UNBOUND:                -1.585
REMARK SMILES CCCCCCCCCCCC(=O)[O-]
REMARK SMILES IDX 7 1 8 2 9 3 10 4 11 5 12 6 13 7 14 8 6 9 5 10 4 11 3 12 2 13
REMARK SMILES IDX 1 14
REMARK H PARENT
REMARK Flexibility Score: inf
ROOT
ATOM      1  C   UNL     1      -7.021  38.004  19.560  1.00  0.00     0.000 C 
ENDROOT
BRANCH   1   2
ATOM      2  C   UNL     1      -6.806  39.207  20.490  1.00  0.00     0.000 C 
BRANCH   2   3
ATOM      3  C   UNL     1      -7.572  39.026  21.807  1.00  0.00     0.000 C 
BRANCH   3   4
ATOM      4  C   UNL     1      -6.624  38.629  22.944  1.00  0.00     0.006 C 
BRANCH   4   5
ATOM      5  C   UNL     1      -5.165  38.889  22.561  1.00  0.00     0.053 C 
BRANCH   5   6
ATOM      6  C   UNL     1      -4.354  37.640  22.706  1.00  0.00     0.041 C 
ATOM      7  O   UNL     1      -3.306  37.642  23.404  1.00  0.00    -0.550 OA
ATOM      8  O   UNL     1      -4.729  36.486  22.030  1.00  0.00    -0.550 OA
ENDBRANCH   5   6
ENDBRANCH   4   5
ENDBRANCH   3   4
ENDBRANCH   2   3
ENDBRANCH   1   2
BRANCH   1   9
ATOM      9  C   UNL     1      -5.882  37.822  18.540  1.00  0.00     0.000 C 
BRANCH   9  10
ATOM     10  C   UNL     1      -4.540  38.463  18.940  1.00  0.00    -0.000 C 
BRANCH  10  11
ATOM     11  C   UNL     1      -3.377  37.455  18.972  1.00  0.00    -0.000 C 
BRANCH  11  12
ATOM     12  C   UNL     1      -2.138  38.014  19.702  1.00  0.00    -0.000 C 
BRANCH  12  13
ATOM     13  C   UNL     1      -2.260  39.500  20.081  1.00  0.00    -0.003 C 
ATOM     14  C   UNL     1      -1.458  39.870  21.325  1.00  0.00     0.004 C 
ENDBRANCH  12  13
ENDBRANCH  11  12
ENDBRANCH  10  11
ENDBRANCH   9  10
ENDBRANCH   1   9
TORSDOF 10
ENDMDL
MODEL 6
REMARK VINA RESULT:    -3.576      9.645     12.220
REMARK INTER + INTRA:          -7.252
REMARK INTER:                  -6.760
REMARK INTRA:                  -0.492
REMARK UNBOUND:                -1.585
REMARK SMILES CCCCCCCCCCCC(=O)[O-]
REMARK SMILES IDX 7 1 8 2 9 3 10 4 11 5 12 6 13 7 14 8 6 9 5 10 4 11 3 12 2 13
REMARK SMILES IDX 1 14
REMARK H PARENT
REMARK Flexibility Score: inf
ROOT
ATOM      1  C   UNL     1      -0.441  27.072  16.423  1.00  0.00     0.000 C 
ENDROOT
BRANCH   1   2
ATOM      2  C   UNL     1       0.352  26.017  17.209  1.00  0.00     0.000 C 
BRANCH   2   3
ATOM      3  C   UNL     1      -0.399  24.680  17.245  1.00  0.00     0.000 C 
BRANCH   3   4
ATOM      4  C   UNL     1      -1.076  24.466  18.604  1.00  0.00     0.006 C 
BRANCH   4   5
ATOM      5  C   UNL     1      -0.515  25.427  19.655  1.00  0.00     0.053 C 
BRANCH   5   6
ATOM      6  C   UNL     1      -1.187  25.212  20.974  1.00  0.00     0.041 C 
ATOM      7  O   UNL     1      -1.128  24.088  21.540  1.00  0.00    -0.550 OA
ATOM      8  O   UNL     1      -1.922  26.237  21.556  1.00  0.00    -0.550 OA
ENDBRANCH   5   6
ENDBRANCH   4   5
ENDBRANCH   3   4
ENDBRANCH   2   3
ENDBRANCH   1   2
BRANCH   1   9
ATOM      9  C   UNL     1      -0.262  28.496  16.981  1.00  0.00     0.000 C 
BRANCH   9  10
ATOM     10  C   UNL     1       1.071  29.176  16.618  1.00  0.00    -0.000 C 
BRANCH  10  11
ATOM     11  C   UNL     1       1.025  30.707  16.769  1.00  0.00    -0.000 C 
BRANCH  11  12
ATOM     12  C   UNL     1      -0.394  31.222  17.089  1.00  0.00    -0.000 C 
BRANCH  12  13
ATOM     13  C   UNL     1      -0.411  32.479  17.975  1.00  0.00    -0.003 C 
ATOM     14  C   UNL     1      -0.880  33.729  17.235  1.00  0.00     0.004 C 
ENDBRANCH  12  13
ENDBRANCH  11  12
ENDBRANCH  10  11
ENDBRANCH   9  10
ENDBRANCH   1   9
TORSDOF 10
ENDMDL
MODEL 7
REMARK VINA RESULT:    -3.548      3.016      5.496
REMARK INTER + INTRA:          -7.206
REMARK INTER:                  -6.063
REMARK INTRA:                  -1.143
REMARK UNBOUND:                -1.585
REMARK SMILES CCCCCCCCCCCC(=O)[O-]
REMARK SMILES IDX 7 1 8 2 9 3 10 4 11 5 12 6 13 7 14 8 6 9 5 10 4 11 3 12 2 13
REMARK SMILES IDX 1 14
REMARK H PARENT
REMARK Flexibility Score: inf
ROOT
ATOM      1  C   UNL     1      -4.621  38.647  19.342  1.00  0.00     0.000 C 
ENDROOT
BRANCH   1   2
ATOM      2  C   UNL     1      -5.777  37.760  18.856  1.00  0.00     0.000 C 
BRANCH   2   3
ATOM      3  C   UNL     1      -7.125  38.290  19.362  1.00  0.00     0.000 C 
BRANCH   3   4
ATOM      4  C   UNL     1      -6.926  39.394  20.407  1.00  0.00     0.006 C 
BRANCH   4   5
ATOM      5  C   UNL     1      -7.549  39.000  21.749  1.00  0.00     0.053 C 
BRANCH   5   6
ATOM      6  C   UNL     1      -6.569  38.230  22.576  1.00  0.00     0.041 C 
ATOM      7  O   UNL     1      -6.575  36.971  22.559  1.00  0.00    -0.550 OA
ATOM      8  O   UNL     1      -5.679  38.902  23.404  1.00  0.00    -0.550 OA
ENDBRANCH   5   6
ENDBRANCH   4   5
ENDBRANCH   3   4
ENDBRANCH   2   3
ENDBRANCH   1   2
BRANCH   1   9
ATOM      9  C   UNL     1      -3.610  37.888  20.221  1.00  0.00     0.000 C 
BRANCH   9  10
ATOM     10  C   UNL     1      -2.130  38.147  19.884  1.00  0.00    -0.000 C 
BRANCH  10  11
ATOM     11  C   UNL     1      -1.871  38.277  18.373  1.00  0.00    -0.000 C 
BRANCH  11  12
ATOM     12  C   UNL     1      -1.205  37.017  17.782  1.00  0.00    -0.000 C 
BRANCH  12  13
ATOM     13  C   UNL     1      -2.205  36.002  17.202  1.00  0.00    -0.003 C 
ATOM     14  C   UNL     1      -3.249  36.642  16.291  1.00  0.00     0.004 C 
ENDBRANCH  12  13
ENDBRANCH  11  12
ENDBRANCH  10  11
ENDBRANCH   9  10
ENDBRANCH   1   9
TORSDOF 10
ENDMDL
MODEL 8
REMARK VINA RESULT:    -3.537      1.056      2.760
REMARK INTER + INTRA:          -7.190
REMARK INTER:                  -5.732
REMARK INTRA:                  -1.458
REMARK UNBOUND:                -1.585
REMARK SMILES CCCCCCCCCCCC(=O)[O-]
REMARK SMILES IDX 7 1 8 2 9 3 10 4 11 5 12 6 13 7 14 8 6 9 5 10 4 11 3 12 2 13
REMARK SMILES IDX 1 14
REMARK H PARENT
REMARK Flexibility Score: inf
ROOT
ATOM      1  C   UNL     1      -3.540  39.460  22.037  1.00  0.00     0.000 C 
ENDROOT
BRANCH   1   2
ATOM      2  C   UNL     1      -2.818  38.930  20.789  1.00  0.00     0.000 C 
BRANCH   2   3
ATOM      3  C   UNL     1      -3.580  39.309  19.512  1.00  0.00     0.000 C 
BRANCH   3   4
ATOM      4  C   UNL     1      -3.777  38.087  18.606  1.00  0.00     0.006 C 
BRANCH   4   5
ATOM      5  C   UNL     1      -2.806  36.963  18.980  1.00  0.00     0.053 C 
BRANCH   5   6
ATOM      6  C   UNL     1      -2.019  36.532  17.784  1.00  0.00     0.041 C 
ATOM      7  O   UNL     1      -1.438  37.388  17.065  1.00  0.00    -0.550 OA
ATOM      8  O   UNL     1      -1.965  35.189  17.434  1.00  0.00    -0.550 OA
ENDBRANCH   5   6
ENDBRANCH   4   5
ENDBRANCH   3   4
ENDBRANCH   2   3
ENDBRANCH   1   2
BRANCH   1   9
ATOM      9  C   UNL     1      -3.991  38.338  22.991  1.00  0.00     0.000 C 
BRANCH   9  10
ATOM     10  C   UNL     1      -4.419  37.029  22.302  1.00  0.00    -0.000 C 
BRANCH  10  11
ATOM     11  C   UNL     1      -5.867  37.069  21.782  1.00  0.00    -0.000 C 
BRANCH  11  12
ATOM     12  C   UNL     1      -6.788  37.922  22.680  1.00  0.00    -0.000 C 
BRANCH  12  13
ATOM     13  C   UNL     1      -7.507  39.056  21.928  1.00  0.00    -0.003 C 
ATOM     14  C   UNL     1      -7.188  39.083  20.436  1.00  0.00     0.004 C 
ENDBRANCH  12  13
ENDBRANCH  11  12
ENDBRANCH  10  11
ENDBRANCH   9  10
ENDBRANCH   1   9
TORSDOF 10
ENDMDL
MODEL 9
REMARK VINA RESULT:    -3.529      3.481      4.973
REMARK INTER + INTRA:          -7.177
REMARK INTER:                  -5.636
REMARK INTRA:                  -1.541
REMARK UNBOUND:                -1.585
REMARK SMILES CCCCCCCCCCCC(=O)[O-]
REMARK SMILES IDX 7 1 8 2 9 3 10 4 11 5 12 6 13 7 14 8 6 9 5 10 4 11 3 12 2 13
REMARK SMILES IDX 1 14
REMARK H PARENT
REMARK Flexibility Score: inf
ROOT
ATOM      1  C   UNL     1      -7.136  38.411  19.326  1.00  0.00     0.000 C 
ENDROOT
BRANCH   1   2
ATOM      2  C   UNL     1      -7.110  39.523  20.386  1.00  0.00     0.000 C 
BRANCH   2   3
ATOM      3  C   UNL     1      -7.621  39.005  21.737  1.00  0.00     0.000 C 
BRANCH   3   4
ATOM      4  C   UNL     1      -6.580  39.225  22.840  1.00  0.00     0.006 C 
BRANCH   4   5
ATOM      5  C   UNL     1      -5.892  40.584  22.685  1.00  0.00     0.053 C 
BRANCH   5   6
ATOM      6  C   UNL     1      -4.830  40.755  23.724  1.00  0.00     0.041 C 
ATOM      7  O   UNL     1      -5.127  40.712  24.948  1.00  0.00    -0.550 OA
ATOM      8  O   UNL     1      -3.519  41.014  23.343  1.00  0.00    -0.550 OA
ENDBRANCH   5   6
ENDBRANCH   4   5
ENDBRANCH   3   4
ENDBRANCH   2   3
ENDBRANCH   1   2
BRANCH   1   9
ATOM      9  C   UNL     1      -5.741  37.831  19.029  1.00  0.00     0.000 C 
BRANCH   9  10
ATOM     10  C   UNL     1      -4.560  38.733  19.435  1.00  0.00    -0.000 C 
BRANCH  10  11
ATOM     11  C   UNL     1      -3.674  38.107  20.527  1.00  0.00    -0.000 C 
BRANCH  11  12
ATOM     12  C   UNL     1      -4.113  36.673  20.887  1.00  0.00    -0.000 C 
BRANCH  12  13
ATOM     13  C   UNL     1      -4.169  36.404  22.401  1.00  0.00    -0.003 C 
ATOM     14  C   UNL     1      -3.396  37.433  23.221  1.00  0.00     0.004 C 
ENDBRANCH  12  13
ENDBRANCH  11  12
ENDBRANCH  10  11
ENDBRANCH   9  10
ENDBRANCH   1   9
TORSDOF 10
ENDMDL
