MODEL 1
REMARK VINA RESULT:    -7.632      0.000      0.000
REMARK INTER + INTRA:          -9.713
REMARK INTER:                  -9.416
REMARK INTRA:                  -0.297
REMARK UNBOUND:                -0.297
REMARK SMILES Oc1cc(O)c2cc(O)c(-c3cc(O)c(O)c(O)c3)[o+]c2c1
REMARK SMILES IDX 10 1 20 2 21 3 22 4 2 5 3 6 4 7 6 8 7 9 8 10 11 11 12 12
REMARK SMILES IDX 13 13 19 14 15 15 17 16 14 17 16 19 18 21 9 23 1 25 5 27
REMARK H PARENT 14 18 16 20 18 22 9 24 1 26 5 28
REMARK Flexibility Score: inf
ROOT
ATOM      1  C   UNL     1      41.002 -11.496   8.570  1.00  0.00     0.402 A 
ATOM      2  O   UNL     1      41.379 -12.742   8.856  1.00  0.00    -0.202 OA
ATOM      3  C   UNL     1      42.040 -13.066   9.963  1.00  0.00     0.368 A 
ATOM      4  C   UNL     1      42.395 -14.399  10.191  1.00  0.00     0.162 A 
ATOM      5  C   UNL     1      43.088 -14.755  11.356  1.00  0.00     0.128 A 
ATOM      6  C   UNL     1      43.428 -13.773  12.292  1.00  0.00     0.093 A 
ATOM      7  C   UNL     1      43.080 -12.432  12.075  1.00  0.00     0.136 A 
ATOM      8  C   UNL     1      42.383 -12.074  10.906  1.00  0.00     0.125 A 
ATOM      9  C   UNL     1      42.016 -10.751  10.634  1.00  0.00     0.078 A 
ATOM     10  C   UNL     1      41.330 -10.449   9.454  1.00  0.00     0.223 A 
ENDROOT
BRANCH   1  11
ATOM     11  C   UNL     1      40.263 -11.260   7.310  1.00  0.00     0.091 A 
ATOM     12  C   UNL     1      38.914 -11.636   7.220  1.00  0.00     0.068 A 
ATOM     13  C   UNL     1      38.179 -11.409   6.051  1.00  0.00     0.162 A 
ATOM     14  C   UNL     1      40.865 -10.614   6.219  1.00  0.00     0.068 A 
ATOM     15  C   UNL     1      38.801 -10.778   4.946  1.00  0.00     0.200 A 
ATOM     16  C   UNL     1      40.141 -10.381   5.043  1.00  0.00     0.162 A 
BRANCH  13  17
ATOM     17  O   UNL     1      36.845 -11.822   6.031  1.00  0.00    -0.504 OA
ATOM     18  H   UNL     1      36.514 -12.641   5.542  1.00  0.00     0.293 HD
ENDBRANCH  13  17
BRANCH  15  19
ATOM     19  O   UNL     1      38.126 -10.528   3.748  1.00  0.00    -0.502 OA
ATOM     20  H   UNL     1      38.529 -10.667   2.833  1.00  0.00     0.293 HD
ENDBRANCH  15  19
BRANCH  16  21
ATOM     21  O   UNL     1      40.749  -9.746   3.961  1.00  0.00    -0.504 OA
ATOM     22  H   UNL     1      40.784  -8.735   3.888  1.00  0.00     0.293 HD
ENDBRANCH  16  21
ENDBRANCH   1  11
BRANCH  10  23
ATOM     23  O   UNL     1      41.007  -9.125   9.153  1.00  0.00    -0.500 OA
ATOM     24  H   UNL     1      40.150  -8.698   9.484  1.00  0.00     0.294 HD
ENDBRANCH  10  23
BRANCH   5  25
ATOM     25  O   UNL     1      43.445 -16.081  11.591  1.00  0.00    -0.507 OA
ATOM     26  H   UNL     1      43.774 -16.681  10.844  1.00  0.00     0.293 HD
ENDBRANCH   5  25
BRANCH   7  27
ATOM     27  O   UNL     1      43.425 -11.461  13.017  1.00  0.00    -0.507 OA
ATOM     28  H   UNL     1      44.136 -10.765  12.825  1.00  0.00     0.293 HD
ENDBRANCH   7  27
TORSDOF 7
ENDMDL
MODEL 2
REMARK VINA RESULT:    -7.618      2.149      7.324
REMARK INTER + INTRA:          -9.696
REMARK INTER:                  -9.337
REMARK INTRA:                  -0.359
REMARK UNBOUND:                -0.297
REMARK SMILES Oc1cc(O)c2cc(O)c(-c3cc(O)c(O)c(O)c3)[o+]c2c1
REMARK SMILES IDX 10 1 20 2 21 3 22 4 2 5 3 6 4 7 6 8 7 9 8 10 11 11 12 12
REMARK SMILES IDX 13 13 19 14 15 15 17 16 14 17 16 19 18 21 9 23 1 25 5 27
REMARK H PARENT 14 18 16 20 18 22 9 24 1 26 5 28
REMARK Flexibility Score: inf
ROOT
ATOM      1  C   UNL     1      39.046 -11.761   8.289  1.00  0.00     0.402 A 
ATOM      2  O   UNL     1      39.168 -11.379   7.017  1.00  0.00    -0.202 OA
ATOM      3  C   UNL     1      38.230 -11.592   6.101  1.00  0.00     0.368 A 
ATOM      4  C   UNL     1      38.433 -11.156   4.788  1.00  0.00     0.162 A 
ATOM      5  C   UNL     1      37.450 -11.371   3.813  1.00  0.00     0.128 A 
ATOM      6  C   UNL     1      36.263 -12.027   4.154  1.00  0.00     0.093 A 
ATOM      7  C   UNL     1      36.046 -12.472   5.466  1.00  0.00     0.136 A 
ATOM      8  C   UNL     1      37.032 -12.255   6.446  1.00  0.00     0.125 A 
ATOM      9  C   UNL     1      36.873 -12.684   7.769  1.00  0.00     0.078 A 
ATOM     10  C   UNL     1      37.888 -12.449   8.702  1.00  0.00     0.223 A 
ENDROOT
BRANCH   1  11
ATOM     11  C   UNL     1      40.156 -11.458   9.220  1.00  0.00     0.091 A 
ATOM     12  C   UNL     1      41.335 -12.216   9.158  1.00  0.00     0.068 A 
ATOM     13  C   UNL     1      42.413 -11.945  10.010  1.00  0.00     0.162 A 
ATOM     14  C   UNL     1      40.079 -10.391  10.128  1.00  0.00     0.068 A 
ATOM     15  C   UNL     1      42.317 -10.881  10.939  1.00  0.00     0.200 A 
ATOM     16  C   UNL     1      41.149 -10.108  10.986  1.00  0.00     0.162 A 
BRANCH  13  17
ATOM     17  O   UNL     1      43.548 -12.750   9.898  1.00  0.00    -0.504 OA
ATOM     18  H   UNL     1      43.585 -13.718  10.183  1.00  0.00     0.293 HD
ENDBRANCH  13  17
BRANCH  15  19
ATOM     19  O   UNL     1      43.352 -10.560  11.821  1.00  0.00    -0.502 OA
ATOM     20  H   UNL     1      44.330 -10.567  11.572  1.00  0.00     0.293 HD
ENDBRANCH  15  19
BRANCH  16  21
ATOM     21  O   UNL     1      41.061  -9.051  11.890  1.00  0.00    -0.504 OA
ATOM     22  H   UNL     1      41.859  -8.461  12.098  1.00  0.00     0.293 HD
ENDBRANCH  16  21
ENDBRANCH   1  11
BRANCH  10  23
ATOM     23  O   UNL     1      37.757 -12.919  10.009  1.00  0.00    -0.500 OA
ATOM     24  H   UNL     1      37.339 -12.353  10.738  1.00  0.00     0.294 HD
ENDBRANCH  10  23
BRANCH   5  25
ATOM     25  O   UNL     1      37.644 -10.938   2.503  1.00  0.00    -0.507 OA
ATOM     26  H   UNL     1      38.536 -10.570   2.194  1.00  0.00     0.293 HD
ENDBRANCH   5  25
BRANCH   7  27
ATOM     27  O   UNL     1      34.857 -13.126   5.792  1.00  0.00    -0.507 OA
ATOM     28  H   UNL     1      34.355 -12.918   6.648  1.00  0.00     0.293 HD
ENDBRANCH   7  27
TORSDOF 7
ENDMDL
MODEL 3
REMARK VINA RESULT:    -7.601      0.334      1.830
REMARK INTER + INTRA:          -9.675
REMARK INTER:                  -9.385
REMARK INTRA:                  -0.290
REMARK UNBOUND:                -0.297
REMARK SMILES Oc1cc(O)c2cc(O)c(-c3cc(O)c(O)c(O)c3)[o+]c2c1
REMARK SMILES IDX 10 1 20 2 21 3 22 4 2 5 3 6 4 7 6 8 7 9 8 10 11 11 12 12
REMARK SMILES IDX 13 13 19 14 15 15 17 16 14 17 16 19 18 21 9 23 1 25 5 27
REMARK H PARENT 14 18 16 20 18 22 9 24 1 26 5 28
REMARK Flexibility Score: inf
ROOT
ATOM      1  C   UNL     1      40.749 -11.538   8.735  1.00  0.00     0.402 A 
ATOM      2  O   UNL     1      41.155 -12.779   9.006  1.00  0.00    -0.202 OA
ATOM      3  C   UNL     1      41.895 -13.087  10.066  1.00  0.00     0.368 A 
ATOM      4  C   UNL     1      42.276 -14.414  10.281  1.00  0.00     0.162 A 
ATOM      5  C   UNL     1      43.054 -14.753  11.397  1.00  0.00     0.128 A 
ATOM      6  C   UNL     1      43.452 -13.759  12.296  1.00  0.00     0.093 A 
ATOM      7  C   UNL     1      43.078 -12.422  12.092  1.00  0.00     0.136 A 
ATOM      8  C   UNL     1      42.297 -12.082  10.973  1.00  0.00     0.125 A 
ATOM      9  C   UNL     1      41.901 -10.764  10.714  1.00  0.00     0.078 A 
ATOM     10  C   UNL     1      41.130 -10.479   9.583  1.00  0.00     0.223 A 
ENDROOT
BRANCH   1  11
ATOM     11  C   UNL     1      39.920 -11.320   7.529  1.00  0.00     0.091 A 
ATOM     12  C   UNL     1      40.487 -10.708   6.402  1.00  0.00     0.068 A 
ATOM     13  C   UNL     1      39.738 -10.505   5.237  1.00  0.00     0.162 A 
ATOM     14  C   UNL     1      38.590 -11.766   7.465  1.00  0.00     0.068 A 
ATOM     15  C   UNL     1      38.391 -10.936   5.189  1.00  0.00     0.200 A 
ATOM     16  C   UNL     1      37.830 -11.570   6.306  1.00  0.00     0.162 A 
BRANCH  13  17
ATOM     17  O   UNL     1      40.369  -9.877   4.161  1.00  0.00    -0.504 OA
ATOM     18  H   UNL     1      40.298  -8.889   3.962  1.00  0.00     0.293 HD
ENDBRANCH  13  17
BRANCH  15  19
ATOM     19  O   UNL     1      37.586 -10.759   4.061  1.00  0.00    -0.502 OA
ATOM     20  H   UNL     1      36.876 -10.047   3.979  1.00  0.00     0.293 HD
ENDBRANCH  15  19
BRANCH  16  21
ATOM     21  O   UNL     1      36.507 -12.009   6.254  1.00  0.00    -0.504 OA
ATOM     22  H   UNL     1      36.000 -12.067   5.378  1.00  0.00     0.293 HD
ENDBRANCH  16  21
ENDBRANCH   1  11
BRANCH  10  23
ATOM     23  O   UNL     1      40.776  -9.161   9.293  1.00  0.00    -0.500 OA
ATOM     24  H   UNL     1      39.988  -8.711   9.743  1.00  0.00     0.294 HD
ENDBRANCH  10  23
BRANCH   5  25
ATOM     25  O   UNL     1      43.437 -16.074  11.619  1.00  0.00    -0.507 OA
ATOM     26  H   UNL     1      43.682 -16.405  12.545  1.00  0.00     0.293 HD
ENDBRANCH   5  25
BRANCH   7  27
ATOM     27  O   UNL     1      43.482 -11.440  12.998  1.00  0.00    -0.507 OA
ATOM     28  H   UNL     1      43.383 -11.567  13.998  1.00  0.00     0.293 HD
ENDBRANCH   7  27
TORSDOF 7
ENDMDL
MODEL 4
REMARK VINA RESULT:    -7.593      2.210      7.252
REMARK INTER + INTRA:          -9.665
REMARK INTER:                  -9.362
REMARK INTRA:                  -0.303
REMARK UNBOUND:                -0.297
REMARK SMILES Oc1cc(O)c2cc(O)c(-c3cc(O)c(O)c(O)c3)[o+]c2c1
REMARK SMILES IDX 10 1 20 2 21 3 22 4 2 5 3 6 4 7 6 8 7 9 8 10 11 11 12 12
REMARK SMILES IDX 13 13 19 14 15 15 17 16 14 17 16 19 18 21 9 23 1 25 5 27
REMARK H PARENT 14 18 16 20 18 22 9 24 1 26 5 28
REMARK Flexibility Score: inf
ROOT
ATOM      1  C   UNL     1      39.013 -11.749   8.259  1.00  0.00     0.402 A 
ATOM      2  O   UNL     1      39.121 -11.455   6.964  1.00  0.00    -0.202 OA
ATOM      3  C   UNL     1      38.155 -11.688   6.081  1.00  0.00     0.368 A 
ATOM      4  C   UNL     1      38.346 -11.345   4.740  1.00  0.00     0.162 A 
ATOM      5  C   UNL     1      37.334 -11.582   3.800  1.00  0.00     0.128 A 
ATOM      6  C   UNL     1      36.129 -12.166   4.206  1.00  0.00     0.093 A 
ATOM      7  C   UNL     1      35.924 -12.517   5.548  1.00  0.00     0.136 A 
ATOM      8  C   UNL     1      36.940 -12.278   6.493  1.00  0.00     0.125 A 
ATOM      9  C   UNL     1      36.794 -12.614   7.843  1.00  0.00     0.078 A 
ATOM     10  C   UNL     1      37.837 -12.361   8.739  1.00  0.00     0.223 A 
ENDROOT
BRANCH   1  11
ATOM     11  C   UNL     1      40.154 -11.434   9.147  1.00  0.00     0.091 A 
ATOM     12  C   UNL     1      40.039 -10.388  10.075  1.00  0.00     0.068 A 
ATOM     13  C   UNL     1      41.090 -10.075  10.944  1.00  0.00     0.162 A 
ATOM     14  C   UNL     1      41.332 -12.196   9.122  1.00  0.00     0.068 A 
ATOM     15  C   UNL     1      42.285 -10.834  10.896  1.00  0.00     0.200 A 
ATOM     16  C   UNL     1      42.392 -11.894   9.985  1.00  0.00     0.162 A 
BRANCH  13  17
ATOM     17  O   UNL     1      40.906  -9.013  11.831  1.00  0.00    -0.504 OA
ATOM     18  H   UNL     1      41.577  -8.271  11.972  1.00  0.00     0.293 HD
ENDBRANCH  13  17
BRANCH  15  19
ATOM     19  O   UNL     1      43.375 -10.571  11.730  1.00  0.00    -0.502 OA
ATOM     20  H   UNL     1      43.375  -9.870  12.456  1.00  0.00     0.293 HD
ENDBRANCH  15  19
BRANCH  16  21
ATOM     21  O   UNL     1      43.563 -12.651   9.949  1.00  0.00    -0.504 OA
ATOM     22  H   UNL     1      44.468 -12.224   9.786  1.00  0.00     0.293 HD
ENDBRANCH  16  21
ENDBRANCH   1  11
BRANCH  10  23
ATOM     23  O   UNL     1      37.717 -12.741  10.076  1.00  0.00    -0.500 OA
ATOM     24  H   UNL     1      37.281 -12.137  10.763  1.00  0.00     0.294 HD
ENDBRANCH  10  23
BRANCH   5  25
ATOM     25  O   UNL     1      37.516 -11.243   2.461  1.00  0.00    -0.507 OA
ATOM     26  H   UNL     1      38.439 -11.209   2.044  1.00  0.00     0.293 HD
ENDBRANCH   5  25
BRANCH   7  27
ATOM     27  O   UNL     1      34.718 -13.099   5.940  1.00  0.00    -0.507 OA
ATOM     28  H   UNL     1      34.098 -13.538   5.269  1.00  0.00     0.293 HD
ENDBRANCH   7  27
TORSDOF 7
ENDMDL
MODEL 5
REMARK VINA RESULT:    -7.451      1.147      2.313
REMARK INTER + INTRA:          -9.490
REMARK INTER:                  -9.263
REMARK INTRA:                  -0.227
REMARK UNBOUND:                -0.297
REMARK SMILES Oc1cc(O)c2cc(O)c(-c3cc(O)c(O)c(O)c3)[o+]c2c1
REMARK SMILES IDX 10 1 20 2 21 3 22 4 2 5 3 6 4 7 6 8 7 9 8 10 11 11 12 12
REMARK SMILES IDX 13 13 19 14 15 15 17 16 14 17 16 19 18 21 9 23 1 25 5 27
REMARK H PARENT 14 18 16 20 18 22 9 24 1 26 5 28
REMARK Flexibility Score: inf
ROOT
ATOM      1  C   UNL     1      39.865 -11.808   8.405  1.00  0.00     0.402 A 
ATOM      2  O   UNL     1      40.409 -12.975   8.752  1.00  0.00    -0.202 OA
ATOM      3  C   UNL     1      41.338 -13.093   9.695  1.00  0.00     0.368 A 
ATOM      4  C   UNL     1      41.855 -14.355  10.003  1.00  0.00     0.162 A 
ATOM      5  C   UNL     1      42.832 -14.493  10.998  1.00  0.00     0.128 A 
ATOM      6  C   UNL     1      43.292 -13.365  11.684  1.00  0.00     0.093 A 
ATOM      7  C   UNL     1      42.783 -12.093  11.385  1.00  0.00     0.136 A 
ATOM      8  C   UNL     1      41.802 -11.953  10.386  1.00  0.00     0.125 A 
ATOM      9  C   UNL     1      41.264 -10.708  10.041  1.00  0.00     0.078 A 
ATOM     10  C   UNL     1      40.295 -10.624   9.036  1.00  0.00     0.223 A 
ENDROOT
BRANCH   1  11
ATOM     11  C   UNL     1      38.832 -11.805   7.345  1.00  0.00     0.091 A 
ATOM     12  C   UNL     1      39.109 -11.196   6.113  1.00  0.00     0.068 A 
ATOM     13  C   UNL     1      38.163 -11.192   5.081  1.00  0.00     0.162 A 
ATOM     14  C   UNL     1      37.597 -12.449   7.525  1.00  0.00     0.068 A 
ATOM     15  C   UNL     1      36.911 -11.823   5.279  1.00  0.00     0.200 A 
ATOM     16  C   UNL     1      36.642 -12.452   6.502  1.00  0.00     0.162 A 
BRANCH  13  17
ATOM     17  O   UNL     1      38.507 -10.555   3.886  1.00  0.00    -0.504 OA
ATOM     18  H   UNL     1      38.372  -9.570   3.712  1.00  0.00     0.293 HD
ENDBRANCH  13  17
BRANCH  15  19
ATOM     19  O   UNL     1      35.921 -11.850   4.294  1.00  0.00    -0.502 OA
ATOM     20  H   UNL     1      35.034 -12.321   4.397  1.00  0.00     0.293 HD
ENDBRANCH  15  19
BRANCH  16  21
ATOM     21  O   UNL     1      35.415 -13.087   6.691  1.00  0.00    -0.504 OA
ATOM     22  H   UNL     1      35.269 -13.746   7.448  1.00  0.00     0.293 HD
ENDBRANCH  16  21
ENDBRANCH   1  11
BRANCH  10  23
ATOM     23  O   UNL     1      39.793  -9.380   8.652  1.00  0.00    -0.500 OA
ATOM     24  H   UNL     1      39.173  -8.849   9.252  1.00  0.00     0.294 HD
ENDBRANCH  10  23
BRANCH   5  25
ATOM     25  O   UNL     1      43.351 -15.747  11.311  1.00  0.00    -0.507 OA
ATOM     26  H   UNL     1      44.336 -15.958  11.191  1.00  0.00     0.293 HD
ENDBRANCH   5  25
BRANCH   7  27
ATOM     27  O   UNL     1      43.252 -10.974  12.077  1.00  0.00    -0.507 OA
ATOM     28  H   UNL     1      43.119 -10.875  13.077  1.00  0.00     0.293 HD
ENDBRANCH   7  27
TORSDOF 7
ENDMDL
MODEL 6
REMARK VINA RESULT:    -7.391      1.219      1.579
REMARK INTER + INTRA:          -9.416
REMARK INTER:                  -9.152
REMARK INTRA:                  -0.264
REMARK UNBOUND:                -0.297
REMARK SMILES Oc1cc(O)c2cc(O)c(-c3cc(O)c(O)c(O)c3)[o+]c2c1
REMARK SMILES IDX 10 1 20 2 21 3 22 4 2 5 3 6 4 7 6 8 7 9 8 10 11 11 12 12
REMARK SMILES IDX 13 13 19 14 15 15 17 16 14 17 16 19 18 21 9 23 1 25 5 27
REMARK H PARENT 14 18 16 20 18 22 9 24 1 26 5 28
REMARK Flexibility Score: inf
ROOT
ATOM      1  C   UNL     1      39.776 -11.834   8.312  1.00  0.00     0.402 A 
ATOM      2  O   UNL     1      40.358 -12.985   8.647  1.00  0.00    -0.202 OA
ATOM      3  C   UNL     1      41.266 -13.087   9.612  1.00  0.00     0.368 A 
ATOM      4  C   UNL     1      41.825 -14.334   9.906  1.00  0.00     0.162 A 
ATOM      5  C   UNL     1      42.781 -14.457  10.924  1.00  0.00     0.128 A 
ATOM      6  C   UNL     1      43.177 -13.327  11.647  1.00  0.00     0.093 A 
ATOM      7  C   UNL     1      42.625 -12.069  11.362  1.00  0.00     0.136 A 
ATOM      8  C   UNL     1      41.665 -11.946  10.341  1.00  0.00     0.125 A 
ATOM      9  C   UNL     1      41.087 -10.716  10.008  1.00  0.00     0.078 A 
ATOM     10  C   UNL     1      40.142 -10.648   8.980  1.00  0.00     0.223 A 
ENDROOT
BRANCH   1  11
ATOM     11  C   UNL     1      38.772 -11.847   7.225  1.00  0.00     0.091 A 
ATOM     12  C   UNL     1      37.518 -12.433   7.451  1.00  0.00     0.068 A 
ATOM     13  C   UNL     1      36.537 -12.446   6.452  1.00  0.00     0.162 A 
ATOM     14  C   UNL     1      39.025 -11.234   5.988  1.00  0.00     0.068 A 
ATOM     15  C   UNL     1      36.809 -11.846   5.199  1.00  0.00     0.200 A 
ATOM     16  C   UNL     1      38.053 -11.239   4.980  1.00  0.00     0.162 A 
BRANCH  13  17
ATOM     17  O   UNL     1      35.317 -13.059   6.747  1.00  0.00    -0.504 OA
ATOM     18  H   UNL     1      34.416 -12.640   6.569  1.00  0.00     0.293 HD
ENDBRANCH  13  17
BRANCH  15  19
ATOM     19  O   UNL     1      35.877 -11.828   4.158  1.00  0.00    -0.502 OA
ATOM     20  H   UNL     1      34.890 -11.663   4.285  1.00  0.00     0.293 HD
ENDBRANCH  15  19
BRANCH  16  21
ATOM     21  O   UNL     1      38.315 -10.634   3.751  1.00  0.00    -0.504 OA
ATOM     22  H   UNL     1      38.830 -11.114   3.021  1.00  0.00     0.293 HD
ENDBRANCH  16  21
ENDBRANCH   1  11
BRANCH  10  23
ATOM     23  O   UNL     1      39.600  -9.417   8.610  1.00  0.00    -0.500 OA
ATOM     24  H   UNL     1      38.599  -9.270   8.561  1.00  0.00     0.294 HD
ENDBRANCH  10  23
BRANCH   5  25
ATOM     25  O   UNL     1      43.343 -15.696  11.224  1.00  0.00    -0.507 OA
ATOM     26  H   UNL     1      43.509 -16.390  10.504  1.00  0.00     0.293 HD
ENDBRANCH   5  25
BRANCH   7  27
ATOM     27  O   UNL     1      43.030 -10.950  12.091  1.00  0.00    -0.507 OA
ATOM     28  H   UNL     1      42.368 -10.394  12.620  1.00  0.00     0.293 HD
ENDBRANCH   7  27
TORSDOF 7
ENDMDL
MODEL 7
REMARK VINA RESULT:    -7.274      7.915     12.949
REMARK INTER + INTRA:          -9.272
REMARK INTER:                  -8.920
REMARK INTRA:                  -0.352
REMARK UNBOUND:                -0.297
REMARK SMILES Oc1cc(O)c2cc(O)c(-c3cc(O)c(O)c(O)c3)[o+]c2c1
REMARK SMILES IDX 10 1 20 2 21 3 22 4 2 5 3 6 4 7 6 8 7 9 8 10 11 11 12 12
REMARK SMILES IDX 13 13 19 14 15 15 17 16 14 17 16 19 18 21 9 23 1 25 5 27
REMARK H PARENT 14 18 16 20 18 22 9 24 1 26 5 28
REMARK Flexibility Score: inf
ROOT
ATOM      1  C   UNL     1      32.968 -14.171   1.782  1.00  0.00     0.402 A 
ATOM      2  O   UNL     1      32.125 -13.176   1.508  1.00  0.00    -0.202 OA
ATOM      3  C   UNL     1      31.035 -13.331   0.762  1.00  0.00     0.368 A 
ATOM      4  C   UNL     1      30.198 -12.237   0.526  1.00  0.00     0.162 A 
ATOM      5  C   UNL     1      29.044 -12.387  -0.255  1.00  0.00     0.128 A 
ATOM      6  C   UNL     1      28.730 -13.636  -0.801  1.00  0.00     0.093 A 
ATOM      7  C   UNL     1      29.562 -14.742  -0.573  1.00  0.00     0.136 A 
ATOM      8  C   UNL     1      30.720 -14.592   0.211  1.00  0.00     0.125 A 
ATOM      9  C   UNL     1      31.590 -15.658   0.465  1.00  0.00     0.078 A 
ATOM     10  C   UNL     1      32.731 -15.453   1.246  1.00  0.00     0.223 A 
ENDROOT
BRANCH   1  11
ATOM     11  C   UNL     1      34.144 -13.878   2.631  1.00  0.00     0.091 A 
ATOM     12  C   UNL     1      34.131 -14.257   3.982  1.00  0.00     0.068 A 
ATOM     13  C   UNL     1      35.234 -14.014   4.810  1.00  0.00     0.162 A 
ATOM     14  C   UNL     1      35.298 -13.280   2.102  1.00  0.00     0.068 A 
ATOM     15  C   UNL     1      36.385 -13.389   4.274  1.00  0.00     0.200 A 
ATOM     16  C   UNL     1      36.408 -13.031   2.919  1.00  0.00     0.162 A 
BRANCH  13  17
ATOM     17  O   UNL     1      35.142 -14.408   6.146  1.00  0.00    -0.504 OA
ATOM     18  H   UNL     1      35.373 -15.332   6.481  1.00  0.00     0.293 HD
ENDBRANCH  13  17
BRANCH  15  19
ATOM     19  O   UNL     1      37.517 -13.112   5.045  1.00  0.00    -0.502 OA
ATOM     20  H   UNL     1      38.465 -13.192   4.708  1.00  0.00     0.293 HD
ENDBRANCH  15  19
BRANCH  16  21
ATOM     21  O   UNL     1      37.548 -12.430   2.386  1.00  0.00    -0.504 OA
ATOM     22  H   UNL     1      37.536 -11.473   2.049  1.00  0.00     0.293 HD
ENDBRANCH  16  21
ENDBRANCH   1  11
BRANCH  10  23
ATOM     23  O   UNL     1      33.628 -16.500   1.461  1.00  0.00    -0.500 OA
ATOM     24  H   UNL     1      34.001 -17.046   0.693  1.00  0.00     0.294 HD
ENDBRANCH  10  23
BRANCH   5  25
ATOM     25  O   UNL     1      28.204 -11.302  -0.495  1.00  0.00    -0.507 OA
ATOM     26  H   UNL     1      27.880 -11.079  -1.429  1.00  0.00     0.293 HD
ENDBRANCH   5  25
BRANCH   7  27
ATOM     27  O   UNL     1      29.237 -15.983  -1.125  1.00  0.00    -0.507 OA
ATOM     28  H   UNL     1      28.630 -16.635  -0.643  1.00  0.00     0.293 HD
ENDBRANCH   7  27
TORSDOF 7
ENDMDL
MODEL 8
REMARK VINA RESULT:    -7.066      1.883      7.038
REMARK INTER + INTRA:          -9.015
REMARK INTER:                  -8.630
REMARK INTRA:                  -0.385
REMARK UNBOUND:                -0.297
REMARK SMILES Oc1cc(O)c2cc(O)c(-c3cc(O)c(O)c(O)c3)[o+]c2c1
REMARK SMILES IDX 10 1 20 2 21 3 22 4 2 5 3 6 4 7 6 8 7 9 8 10 11 11 12 12
REMARK SMILES IDX 13 13 19 14 15 15 17 16 14 17 16 19 18 21 9 23 1 25 5 27
REMARK H PARENT 14 18 16 20 18 22 9 24 1 26 5 28
REMARK Flexibility Score: inf
ROOT
ATOM      1  C   UNL     1      39.674 -11.358   7.471  1.00  0.00     0.402 A 
ATOM      2  O   UNL     1      38.601 -12.139   7.598  1.00  0.00    -0.202 OA
ATOM      3  C   UNL     1      37.719 -12.327   6.622  1.00  0.00     0.368 A 
ATOM      4  C   UNL     1      36.621 -13.167   6.833  1.00  0.00     0.162 A 
ATOM      5  C   UNL     1      35.686 -13.377   5.811  1.00  0.00     0.128 A 
ATOM      6  C   UNL     1      35.851 -12.743   4.576  1.00  0.00     0.093 A 
ATOM      7  C   UNL     1      36.946 -11.897   4.349  1.00  0.00     0.136 A 
ATOM      8  C   UNL     1      37.886 -11.686   5.375  1.00  0.00     0.125 A 
ATOM      9  C   UNL     1      38.994 -10.847   5.208  1.00  0.00     0.078 A 
ATOM     10  C   UNL     1      39.894 -10.667   6.263  1.00  0.00     0.223 A 
ENDROOT
BRANCH   1  11
ATOM     11  C   UNL     1      40.590 -11.233   8.627  1.00  0.00     0.091 A 
ATOM     12  C   UNL     1      40.327 -10.274   9.616  1.00  0.00     0.068 A 
ATOM     13  C   UNL     1      41.161 -10.142  10.733  1.00  0.00     0.162 A 
ATOM     14  C   UNL     1      41.686 -12.095   8.787  1.00  0.00     0.068 A 
ATOM     15  C   UNL     1      42.279 -10.999  10.875  1.00  0.00     0.200 A 
ATOM     16  C   UNL     1      42.528 -11.974   9.899  1.00  0.00     0.162 A 
BRANCH  13  17
ATOM     17  O   UNL     1      40.842  -9.156  11.669  1.00  0.00    -0.504 OA
ATOM     18  H   UNL     1      40.728  -9.329  12.657  1.00  0.00     0.293 HD
ENDBRANCH  13  17
BRANCH  15  19
ATOM     19  O   UNL     1      43.154 -10.918  11.961  1.00  0.00    -0.502 OA
ATOM     20  H   UNL     1      44.096 -11.278  11.956  1.00  0.00     0.293 HD
ENDBRANCH  15  19
BRANCH  16  21
ATOM     21  O   UNL     1      43.620 -12.829  10.047  1.00  0.00    -0.504 OA
ATOM     22  H   UNL     1      43.531 -13.831   9.923  1.00  0.00     0.293 HD
ENDBRANCH  16  21
ENDBRANCH   1  11
BRANCH  10  23
ATOM     23  O   UNL     1      40.971  -9.792   6.120  1.00  0.00    -0.500 OA
ATOM     24  H   UNL     1      41.906 -10.128   5.920  1.00  0.00     0.294 HD
ENDBRANCH  10  23
BRANCH   5  25
ATOM     25  O   UNL     1      34.590 -14.213   6.014  1.00  0.00    -0.507 OA
ATOM     26  H   UNL     1      34.233 -14.807   5.274  1.00  0.00     0.293 HD
ENDBRANCH   5  25
BRANCH   7  27
ATOM     27  O   UNL     1      37.098 -11.270   3.111  1.00  0.00    -0.507 OA
ATOM     28  H   UNL     1      36.315 -10.836   2.637  1.00  0.00     0.293 HD
ENDBRANCH   7  27
TORSDOF 7
ENDMDL
MODEL 9
REMARK VINA RESULT:    -6.894      7.411     12.272
REMARK INTER + INTRA:          -8.803
REMARK INTER:                  -8.621
REMARK INTRA:                  -0.182
REMARK UNBOUND:                -0.297
REMARK SMILES Oc1cc(O)c2cc(O)c(-c3cc(O)c(O)c(O)c3)[o+]c2c1
REMARK SMILES IDX 10 1 20 2 21 3 22 4 2 5 3 6 4 7 6 8 7 9 8 10 11 11 12 12
REMARK SMILES IDX 13 13 19 14 15 15 17 16 14 17 16 19 18 21 9 23 1 25 5 27
REMARK H PARENT 14 18 16 20 18 22 9 24 1 26 5 28
REMARK Flexibility Score: inf
ROOT
ATOM      1  C   UNL     1      33.393 -14.271   2.408  1.00  0.00     0.402 A 
ATOM      2  O   UNL     1      32.173 -14.283   2.945  1.00  0.00    -0.202 OA
ATOM      3  C   UNL     1      31.084 -14.639   2.270  1.00  0.00     0.368 A 
ATOM      4  C   UNL     1      29.841 -14.630   2.908  1.00  0.00     0.162 A 
ATOM      5  C   UNL     1      28.686 -15.006   2.209  1.00  0.00     0.128 A 
ATOM      6  C   UNL     1      28.778 -15.392   0.868  1.00  0.00     0.093 A 
ATOM      7  C   UNL     1      30.019 -15.405   0.214  1.00  0.00     0.136 A 
ATOM      8  C   UNL     1      31.179 -15.027   0.916  1.00  0.00     0.125 A 
ATOM      9  C   UNL     1      32.442 -15.014   0.313  1.00  0.00     0.078 A 
ATOM     10  C   UNL     1      33.562 -14.624   1.054  1.00  0.00     0.223 A 
ENDROOT
BRANCH   1  11
ATOM     11  C   UNL     1      34.530 -13.864   3.263  1.00  0.00     0.091 A 
ATOM     12  C   UNL     1      35.259 -12.710   2.939  1.00  0.00     0.068 A 
ATOM     13  C   UNL     1      36.328 -12.284   3.736  1.00  0.00     0.162 A 
ATOM     14  C   UNL     1      34.861 -14.575   4.427  1.00  0.00     0.068 A 
ATOM     15  C   UNL     1      36.671 -13.021   4.896  1.00  0.00     0.200 A 
ATOM     16  C   UNL     1      35.928 -14.160   5.233  1.00  0.00     0.162 A 
BRANCH  13  17
ATOM     17  O   UNL     1      37.014 -11.133   3.343  1.00  0.00    -0.504 OA
ATOM     18  H   UNL     1      36.745 -10.197   3.607  1.00  0.00     0.293 HD
ENDBRANCH  13  17
BRANCH  15  19
ATOM     19  O   UNL     1      37.729 -12.655   5.732  1.00  0.00    -0.502 OA
ATOM     20  H   UNL     1      38.341 -11.871   5.558  1.00  0.00     0.293 HD
ENDBRANCH  15  19
BRANCH  16  21
ATOM     21  O   UNL     1      36.256 -14.877   6.384  1.00  0.00    -0.504 OA
ATOM     22  H   UNL     1      36.368 -14.419   7.282  1.00  0.00     0.293 HD
ENDBRANCH  16  21
ENDBRANCH   1  11
BRANCH  10  23
ATOM     23  O   UNL     1      34.815 -14.560   0.444  1.00  0.00    -0.500 OA
ATOM     24  H   UNL     1      35.611 -15.067   0.811  1.00  0.00     0.294 HD
ENDBRANCH  10  23
BRANCH   5  25
ATOM     25  O   UNL     1      27.443 -15.000   2.838  1.00  0.00    -0.507 OA
ATOM     26  H   UNL     1      26.889 -15.845   2.924  1.00  0.00     0.293 HD
ENDBRANCH   5  25
BRANCH   7  27
ATOM     27  O   UNL     1      30.097 -15.791  -1.125  1.00  0.00    -0.507 OA
ATOM     28  H   UNL     1      29.518 -15.360  -1.836  1.00  0.00     0.293 HD
ENDBRANCH   7  27
TORSDOF 7
ENDMDL
