MODEL 1
REMARK VINA RESULT:    -3.385      0.000      0.000
REMARK INTER + INTRA:          -3.842
REMARK INTER:                  -3.681
REMARK INTRA:                  -0.160
REMARK UNBOUND:                -0.160
REMARK SMILES C[C@H]1[C@H](C)CC[C@@]2(C(=O)[O-])CC[C@@]3(C)C(=CC[C@H]4[C@@]5(C)CC[C@@H](O)C(C)(C)[C@H]5CC[C@]43C)[C@@H]12
REMARK SMILES IDX 7 1 6 2 11 3 33 4 5 5 12 6 15 7 2 8 3 9 13 10 16 11 1 12
REMARK SMILES IDX 4 13 14 14 31 15 17 16 18 17 30 18 32 19 19 20 29 21 28 22
REMARK SMILES IDX 21 23 20 24 25 25 22 26 23 27 26 28 27 29 8 30 9 31 10 32
REMARK SMILES IDX 24 33
REMARK H PARENT 24 34
REMARK Flexibility Score: inf
ROOT
ATOM      1  C   UNL     1     170.263 145.443 152.761  1.00  0.00     0.017 C 
ATOM      2  C   UNL     1     169.628 146.618 151.936  1.00  0.00     0.014 C 
ATOM      3  C   UNL     1     171.512 146.015 153.483  1.00  0.00     0.014 C 
ATOM      4  C   UNL     1     169.279 144.754 153.811  1.00  0.00     0.030 C 
ATOM      5  C   UNL     1     168.194 146.380 151.511  1.00  0.00     0.004 C 
ATOM      6  C   UNL     1     171.151 146.935 154.664  1.00  0.00     0.013 C 
ATOM      7  C   UNL     1     169.647 144.972 155.309  1.00  0.00    -0.063 C 
ATOM      8  C   UNL     1     167.736 144.837 153.431  1.00  0.00    -0.003 C 
ATOM      9  C   UNL     1     167.325 146.173 152.751  1.00  0.00    -0.011 C 
ATOM     10  C   UNL     1     170.413 146.206 155.842  1.00  0.00    -0.006 C 
ATOM     11  C   UNL     1     169.287 144.013 156.191  1.00  0.00    -0.027 C 
ATOM     12  C   UNL     1     166.773 144.463 154.579  1.00  0.00     0.008 C 
ATOM     13  C   UNL     1     165.844 146.216 152.322  1.00  0.00     0.008 C 
ATOM     14  C   UNL     1     169.258 147.172 156.269  1.00  0.00     0.017 C 
ATOM     15  C   UNL     1     171.434 145.843 157.101  1.00  0.00    -0.020 C 
ATOM     16  C   UNL     1     169.667 144.064 157.629  1.00  0.00     0.032 C 
ATOM     17  C   UNL     1     171.157 144.417 157.766  1.00  0.00     0.006 C 
ATOM     18  C   UNL     1     172.950 145.909 156.726  1.00  0.00     0.008 C 
ATOM     19  C   UNL     1     171.264 146.922 158.230  1.00  0.00     0.012 C 
ATOM     20  C   UNL     1     172.174 143.199 157.455  1.00  0.00    -0.025 C 
ATOM     21  C   UNL     1     173.864 145.175 157.712  1.00  0.00     0.005 C 
ATOM     22  C   UNL     1     173.696 143.642 157.623  1.00  0.00     0.003 C 
ATOM     23  C   UNL     1     171.961 142.597 156.039  1.00  0.00     0.010 C 
ATOM     24  C   UNL     1     171.864 142.071 158.498  1.00  0.00     0.012 C 
ATOM     25  C   UNL     1     174.766 142.950 156.653  1.00  0.00    -0.006 C 
ATOM     26  C   UNL     1     172.920 141.452 155.653  1.00  0.00     0.033 C 
ATOM     27  C   UNL     1     174.314 141.501 156.307  1.00  0.00     0.120 C 
ATOM     28  C   UNL     1     175.032 143.721 155.326  1.00  0.00     0.014 C 
ATOM     29  C   UNL     1     176.125 142.858 157.401  1.00  0.00     0.014 C 
ENDROOT
BRANCH   1  30
ATOM     30  C   UNL     1     170.758 144.374 151.779  1.00  0.00     0.048 C 
ATOM     31  O   UNL     1     171.992 144.138 151.670  1.00  0.00    -0.550 OA
ATOM     32  O   UNL     1     169.871 143.619 151.017  1.00  0.00    -0.550 OA
ENDBRANCH   1  30
BRANCH  27  33
ATOM     33  O   UNL     1     175.230 140.875 155.437  1.00  0.00    -0.393 OA
ATOM     34  H   UNL     1     175.458 139.989 155.824  1.00  0.00     0.210 HD
ENDBRANCH  27  33
TORSDOF 2
ENDMDL
MODEL 2
REMARK VINA RESULT:    -2.475      1.941      6.497
REMARK INTER + INTRA:          -2.853
REMARK INTER:                  -2.652
REMARK INTRA:                  -0.200
REMARK UNBOUND:                -0.160
REMARK SMILES C[C@H]1[C@H](C)CC[C@@]2(C(=O)[O-])CC[C@@]3(C)C(=CC[C@H]4[C@@]5(C)CC[C@@H](O)C(C)(C)[C@H]5CC[C@]43C)[C@@H]12
REMARK SMILES IDX 7 1 6 2 11 3 33 4 5 5 12 6 15 7 2 8 3 9 13 10 16 11 1 12
REMARK SMILES IDX 4 13 14 14 31 15 17 16 18 17 30 18 32 19 19 20 29 21 28 22
REMARK SMILES IDX 21 23 20 24 25 25 22 26 23 27 26 28 27 29 8 30 9 31 10 32
REMARK SMILES IDX 24 33
REMARK H PARENT 24 34
REMARK Flexibility Score: inf
ROOT
ATOM      1  C   UNL     1     172.974 144.587 155.806  1.00  0.00     0.017 C 
ATOM      2  C   UNL     1     173.310 143.961 157.205  1.00  0.00     0.014 C 
ATOM      3  C   UNL     1     172.216 143.505 154.992  1.00  0.00     0.014 C 
ATOM      4  C   UNL     1     172.127 145.937 155.862  1.00  0.00     0.030 C 
ATOM      5  C   UNL     1     173.664 144.974 158.274  1.00  0.00     0.004 C 
ATOM      6  C   UNL     1     170.772 143.289 155.483  1.00  0.00     0.013 C 
ATOM      7  C   UNL     1     170.678 145.837 155.298  1.00  0.00    -0.063 C 
ATOM      8  C   UNL     1     172.323 146.791 157.190  1.00  0.00    -0.003 C 
ATOM      9  C   UNL     1     172.490 145.932 158.474  1.00  0.00    -0.011 C 
ATOM     10  C   UNL     1     169.839 144.537 155.294  1.00  0.00    -0.006 C 
ATOM     11  C   UNL     1     170.130 146.953 154.767  1.00  0.00    -0.027 C 
ATOM     12  C   UNL     1     171.282 147.915 157.388  1.00  0.00     0.008 C 
ATOM     13  C   UNL     1     172.751 146.767 159.745  1.00  0.00     0.008 C 
ATOM     14  C   UNL     1     169.020 144.649 156.623  1.00  0.00     0.017 C 
ATOM     15  C   UNL     1     168.861 144.400 153.957  1.00  0.00    -0.020 C 
ATOM     16  C   UNL     1     168.794 146.956 154.113  1.00  0.00     0.032 C 
ATOM     17  C   UNL     1     168.679 145.765 153.148  1.00  0.00     0.006 C 
ATOM     18  C   UNL     1     169.324 143.302 152.944  1.00  0.00     0.008 C 
ATOM     19  C   UNL     1     167.431 143.934 154.410  1.00  0.00     0.012 C 
ATOM     20  C   UNL     1     169.458 145.951 151.744  1.00  0.00    -0.025 C 
ATOM     21  C   UNL     1     168.716 143.454 151.547  1.00  0.00     0.005 C 
ATOM     22  C   UNL     1     169.287 144.679 150.799  1.00  0.00     0.003 C 
ATOM     23  C   UNL     1     170.969 146.253 151.942  1.00  0.00     0.010 C 
ATOM     24  C   UNL     1     168.819 147.192 151.032  1.00  0.00     0.012 C 
ATOM     25  C   UNL     1     170.519 144.312 149.844  1.00  0.00    -0.006 C 
ATOM     26  C   UNL     1     171.790 146.408 150.645  1.00  0.00     0.033 C 
ATOM     27  C   UNL     1     171.280 145.606 149.433  1.00  0.00     0.120 C 
ATOM     28  C   UNL     1     171.538 143.306 150.459  1.00  0.00     0.014 C 
ATOM     29  C   UNL     1     169.963 143.655 148.550  1.00  0.00     0.014 C 
ENDROOT
BRANCH   1  30
ATOM     30  C   UNL     1     174.291 144.865 155.070  1.00  0.00     0.048 C 
ATOM     31  O   UNL     1     174.880 145.970 155.222  1.00  0.00    -0.550 OA
ATOM     32  O   UNL     1     174.885 143.906 154.254  1.00  0.00    -0.550 OA
ENDBRANCH   1  30
BRANCH  27  33
ATOM     33  O   UNL     1     172.382 145.308 148.606  1.00  0.00    -0.393 OA
ATOM     34  H   UNL     1     172.145 144.513 148.059  1.00  0.00     0.210 HD
ENDBRANCH  27  33
TORSDOF 2
ENDMDL
MODEL 3
REMARK VINA RESULT:    -0.912      2.381      4.608
REMARK INTER + INTRA:          -1.152
REMARK INTER:                  -1.042
REMARK INTRA:                  -0.109
REMARK UNBOUND:                -0.160
REMARK SMILES C[C@H]1[C@H](C)CC[C@@]2(C(=O)[O-])CC[C@@]3(C)C(=CC[C@H]4[C@@]5(C)CC[C@@H](O)C(C)(C)[C@H]5CC[C@]43C)[C@@H]12
REMARK SMILES IDX 7 1 6 2 11 3 33 4 5 5 12 6 15 7 2 8 3 9 13 10 16 11 1 12
REMARK SMILES IDX 4 13 14 14 31 15 17 16 18 17 30 18 32 19 19 20 29 21 28 22
REMARK SMILES IDX 21 23 20 24 25 25 22 26 23 27 26 28 27 29 8 30 9 31 10 32
REMARK SMILES IDX 24 33
REMARK H PARENT 24 34
REMARK Flexibility Score: inf
ROOT
ATOM      1  C   UNL     1     170.005 144.985 153.586  1.00  0.00     0.017 C 
ATOM      2  C   UNL     1     168.804 144.270 152.871  1.00  0.00     0.014 C 
ATOM      3  C   UNL     1     169.966 144.560 155.078  1.00  0.00     0.014 C 
ATOM      4  C   UNL     1     171.438 144.678 152.957  1.00  0.00     0.030 C 
ATOM      5  C   UNL     1     168.918 144.218 151.362  1.00  0.00     0.004 C 
ATOM      6  C   UNL     1     170.421 143.105 155.298  1.00  0.00     0.013 C 
ATOM      7  C   UNL     1     172.400 143.853 153.864  1.00  0.00    -0.063 C 
ATOM      8  C   UNL     1     171.420 144.312 151.408  1.00  0.00    -0.003 C 
ATOM      9  C   UNL     1     170.191 143.466 150.974  1.00  0.00    -0.011 C 
ATOM     10  C   UNL     1     171.925 142.843 154.935  1.00  0.00    -0.006 C 
ATOM     11  C   UNL     1     173.729 144.048 153.711  1.00  0.00    -0.027 C 
ATOM     12  C   UNL     1     172.741 143.711 150.878  1.00  0.00     0.008 C 
ATOM     13  C   UNL     1     170.146 143.177 149.459  1.00  0.00     0.008 C 
ATOM     14  C   UNL     1     171.935 141.484 154.159  1.00  0.00     0.017 C 
ATOM     15  C   UNL     1     172.905 142.813 156.277  1.00  0.00    -0.020 C 
ATOM     16  C   UNL     1     174.739 143.390 154.584  1.00  0.00     0.032 C 
ATOM     17  C   UNL     1     174.322 143.517 156.059  1.00  0.00     0.006 C 
ATOM     18  C   UNL     1     172.251 143.440 157.552  1.00  0.00     0.008 C 
ATOM     19  C   UNL     1     173.185 141.320 156.677  1.00  0.00     0.012 C 
ATOM     20  C   UNL     1     174.580 144.972 156.714  1.00  0.00    -0.025 C 
ATOM     21  C   UNL     1     173.258 143.811 158.645  1.00  0.00     0.005 C 
ATOM     22  C   UNL     1     174.127 145.022 158.242  1.00  0.00     0.003 C 
ATOM     23  C   UNL     1     173.876 146.110 155.926  1.00  0.00     0.010 C 
ATOM     24  C   UNL     1     176.124 145.234 156.642  1.00  0.00     0.012 C 
ATOM     25  C   UNL     1     173.552 146.414 158.784  1.00  0.00    -0.006 C 
ATOM     26  C   UNL     1     174.046 147.527 156.511  1.00  0.00     0.033 C 
ATOM     27  C   UNL     1     174.231 147.600 158.039  1.00  0.00     0.120 C 
ATOM     28  C   UNL     1     172.006 146.567 158.664  1.00  0.00     0.014 C 
ATOM     29  C   UNL     1     173.900 146.539 160.293  1.00  0.00     0.014 C 
ENDROOT
BRANCH   1  30
ATOM     30  C   UNL     1     169.763 146.499 153.541  1.00  0.00     0.048 C 
ATOM     31  O   UNL     1     169.777 147.174 154.606  1.00  0.00    -0.550 OA
ATOM     32  O   UNL     1     169.561 147.167 152.337  1.00  0.00    -0.550 OA
ENDBRANCH   1  30
BRANCH  27  33
ATOM     33  O   UNL     1     173.727 148.839 158.485  1.00  0.00    -0.393 OA
ATOM     34  H   UNL     1     174.035 149.538 157.850  1.00  0.00     0.210 HD
ENDBRANCH  27  33
TORSDOF 2
ENDMDL
MODEL 4
REMARK VINA RESULT:    -0.735      2.676      7.286
REMARK INTER + INTRA:          -0.960
REMARK INTER:                  -0.766
REMARK INTRA:                  -0.193
REMARK UNBOUND:                -0.160
REMARK SMILES C[C@H]1[C@H](C)CC[C@@]2(C(=O)[O-])CC[C@@]3(C)C(=CC[C@H]4[C@@]5(C)CC[C@@H](O)C(C)(C)[C@H]5CC[C@]43C)[C@@H]12
REMARK SMILES IDX 7 1 6 2 11 3 33 4 5 5 12 6 15 7 2 8 3 9 13 10 16 11 1 12
REMARK SMILES IDX 4 13 14 14 31 15 17 16 18 17 30 18 32 19 19 20 29 21 28 22
REMARK SMILES IDX 21 23 20 24 25 25 22 26 23 27 26 28 27 29 8 30 9 31 10 32
REMARK SMILES IDX 24 33
REMARK H PARENT 24 34
REMARK Flexibility Score: inf
ROOT
ATOM      1  C   UNL     1     173.383 144.604 155.292  1.00  0.00     0.017 C 
ATOM      2  C   UNL     1     174.652 144.660 156.214  1.00  0.00     0.014 C 
ATOM      3  C   UNL     1     173.843 144.979 153.859  1.00  0.00     0.014 C 
ATOM      4  C   UNL     1     172.623 143.201 155.284  1.00  0.00     0.030 C 
ATOM      5  C   UNL     1     174.499 143.930 157.532  1.00  0.00     0.004 C 
ATOM      6  C   UNL     1     174.653 143.860 153.178  1.00  0.00     0.013 C 
ATOM      7  C   UNL     1     172.680 142.422 153.936  1.00  0.00    -0.063 C 
ATOM      8  C   UNL     1     172.789 142.346 156.616  1.00  0.00    -0.003 C 
ATOM      9  C   UNL     1     174.197 142.456 157.264  1.00  0.00    -0.011 C 
ATOM     10  C   UNL     1     173.833 142.548 152.911  1.00  0.00    -0.006 C 
ATOM     11  C   UNL     1     171.650 141.598 153.641  1.00  0.00    -0.027 C 
ATOM     12  C   UNL     1     172.331 140.876 156.493  1.00  0.00     0.008 C 
ATOM     13  C   UNL     1     174.325 141.681 158.592  1.00  0.00     0.008 C 
ATOM     14  C   UNL     1     174.785 141.374 153.315  1.00  0.00     0.017 C 
ATOM     15  C   UNL     1     173.317 142.432 151.336  1.00  0.00    -0.020 C 
ATOM     16  C   UNL     1     171.548 140.877 152.344  1.00  0.00     0.032 C 
ATOM     17  C   UNL     1     171.841 141.841 151.182  1.00  0.00     0.006 C 
ATOM     18  C   UNL     1     173.375 143.783 150.550  1.00  0.00     0.008 C 
ATOM     19  C   UNL     1     174.284 141.479 150.546  1.00  0.00     0.012 C 
ATOM     20  C   UNL     1     170.631 142.847 150.814  1.00  0.00    -0.025 C 
ATOM     21  C   UNL     1     172.520 143.796 149.279  1.00  0.00     0.005 C 
ATOM     22  C   UNL     1     171.010 143.809 149.600  1.00  0.00     0.003 C 
ATOM     23  C   UNL     1     170.178 143.700 152.030  1.00  0.00     0.010 C 
ATOM     24  C   UNL     1     169.415 141.956 150.384  1.00  0.00     0.012 C 
ATOM     25  C   UNL     1     170.385 145.283 149.618  1.00  0.00    -0.006 C 
ATOM     26  C   UNL     1     169.049 144.712 151.748  1.00  0.00     0.033 C 
ATOM     27  C   UNL     1     168.992 145.264 150.312  1.00  0.00     0.120 C 
ATOM     28  C   UNL     1     171.276 146.355 150.314  1.00  0.00     0.014 C 
ATOM     29  C   UNL     1     170.180 145.751 148.151  1.00  0.00     0.014 C 
ENDROOT
BRANCH   1  30
ATOM     30  C   UNL     1     172.402 145.690 155.751  1.00  0.00     0.048 C 
ATOM     31  O   UNL     1     172.758 146.542 156.611  1.00  0.00    -0.550 OA
ATOM     32  O   UNL     1     171.122 145.788 155.213  1.00  0.00    -0.550 OA
ENDBRANCH   1  30
BRANCH  27  33
ATOM     33  O   UNL     1     168.428 146.556 150.358  1.00  0.00    -0.393 OA
ATOM     34  H   UNL     1     168.093 146.773 149.448  1.00  0.00     0.210 HD
ENDBRANCH  27  33
TORSDOF 2
ENDMDL
