MODEL 1
REMARK VINA RESULT:    -4.383      0.000      0.000
REMARK INTER + INTRA:          -4.832
REMARK INTER:                  -4.639
REMARK INTRA:                  -0.192
REMARK UNBOUND:                -0.192
REMARK SMILES CC1=CC[C@@H](C(C)C)C=C1
REMARK SMILES IDX 1 1 2 2 3 3 4 4 5 5 9 6 10 7 6 8 7 9 8 10
REMARK H PARENT
REMARK Flexibility Score: inf
ROOT
ATOM      1  C   UNL     1       5.397  18.738  22.447  1.00  0.00     0.044 C 
ATOM      2  C   UNL     1       6.778  18.871  23.016  1.00  0.00    -0.055 C 
ATOM      3  C   UNL     1       6.966  19.447  24.213  1.00  0.00    -0.023 C 
ATOM      4  C   UNL     1       8.341  19.519  24.824  1.00  0.00     0.035 C 
ATOM      5  C   UNL     1       9.415  19.750  23.731  1.00  0.00     0.018 C 
ATOM      6  C   UNL     1       9.188  18.807  22.567  1.00  0.00    -0.023 C 
ATOM      7  C   UNL     1       7.949  18.447  22.214  1.00  0.00    -0.001 C 
ENDROOT
BRANCH   5   8
ATOM      8  C   UNL     1      10.879  19.671  24.254  1.00  0.00    -0.010 C 
ATOM      9  C   UNL     1      11.813  18.853  23.346  1.00  0.00     0.008 C 
ATOM     10  C   UNL     1      10.941  19.143  25.695  1.00  0.00     0.008 C 
ENDBRANCH   5   8
TORSDOF 1
ENDMDL
MODEL 2
REMARK VINA RESULT:    -4.145     14.718     15.256
REMARK INTER + INTRA:          -4.579
REMARK INTER:                  -4.388
REMARK INTRA:                  -0.192
REMARK UNBOUND:                -0.192
REMARK SMILES CC1=CC[C@@H](C(C)C)C=C1
REMARK SMILES IDX 1 1 2 2 3 3 4 4 5 5 9 6 10 7 6 8 7 9 8 10
REMARK H PARENT
REMARK Flexibility Score: inf
ROOT
ATOM      1  C   UNL     1      10.210  14.711  38.928  1.00  0.00     0.044 C 
ATOM      2  C   UNL     1      11.580  15.067  38.435  1.00  0.00    -0.055 C 
ATOM      3  C   UNL     1      12.000  16.342  38.460  1.00  0.00    -0.023 C 
ATOM      4  C   UNL     1      13.400  16.698  38.034  1.00  0.00     0.035 C 
ATOM      5  C   UNL     1      13.858  15.805  36.854  1.00  0.00     0.018 C 
ATOM      6  C   UNL     1      13.536  14.353  37.139  1.00  0.00    -0.023 C 
ATOM      7  C   UNL     1      12.442  14.022  37.835  1.00  0.00    -0.001 C 
ENDROOT
BRANCH   5   8
ATOM      8  C   UNL     1      15.353  15.992  36.460  1.00  0.00    -0.010 C 
ATOM      9  C   UNL     1      16.033  14.694  35.994  1.00  0.00     0.008 C 
ATOM     10  C   UNL     1      16.163  16.642  37.592  1.00  0.00     0.008 C 
ENDBRANCH   5   8
TORSDOF 1
ENDMDL
MODEL 3
REMARK VINA RESULT:    -4.111     14.964     15.298
REMARK INTER + INTRA:          -4.544
REMARK INTER:                  -4.415
REMARK INTRA:                  -0.129
REMARK UNBOUND:                -0.192
REMARK SMILES CC1=CC[C@@H](C(C)C)C=C1
REMARK SMILES IDX 1 1 2 2 3 3 4 4 5 5 9 6 10 7 6 8 7 9 8 10
REMARK H PARENT
REMARK Flexibility Score: inf
ROOT
ATOM      1  C   UNL     1       9.353  15.498  39.235  1.00  0.00     0.044 C 
ATOM      2  C   UNL     1      10.568  15.159  38.424  1.00  0.00    -0.055 C 
ATOM      3  C   UNL     1      10.761  13.906  37.983  1.00  0.00    -0.023 C 
ATOM      4  C   UNL     1      11.940  13.573  37.108  1.00  0.00     0.035 C 
ATOM      5  C   UNL     1      13.185  14.395  37.528  1.00  0.00     0.018 C 
ATOM      6  C   UNL     1      12.811  15.851  37.716  1.00  0.00    -0.023 C 
ATOM      7  C   UNL     1      11.604  16.189  38.184  1.00  0.00    -0.001 C 
ENDROOT
BRANCH   5   8
ATOM      8  C   UNL     1      14.402  14.236  36.570  1.00  0.00    -0.010 C 
ATOM      9  C   UNL     1      15.108  12.875  36.694  1.00  0.00     0.008 C 
ATOM     10  C   UNL     1      15.415  15.378  36.741  1.00  0.00     0.008 C 
ENDBRANCH   5   8
TORSDOF 1
ENDMDL
MODEL 4
REMARK VINA RESULT:    -4.059      1.377      4.359
REMARK INTER + INTRA:          -4.489
REMARK INTER:                  -4.327
REMARK INTRA:                  -0.162
REMARK UNBOUND:                -0.192
REMARK SMILES CC1=CC[C@@H](C(C)C)C=C1
REMARK SMILES IDX 1 1 2 2 3 3 4 4 5 5 9 6 10 7 6 8 7 9 8 10
REMARK H PARENT
REMARK Flexibility Score: inf
ROOT
ATOM      1  C   UNL     1      11.115  18.868  27.370  1.00  0.00     0.044 C 
ATOM      2  C   UNL     1       9.928  19.204  26.517  1.00  0.00    -0.055 C 
ATOM      3  C   UNL     1       8.685  19.068  27.003  1.00  0.00    -0.023 C 
ATOM      4  C   UNL     1       7.491  19.471  26.179  1.00  0.00     0.035 C 
ATOM      5  C   UNL     1       7.724  19.152  24.681  1.00  0.00     0.018 C 
ATOM      6  C   UNL     1       9.095  19.631  24.251  1.00  0.00    -0.023 C 
ATOM      7  C   UNL     1      10.125  19.601  25.104  1.00  0.00    -0.001 C 
ENDROOT
BRANCH   5   8
ATOM      8  C   UNL     1       6.609  19.688  23.737  1.00  0.00    -0.010 C 
ATOM      9  C   UNL     1       6.339  18.779  22.526  1.00  0.00     0.008 C 
ATOM     10  C   UNL     1       6.898  21.123  23.271  1.00  0.00     0.008 C 
ENDBRANCH   5   8
TORSDOF 1
ENDMDL
MODEL 5
REMARK VINA RESULT:    -4.043      1.188      4.561
REMARK INTER + INTRA:          -4.472
REMARK INTER:                  -4.279
REMARK INTRA:                  -0.192
REMARK UNBOUND:                -0.192
REMARK SMILES CC1=CC[C@@H](C(C)C)C=C1
REMARK SMILES IDX 1 1 2 2 3 3 4 4 5 5 9 6 10 7 6 8 7 9 8 10
REMARK H PARENT
REMARK Flexibility Score: inf
ROOT
ATOM      1  C   UNL     1      11.546  19.225  27.740  1.00  0.00     0.044 C 
ATOM      2  C   UNL     1      10.670  19.198  26.523  1.00  0.00    -0.055 C 
ATOM      3  C   UNL     1      11.211  19.261  25.297  1.00  0.00    -0.023 C 
ATOM      4  C   UNL     1      10.344  19.162  24.069  1.00  0.00     0.035 C 
ATOM      5  C   UNL     1       8.983  19.867  24.301  1.00  0.00     0.018 C 
ATOM      6  C   UNL     1       8.398  19.452  25.635  1.00  0.00    -0.023 C 
ATOM      7  C   UNL     1       9.197  19.193  26.677  1.00  0.00    -0.001 C 
ENDROOT
BRANCH   5   8
ATOM      8  C   UNL     1       7.962  19.668  23.143  1.00  0.00    -0.010 C 
ATOM      9  C   UNL     1       6.511  19.496  23.625  1.00  0.00     0.008 C 
ATOM     10  C   UNL     1       8.359  18.503  22.225  1.00  0.00     0.008 C 
ENDBRANCH   5   8
TORSDOF 1
ENDMDL
MODEL 6
REMARK VINA RESULT:    -4.002      1.356      2.543
REMARK INTER + INTRA:          -4.428
REMARK INTER:                  -4.291
REMARK INTRA:                  -0.137
REMARK UNBOUND:                -0.192
REMARK SMILES CC1=CC[C@@H](C(C)C)C=C1
REMARK SMILES IDX 1 1 2 2 3 3 4 4 5 5 9 6 10 7 6 8 7 9 8 10
REMARK H PARENT
REMARK Flexibility Score: inf
ROOT
ATOM      1  C   UNL     1       4.479  19.255  21.372  1.00  0.00     0.044 C 
ATOM      2  C   UNL     1       5.605  19.420  22.348  1.00  0.00    -0.055 C 
ATOM      3  C   UNL     1       6.573  18.494  22.429  1.00  0.00    -0.023 C 
ATOM      4  C   UNL     1       7.745  18.689  23.354  1.00  0.00     0.035 C 
ATOM      5  C   UNL     1       7.302  19.393  24.661  1.00  0.00     0.018 C 
ATOM      6  C   UNL     1       6.427  20.587  24.342  1.00  0.00    -0.023 C 
ATOM      7  C   UNL     1       5.603  20.565  23.288  1.00  0.00    -0.001 C 
ENDROOT
BRANCH   5   8
ATOM      8  C   UNL     1       8.479  19.783  25.603  1.00  0.00    -0.010 C 
ATOM      9  C   UNL     1       9.861  19.680  24.934  1.00  0.00     0.008 C 
ATOM     10  C   UNL     1       8.458  18.972  26.907  1.00  0.00     0.008 C 
ENDBRANCH   5   8
TORSDOF 1
ENDMDL
MODEL 7
REMARK VINA RESULT:    -3.962     14.824     15.845
REMARK INTER + INTRA:          -4.386
REMARK INTER:                  -4.198
REMARK INTRA:                  -0.188
REMARK UNBOUND:                -0.192
REMARK SMILES CC1=CC[C@@H](C(C)C)C=C1
REMARK SMILES IDX 1 1 2 2 3 3 4 4 5 5 9 6 10 7 6 8 7 9 8 10
REMARK H PARENT
REMARK Flexibility Score: inf
ROOT
ATOM      1  C   UNL     1      16.005  14.777  35.673  1.00  0.00     0.044 C 
ATOM      2  C   UNL     1      14.837  14.908  36.604  1.00  0.00    -0.055 C 
ATOM      3  C   UNL     1      13.986  13.884  36.773  1.00  0.00    -0.023 C 
ATOM      4  C   UNL     1      12.853  13.982  37.760  1.00  0.00     0.035 C 
ATOM      5  C   UNL     1      12.274  15.419  37.790  1.00  0.00     0.018 C 
ATOM      6  C   UNL     1      13.396  16.434  37.873  1.00  0.00    -0.023 C 
ATOM      7  C   UNL     1      14.568  16.203  37.271  1.00  0.00    -0.001 C 
ENDROOT
BRANCH   5   8
ATOM      8  C   UNL     1      11.210  15.651  38.903  1.00  0.00    -0.010 C 
ATOM      9  C   UNL     1      11.742  16.451  40.104  1.00  0.00     0.008 C 
ATOM     10  C   UNL     1      10.585  14.330  39.377  1.00  0.00     0.008 C 
ENDBRANCH   5   8
TORSDOF 1
ENDMDL
MODEL 8
REMARK VINA RESULT:    -3.828      1.617      2.846
REMARK INTER + INTRA:          -4.244
REMARK INTER:                  -4.100
REMARK INTRA:                  -0.144
REMARK UNBOUND:                -0.192
REMARK SMILES CC1=CC[C@@H](C(C)C)C=C1
REMARK SMILES IDX 1 1 2 2 3 3 4 4 5 5 9 6 10 7 6 8 7 9 8 10
REMARK H PARENT
REMARK Flexibility Score: inf
ROOT
ATOM      1  C   UNL     1       3.663  19.728  21.013  1.00  0.00     0.044 C 
ATOM      2  C   UNL     1       4.729  19.621  22.063  1.00  0.00    -0.055 C 
ATOM      3  C   UNL     1       4.998  20.664  22.864  1.00  0.00    -0.023 C 
ATOM      4  C   UNL     1       6.016  20.541  23.967  1.00  0.00     0.035 C 
ATOM      5  C   UNL     1       7.197  19.640  23.526  1.00  0.00     0.018 C 
ATOM      6  C   UNL     1       6.675  18.373  22.879  1.00  0.00    -0.023 C 
ATOM      7  C   UNL     1       5.550  18.392  22.156  1.00  0.00    -0.001 C 
ENDROOT
BRANCH   5   8
ATOM      8  C   UNL     1       8.212  19.325  24.663  1.00  0.00    -0.010 C 
ATOM      9  C   UNL     1       7.590  19.358  26.070  1.00  0.00     0.008 C 
ATOM     10  C   UNL     1       9.440  20.245  24.603  1.00  0.00     0.008 C 
ENDBRANCH   5   8
TORSDOF 1
ENDMDL
