MODEL 1
REMARK VINA RESULT:    -4.813      0.000      0.000
REMARK INTER + INTRA:         -10.795
REMARK INTER:                  -8.752
REMARK INTRA:                  -2.043
REMARK UNBOUND:                -2.043
REMARK SMILES CCCCCCCCCCCCCCCC(=O)[O-]
REMARK SMILES IDX 9 1 10 2 11 3 12 4 13 5 14 6 15 7 16 8 17 9 18 10 8 11 7 12
REMARK SMILES IDX 6 13 5 14 4 15 3 16 2 17 1 18
REMARK H PARENT
REMARK Flexibility Score: inf
ROOT
ATOM      1  C   UNL     1     -25.558 -63.013   3.665  1.00  0.00     0.000 C 
ENDROOT
BRANCH   1   2
ATOM      2  C   UNL     1     -24.673 -62.315   2.615  1.00  0.00     0.000 C 
BRANCH   2   3
ATOM      3  C   UNL     1     -23.567 -63.193   2.000  1.00  0.00     0.000 C 
BRANCH   3   4
ATOM      4  C   UNL     1     -22.309 -62.394   1.622  1.00  0.00     0.000 C 
BRANCH   4   5
ATOM      5  C   UNL     1     -22.627 -60.942   1.227  1.00  0.00     0.000 C 
BRANCH   5   6
ATOM      6  C   UNL     1     -22.676 -60.738  -0.296  1.00  0.00     0.006 C 
BRANCH   6   7
ATOM      7  C   UNL     1     -23.906 -59.920  -0.699  1.00  0.00     0.053 C 
BRANCH   7   8
ATOM      8  C   UNL     1     -23.496 -58.588  -1.243  1.00  0.00     0.041 C 
ATOM      9  O   UNL     1     -22.277 -58.309  -1.386  1.00  0.00    -0.550 OA
ATOM     10  O   UNL     1     -24.463 -57.668  -1.632  1.00  0.00    -0.550 OA
ENDBRANCH   7   8
ENDBRANCH   6   7
ENDBRANCH   5   6
ENDBRANCH   4   5
ENDBRANCH   3   4
ENDBRANCH   2   3
ENDBRANCH   1   2
BRANCH   1  11
ATOM     11  C   UNL     1     -25.247 -64.513   3.810  1.00  0.00     0.000 C 
BRANCH  11  12
ATOM     12  C   UNL     1     -24.645 -64.862   5.181  1.00  0.00    -0.000 C 
BRANCH  12  13
ATOM     13  C   UNL     1     -23.122 -65.080   5.123  1.00  0.00    -0.000 C 
BRANCH  13  14
ATOM     14  C   UNL     1     -22.355 -64.090   6.014  1.00  0.00    -0.000 C 
BRANCH  14  15
ATOM     15  C   UNL     1     -22.072 -62.755   5.302  1.00  0.00    -0.000 C 
BRANCH  15  16
ATOM     16  C   UNL     1     -22.878 -61.582   5.888  1.00  0.00    -0.000 C 
BRANCH  16  17
ATOM     17  C   UNL     1     -22.932 -60.325   5.001  1.00  0.00    -0.003 C 
ATOM     18  C   UNL     1     -22.915 -59.026   5.805  1.00  0.00     0.004 C 
ENDBRANCH  16  17
ENDBRANCH  15  16
ENDBRANCH  14  15
ENDBRANCH  13  14
ENDBRANCH  12  13
ENDBRANCH  11  12
ENDBRANCH   1  11
TORSDOF 14
ENDMDL
MODEL 2
REMARK VINA RESULT:    -4.679      1.523      3.545
REMARK INTER + INTRA:         -10.551
REMARK INTER:                  -8.347
REMARK INTRA:                  -2.204
REMARK UNBOUND:                -2.043
REMARK SMILES CCCCCCCCCCCCCCCC(=O)[O-]
REMARK SMILES IDX 9 1 10 2 11 3 12 4 13 5 14 6 15 7 16 8 17 9 18 10 8 11 7 12
REMARK SMILES IDX 6 13 5 14 4 15 3 16 2 17 1 18
REMARK H PARENT
REMARK Flexibility Score: inf
ROOT
ATOM      1  C   UNL     1     -23.780 -59.302   5.652  1.00  0.00     0.000 C 
ENDROOT
BRANCH   1   2
ATOM      2  C   UNL     1     -24.118 -58.646   4.300  1.00  0.00     0.000 C 
BRANCH   2   3
ATOM      3  C   UNL     1     -23.070 -57.649   3.773  1.00  0.00     0.000 C 
BRANCH   3   4
ATOM      4  C   UNL     1     -22.630 -57.948   2.330  1.00  0.00     0.000 C 
BRANCH   4   5
ATOM      5  C   UNL     1     -23.011 -59.368   1.879  1.00  0.00     0.000 C 
BRANCH   5   6
ATOM      6  C   UNL     1     -22.002 -59.968   0.887  1.00  0.00     0.006 C 
BRANCH   6   7
ATOM      7  C   UNL     1     -22.717 -60.585  -0.317  1.00  0.00     0.053 C 
BRANCH   7   8
ATOM      8  C   UNL     1     -23.195 -59.517  -1.249  1.00  0.00     0.041 C 
ATOM      9  O   UNL     1     -24.289 -59.650  -1.858  1.00  0.00    -0.550 OA
ATOM     10  O   UNL     1     -22.451 -58.354  -1.415  1.00  0.00    -0.550 OA
ENDBRANCH   7   8
ENDBRANCH   6   7
ENDBRANCH   5   6
ENDBRANCH   4   5
ENDBRANCH   3   4
ENDBRANCH   2   3
ENDBRANCH   1   2
BRANCH   1  11
ATOM     11  C   UNL     1     -22.621 -60.309   5.557  1.00  0.00     0.000 C 
BRANCH  11  12
ATOM     12  C   UNL     1     -23.042 -61.734   5.954  1.00  0.00    -0.000 C 
BRANCH  12  13
ATOM     13  C   UNL     1     -22.452 -62.809   5.022  1.00  0.00    -0.000 C 
BRANCH  13  14
ATOM     14  C   UNL     1     -22.731 -62.515   3.539  1.00  0.00    -0.000 C 
BRANCH  14  15
ATOM     15  C   UNL     1     -23.722 -63.517   2.918  1.00  0.00    -0.000 C 
BRANCH  15  16
ATOM     16  C   UNL     1     -25.184 -63.234   3.309  1.00  0.00    -0.000 C 
BRANCH  16  17
ATOM     17  C   UNL     1     -25.612 -61.760   3.192  1.00  0.00    -0.003 C 
ATOM     18  C   UNL     1     -26.813 -61.416   4.070  1.00  0.00     0.004 C 
ENDBRANCH  16  17
ENDBRANCH  15  16
ENDBRANCH  14  15
ENDBRANCH  13  14
ENDBRANCH  12  13
ENDBRANCH  11  12
ENDBRANCH   1  11
TORSDOF 14
ENDMDL
MODEL 3
REMARK VINA RESULT:    -4.654      1.818      2.297
REMARK INTER + INTRA:         -10.506
REMARK INTER:                  -8.544
REMARK INTRA:                  -1.962
REMARK UNBOUND:                -2.043
REMARK SMILES CCCCCCCCCCCCCCCC(=O)[O-]
REMARK SMILES IDX 9 1 10 2 11 3 12 4 13 5 14 6 15 7 16 8 17 9 18 10 8 11 7 12
REMARK SMILES IDX 6 13 5 14 4 15 3 16 2 17 1 18
REMARK H PARENT
REMARK Flexibility Score: inf
ROOT
ATOM      1  C   UNL     1     -23.993 -63.110   2.816  1.00  0.00     0.000 C 
ENDROOT
BRANCH   1   2
ATOM      2  C   UNL     1     -22.672 -62.447   2.381  1.00  0.00     0.000 C 
BRANCH   2   3
ATOM      3  C   UNL     1     -22.236 -62.739   0.933  1.00  0.00     0.000 C 
BRANCH   3   4
ATOM      4  C   UNL     1     -21.983 -61.462   0.115  1.00  0.00     0.000 C 
BRANCH   4   5
ATOM      5  C   UNL     1     -22.598 -60.211   0.767  1.00  0.00     0.000 C 
BRANCH   5   6
ATOM      6  C   UNL     1     -24.000 -59.888   0.227  1.00  0.00     0.006 C 
BRANCH   6   7
ATOM      7  C   UNL     1     -23.997 -59.827  -1.303  1.00  0.00     0.053 C 
BRANCH   7   8
ATOM      8  C   UNL     1     -25.329 -59.376  -1.814  1.00  0.00     0.041 C 
ATOM      9  O   UNL     1     -26.155 -58.829  -1.036  1.00  0.00    -0.550 OA
ATOM     10  O   UNL     1     -25.644 -59.523  -3.160  1.00  0.00    -0.550 OA
ENDBRANCH   7   8
ENDBRANCH   6   7
ENDBRANCH   5   6
ENDBRANCH   4   5
ENDBRANCH   3   4
ENDBRANCH   2   3
ENDBRANCH   1   2
BRANCH   1  11
ATOM     11  C   UNL     1     -25.153 -62.107   2.943  1.00  0.00     0.000 C 
BRANCH  11  12
ATOM     12  C   UNL     1     -25.849 -62.178   4.312  1.00  0.00    -0.000 C 
BRANCH  12  13
ATOM     13  C   UNL     1     -24.918 -62.693   5.426  1.00  0.00    -0.000 C 
BRANCH  13  14
ATOM     14  C   UNL     1     -24.350 -61.554   6.288  1.00  0.00    -0.000 C 
BRANCH  14  15
ATOM     15  C   UNL     1     -22.931 -61.142   5.855  1.00  0.00    -0.000 C 
BRANCH  15  16
ATOM     16  C   UNL     1     -22.804 -59.632   5.584  1.00  0.00    -0.000 C 
BRANCH  16  17
ATOM     17  C   UNL     1     -23.364 -59.167   4.228  1.00  0.00    -0.003 C 
ATOM     18  C   UNL     1     -22.934 -57.749   3.857  1.00  0.00     0.004 C 
ENDBRANCH  16  17
ENDBRANCH  15  16
ENDBRANCH  14  15
ENDBRANCH  13  14
ENDBRANCH  12  13
ENDBRANCH  11  12
ENDBRANCH   1  11
TORSDOF 14
ENDMDL
MODEL 4
REMARK VINA RESULT:    -4.646      1.342      2.810
REMARK INTER + INTRA:         -10.491
REMARK INTER:                  -8.387
REMARK INTRA:                  -2.104
REMARK UNBOUND:                -2.043
REMARK SMILES CCCCCCCCCCCCCCCC(=O)[O-]
REMARK SMILES IDX 9 1 10 2 11 3 12 4 13 5 14 6 15 7 16 8 17 9 18 10 8 11 7 12
REMARK SMILES IDX 6 13 5 14 4 15 3 16 2 17 1 18
REMARK H PARENT
REMARK Flexibility Score: inf
ROOT
ATOM      1  C   UNL     1     -23.778 -63.418   2.375  1.00  0.00     0.000 C 
ENDROOT
BRANCH   1   2
ATOM      2  C   UNL     1     -22.622 -62.475   1.990  1.00  0.00     0.000 C 
BRANCH   2   3
ATOM      3  C   UNL     1     -22.072 -62.658   0.564  1.00  0.00     0.000 C 
BRANCH   3   4
ATOM      4  C   UNL     1     -21.926 -61.330  -0.197  1.00  0.00     0.000 C 
BRANCH   4   5
ATOM      5  C   UNL     1     -22.009 -60.105   0.730  1.00  0.00     0.000 C 
BRANCH   5   6
ATOM      6  C   UNL     1     -23.063 -59.084   0.272  1.00  0.00     0.006 C 
BRANCH   6   7
ATOM      7  C   UNL     1     -24.190 -59.770  -0.503  1.00  0.00     0.053 C 
BRANCH   7   8
ATOM      8  C   UNL     1     -24.588 -58.949  -1.689  1.00  0.00     0.041 C 
ATOM      9  O   UNL     1     -25.280 -59.459  -2.609  1.00  0.00    -0.550 OA
ATOM     10  O   UNL     1     -24.230 -57.608  -1.759  1.00  0.00    -0.550 OA
ENDBRANCH   7   8
ENDBRANCH   6   7
ENDBRANCH   5   6
ENDBRANCH   4   5
ENDBRANCH   3   4
ENDBRANCH   2   3
ENDBRANCH   1   2
BRANCH   1  11
ATOM     11  C   UNL     1     -24.903 -62.704   3.146  1.00  0.00     0.000 C 
BRANCH  11  12
ATOM     12  C   UNL     1     -25.050 -61.227   2.746  1.00  0.00    -0.000 C 
BRANCH  12  13
ATOM     13  C   UNL     1     -24.580 -60.262   3.850  1.00  0.00    -0.000 C 
BRANCH  13  14
ATOM     14  C   UNL     1     -25.154 -60.627   5.229  1.00  0.00    -0.000 C 
BRANCH  14  15
ATOM     15  C   UNL     1     -24.070 -60.680   6.321  1.00  0.00    -0.000 C 
BRANCH  15  16
ATOM     16  C   UNL     1     -22.670 -60.988   5.762  1.00  0.00    -0.000 C 
BRANCH  16  17
ATOM     17  C   UNL     1     -22.336 -62.486   5.639  1.00  0.00    -0.003 C 
ATOM     18  C   UNL     1     -23.189 -63.365   6.552  1.00  0.00     0.004 C 
ENDBRANCH  16  17
ENDBRANCH  15  16
ENDBRANCH  14  15
ENDBRANCH  13  14
ENDBRANCH  12  13
ENDBRANCH  11  12
ENDBRANCH   1  11
TORSDOF 14
ENDMDL
MODEL 5
REMARK VINA RESULT:    -4.556      1.776      3.462
REMARK INTER + INTRA:         -10.327
REMARK INTER:                  -8.121
REMARK INTRA:                  -2.207
REMARK UNBOUND:                -2.043
REMARK SMILES CCCCCCCCCCCCCCCC(=O)[O-]
REMARK SMILES IDX 9 1 10 2 11 3 12 4 13 5 14 6 15 7 16 8 17 9 18 10 8 11 7 12
REMARK SMILES IDX 6 13 5 14 4 15 3 16 2 17 1 18
REMARK H PARENT
REMARK Flexibility Score: inf
ROOT
ATOM      1  C   UNL     1     -25.718 -61.009   2.773  1.00  0.00     0.000 C 
ENDROOT
BRANCH   1   2
ATOM      2  C   UNL     1     -24.848 -62.277   2.869  1.00  0.00     0.000 C 
BRANCH   2   3
ATOM      3  C   UNL     1     -23.369 -62.091   2.482  1.00  0.00     0.000 C 
BRANCH   3   4
ATOM      4  C   UNL     1     -22.863 -63.172   1.512  1.00  0.00     0.000 C 
BRANCH   4   5
ATOM      5  C   UNL     1     -22.142 -62.578   0.290  1.00  0.00     0.000 C 
BRANCH   5   6
ATOM      6  C   UNL     1     -21.948 -61.057   0.395  1.00  0.00     0.006 C 
BRANCH   6   7
ATOM      7  C   UNL     1     -22.356 -60.361  -0.906  1.00  0.00     0.053 C 
BRANCH   7   8
ATOM      8  C   UNL     1     -22.534 -58.892  -0.683  1.00  0.00     0.041 C 
ATOM      9  O   UNL     1     -21.876 -58.302   0.214  1.00  0.00    -0.550 OA
ATOM     10  O   UNL     1     -23.398 -58.166  -1.494  1.00  0.00    -0.550 OA
ENDBRANCH   7   8
ENDBRANCH   6   7
ENDBRANCH   5   6
ENDBRANCH   4   5
ENDBRANCH   3   4
ENDBRANCH   2   3
ENDBRANCH   1   2
BRANCH   1  11
ATOM     11  C   UNL     1     -25.188 -59.997   1.742  1.00  0.00     0.000 C 
BRANCH  11  12
ATOM     12  C   UNL     1     -24.852 -58.634   2.370  1.00  0.00    -0.000 C 
BRANCH  12  13
ATOM     13  C   UNL     1     -23.525 -58.651   3.150  1.00  0.00    -0.000 C 
BRANCH  13  14
ATOM     14  C   UNL     1     -23.604 -57.845   4.457  1.00  0.00    -0.000 C 
BRANCH  14  15
ATOM     15  C   UNL     1     -22.768 -58.473   5.587  1.00  0.00    -0.000 C 
BRANCH  15  16
ATOM     16  C   UNL     1     -22.877 -60.008   5.630  1.00  0.00    -0.000 C 
BRANCH  16  17
ATOM     17  C   UNL     1     -24.220 -60.548   6.154  1.00  0.00    -0.003 C 
ATOM     18  C   UNL     1     -24.192 -62.049   6.432  1.00  0.00     0.004 C 
ENDBRANCH  16  17
ENDBRANCH  15  16
ENDBRANCH  14  15
ENDBRANCH  13  14
ENDBRANCH  12  13
ENDBRANCH  11  12
ENDBRANCH   1  11
TORSDOF 14
ENDMDL
MODEL 6
REMARK VINA RESULT:    -4.527      2.568      4.007
REMARK INTER + INTRA:         -10.275
REMARK INTER:                  -8.053
REMARK INTRA:                  -2.222
REMARK UNBOUND:                -2.043
REMARK SMILES CCCCCCCCCCCCCCCC(=O)[O-]
REMARK SMILES IDX 9 1 10 2 11 3 12 4 13 5 14 6 15 7 16 8 17 9 18 10 8 11 7 12
REMARK SMILES IDX 6 13 5 14 4 15 3 16 2 17 1 18
REMARK H PARENT
REMARK Flexibility Score: inf
ROOT
ATOM      1  C   UNL     1     -23.064 -62.716   1.704  1.00  0.00     0.000 C 
ENDROOT
BRANCH   1   2
ATOM      2  C   UNL     1     -22.244 -62.192   0.510  1.00  0.00     0.000 C 
BRANCH   2   3
ATOM      3  C   UNL     1     -21.876 -60.698   0.570  1.00  0.00     0.000 C 
BRANCH   3   4
ATOM      4  C   UNL     1     -21.990 -59.997  -0.794  1.00  0.00     0.000 C 
BRANCH   4   5
ATOM      5  C   UNL     1     -23.150 -58.989  -0.845  1.00  0.00     0.000 C 
BRANCH   5   6
ATOM      6  C   UNL     1     -24.486 -59.639  -1.237  1.00  0.00     0.006 C 
BRANCH   6   7
ATOM      7  C   UNL     1     -25.574 -58.581  -1.431  1.00  0.00     0.053 C 
BRANCH   7   8
ATOM      8  C   UNL     1     -25.533 -58.032  -2.822  1.00  0.00     0.041 C 
ATOM      9  O   UNL     1     -24.995 -56.916  -3.048  1.00  0.00    -0.550 OA
ATOM     10  O   UNL     1     -26.053 -58.772  -3.878  1.00  0.00    -0.550 OA
ENDBRANCH   7   8
ENDBRANCH   6   7
ENDBRANCH   5   6
ENDBRANCH   4   5
ENDBRANCH   3   4
ENDBRANCH   2   3
ENDBRANCH   1   2
BRANCH   1  11
ATOM     11  C   UNL     1     -23.512 -61.597   2.660  1.00  0.00     0.000 C 
BRANCH  11  12
ATOM     12  C   UNL     1     -25.042 -61.506   2.789  1.00  0.00    -0.000 C 
BRANCH  12  13
ATOM     13  C   UNL     1     -25.613 -60.207   2.190  1.00  0.00    -0.000 C 
BRANCH  13  14
ATOM     14  C   UNL     1     -26.243 -59.299   3.258  1.00  0.00    -0.000 C 
BRANCH  14  15
ATOM     15  C   UNL     1     -25.558 -57.923   3.339  1.00  0.00    -0.000 C 
BRANCH  15  16
ATOM     16  C   UNL     1     -24.465 -57.735   2.271  1.00  0.00    -0.000 C 
BRANCH  16  17
ATOM     17  C   UNL     1     -23.023 -57.753   2.808  1.00  0.00    -0.003 C 
ATOM     18  C   UNL     1     -22.955 -57.818   4.333  1.00  0.00     0.004 C 
ENDBRANCH  16  17
ENDBRANCH  15  16
ENDBRANCH  14  15
ENDBRANCH  13  14
ENDBRANCH  12  13
ENDBRANCH  11  12
ENDBRANCH   1  11
TORSDOF 14
ENDMDL
MODEL 7
REMARK VINA RESULT:    -4.462      2.017      3.853
REMARK INTER + INTRA:         -10.157
REMARK INTER:                  -7.955
REMARK INTRA:                  -2.202
REMARK UNBOUND:                -2.043
REMARK SMILES CCCCCCCCCCCCCCCC(=O)[O-]
REMARK SMILES IDX 9 1 10 2 11 3 12 4 13 5 14 6 15 7 16 8 17 9 18 10 8 11 7 12
REMARK SMILES IDX 6 13 5 14 4 15 3 16 2 17 1 18
REMARK H PARENT
REMARK Flexibility Score: inf
ROOT
ATOM      1  C   UNL     1     -23.765 -59.371   3.608  1.00  0.00     0.000 C 
ENDROOT
BRANCH   1   2
ATOM      2  C   UNL     1     -23.389 -57.980   3.063  1.00  0.00     0.000 C 
BRANCH   2   3
ATOM      3  C   UNL     1     -22.241 -57.965   2.036  1.00  0.00     0.000 C 
BRANCH   3   4
ATOM      4  C   UNL     1     -22.736 -58.054   0.583  1.00  0.00     0.000 C 
BRANCH   4   5
ATOM      5  C   UNL     1     -22.143 -59.257  -0.171  1.00  0.00     0.000 C 
BRANCH   5   6
ATOM      6  C   UNL     1     -23.093 -59.815  -1.242  1.00  0.00     0.006 C 
BRANCH   6   7
ATOM      7  C   UNL     1     -24.091 -58.748  -1.698  1.00  0.00     0.053 C 
BRANCH   7   8
ATOM      8  C   UNL     1     -25.421 -59.365  -2.000  1.00  0.00     0.041 C 
ATOM      9  O   UNL     1     -25.746 -59.620  -3.189  1.00  0.00    -0.550 OA
ATOM     10  O   UNL     1     -26.285 -59.697  -0.962  1.00  0.00    -0.550 OA
ENDBRANCH   7   8
ENDBRANCH   6   7
ENDBRANCH   5   6
ENDBRANCH   4   5
ENDBRANCH   3   4
ENDBRANCH   2   3
ENDBRANCH   1   2
BRANCH   1  11
ATOM     11  C   UNL     1     -25.002 -59.971   2.916  1.00  0.00     0.000 C 
BRANCH  11  12
ATOM     12  C   UNL     1     -24.638 -61.057   1.890  1.00  0.00    -0.000 C 
BRANCH  12  13
ATOM     13  C   UNL     1     -23.311 -61.765   2.220  1.00  0.00    -0.000 C 
BRANCH  13  14
ATOM     14  C   UNL     1     -23.447 -63.296   2.215  1.00  0.00    -0.000 C 
BRANCH  14  15
ATOM     15  C   UNL     1     -23.787 -63.861   3.607  1.00  0.00    -0.000 C 
BRANCH  15  16
ATOM     16  C   UNL     1     -25.281 -64.194   3.770  1.00  0.00    -0.000 C 
BRANCH  16  17
ATOM     17  C   UNL     1     -26.077 -63.198   4.632  1.00  0.00    -0.003 C 
ATOM     18  C   UNL     1     -25.202 -62.433   5.623  1.00  0.00     0.004 C 
ENDBRANCH  16  17
ENDBRANCH  15  16
ENDBRANCH  14  15
ENDBRANCH  13  14
ENDBRANCH  12  13
ENDBRANCH  11  12
ENDBRANCH   1  11
TORSDOF 14
ENDMDL
MODEL 8
REMARK VINA RESULT:    -4.444      2.532      4.249
REMARK INTER + INTRA:         -10.124
REMARK INTER:                  -7.885
REMARK INTRA:                  -2.240
REMARK UNBOUND:                -2.043
REMARK SMILES CCCCCCCCCCCCCCCC(=O)[O-]
REMARK SMILES IDX 9 1 10 2 11 3 12 4 13 5 14 6 15 7 16 8 17 9 18 10 8 11 7 12
REMARK SMILES IDX 6 13 5 14 4 15 3 16 2 17 1 18
REMARK H PARENT
REMARK Flexibility Score: inf
ROOT
ATOM      1  C   UNL     1     -24.827 -60.961   2.441  1.00  0.00     0.000 C 
ENDROOT
BRANCH   1   2
ATOM      2  C   UNL     1     -23.290 -61.060   2.403  1.00  0.00     0.000 C 
BRANCH   2   3
ATOM      3  C   UNL     1     -22.722 -62.069   1.388  1.00  0.00     0.000 C 
BRANCH   3   4
ATOM      4  C   UNL     1     -21.903 -61.400   0.272  1.00  0.00     0.000 C 
BRANCH   4   5
ATOM      5  C   UNL     1     -21.939 -59.864   0.352  1.00  0.00     0.000 C 
BRANCH   5   6
ATOM      6  C   UNL     1     -22.557 -59.218  -0.898  1.00  0.00     0.006 C 
BRANCH   6   7
ATOM      7  C   UNL     1     -23.899 -59.868  -1.243  1.00  0.00     0.053 C 
BRANCH   7   8
ATOM      8  C   UNL     1     -24.833 -58.862  -1.840  1.00  0.00     0.041 C 
ATOM      9  O   UNL     1     -25.954 -59.224  -2.286  1.00  0.00    -0.550 OA
ATOM     10  O   UNL     1     -24.482 -57.517  -1.867  1.00  0.00    -0.550 OA
ENDBRANCH   7   8
ENDBRANCH   6   7
ENDBRANCH   5   6
ENDBRANCH   4   5
ENDBRANCH   3   4
ENDBRANCH   2   3
ENDBRANCH   1   2
BRANCH   1  11
ATOM     11  C   UNL     1     -25.326 -59.593   2.938  1.00  0.00     0.000 C 
BRANCH  11  12
ATOM     12  C   UNL     1     -25.293 -58.517   1.840  1.00  0.00    -0.000 C 
BRANCH  12  13
ATOM     13  C   UNL     1     -24.180 -57.476   2.062  1.00  0.00    -0.000 C 
BRANCH  13  14
ATOM     14  C   UNL     1     -24.566 -56.421   3.112  1.00  0.00    -0.000 C 
BRANCH  14  15
ATOM     15  C   UNL     1     -23.481 -56.239   4.188  1.00  0.00    -0.000 C 
BRANCH  15  16
ATOM     16  C   UNL     1     -22.671 -57.522   4.445  1.00  0.00    -0.000 C 
BRANCH  16  17
ATOM     17  C   UNL     1     -22.996 -58.240   5.767  1.00  0.00    -0.003 C 
ATOM     18  C   UNL     1     -22.696 -59.737   5.723  1.00  0.00     0.004 C 
ENDBRANCH  16  17
ENDBRANCH  15  16
ENDBRANCH  14  15
ENDBRANCH  13  14
ENDBRANCH  12  13
ENDBRANCH  11  12
ENDBRANCH   1  11
TORSDOF 14
ENDMDL
MODEL 9
REMARK VINA RESULT:    -4.436      2.098      3.780
REMARK INTER + INTRA:         -10.110
REMARK INTER:                  -8.144
REMARK INTRA:                  -1.966
REMARK UNBOUND:                -2.043
REMARK SMILES CCCCCCCCCCCCCCCC(=O)[O-]
REMARK SMILES IDX 9 1 10 2 11 3 12 4 13 5 14 6 15 7 16 8 17 9 18 10 8 11 7 12
REMARK SMILES IDX 6 13 5 14 4 15 3 16 2 17 1 18
REMARK H PARENT
REMARK Flexibility Score: inf
ROOT
ATOM      1  C   UNL     1     -21.875 -59.978   0.592  1.00  0.00     0.000 C 
ENDROOT
BRANCH   1   2
ATOM      2  C   UNL     1     -22.585 -59.089   1.630  1.00  0.00     0.000 C 
BRANCH   2   3
ATOM      3  C   UNL     1     -22.912 -57.660   1.158  1.00  0.00     0.000 C 
BRANCH   3   4
ATOM      4  C   UNL     1     -24.134 -57.601   0.227  1.00  0.00     0.000 C 
BRANCH   4   5
ATOM      5  C   UNL     1     -25.278 -58.518   0.694  1.00  0.00     0.000 C 
BRANCH   5   6
ATOM      6  C   UNL     1     -25.686 -59.548  -0.370  1.00  0.00     0.006 C 
BRANCH   6   7
ATOM      7  C   UNL     1     -24.929 -59.313  -1.679  1.00  0.00     0.053 C 
BRANCH   7   8
ATOM      8  C   UNL     1     -25.870 -58.886  -2.762  1.00  0.00     0.041 C 
ATOM      9  O   UNL     1     -25.973 -59.566  -3.817  1.00  0.00    -0.550 OA
ATOM     10  O   UNL     1     -26.664 -57.758  -2.589  1.00  0.00    -0.550 OA
ENDBRANCH   7   8
ENDBRANCH   6   7
ENDBRANCH   5   6
ENDBRANCH   4   5
ENDBRANCH   3   4
ENDBRANCH   2   3
ENDBRANCH   1   2
BRANCH   1  11
ATOM     11  C   UNL     1     -22.547 -61.351   0.418  1.00  0.00     0.000 C 
BRANCH  11  12
ATOM     12  C   UNL     1     -22.640 -62.136   1.737  1.00  0.00    -0.000 C 
BRANCH  12  13
ATOM     13  C   UNL     1     -24.086 -62.266   2.251  1.00  0.00    -0.000 C 
BRANCH  13  14
ATOM     14  C   UNL     1     -24.169 -62.202   3.785  1.00  0.00    -0.000 C 
BRANCH  14  15
ATOM     15  C   UNL     1     -22.934 -61.532   4.414  1.00  0.00    -0.000 C 
BRANCH  15  16
ATOM     16  C   UNL     1     -23.256 -60.799   5.729  1.00  0.00    -0.000 C 
BRANCH  16  17
ATOM     17  C   UNL     1     -22.792 -59.333   5.785  1.00  0.00    -0.003 C 
ATOM     18  C   UNL     1     -23.626 -58.408   4.900  1.00  0.00     0.004 C 
ENDBRANCH  16  17
ENDBRANCH  15  16
ENDBRANCH  14  15
ENDBRANCH  13  14
ENDBRANCH  12  13
ENDBRANCH  11  12
ENDBRANCH   1  11
TORSDOF 14
ENDMDL
