MODEL 1
REMARK VINA RESULT:    -4.653      0.000      0.000
REMARK INTER + INTRA:          -9.392
REMARK INTER:                  -8.461
REMARK INTRA:                  -0.931
REMARK UNBOUND:                -0.931
REMARK SMILES CCCCCCCCCCCCCCCC(=O)[O-]
REMARK SMILES IDX 9 1 10 2 11 3 12 4 13 5 14 6 15 7 16 8 17 9 18 10 8 11 7 12
REMARK SMILES IDX 6 13 5 14 4 15 3 16 2 17 1 18
REMARK H PARENT
REMARK Flexibility Score: inf
ROOT
ATOM      1  C   UNL     1       1.470  -0.206   8.248  1.00  0.00     0.000 C 
ENDROOT
BRANCH   1   2
ATOM      2  C   UNL     1       2.338   0.921   7.660  1.00  0.00     0.000 C 
BRANCH   2   3
ATOM      3  C   UNL     1       1.517   2.170   7.298  1.00  0.00     0.000 C 
BRANCH   3   4
ATOM      4  C   UNL     1       0.673   2.682   8.479  1.00  0.00     0.000 C 
BRANCH   4   5
ATOM      5  C   UNL     1       0.211   4.135   8.289  1.00  0.00     0.000 C 
BRANCH   5   6
ATOM      6  C   UNL     1       0.487   4.666   6.872  1.00  0.00     0.006 C 
BRANCH   6   7
ATOM      7  C   UNL     1      -0.424   5.846   6.508  1.00  0.00     0.053 C 
BRANCH   7   8
ATOM      8  C   UNL     1      -0.569   6.000   5.026  1.00  0.00     0.041 C 
ATOM      9  O   UNL     1      -0.028   5.173   4.245  1.00  0.00    -0.550 OA
ATOM     10  O   UNL     1      -1.278   7.075   4.504  1.00  0.00    -0.550 OA
ENDBRANCH   7   8
ENDBRANCH   6   7
ENDBRANCH   5   6
ENDBRANCH   4   5
ENDBRANCH   3   4
ENDBRANCH   2   3
ENDBRANCH   1   2
BRANCH   1  11
ATOM     11  C   UNL     1       1.281  -1.386   7.278  1.00  0.00     0.000 C 
BRANCH  11  12
ATOM     12  C   UNL     1       1.194  -1.000   5.790  1.00  0.00    -0.000 C 
BRANCH  12  13
ATOM     13  C   UNL     1       0.108  -1.776   5.031  1.00  0.00    -0.000 C 
BRANCH  13  14
ATOM     14  C   UNL     1      -0.831  -2.502   6.006  1.00  0.00    -0.000 C 
BRANCH  14  15
ATOM     15  C   UNL     1      -2.101  -3.035   5.323  1.00  0.00    -0.000 C 
BRANCH  15  16
ATOM     16  C   UNL     1      -2.313  -2.439   3.920  1.00  0.00    -0.000 C 
BRANCH  16  17
ATOM     17  C   UNL     1      -3.755  -1.956   3.699  1.00  0.00    -0.003 C 
ATOM     18  C   UNL     1      -4.213  -0.952   4.758  1.00  0.00     0.004 C 
ENDBRANCH  16  17
ENDBRANCH  15  16
ENDBRANCH  14  15
ENDBRANCH  13  14
ENDBRANCH  12  13
ENDBRANCH  11  12
ENDBRANCH   1  11
TORSDOF 14
ENDMDL
MODEL 2
REMARK VINA RESULT:    -4.513      4.801      6.575
REMARK INTER + INTRA:          -9.138
REMARK INTER:                  -7.416
REMARK INTRA:                  -1.723
REMARK UNBOUND:                -0.931
REMARK SMILES CCCCCCCCCCCCCCCC(=O)[O-]
REMARK SMILES IDX 9 1 10 2 11 3 12 4 13 5 14 6 15 7 16 8 17 9 18 10 8 11 7 12
REMARK SMILES IDX 6 13 5 14 4 15 3 16 2 17 1 18
REMARK H PARENT
REMARK Flexibility Score: inf
ROOT
ATOM      1  C   UNL     1      -2.924  -5.370   4.936  1.00  0.00     0.000 C 
ENDROOT
BRANCH   1   2
ATOM      2  C   UNL     1      -1.698  -4.863   5.716  1.00  0.00     0.000 C 
BRANCH   2   3
ATOM      3  C   UNL     1      -2.031  -3.673   6.630  1.00  0.00     0.000 C 
BRANCH   3   4
ATOM      4  C   UNL     1      -0.913  -2.616   6.652  1.00  0.00     0.000 C 
BRANCH   4   5
ATOM      5  C   UNL     1      -0.389  -2.279   5.247  1.00  0.00     0.000 C 
BRANCH   5   6
ATOM      6  C   UNL     1       0.661  -1.155   5.258  1.00  0.00     0.006 C 
BRANCH   6   7
ATOM      7  C   UNL     1       1.835  -1.469   6.195  1.00  0.00     0.053 C 
BRANCH   7   8
ATOM      8  C   UNL     1       2.745  -2.509   5.618  1.00  0.00     0.041 C 
ATOM      9  O   UNL     1       3.001  -3.559   6.265  1.00  0.00    -0.550 OA
ATOM     10  O   UNL     1       3.334  -2.306   4.376  1.00  0.00    -0.550 OA
ENDBRANCH   7   8
ENDBRANCH   6   7
ENDBRANCH   5   6
ENDBRANCH   4   5
ENDBRANCH   3   4
ENDBRANCH   2   3
ENDBRANCH   1   2
BRANCH   1  11
ATOM     11  C   UNL     1      -2.756  -5.250   3.411  1.00  0.00     0.000 C 
BRANCH  11  12
ATOM     12  C   UNL     1      -2.659  -3.810   2.876  1.00  0.00    -0.000 C 
BRANCH  12  13
ATOM     13  C   UNL     1      -3.847  -2.932   3.295  1.00  0.00    -0.000 C 
BRANCH  13  14
ATOM     14  C   UNL     1      -3.367  -1.560   3.792  1.00  0.00    -0.000 C 
BRANCH  14  15
ATOM     15  C   UNL     1      -4.471  -0.769   4.514  1.00  0.00    -0.000 C 
BRANCH  15  16
ATOM     16  C   UNL     1      -4.719  -1.273   5.947  1.00  0.00    -0.000 C 
BRANCH  16  17
ATOM     17  C   UNL     1      -6.127  -0.927   6.455  1.00  0.00    -0.003 C 
ATOM     18  C   UNL     1      -6.197   0.451   7.116  1.00  0.00     0.004 C 
ENDBRANCH  16  17
ENDBRANCH  15  16
ENDBRANCH  14  15
ENDBRANCH  13  14
ENDBRANCH  12  13
ENDBRANCH  11  12
ENDBRANCH   1  11
TORSDOF 14
ENDMDL
MODEL 3
REMARK VINA RESULT:    -4.466      5.007      6.544
REMARK INTER + INTRA:          -9.053
REMARK INTER:                  -6.705
REMARK INTRA:                  -2.348
REMARK UNBOUND:                -0.931
REMARK SMILES CCCCCCCCCCCCCCCC(=O)[O-]
REMARK SMILES IDX 9 1 10 2 11 3 12 4 13 5 14 6 15 7 16 8 17 9 18 10 8 11 7 12
REMARK SMILES IDX 6 13 5 14 4 15 3 16 2 17 1 18
REMARK H PARENT
REMARK Flexibility Score: inf
ROOT
ATOM      1  C   UNL     1      -4.488  -3.186   6.875  1.00  0.00     0.000 C 
ENDROOT
BRANCH   1   2
ATOM      2  C   UNL     1      -3.095  -2.644   7.241  1.00  0.00     0.000 C 
BRANCH   2   3
ATOM      3  C   UNL     1      -2.054  -3.762   7.414  1.00  0.00     0.000 C 
BRANCH   3   4
ATOM      4  C   UNL     1      -0.850  -3.598   6.469  1.00  0.00     0.000 C 
BRANCH   4   5
ATOM      5  C   UNL     1      -0.214  -2.202   6.558  1.00  0.00     0.000 C 
BRANCH   5   6
ATOM      6  C   UNL     1       0.532  -1.807   5.273  1.00  0.00     0.006 C 
BRANCH   6   7
ATOM      7  C   UNL     1       1.961  -1.324   5.558  1.00  0.00     0.053 C 
BRANCH   7   8
ATOM      8  C   UNL     1       2.975  -2.387   5.268  1.00  0.00     0.041 C 
ATOM      9  O   UNL     1       3.734  -2.285   4.268  1.00  0.00    -0.550 OA
ATOM     10  O   UNL     1       3.064  -3.506   6.086  1.00  0.00    -0.550 OA
ENDBRANCH   7   8
ENDBRANCH   6   7
ENDBRANCH   5   6
ENDBRANCH   4   5
ENDBRANCH   3   4
ENDBRANCH   2   3
ENDBRANCH   1   2
BRANCH   1  11
ATOM     11  C   UNL     1      -5.334  -2.176   6.079  1.00  0.00     0.000 C 
BRANCH  11  12
ATOM     12  C   UNL     1      -4.532  -1.075   5.361  1.00  0.00    -0.000 C 
BRANCH  12  13
ATOM     13  C   UNL     1      -4.192  -1.431   3.906  1.00  0.00    -0.000 C 
BRANCH  13  14
ATOM     14  C   UNL     1      -2.682  -1.658   3.736  1.00  0.00    -0.000 C 
BRANCH  14  15
ATOM     15  C   UNL     1      -2.349  -3.054   3.184  1.00  0.00    -0.000 C 
BRANCH  15  16
ATOM     16  C   UNL     1      -3.564  -3.998   3.189  1.00  0.00    -0.000 C 
BRANCH  16  17
ATOM     17  C   UNL     1      -3.160  -5.475   3.311  1.00  0.00    -0.003 C 
ATOM     18  C   UNL     1      -3.266  -6.003   4.742  1.00  0.00     0.004 C 
ENDBRANCH  16  17
ENDBRANCH  15  16
ENDBRANCH  14  15
ENDBRANCH  13  14
ENDBRANCH  12  13
ENDBRANCH  11  12
ENDBRANCH   1  11
TORSDOF 14
ENDMDL
MODEL 4
REMARK VINA RESULT:    -4.425      1.138      1.502
REMARK INTER + INTRA:          -8.977
REMARK INTER:                  -8.072
REMARK INTRA:                  -0.905
REMARK UNBOUND:                -0.931
REMARK SMILES CCCCCCCCCCCCCCCC(=O)[O-]
REMARK SMILES IDX 9 1 10 2 11 3 12 4 13 5 14 6 15 7 16 8 17 9 18 10 8 11 7 12
REMARK SMILES IDX 6 13 5 14 4 15 3 16 2 17 1 18
REMARK H PARENT
REMARK Flexibility Score: inf
ROOT
ATOM      1  C   UNL     1       1.643   0.397   6.370  1.00  0.00     0.000 C 
ENDROOT
BRANCH   1   2
ATOM      2  C   UNL     1       2.125   0.673   7.806  1.00  0.00     0.000 C 
BRANCH   2   3
ATOM      3  C   UNL     1       1.123   1.516   8.612  1.00  0.00     0.000 C 
BRANCH   3   4
ATOM      4  C   UNL     1       1.453   3.018   8.573  1.00  0.00     0.000 C 
BRANCH   4   5
ATOM      5  C   UNL     1       0.209   3.891   8.344  1.00  0.00     0.000 C 
BRANCH   5   6
ATOM      6  C   UNL     1       0.280   4.694   7.033  1.00  0.00     0.006 C 
BRANCH   6   7
ATOM      7  C   UNL     1       1.184   4.021   5.991  1.00  0.00     0.053 C 
BRANCH   7   8
ATOM      8  C   UNL     1       1.263   4.818   4.726  1.00  0.00     0.041 C 
ATOM      9  O   UNL     1       2.381   5.167   4.264  1.00  0.00    -0.550 OA
ATOM     10  O   UNL     1       0.099   5.200   4.071  1.00  0.00    -0.550 OA
ENDBRANCH   7   8
ENDBRANCH   6   7
ENDBRANCH   5   6
ENDBRANCH   4   5
ENDBRANCH   3   4
ENDBRANCH   2   3
ENDBRANCH   1   2
BRANCH   1  11
ATOM     11  C   UNL     1       1.815  -1.074   5.952  1.00  0.00     0.000 C 
BRANCH  11  12
ATOM     12  C   UNL     1       0.609  -1.691   5.222  1.00  0.00    -0.000 C 
BRANCH  12  13
ATOM     13  C   UNL     1      -0.204  -2.648   6.105  1.00  0.00    -0.000 C 
BRANCH  13  14
ATOM     14  C   UNL     1      -1.385  -3.246   5.325  1.00  0.00    -0.000 C 
BRANCH  14  15
ATOM     15  C   UNL     1      -2.653  -2.380   5.410  1.00  0.00    -0.000 C 
BRANCH  15  16
ATOM     16  C   UNL     1      -3.016  -1.729   4.064  1.00  0.00    -0.000 C 
BRANCH  16  17
ATOM     17  C   UNL     1      -4.350  -0.970   4.120  1.00  0.00    -0.003 C 
ATOM     18  C   UNL     1      -4.880  -0.805   5.545  1.00  0.00     0.004 C 
ENDBRANCH  16  17
ENDBRANCH  15  16
ENDBRANCH  14  15
ENDBRANCH  13  14
ENDBRANCH  12  13
ENDBRANCH  11  12
ENDBRANCH   1  11
TORSDOF 14
ENDMDL
MODEL 5
REMARK VINA RESULT:    -4.422      1.987      2.860
REMARK INTER + INTRA:          -8.972
REMARK INTER:                  -7.190
REMARK INTRA:                  -1.781
REMARK UNBOUND:                -0.931
REMARK SMILES CCCCCCCCCCCCCCCC(=O)[O-]
REMARK SMILES IDX 9 1 10 2 11 3 12 4 13 5 14 6 15 7 16 8 17 9 18 10 8 11 7 12
REMARK SMILES IDX 6 13 5 14 4 15 3 16 2 17 1 18
REMARK H PARENT
REMARK Flexibility Score: inf
ROOT
ATOM      1  C   UNL     1       3.173  -1.242   8.871  1.00  0.00     0.000 C 
ENDROOT
BRANCH   1   2
ATOM      2  C   UNL     1       3.038   0.187   8.317  1.00  0.00     0.000 C 
BRANCH   2   3
ATOM      3  C   UNL     1       1.591   0.534   7.926  1.00  0.00     0.000 C 
BRANCH   3   4
ATOM      4  C   UNL     1       1.514   1.709   6.936  1.00  0.00     0.000 C 
BRANCH   4   5
ATOM      5  C   UNL     1       1.391   3.069   7.642  1.00  0.00     0.000 C 
BRANCH   5   6
ATOM      6  C   UNL     1       0.825   4.165   6.722  1.00  0.00     0.006 C 
BRANCH   6   7
ATOM      7  C   UNL     1       1.442   4.118   5.318  1.00  0.00     0.053 C 
BRANCH   7   8
ATOM      8  C   UNL     1       0.862   5.167   4.419  1.00  0.00     0.041 C 
ATOM      9  O   UNL     1       1.602   5.795   3.617  1.00  0.00    -0.550 OA
ATOM     10  O   UNL     1      -0.491   5.470   4.488  1.00  0.00    -0.550 OA
ENDBRANCH   7   8
ENDBRANCH   6   7
ENDBRANCH   5   6
ENDBRANCH   4   5
ENDBRANCH   3   4
ENDBRANCH   2   3
ENDBRANCH   1   2
BRANCH   1  11
ATOM     11  C   UNL     1       3.520  -2.276   7.785  1.00  0.00     0.000 C 
BRANCH  11  12
ATOM     12  C   UNL     1       4.434  -1.759   6.660  1.00  0.00    -0.000 C 
BRANCH  12  13
ATOM     13  C   UNL     1       3.777  -1.824   5.274  1.00  0.00    -0.000 C 
BRANCH  13  14
ATOM     14  C   UNL     1       2.414  -2.529   5.346  1.00  0.00    -0.000 C 
BRANCH  14  15
ATOM     15  C   UNL     1       1.233  -1.560   5.165  1.00  0.00    -0.000 C 
BRANCH  15  16
ATOM     16  C   UNL     1      -0.121  -2.208   5.503  1.00  0.00    -0.000 C 
BRANCH  16  17
ATOM     17  C   UNL     1      -0.053  -3.088   6.761  1.00  0.00    -0.003 C 
ATOM     18  C   UNL     1      -0.571  -2.375   8.012  1.00  0.00     0.004 C 
ENDBRANCH  16  17
ENDBRANCH  15  16
ENDBRANCH  14  15
ENDBRANCH  13  14
ENDBRANCH  12  13
ENDBRANCH  11  12
ENDBRANCH   1  11
TORSDOF 14
ENDMDL
MODEL 6
REMARK VINA RESULT:    -4.363      4.811      6.522
REMARK INTER + INTRA:          -8.865
REMARK INTER:                  -7.019
REMARK INTRA:                  -1.846
REMARK UNBOUND:                -0.931
REMARK SMILES CCCCCCCCCCCCCCCC(=O)[O-]
REMARK SMILES IDX 9 1 10 2 11 3 12 4 13 5 14 6 15 7 16 8 17 9 18 10 8 11 7 12
REMARK SMILES IDX 6 13 5 14 4 15 3 16 2 17 1 18
REMARK H PARENT
REMARK Flexibility Score: inf
ROOT
ATOM      1  C   UNL     1      -5.166  -1.749   6.365  1.00  0.00     0.000 C 
ENDROOT
BRANCH   1   2
ATOM      2  C   UNL     1      -4.127  -2.249   7.384  1.00  0.00     0.000 C 
BRANCH   2   3
ATOM      3  C   UNL     1      -3.480  -3.579   6.963  1.00  0.00     0.000 C 
BRANCH   3   4
ATOM      4  C   UNL     1      -2.009  -3.683   7.402  1.00  0.00     0.000 C 
BRANCH   4   5
ATOM      5  C   UNL     1      -1.177  -2.462   6.977  1.00  0.00     0.000 C 
BRANCH   5   6
ATOM      6  C   UNL     1       0.087  -2.850   6.190  1.00  0.00     0.006 C 
BRANCH   6   7
ATOM      7  C   UNL     1       0.652  -1.672   5.386  1.00  0.00     0.053 C 
BRANCH   7   8
ATOM      8  C   UNL     1       2.147  -1.617   5.455  1.00  0.00     0.041 C 
ATOM      9  O   UNL     1       2.717  -0.926   6.341  1.00  0.00    -0.550 OA
ATOM     10  O   UNL     1       2.913  -2.307   4.524  1.00  0.00    -0.550 OA
ENDBRANCH   7   8
ENDBRANCH   6   7
ENDBRANCH   5   6
ENDBRANCH   4   5
ENDBRANCH   3   4
ENDBRANCH   2   3
ENDBRANCH   1   2
BRANCH   1  11
ATOM     11  C   UNL     1      -4.559  -0.821   5.297  1.00  0.00     0.000 C 
BRANCH  11  12
ATOM     12  C   UNL     1      -4.156  -1.514   3.983  1.00  0.00    -0.000 C 
BRANCH  12  13
ATOM     13  C   UNL     1      -2.639  -1.713   3.849  1.00  0.00    -0.000 C 
BRANCH  13  14
ATOM     14  C   UNL     1      -2.318  -3.077   3.219  1.00  0.00    -0.000 C 
BRANCH  14  15
ATOM     15  C   UNL     1      -3.520  -4.037   3.235  1.00  0.00    -0.000 C 
BRANCH  15  16
ATOM     16  C   UNL     1      -3.909  -4.520   1.827  1.00  0.00    -0.000 C 
BRANCH  16  17
ATOM     17  C   UNL     1      -2.728  -5.155   1.076  1.00  0.00    -0.003 C 
ATOM     18  C   UNL     1      -2.943  -5.202  -0.437  1.00  0.00     0.004 C 
ENDBRANCH  16  17
ENDBRANCH  15  16
ENDBRANCH  14  15
ENDBRANCH  13  14
ENDBRANCH  12  13
ENDBRANCH  11  12
ENDBRANCH   1  11
TORSDOF 14
ENDMDL
MODEL 7
REMARK VINA RESULT:    -4.324      5.082      6.398
REMARK INTER + INTRA:          -8.794
REMARK INTER:                  -7.063
REMARK INTRA:                  -1.731
REMARK UNBOUND:                -0.931
REMARK SMILES CCCCCCCCCCCCCCCC(=O)[O-]
REMARK SMILES IDX 9 1 10 2 11 3 12 4 13 5 14 6 15 7 16 8 17 9 18 10 8 11 7 12
REMARK SMILES IDX 6 13 5 14 4 15 3 16 2 17 1 18
REMARK H PARENT
REMARK Flexibility Score: inf
ROOT
ATOM      1  C   UNL     1      -4.133  -2.891   6.764  1.00  0.00     0.000 C 
ENDROOT
BRANCH   1   2
ATOM      2  C   UNL     1      -2.739  -2.672   7.378  1.00  0.00     0.000 C 
BRANCH   2   3
ATOM      3  C   UNL     1      -1.696  -3.667   6.842  1.00  0.00     0.000 C 
BRANCH   3   4
ATOM      4  C   UNL     1      -0.293  -3.045   6.727  1.00  0.00     0.000 C 
BRANCH   4   5
ATOM      5  C   UNL     1      -0.233  -1.908   5.694  1.00  0.00     0.000 C 
BRANCH   5   6
ATOM      6  C   UNL     1       1.181  -1.694   5.128  1.00  0.00     0.006 C 
BRANCH   6   7
ATOM      7  C   UNL     1       2.263  -1.824   6.210  1.00  0.00     0.053 C 
BRANCH   7   8
ATOM      8  C   UNL     1       3.633  -1.928   5.616  1.00  0.00     0.041 C 
ATOM      9  O   UNL     1       4.649  -1.668   6.313  1.00  0.00    -0.550 OA
ATOM     10  O   UNL     1       3.788  -2.285   4.283  1.00  0.00    -0.550 OA
ENDBRANCH   7   8
ENDBRANCH   6   7
ENDBRANCH   5   6
ENDBRANCH   4   5
ENDBRANCH   3   4
ENDBRANCH   2   3
ENDBRANCH   1   2
BRANCH   1  11
ATOM     11  C   UNL     1      -4.869  -1.573   6.463  1.00  0.00     0.000 C 
BRANCH  11  12
ATOM     12  C   UNL     1      -4.388  -0.830   5.203  1.00  0.00    -0.000 C 
BRANCH  12  13
ATOM     13  C   UNL     1      -4.325  -1.732   3.962  1.00  0.00    -0.000 C 
BRANCH  13  14
ATOM     14  C   UNL     1      -2.883  -1.856   3.447  1.00  0.00    -0.000 C 
BRANCH  14  15
ATOM     15  C   UNL     1      -2.426  -3.317   3.301  1.00  0.00    -0.000 C 
BRANCH  15  16
ATOM     16  C   UNL     1      -3.607  -4.302   3.237  1.00  0.00    -0.000 C 
BRANCH  16  17
ATOM     17  C   UNL     1      -3.886  -4.792   1.808  1.00  0.00    -0.003 C 
ATOM     18  C   UNL     1      -2.649  -4.736   0.910  1.00  0.00     0.004 C 
ENDBRANCH  16  17
ENDBRANCH  15  16
ENDBRANCH  14  15
ENDBRANCH  13  14
ENDBRANCH  12  13
ENDBRANCH  11  12
ENDBRANCH   1  11
TORSDOF 14
ENDMDL
MODEL 8
REMARK VINA RESULT:    -4.317      1.138      1.597
REMARK INTER + INTRA:          -8.781
REMARK INTER:                  -7.947
REMARK INTRA:                  -0.834
REMARK UNBOUND:                -0.931
REMARK SMILES CCCCCCCCCCCCCCCC(=O)[O-]
REMARK SMILES IDX 9 1 10 2 11 3 12 4 13 5 14 6 15 7 16 8 17 9 18 10 8 11 7 12
REMARK SMILES IDX 6 13 5 14 4 15 3 16 2 17 1 18
REMARK H PARENT
REMARK Flexibility Score: inf
ROOT
ATOM      1  C   UNL     1       1.547   0.372   7.455  1.00  0.00     0.000 C 
ENDROOT
BRANCH   1   2
ATOM      2  C   UNL     1       1.493   1.733   6.738  1.00  0.00     0.000 C 
BRANCH   2   3
ATOM      3  C   UNL     1       1.218   2.897   7.705  1.00  0.00     0.000 C 
BRANCH   3   4
ATOM      4  C   UNL     1       0.701   4.153   6.981  1.00  0.00     0.000 C 
BRANCH   4   5
ATOM      5  C   UNL     1       1.507   4.480   5.714  1.00  0.00     0.000 C 
BRANCH   5   6
ATOM      6  C   UNL     1       0.622   4.982   4.560  1.00  0.00     0.006 C 
BRANCH   6   7
ATOM      7  C   UNL     1      -0.625   5.719   5.067  1.00  0.00     0.053 C 
BRANCH   7   8
ATOM      8  C   UNL     1      -0.419   7.202   5.103  1.00  0.00     0.041 C 
ATOM      9  O   UNL     1      -0.658   7.902   4.083  1.00  0.00    -0.550 OA
ATOM     10  O   UNL     1       0.064   7.809   6.255  1.00  0.00    -0.550 OA
ENDBRANCH   7   8
ENDBRANCH   6   7
ENDBRANCH   5   6
ENDBRANCH   4   5
ENDBRANCH   3   4
ENDBRANCH   2   3
ENDBRANCH   1   2
BRANCH   1  11
ATOM     11  C   UNL     1       2.358  -0.682   6.680  1.00  0.00     0.000 C 
BRANCH  11  12
ATOM     12  C   UNL     1       1.620  -1.335   5.497  1.00  0.00    -0.000 C 
BRANCH  12  13
ATOM     13  C   UNL     1       0.580  -2.375   5.939  1.00  0.00    -0.000 C 
BRANCH  13  14
ATOM     14  C   UNL     1      -0.798  -2.065   5.334  1.00  0.00    -0.000 C 
BRANCH  14  15
ATOM     15  C   UNL     1      -1.586  -3.333   4.968  1.00  0.00    -0.000 C 
BRANCH  15  16
ATOM     16  C   UNL     1      -2.780  -3.041   4.042  1.00  0.00    -0.000 C 
BRANCH  16  17
ATOM     17  C   UNL     1      -3.000  -1.536   3.824  1.00  0.00    -0.003 C 
ATOM     18  C   UNL     1      -4.429  -1.093   4.140  1.00  0.00     0.004 C 
ENDBRANCH  16  17
ENDBRANCH  15  16
ENDBRANCH  14  15
ENDBRANCH  13  14
ENDBRANCH  12  13
ENDBRANCH  11  12
ENDBRANCH   1  11
TORSDOF 14
ENDMDL
MODEL 9
REMARK VINA RESULT:    -4.315      2.300      3.919
REMARK INTER + INTRA:          -8.778
REMARK INTER:                  -7.482
REMARK INTRA:                  -1.296
REMARK UNBOUND:                -0.931
REMARK SMILES CCCCCCCCCCCCCCCC(=O)[O-]
REMARK SMILES IDX 9 1 10 2 11 3 12 4 13 5 14 6 15 7 16 8 17 9 18 10 8 11 7 12
REMARK SMILES IDX 6 13 5 14 4 15 3 16 2 17 1 18
REMARK H PARENT
REMARK Flexibility Score: inf
ROOT
ATOM      1  C   UNL     1       0.739   3.446   7.541  1.00  0.00     0.000 C 
ENDROOT
BRANCH   1   2
ATOM      2  C   UNL     1       1.695   3.792   6.386  1.00  0.00     0.000 C 
BRANCH   2   3
ATOM      3  C   UNL     1       2.699   4.894   6.762  1.00  0.00     0.000 C 
BRANCH   3   4
ATOM      4  C   UNL     1       2.058   6.012   7.603  1.00  0.00     0.000 C 
BRANCH   4   5
ATOM      5  C   UNL     1       1.174   6.950   6.767  1.00  0.00     0.000 C 
BRANCH   5   6
ATOM      6  C   UNL     1      -0.260   7.058   7.313  1.00  0.00     0.006 C 
BRANCH   6   7
ATOM      7  C   UNL     1      -1.279   6.352   6.409  1.00  0.00     0.053 C 
BRANCH   7   8
ATOM      8  C   UNL     1      -0.902   6.450   4.963  1.00  0.00     0.041 C 
ATOM      9  O   UNL     1      -0.372   5.468   4.377  1.00  0.00    -0.550 OA
ATOM     10  O   UNL     1      -1.108   7.635   4.269  1.00  0.00    -0.550 OA
ENDBRANCH   7   8
ENDBRANCH   6   7
ENDBRANCH   5   6
ENDBRANCH   4   5
ENDBRANCH   3   4
ENDBRANCH   2   3
ENDBRANCH   1   2
BRANCH   1  11
ATOM     11  C   UNL     1       1.154   2.175   8.303  1.00  0.00     0.000 C 
BRANCH  11  12
ATOM     12  C   UNL     1       2.192   1.294   7.584  1.00  0.00    -0.000 C 
BRANCH  12  13
ATOM     13  C   UNL     1       1.666  -0.113   7.262  1.00  0.00    -0.000 C 
BRANCH  13  14
ATOM     14  C   UNL     1       1.198  -0.203   5.801  1.00  0.00    -0.000 C 
BRANCH  14  15
ATOM     15  C   UNL     1       1.022  -1.653   5.321  1.00  0.00    -0.000 C 
BRANCH  15  16
ATOM     16  C   UNL     1       2.186  -2.563   5.749  1.00  0.00    -0.000 C 
BRANCH  16  17
ATOM     17  C   UNL     1       3.394  -2.455   4.806  1.00  0.00    -0.003 C 
ATOM     18  C   UNL     1       4.591  -1.756   5.454  1.00  0.00     0.004 C 
ENDBRANCH  16  17
ENDBRANCH  15  16
ENDBRANCH  14  15
ENDBRANCH  13  14
ENDBRANCH  12  13
ENDBRANCH  11  12
ENDBRANCH   1  11
TORSDOF 14
ENDMDL
