MODEL 1
REMARK VINA RESULT:    -6.170      0.000      0.000
REMARK INTER + INTRA:          -6.531
REMARK INTER:                  -6.531
REMARK INTRA:                   0.000
REMARK UNBOUND:                 0.000
REMARK SMILES O=c1ccc2cc(O)c(O)cc2o1
REMARK SMILES IDX 4 1 3 2 2 3 1 4 13 5 12 6 11 7 9 8 7 9 6 10 5 11 8 12 10 14
REMARK H PARENT 8 13 10 15
REMARK Flexibility Score: inf
ROOT
ATOM      1  C   UNL     1      79.772 -26.256  84.289  1.00  0.00     0.019 A 
ATOM      2  C   UNL     1      79.127 -25.873  85.465  1.00  0.00     0.094 A 
ATOM      3  C   UNL     1      77.808 -26.287  85.679  1.00  0.00     0.336 A 
ATOM      4  O   UNL     1      77.207 -25.951  86.734  1.00  0.00    -0.246 OA
ATOM      5  O   UNL     1      77.180 -27.032  84.773  1.00  0.00    -0.423 OA
ATOM      6  C   UNL     1      77.759 -27.419  83.638  1.00  0.00     0.142 A 
ATOM      7  C   UNL     1      77.051 -28.202  82.724  1.00  0.00     0.098 A 
ATOM      8  C   UNL     1      77.648 -28.616  81.525  1.00  0.00     0.161 A 
ATOM      9  C   UNL     1      78.982 -28.237  81.241  1.00  0.00     0.158 A 
ATOM     10  C   UNL     1      79.691 -27.450  82.159  1.00  0.00     0.062 A 
ATOM     11  C   UNL     1      79.087 -27.041  83.355  1.00  0.00     0.022 A 
ENDROOT
BRANCH   9  12
ATOM     12  O   UNL     1      79.639 -28.613  80.066  1.00  0.00    -0.504 OA
ATOM     13  H   UNL     1      80.625 -28.828  80.015  1.00  0.00     0.293 HD
ENDBRANCH   9  12
BRANCH   8  14
ATOM     14  O   UNL     1      76.884 -29.397  80.656  1.00  0.00    -0.504 OA
ATOM     15  H   UNL     1      76.692 -29.150  79.695  1.00  0.00     0.293 HD
ENDBRANCH   8  14
TORSDOF 2
ENDMDL
MODEL 2
REMARK VINA RESULT:    -6.160      2.403      4.927
REMARK INTER + INTRA:          -6.520
REMARK INTER:                  -6.520
REMARK INTRA:                   0.000
REMARK UNBOUND:                 0.000
REMARK SMILES O=c1ccc2cc(O)c(O)cc2o1
REMARK SMILES IDX 4 1 3 2 2 3 1 4 13 5 12 6 11 7 9 8 7 9 6 10 5 11 8 12 10 14
REMARK H PARENT 8 13 10 15
REMARK Flexibility Score: inf
ROOT
ATOM      1  C   UNL     1      78.618 -26.420  86.058  1.00  0.00     0.019 A 
ATOM      2  C   UNL     1      79.478 -26.695  84.996  1.00  0.00     0.094 A 
ATOM      3  C   UNL     1      78.948 -26.803  83.706  1.00  0.00     0.336 A 
ATOM      4  O   UNL     1      79.709 -27.051  82.733  1.00  0.00    -0.246 OA
ATOM      5  O   UNL     1      77.644 -26.648  83.498  1.00  0.00    -0.423 OA
ATOM      6  C   UNL     1      76.788 -26.385  84.484  1.00  0.00     0.142 A 
ATOM      7  C   UNL     1      75.428 -26.231  84.206  1.00  0.00     0.098 A 
ATOM      8  C   UNL     1      74.516 -25.956  85.234  1.00  0.00     0.161 A 
ATOM      9  C   UNL     1      74.980 -25.830  86.566  1.00  0.00     0.158 A 
ATOM     10  C   UNL     1      76.345 -25.985  86.842  1.00  0.00     0.062 A 
ATOM     11  C   UNL     1      77.250 -26.261  85.810  1.00  0.00     0.022 A 
ENDROOT
BRANCH   9  12
ATOM     12  O   UNL     1      74.127 -25.556  87.638  1.00  0.00    -0.504 OA
ATOM     13  H   UNL     1      73.260 -26.046  87.809  1.00  0.00     0.293 HD
ENDBRANCH   9  12
BRANCH   8  14
ATOM     14  O   UNL     1      73.170 -25.814  84.887  1.00  0.00    -0.504 OA
ATOM     15  H   UNL     1      72.728 -24.929  84.685  1.00  0.00     0.293 HD
ENDBRANCH   8  14
TORSDOF 2
ENDMDL
MODEL 3
REMARK VINA RESULT:    -6.014      2.854      4.963
REMARK INTER + INTRA:          -6.366
REMARK INTER:                  -6.366
REMARK INTRA:                   0.000
REMARK UNBOUND:                 0.000
REMARK SMILES O=c1ccc2cc(O)c(O)cc2o1
REMARK SMILES IDX 4 1 3 2 2 3 1 4 13 5 12 6 11 7 9 8 7 9 6 10 5 11 8 12 10 14
REMARK H PARENT 8 13 10 15
REMARK Flexibility Score: inf
ROOT
ATOM      1  C   UNL     1      77.638 -26.771  83.535  1.00  0.00     0.019 A 
ATOM      2  C   UNL     1      78.979 -26.973  83.863  1.00  0.00     0.094 A 
ATOM      3  C   UNL     1      79.369 -26.881  85.203  1.00  0.00     0.336 A 
ATOM      4  O   UNL     1      80.575 -27.059  85.520  1.00  0.00    -0.246 OA
ATOM      5  O   UNL     1      78.475 -26.603  86.148  1.00  0.00    -0.423 OA
ATOM      6  C   UNL     1      77.186 -26.403  85.878  1.00  0.00     0.142 A 
ATOM      7  C   UNL     1      76.292 -26.116  86.911  1.00  0.00     0.098 A 
ATOM      8  C   UNL     1      74.933 -25.902  86.642  1.00  0.00     0.161 A 
ATOM      9  C   UNL     1      74.464 -25.981  85.308  1.00  0.00     0.158 A 
ATOM     10  C   UNL     1      75.363 -26.270  84.272  1.00  0.00     0.062 A 
ATOM     11  C   UNL     1      76.720 -26.481  84.550  1.00  0.00     0.022 A 
ENDROOT
BRANCH   9  12
ATOM     12  O   UNL     1      73.124 -25.780  84.967  1.00  0.00    -0.504 OA
ATOM     13  H   UNL     1      72.467 -26.528  84.794  1.00  0.00     0.293 HD
ENDBRANCH   9  12
BRANCH   8  14
ATOM     14  O   UNL     1      74.094 -25.619  87.721  1.00  0.00    -0.504 OA
ATOM     15  H   UNL     1      73.396 -24.889  87.718  1.00  0.00     0.293 HD
ENDBRANCH   8  14
TORSDOF 2
ENDMDL
MODEL 4
REMARK VINA RESULT:    -5.994      1.246      2.323
REMARK INTER + INTRA:          -6.344
REMARK INTER:                  -6.344
REMARK INTRA:                   0.000
REMARK UNBOUND:                 0.000
REMARK SMILES O=c1ccc2cc(O)c(O)cc2o1
REMARK SMILES IDX 4 1 3 2 2 3 1 4 13 5 12 6 11 7 9 8 7 9 6 10 5 11 8 12 10 14
REMARK H PARENT 8 13 10 15
REMARK Flexibility Score: inf
ROOT
ATOM      1  C   UNL     1      77.264 -26.757  84.814  1.00  0.00     0.019 A 
ATOM      2  C   UNL     1      78.034 -25.930  85.632  1.00  0.00     0.094 A 
ATOM      3  C   UNL     1      79.340 -25.615  85.239  1.00  0.00     0.336 A 
ATOM      4  O   UNL     1      80.051 -24.871  85.964  1.00  0.00    -0.246 OA
ATOM      5  O   UNL     1      79.837 -26.100  84.105  1.00  0.00    -0.423 OA
ATOM      6  C   UNL     1      79.137 -26.892  83.296  1.00  0.00     0.142 A 
ATOM      7  C   UNL     1      79.712 -27.370  82.116  1.00  0.00     0.098 A 
ATOM      8  C   UNL     1      78.987 -28.205  81.256  1.00  0.00     0.161 A 
ATOM      9  C   UNL     1      77.658 -28.565  81.587  1.00  0.00     0.158 A 
ATOM     10  C   UNL     1      77.083 -28.085  82.771  1.00  0.00     0.062 A 
ATOM     11  C   UNL     1      77.814 -27.250  83.626  1.00  0.00     0.022 A 
ENDROOT
BRANCH   9  12
ATOM     12  O   UNL     1      76.877 -29.394  80.776  1.00  0.00    -0.504 OA
ATOM     13  H   UNL     1      76.581 -30.323  81.037  1.00  0.00     0.293 HD
ENDBRANCH   9  12
BRANCH   8  14
ATOM     14  O   UNL     1      79.621 -28.648  80.093  1.00  0.00    -0.504 OA
ATOM     15  H   UNL     1      80.622 -28.643  79.959  1.00  0.00     0.293 HD
ENDBRANCH   8  14
TORSDOF 2
ENDMDL
MODEL 5
REMARK VINA RESULT:    -5.793      2.065      4.964
REMARK INTER + INTRA:          -6.132
REMARK INTER:                  -6.132
REMARK INTRA:                   0.000
REMARK UNBOUND:                 0.000
REMARK SMILES O=c1ccc2cc(O)c(O)cc2o1
REMARK SMILES IDX 4 1 3 2 2 3 1 4 13 5 12 6 11 7 9 8 7 9 6 10 5 11 8 12 10 14
REMARK H PARENT 8 13 10 15
REMARK Flexibility Score: inf
ROOT
ATOM      1  C   UNL     1      76.735 -28.128  82.814  1.00  0.00     0.019 A 
ATOM      2  C   UNL     1      77.938 -28.817  82.659  1.00  0.00     0.094 A 
ATOM      3  C   UNL     1      79.037 -28.444  83.440  1.00  0.00     0.336 A 
ATOM      4  O   UNL     1      80.132 -29.053  83.315  1.00  0.00    -0.246 OA
ATOM      5  O   UNL     1      78.935 -27.447  84.314  1.00  0.00    -0.423 OA
ATOM      6  C   UNL     1      77.806 -26.763  84.492  1.00  0.00     0.142 A 
ATOM      7  C   UNL     1      77.758 -25.725  85.426  1.00  0.00     0.098 A 
ATOM      8  C   UNL     1      76.577 -24.997  85.623  1.00  0.00     0.161 A 
ATOM      9  C   UNL     1      75.422 -25.319  84.870  1.00  0.00     0.158 A 
ATOM     10  C   UNL     1      75.473 -26.360  83.934  1.00  0.00     0.062 A 
ATOM     11  C   UNL     1      76.657 -27.083  83.742  1.00  0.00     0.022 A 
ENDROOT
BRANCH   9  12
ATOM     12  O   UNL     1      74.212 -24.635  85.015  1.00  0.00    -0.504 OA
ATOM     13  H   UNL     1      73.555 -24.486  84.263  1.00  0.00     0.293 HD
ENDBRANCH   9  12
BRANCH   8  14
ATOM     14  O   UNL     1      76.598 -23.972  86.572  1.00  0.00    -0.504 OA
ATOM     15  H   UNL     1      76.340 -24.092  87.540  1.00  0.00     0.293 HD
ENDBRANCH   8  14
TORSDOF 2
ENDMDL
MODEL 6
REMARK VINA RESULT:    -5.696      1.741      2.702
REMARK INTER + INTRA:          -6.029
REMARK INTER:                  -6.029
REMARK INTRA:                   0.000
REMARK UNBOUND:                 0.000
REMARK SMILES O=c1ccc2cc(O)c(O)cc2o1
REMARK SMILES IDX 4 1 3 2 2 3 1 4 13 5 12 6 11 7 9 8 7 9 6 10 5 11 8 12 10 14
REMARK H PARENT 8 13 10 15
REMARK Flexibility Score: inf
ROOT
ATOM      1  C   UNL     1      75.627 -26.384  83.940  1.00  0.00     0.019 A 
ATOM      2  C   UNL     1      75.622 -25.352  84.879  1.00  0.00     0.094 A 
ATOM      3  C   UNL     1      76.809 -25.042  85.550  1.00  0.00     0.336 A 
ATOM      4  O   UNL     1      76.825 -24.115  86.402  1.00  0.00    -0.246 OA
ATOM      5  O   UNL     1      77.924 -25.723  85.298  1.00  0.00    -0.423 OA
ATOM      6  C   UNL     1      77.972 -26.714  84.410  1.00  0.00     0.142 A 
ATOM      7  C   UNL     1      79.171 -27.394  84.185  1.00  0.00     0.098 A 
ATOM      8  C   UNL     1      79.236 -28.440  83.255  1.00  0.00     0.161 A 
ATOM      9  C   UNL     1      78.074 -28.809  82.535  1.00  0.00     0.158 A 
ATOM     10  C   UNL     1      76.872 -28.126  82.762  1.00  0.00     0.062 A 
ATOM     11  C   UNL     1      76.815 -27.082  83.694  1.00  0.00     0.022 A 
ENDROOT
BRANCH   9  12
ATOM     12  O   UNL     1      78.067 -29.841  81.593  1.00  0.00    -0.504 OA
ATOM     13  H   UNL     1      77.452 -30.641  81.638  1.00  0.00     0.293 HD
ENDBRANCH   9  12
BRANCH   8  14
ATOM     14  O   UNL     1      80.467 -29.077  83.080  1.00  0.00    -0.504 OA
ATOM     15  H   UNL     1      80.773 -29.485  82.208  1.00  0.00     0.293 HD
ENDBRANCH   8  14
TORSDOF 2
ENDMDL
MODEL 7
REMARK VINA RESULT:    -5.683      1.995      4.627
REMARK INTER + INTRA:          -6.015
REMARK INTER:                  -6.015
REMARK INTRA:                   0.000
REMARK UNBOUND:                 0.000
REMARK SMILES O=c1ccc2cc(O)c(O)cc2o1
REMARK SMILES IDX 4 1 3 2 2 3 1 4 13 5 12 6 11 7 9 8 7 9 6 10 5 11 8 12 10 14
REMARK H PARENT 8 13 10 15
REMARK Flexibility Score: inf
ROOT
ATOM      1  C   UNL     1      79.190 -27.225  84.462  1.00  0.00     0.019 A 
ATOM      2  C   UNL     1      79.327 -28.283  83.563  1.00  0.00     0.094 A 
ATOM      3  C   UNL     1      78.220 -28.674  82.802  1.00  0.00     0.336 A 
ATOM      4  O   UNL     1      78.324 -29.627  81.986  1.00  0.00    -0.246 OA
ATOM      5  O   UNL     1      77.055 -28.046  82.937  1.00  0.00    -0.423 OA
ATOM      6  C   UNL     1      76.881 -27.033  83.783  1.00  0.00     0.142 A 
ATOM      7  C   UNL     1      75.634 -26.411  83.881  1.00  0.00     0.098 A 
ATOM      8  C   UNL     1      75.436 -25.344  84.767  1.00  0.00     0.161 A 
ATOM      9  C   UNL     1      76.512 -24.892  85.569  1.00  0.00     0.158 A 
ATOM     10  C   UNL     1      77.762 -25.517  85.469  1.00  0.00     0.062 A 
ATOM     11  C   UNL     1      77.952 -26.584  84.581  1.00  0.00     0.022 A 
ENDROOT
BRANCH   9  12
ATOM     12  O   UNL     1      76.386 -23.834  86.474  1.00  0.00    -0.504 OA
ATOM     13  H   UNL     1      76.336 -22.862  86.202  1.00  0.00     0.293 HD
ENDBRANCH   9  12
BRANCH   8  14
ATOM     14  O   UNL     1      74.165 -24.768  84.816  1.00  0.00    -0.504 OA
ATOM     15  H   UNL     1      73.885 -23.969  84.265  1.00  0.00     0.293 HD
ENDBRANCH   8  14
TORSDOF 2
ENDMDL
MODEL 8
REMARK VINA RESULT:    -5.659      1.832      2.152
REMARK INTER + INTRA:          -5.990
REMARK INTER:                  -5.990
REMARK INTRA:                   0.000
REMARK UNBOUND:                 0.000
REMARK SMILES O=c1ccc2cc(O)c(O)cc2o1
REMARK SMILES IDX 4 1 3 2 2 3 1 4 13 5 12 6 11 7 9 8 7 9 6 10 5 11 8 12 10 14
REMARK H PARENT 8 13 10 15
REMARK Flexibility Score: inf
ROOT
ATOM      1  C   UNL     1      77.805 -25.761  85.400  1.00  0.00     0.019 A 
ATOM      2  C   UNL     1      76.563 -25.162  85.604  1.00  0.00     0.094 A 
ATOM      3  C   UNL     1      75.469 -25.598  84.849  1.00  0.00     0.336 A 
ATOM      4  O   UNL     1      74.338 -25.070  85.018  1.00  0.00    -0.246 OA
ATOM      5  O   UNL     1      75.614 -26.568  83.950  1.00  0.00    -0.423 OA
ATOM      6  C   UNL     1      76.782 -27.166  83.725  1.00  0.00     0.142 A 
ATOM      7  C   UNL     1      76.875 -28.180  82.768  1.00  0.00     0.098 A 
ATOM      8  C   UNL     1      78.098 -28.817  82.520  1.00  0.00     0.161 A 
ATOM      9  C   UNL     1      79.250 -28.429  83.247  1.00  0.00     0.158 A 
ATOM     10  C   UNL     1      79.154 -27.412  84.206  1.00  0.00     0.062 A 
ATOM     11  C   UNL     1      77.928 -26.779  84.448  1.00  0.00     0.022 A 
ENDROOT
BRANCH   9  12
ATOM     12  O   UNL     1      80.500 -29.021  83.051  1.00  0.00    -0.504 OA
ATOM     13  H   UNL     1      80.984 -29.563  83.753  1.00  0.00     0.293 HD
ENDBRANCH   9  12
BRANCH   8  14
ATOM     14  O   UNL     1      78.121 -29.822  81.550  1.00  0.00    -0.504 OA
ATOM     15  H   UNL     1      78.967 -30.213  81.161  1.00  0.00     0.293 HD
ENDBRANCH   8  14
TORSDOF 2
ENDMDL
MODEL 9
REMARK VINA RESULT:    -5.544      4.477      6.007
REMARK INTER + INTRA:          -5.868
REMARK INTER:                  -5.868
REMARK INTRA:                   0.000
REMARK UNBOUND:                 0.000
REMARK SMILES O=c1ccc2cc(O)c(O)cc2o1
REMARK SMILES IDX 4 1 3 2 2 3 1 4 13 5 12 6 11 7 9 8 7 9 6 10 5 11 8 12 10 14
REMARK H PARENT 8 13 10 15
REMARK Flexibility Score: inf
ROOT
ATOM      1  C   UNL     1      82.051 -23.895  86.298  1.00  0.00     0.019 A 
ATOM      2  C   UNL     1      83.285 -23.478  86.795  1.00  0.00     0.094 A 
ATOM      3  C   UNL     1      84.160 -24.433  87.323  1.00  0.00     0.336 A 
ATOM      4  O   UNL     1      85.279 -24.077  87.777  1.00  0.00    -0.246 OA
ATOM      5  O   UNL     1      83.817 -25.718  87.351  1.00  0.00    -0.423 OA
ATOM      6  C   UNL     1      82.649 -26.158  86.888  1.00  0.00     0.142 A 
ATOM      7  C   UNL     1      82.343 -27.519  86.943  1.00  0.00     0.098 A 
ATOM      8  C   UNL     1      81.117 -27.996  86.460  1.00  0.00     0.161 A 
ATOM      9  C   UNL     1      80.181 -27.088  85.909  1.00  0.00     0.158 A 
ATOM     10  C   UNL     1      80.490 -25.722  85.855  1.00  0.00     0.062 A 
ATOM     11  C   UNL     1      81.717 -25.253  86.340  1.00  0.00     0.022 A 
ENDROOT
BRANCH   9  12
ATOM     12  O   UNL     1      78.941 -27.493  85.409  1.00  0.00    -0.504 OA
ATOM     13  H   UNL     1      78.061 -27.076  85.677  1.00  0.00     0.293 HD
ENDBRANCH   9  12
BRANCH   8  14
ATOM     14  O   UNL     1      80.875 -29.369  86.546  1.00  0.00    -0.504 OA
ATOM     15  H   UNL     1      79.988 -29.801  86.332  1.00  0.00     0.293 HD
ENDBRANCH   8  14
TORSDOF 2
ENDMDL
