MODEL 1
REMARK VINA RESULT:    -4.751      0.000      0.000
REMARK INTER + INTRA:          -9.164
REMARK INTER:                  -8.084
REMARK INTRA:                  -1.080
REMARK UNBOUND:                -1.080
REMARK SMILES CCCCCCCCCCCCCC(=O)[O-]
REMARK SMILES IDX 8 1 9 2 10 3 11 4 12 5 13 6 14 7 15 8 16 9 7 10 6 11 5 12
REMARK SMILES IDX 4 13 3 14 2 15 1 16
REMARK H PARENT
REMARK Flexibility Score: inf
ROOT
ATOM      1  C   UNL     1     -10.985  -7.512  -6.003  1.00  0.00     0.000 C 
ENDROOT
BRANCH   1   2
ATOM      2  C   UNL     1      -9.562  -7.069  -5.604  1.00  0.00     0.000 C 
BRANCH   2   3
ATOM      3  C   UNL     1      -8.788  -8.190  -4.883  1.00  0.00     0.000 C 
BRANCH   3   4
ATOM      4  C   UNL     1      -9.427  -9.570  -5.091  1.00  0.00     0.000 C 
BRANCH   4   5
ATOM      5  C   UNL     1      -8.387 -10.651  -5.426  1.00  0.00     0.006 C 
BRANCH   5   6
ATOM      6  C   UNL     1      -6.968 -10.077  -5.376  1.00  0.00     0.053 C 
BRANCH   6   7
ATOM      7  C   UNL     1      -6.106 -10.711  -6.421  1.00  0.00     0.041 C 
ATOM      8  O   UNL     1      -6.627 -11.209  -7.455  1.00  0.00    -0.550 OA
ATOM      9  O   UNL     1      -4.724 -10.713  -6.275  1.00  0.00    -0.550 OA
ENDBRANCH   6   7
ENDBRANCH   5   6
ENDBRANCH   4   5
ENDBRANCH   3   4
ENDBRANCH   2   3
ENDBRANCH   1   2
BRANCH   1  10
ATOM     10  C   UNL     1     -12.090  -6.628  -5.399  1.00  0.00     0.000 C 
BRANCH  10  11
ATOM     11  C   UNL     1     -11.550  -5.315  -4.816  1.00  0.00    -0.000 C 
BRANCH  11  12
ATOM     12  C   UNL     1     -12.036  -4.107  -5.627  1.00  0.00    -0.000 C 
BRANCH  12  13
ATOM     13  C   UNL     1     -12.104  -4.388  -7.140  1.00  0.00    -0.000 C 
BRANCH  13  14
ATOM     14  C   UNL     1     -10.848  -3.989  -7.936  1.00  0.00    -0.000 C 
BRANCH  14  15
ATOM     15  C   UNL     1     -10.494  -4.989  -9.046  1.00  0.00    -0.003 C 
ATOM     16  C   UNL     1     -11.200  -4.633 -10.350  1.00  0.00     0.004 C 
ENDBRANCH  14  15
ENDBRANCH  13  14
ENDBRANCH  12  13
ENDBRANCH  11  12
ENDBRANCH  10  11
ENDBRANCH   1  10
TORSDOF 12
ENDMDL
MODEL 2
REMARK VINA RESULT:    -4.713      1.316      2.763
REMARK INTER + INTRA:          -9.099
REMARK INTER:                  -7.847
REMARK INTRA:                  -1.252
REMARK UNBOUND:                -1.080
REMARK SMILES CCCCCCCCCCCCCC(=O)[O-]
REMARK SMILES IDX 8 1 9 2 10 3 11 4 12 5 13 6 14 7 15 8 16 9 7 10 6 11 5 12
REMARK SMILES IDX 4 13 3 14 2 15 1 16
REMARK H PARENT
REMARK Flexibility Score: inf
ROOT
ATOM      1  C   UNL     1      -9.404  -7.018  -5.296  1.00  0.00     0.000 C 
ENDROOT
BRANCH   1   2
ATOM      2  C   UNL     1     -10.207  -8.315  -5.525  1.00  0.00     0.000 C 
BRANCH   2   3
ATOM      3  C   UNL     1      -9.398  -9.572  -5.150  1.00  0.00     0.000 C 
BRANCH   3   4
ATOM      4  C   UNL     1      -7.919  -9.257  -4.881  1.00  0.00     0.000 C 
BRANCH   4   5
ATOM      5  C   UNL     1      -7.012 -10.475  -5.112  1.00  0.00     0.006 C 
BRANCH   5   6
ATOM      6  C   UNL     1      -6.517 -10.522  -6.561  1.00  0.00     0.053 C 
BRANCH   6   7
ATOM      7  C   UNL     1      -6.830 -11.845  -7.182  1.00  0.00     0.041 C 
ATOM      8  O   UNL     1      -7.912 -12.433  -6.911  1.00  0.00    -0.550 OA
ATOM      9  O   UNL     1      -5.948 -12.411  -8.095  1.00  0.00    -0.550 OA
ENDBRANCH   6   7
ENDBRANCH   5   6
ENDBRANCH   4   5
ENDBRANCH   3   4
ENDBRANCH   2   3
ENDBRANCH   1   2
BRANCH   1  10
ATOM     10  C   UNL     1      -9.279  -6.148  -6.560  1.00  0.00     0.000 C 
BRANCH  10  11
ATOM     11  C   UNL     1     -10.504  -6.251  -7.477  1.00  0.00    -0.000 C 
BRANCH  11  12
ATOM     12  C   UNL     1     -10.821  -4.901  -8.134  1.00  0.00    -0.000 C 
BRANCH  12  13
ATOM     13  C   UNL     1     -11.538  -3.925  -7.182  1.00  0.00    -0.000 C 
BRANCH  13  14
ATOM     14  C   UNL     1     -12.721  -4.526  -6.400  1.00  0.00    -0.000 C 
BRANCH  14  15
ATOM     15  C   UNL     1     -12.396  -4.788  -4.922  1.00  0.00    -0.003 C 
ATOM     16  C   UNL     1     -13.056  -6.074  -4.435  1.00  0.00     0.004 C 
ENDBRANCH  14  15
ENDBRANCH  13  14
ENDBRANCH  12  13
ENDBRANCH  11  12
ENDBRANCH  10  11
ENDBRANCH   1  10
TORSDOF 12
ENDMDL
MODEL 3
REMARK VINA RESULT:    -4.672      2.774      6.666
REMARK INTER + INTRA:          -9.029
REMARK INTER:                  -7.941
REMARK INTRA:                  -1.089
REMARK UNBOUND:                -1.080
REMARK SMILES CCCCCCCCCCCCCC(=O)[O-]
REMARK SMILES IDX 8 1 9 2 10 3 11 4 12 5 13 6 14 7 15 8 16 9 7 10 6 11 5 12
REMARK SMILES IDX 4 13 3 14 2 15 1 16
REMARK H PARENT
REMARK Flexibility Score: inf
ROOT
ATOM      1  C   UNL     1     -10.933  -7.558  -5.956  1.00  0.00     0.000 C 
ENDROOT
BRANCH   1   2
ATOM      2  C   UNL     1     -11.878  -6.452  -5.440  1.00  0.00     0.000 C 
BRANCH   2   3
ATOM      3  C   UNL     1     -11.148  -5.108  -5.255  1.00  0.00     0.000 C 
BRANCH   3   4
ATOM      4  C   UNL     1     -11.951  -3.925  -5.814  1.00  0.00     0.000 C 
BRANCH   4   5
ATOM      5  C   UNL     1     -12.165  -4.031  -7.333  1.00  0.00     0.006 C 
BRANCH   5   6
ATOM      6  C   UNL     1     -10.848  -3.822  -8.086  1.00  0.00     0.053 C 
BRANCH   6   7
ATOM      7  C   UNL     1     -10.741  -4.776  -9.233  1.00  0.00     0.041 C 
ATOM      8  O   UNL     1     -10.690  -6.017  -9.023  1.00  0.00    -0.550 OA
ATOM      9  O   UNL     1     -10.742  -4.297 -10.538  1.00  0.00    -0.550 OA
ENDBRANCH   6   7
ENDBRANCH   5   6
ENDBRANCH   4   5
ENDBRANCH   3   4
ENDBRANCH   2   3
ENDBRANCH   1   2
BRANCH   1  10
ATOM     10  C   UNL     1      -9.450  -7.287  -5.647  1.00  0.00     0.000 C 
BRANCH  10  11
ATOM     11  C   UNL     1      -8.812  -8.383  -4.783  1.00  0.00    -0.000 C 
BRANCH  11  12
ATOM     12  C   UNL     1      -9.368  -9.767  -5.145  1.00  0.00    -0.000 C 
BRANCH  12  13
ATOM     13  C   UNL     1      -8.268 -10.835  -5.288  1.00  0.00    -0.000 C 
BRANCH  13  14
ATOM     14  C   UNL     1      -6.826 -10.312  -5.152  1.00  0.00    -0.000 C 
BRANCH  14  15
ATOM     15  C   UNL     1      -6.055 -10.318  -6.479  1.00  0.00    -0.003 C 
ATOM     16  C   UNL     1      -6.410 -11.544  -7.314  1.00  0.00     0.004 C 
ENDBRANCH  14  15
ENDBRANCH  13  14
ENDBRANCH  12  13
ENDBRANCH  11  12
ENDBRANCH  10  11
ENDBRANCH   1  10
TORSDOF 12
ENDMDL
MODEL 4
REMARK VINA RESULT:    -4.630      0.849      1.473
REMARK INTER + INTRA:          -8.958
REMARK INTER:                  -7.806
REMARK INTRA:                  -1.152
REMARK UNBOUND:                -1.080
REMARK SMILES CCCCCCCCCCCCCC(=O)[O-]
REMARK SMILES IDX 8 1 9 2 10 3 11 4 12 5 13 6 14 7 15 8 16 9 7 10 6 11 5 12
REMARK SMILES IDX 4 13 3 14 2 15 1 16
REMARK H PARENT
REMARK Flexibility Score: inf
ROOT
ATOM      1  C   UNL     1      -9.678  -7.118  -5.469  1.00  0.00     0.000 C 
ENDROOT
BRANCH   1   2
ATOM      2  C   UNL     1      -8.734  -8.235  -4.977  1.00  0.00     0.000 C 
BRANCH   2   3
ATOM      3  C   UNL     1      -9.395  -9.624  -5.046  1.00  0.00     0.000 C 
BRANCH   3   4
ATOM      4  C   UNL     1      -8.393 -10.733  -5.402  1.00  0.00     0.000 C 
BRANCH   4   5
ATOM      5  C   UNL     1      -6.940 -10.232  -5.384  1.00  0.00     0.006 C 
BRANCH   5   6
ATOM      6  C   UNL     1      -6.286 -10.404  -6.758  1.00  0.00     0.053 C 
BRANCH   6   7
ATOM      7  C   UNL     1      -5.022 -11.194  -6.644  1.00  0.00     0.041 C 
ATOM      8  O   UNL     1      -4.816 -12.176  -7.406  1.00  0.00    -0.550 OA
ATOM      9  O   UNL     1      -4.048 -10.819  -5.725  1.00  0.00    -0.550 OA
ENDBRANCH   6   7
ENDBRANCH   5   6
ENDBRANCH   4   5
ENDBRANCH   3   4
ENDBRANCH   2   3
ENDBRANCH   1   2
BRANCH   1  10
ATOM     10  C   UNL     1     -11.081  -7.627  -5.843  1.00  0.00     0.000 C 
BRANCH  10  11
ATOM     11  C   UNL     1     -12.197  -6.661  -5.424  1.00  0.00    -0.000 C 
BRANCH  11  12
ATOM     12  C   UNL     1     -11.631  -5.275  -5.085  1.00  0.00    -0.000 C 
BRANCH  12  13
ATOM     13  C   UNL     1     -12.119  -4.176  -6.047  1.00  0.00    -0.000 C 
BRANCH  13  14
ATOM     14  C   UNL     1     -11.108  -3.763  -7.134  1.00  0.00    -0.000 C 
BRANCH  14  15
ATOM     15  C   UNL     1     -11.390  -4.411  -8.497  1.00  0.00    -0.003 C 
ATOM     16  C   UNL     1     -10.387  -5.522  -8.793  1.00  0.00     0.004 C 
ENDBRANCH  14  15
ENDBRANCH  13  14
ENDBRANCH  12  13
ENDBRANCH  11  12
ENDBRANCH  10  11
ENDBRANCH   1  10
TORSDOF 12
ENDMDL
MODEL 5
REMARK VINA RESULT:    -4.459      3.566      7.948
REMARK INTER + INTRA:          -8.667
REMARK INTER:                  -8.170
REMARK INTRA:                  -0.497
REMARK UNBOUND:                -1.080
REMARK SMILES CCCCCCCCCCCCCC(=O)[O-]
REMARK SMILES IDX 8 1 9 2 10 3 11 4 12 5 13 6 14 7 15 8 16 9 7 10 6 11 5 12
REMARK SMILES IDX 4 13 3 14 2 15 1 16
REMARK H PARENT
REMARK Flexibility Score: inf
ROOT
ATOM      1  C   UNL     1      -9.209 -10.025  -5.211  1.00  0.00     0.000 C 
ENDROOT
BRANCH   1   2
ATOM      2  C   UNL     1      -8.797  -8.551  -5.013  1.00  0.00     0.000 C 
BRANCH   2   3
ATOM      3  C   UNL     1      -9.908  -7.576  -5.449  1.00  0.00     0.000 C 
BRANCH   3   4
ATOM      4  C   UNL     1      -9.350  -6.326  -6.143  1.00  0.00     0.000 C 
BRANCH   4   5
ATOM      5  C   UNL     1     -10.433  -5.554  -6.914  1.00  0.00     0.006 C 
BRANCH   5   6
ATOM      6  C   UNL     1     -10.378  -5.883  -8.409  1.00  0.00     0.053 C 
BRANCH   6   7
ATOM      7  C   UNL     1     -10.866  -4.726  -9.220  1.00  0.00     0.041 C 
ATOM      8  O   UNL     1     -10.828  -3.559  -8.748  1.00  0.00    -0.550 OA
ATOM      9  O   UNL     1     -11.324  -4.930 -10.517  1.00  0.00    -0.550 OA
ENDBRANCH   6   7
ENDBRANCH   5   6
ENDBRANCH   4   5
ENDBRANCH   3   4
ENDBRANCH   2   3
ENDBRANCH   1   2
BRANCH   1  10
ATOM     10  C   UNL     1      -8.009 -10.984  -5.309  1.00  0.00     0.000 C 
BRANCH  10  11
ATOM     11  C   UNL     1      -6.659 -10.262  -5.205  1.00  0.00    -0.000 C 
BRANCH  11  12
ATOM     12  C   UNL     1      -5.920 -10.272  -6.550  1.00  0.00    -0.000 C 
BRANCH  12  13
ATOM     13  C   UNL     1      -4.792 -11.319  -6.607  1.00  0.00    -0.000 C 
BRANCH  13  14
ATOM     14  C   UNL     1      -3.561 -11.000  -5.739  1.00  0.00    -0.000 C 
BRANCH  14  15
ATOM     15  C   UNL     1      -2.736 -12.244  -5.381  1.00  0.00    -0.003 C 
ATOM     16  C   UNL     1      -2.221 -12.167  -3.947  1.00  0.00     0.004 C 
ENDBRANCH  14  15
ENDBRANCH  13  14
ENDBRANCH  12  13
ENDBRANCH  11  12
ENDBRANCH  10  11
ENDBRANCH   1  10
TORSDOF 12
ENDMDL
MODEL 6
REMARK VINA RESULT:    -4.415      3.921      8.889
REMARK INTER + INTRA:          -8.592
REMARK INTER:                  -8.102
REMARK INTRA:                  -0.490
REMARK UNBOUND:                -1.080
REMARK SMILES CCCCCCCCCCCCCC(=O)[O-]
REMARK SMILES IDX 8 1 9 2 10 3 11 4 12 5 13 6 14 7 15 8 16 9 7 10 6 11 5 12
REMARK SMILES IDX 4 13 3 14 2 15 1 16
REMARK H PARENT
REMARK Flexibility Score: inf
ROOT
ATOM      1  C   UNL     1      -6.118 -10.090  -6.058  1.00  0.00     0.000 C 
ENDROOT
BRANCH   1   2
ATOM      2  C   UNL     1      -7.200 -10.143  -4.960  1.00  0.00     0.000 C 
BRANCH   2   3
ATOM      3  C   UNL     1      -8.523  -9.499  -5.418  1.00  0.00     0.000 C 
BRANCH   3   4
ATOM      4  C   UNL     1      -8.751  -8.117  -4.788  1.00  0.00     0.000 C 
BRANCH   4   5
ATOM      5  C   UNL     1      -9.838  -7.315  -5.520  1.00  0.00     0.006 C 
BRANCH   5   6
ATOM      6  C   UNL     1      -9.221  -6.400  -6.582  1.00  0.00     0.053 C 
BRANCH   6   7
ATOM      7  C   UNL     1     -10.288  -5.670  -7.332  1.00  0.00     0.041 C 
ATOM      8  O   UNL     1     -10.915  -4.724  -6.783  1.00  0.00    -0.550 OA
ATOM      9  O   UNL     1     -10.562  -6.004  -8.653  1.00  0.00    -0.550 OA
ENDBRANCH   6   7
ENDBRANCH   5   6
ENDBRANCH   4   5
ENDBRANCH   3   4
ENDBRANCH   2   3
ENDBRANCH   1   2
BRANCH   1  10
ATOM     10  C   UNL     1      -5.940 -11.425  -6.802  1.00  0.00     0.000 C 
BRANCH  10  11
ATOM     11  C   UNL     1      -4.470 -11.852  -6.915  1.00  0.00    -0.000 C 
BRANCH  11  12
ATOM     12  C   UNL     1      -3.613 -11.180  -5.834  1.00  0.00    -0.000 C 
BRANCH  12  13
ATOM     13  C   UNL     1      -2.559 -12.125  -5.230  1.00  0.00    -0.000 C 
BRANCH  13  14
ATOM     14  C   UNL     1      -2.516 -12.157  -3.690  1.00  0.00    -0.000 C 
BRANCH  14  15
ATOM     15  C   UNL     1      -2.375 -13.575  -3.120  1.00  0.00    -0.003 C 
ATOM     16  C   UNL     1      -1.097 -13.712  -2.299  1.00  0.00     0.004 C 
ENDBRANCH  14  15
ENDBRANCH  13  14
ENDBRANCH  12  13
ENDBRANCH  11  12
ENDBRANCH  10  11
ENDBRANCH   1  10
TORSDOF 12
ENDMDL
MODEL 7
REMARK VINA RESULT:    -4.392      1.629      2.309
REMARK INTER + INTRA:          -8.553
REMARK INTER:                  -7.415
REMARK INTRA:                  -1.138
REMARK UNBOUND:                -1.080
REMARK SMILES CCCCCCCCCCCCCC(=O)[O-]
REMARK SMILES IDX 8 1 9 2 10 3 11 4 12 5 13 6 14 7 15 8 16 9 7 10 6 11 5 12
REMARK SMILES IDX 4 13 3 14 2 15 1 16
REMARK H PARENT
REMARK Flexibility Score: inf
ROOT
ATOM      1  C   UNL     1      -9.567  -6.941  -5.955  1.00  0.00     0.000 C 
ENDROOT
BRANCH   1   2
ATOM      2  C   UNL     1      -8.886  -7.619  -4.747  1.00  0.00     0.000 C 
BRANCH   2   3
ATOM      3  C   UNL     1      -8.869  -9.154  -4.878  1.00  0.00     0.000 C 
BRANCH   3   4
ATOM      4  C   UNL     1      -7.506  -9.687  -5.345  1.00  0.00     0.000 C 
BRANCH   4   5
ATOM      5  C   UNL     1      -7.586 -11.141  -5.834  1.00  0.00     0.006 C 
BRANCH   5   6
ATOM      6  C   UNL     1      -8.950 -11.755  -5.504  1.00  0.00     0.053 C 
BRANCH   6   7
ATOM      7  C   UNL     1      -9.545 -12.398  -6.716  1.00  0.00     0.041 C 
ATOM      8  O   UNL     1     -10.696 -12.069  -7.107  1.00  0.00    -0.550 OA
ATOM      9  O   UNL     1      -8.811 -13.330  -7.440  1.00  0.00    -0.550 OA
ENDBRANCH   6   7
ENDBRANCH   5   6
ENDBRANCH   4   5
ENDBRANCH   3   4
ENDBRANCH   2   3
ENDBRANCH   1   2
BRANCH   1  10
ATOM     10  C   UNL     1     -11.048  -7.329  -6.115  1.00  0.00     0.000 C 
BRANCH  10  11
ATOM     11  C   UNL     1     -12.004  -6.281  -5.529  1.00  0.00    -0.000 C 
BRANCH  11  12
ATOM     12  C   UNL     1     -11.259  -4.986  -5.179  1.00  0.00    -0.000 C 
BRANCH  12  13
ATOM     13  C   UNL     1     -11.761  -3.770  -5.981  1.00  0.00    -0.000 C 
BRANCH  13  14
ATOM     14  C   UNL     1     -12.026  -4.037  -7.474  1.00  0.00    -0.000 C 
BRANCH  14  15
ATOM     15  C   UNL     1     -10.747  -4.034  -8.324  1.00  0.00    -0.003 C 
ATOM     16  C   UNL     1     -10.740  -5.199  -9.308  1.00  0.00     0.004 C 
ENDBRANCH  14  15
ENDBRANCH  13  14
ENDBRANCH  12  13
ENDBRANCH  11  12
ENDBRANCH  10  11
ENDBRANCH   1  10
TORSDOF 12
ENDMDL
MODEL 8
REMARK VINA RESULT:    -4.387      3.342      6.843
REMARK INTER + INTRA:          -8.545
REMARK INTER:                  -7.477
REMARK INTRA:                  -1.067
REMARK UNBOUND:                -1.080
REMARK SMILES CCCCCCCCCCCCCC(=O)[O-]
REMARK SMILES IDX 8 1 9 2 10 3 11 4 12 5 13 6 14 7 15 8 16 9 7 10 6 11 5 12
REMARK SMILES IDX 4 13 3 14 2 15 1 16
REMARK H PARENT
REMARK Flexibility Score: inf
ROOT
ATOM      1  C   UNL     1      -9.718  -7.385  -5.654  1.00  0.00     0.000 C 
ENDROOT
BRANCH   1   2
ATOM      2  C   UNL     1      -9.283  -6.315  -6.677  1.00  0.00     0.000 C 
BRANCH   2   3
ATOM      3  C   UNL     1     -10.277  -6.195  -7.848  1.00  0.00     0.000 C 
BRANCH   3   4
ATOM      4  C   UNL     1     -10.352  -4.766  -8.408  1.00  0.00     0.000 C 
BRANCH   4   5
ATOM      5  C   UNL     1     -11.637  -4.039  -7.981  1.00  0.00     0.006 C 
BRANCH   5   6
ATOM      6  C   UNL     1     -11.510  -3.497  -6.554  1.00  0.00     0.053 C 
BRANCH   6   7
ATOM      7  C   UNL     1     -12.132  -4.440  -5.575  1.00  0.00     0.041 C 
ATOM      8  O   UNL     1     -13.192  -5.054  -5.872  1.00  0.00    -0.550 OA
ATOM      9  O   UNL     1     -11.519  -4.676  -4.351  1.00  0.00    -0.550 OA
ENDBRANCH   6   7
ENDBRANCH   5   6
ENDBRANCH   4   5
ENDBRANCH   3   4
ENDBRANCH   2   3
ENDBRANCH   1   2
BRANCH   1  10
ATOM     10  C   UNL     1     -11.123  -7.953  -5.927  1.00  0.00     0.000 C 
BRANCH  10  11
ATOM     11  C   UNL     1     -11.157  -9.487  -5.912  1.00  0.00    -0.000 C 
BRANCH  11  12
ATOM     12  C   UNL     1     -10.004 -10.059  -5.077  1.00  0.00    -0.000 C 
BRANCH  12  13
ATOM     13  C   UNL     1      -9.553 -11.453  -5.552  1.00  0.00    -0.000 C 
BRANCH  13  14
ATOM     14  C   UNL     1      -8.080 -11.550  -5.988  1.00  0.00    -0.000 C 
BRANCH  14  15
ATOM     15  C   UNL     1      -7.203 -10.432  -5.405  1.00  0.00    -0.003 C 
ATOM     16  C   UNL     1      -5.828 -10.413  -6.064  1.00  0.00     0.004 C 
ENDBRANCH  14  15
ENDBRANCH  13  14
ENDBRANCH  12  13
ENDBRANCH  11  12
ENDBRANCH  10  11
ENDBRANCH   1  10
TORSDOF 12
ENDMDL
MODEL 9
REMARK VINA RESULT:    -4.333      3.004      4.751
REMARK INTER + INTRA:          -8.453
REMARK INTER:                  -8.105
REMARK INTRA:                  -0.348
REMARK UNBOUND:                -1.080
REMARK SMILES CCCCCCCCCCCCCC(=O)[O-]
REMARK SMILES IDX 8 1 9 2 10 3 11 4 12 5 13 6 14 7 15 8 16 9 7 10 6 11 5 12
REMARK SMILES IDX 4 13 3 14 2 15 1 16
REMARK H PARENT
REMARK Flexibility Score: inf
ROOT
ATOM      1  C   UNL     1      -6.904 -10.092  -5.116  1.00  0.00     0.000 C 
ENDROOT
BRANCH   1   2
ATOM      2  C   UNL     1      -6.252 -10.150  -6.514  1.00  0.00     0.000 C 
BRANCH   2   3
ATOM      3  C   UNL     1      -5.195 -11.267  -6.614  1.00  0.00     0.000 C 
BRANCH   3   4
ATOM      4  C   UNL     1      -3.850 -10.857  -5.998  1.00  0.00     0.000 C 
BRANCH   4   5
ATOM      5  C   UNL     1      -3.027 -12.069  -5.534  1.00  0.00     0.006 C 
BRANCH   5   6
ATOM      6  C   UNL     1      -1.722 -11.622  -4.868  1.00  0.00     0.053 C 
BRANCH   6   7
ATOM      7  C   UNL     1      -0.793 -12.781  -4.700  1.00  0.00     0.041 C 
ATOM      8  O   UNL     1      -1.024 -13.658  -3.826  1.00  0.00    -0.550 OA
ATOM      9  O   UNL     1       0.307 -12.918  -5.539  1.00  0.00    -0.550 OA
ENDBRANCH   6   7
ENDBRANCH   5   6
ENDBRANCH   4   5
ENDBRANCH   3   4
ENDBRANCH   2   3
ENDBRANCH   1   2
BRANCH   1  10
ATOM     10  C   UNL     1      -8.406  -9.757  -5.158  1.00  0.00     0.000 C 
BRANCH  10  11
ATOM     11  C   UNL     1      -8.701  -8.298  -4.788  1.00  0.00    -0.000 C 
BRANCH  11  12
ATOM     12  C   UNL     1      -9.929  -7.772  -5.542  1.00  0.00    -0.000 C 
BRANCH  12  13
ATOM     13  C   UNL     1      -9.877  -6.253  -5.788  1.00  0.00    -0.000 C 
BRANCH  13  14
ATOM     14  C   UNL     1      -9.610  -5.836  -7.246  1.00  0.00    -0.000 C 
BRANCH  14  15
ATOM     15  C   UNL     1     -10.891  -5.479  -8.015  1.00  0.00    -0.003 C 
ATOM     16  C   UNL     1     -10.831  -4.049  -8.544  1.00  0.00     0.004 C 
ENDBRANCH  14  15
ENDBRANCH  13  14
ENDBRANCH  12  13
ENDBRANCH  11  12
ENDBRANCH  10  11
ENDBRANCH   1  10
TORSDOF 12
ENDMDL
