MODEL 1
REMARK VINA RESULT:    -6.183      0.000      0.000
REMARK INTER + INTRA:          -7.927
REMARK INTER:                  -7.448
REMARK INTRA:                  -0.479
REMARK UNBOUND:                -0.479
REMARK SMILES O=c1c(O)c(-c2ccc(O)cc2O)oc2cc(O)cc(O)c12
REMARK SMILES IDX 5 1 3 2 2 3 1 4 22 5 20 6 19 7 17 8 16 9 15 10 14 11 6 12
REMARK SMILES IDX 8 13 7 14 9 15 11 16 12 17 10 18 13 20 4 22 21 24 18 26
REMARK H PARENT 10 19 13 21 4 23 21 25 18 27
REMARK Flexibility Score: inf
ROOT
ATOM      1  C   UNL     1      -3.024  52.243  10.267  1.00  0.00     0.184 A 
ATOM      2  C   UNL     1      -2.335  53.442  10.512  1.00  0.00     0.208 A 
ATOM      3  C   UNL     1      -2.158  53.866  11.839  1.00  0.00     0.238 A 
ATOM      4  O   UNL     1      -1.490  54.912  12.055  1.00  0.00    -0.285 OA
ATOM      5  C   UNL     1      -2.689  53.097  12.902  1.00  0.00     0.111 A 
ATOM      6  C   UNL     1      -2.605  53.452  14.282  1.00  0.00     0.134 A 
ATOM      7  C   UNL     1      -3.055  52.552  15.256  1.00  0.00     0.093 A 
ATOM      8  C   UNL     1      -3.645  51.339  14.896  1.00  0.00     0.123 A 
ATOM      9  C   UNL     1      -3.787  51.010  13.551  1.00  0.00     0.094 A 
ATOM     10  C   UNL     1      -3.315  51.870  12.557  1.00  0.00     0.146 A 
ATOM     11  O   UNL     1      -3.459  51.512  11.287  1.00  0.00    -0.451 OA
ENDROOT
BRANCH   1  12
ATOM     12  C   UNL     1      -3.268  51.750   8.891  1.00  0.00     0.063 A 
ATOM     13  C   UNL     1      -4.571  51.790   6.836  1.00  0.00     0.047 A 
ATOM     14  C   UNL     1      -4.323  52.273   8.124  1.00  0.00     0.020 A 
ATOM     15  C   UNL     1      -3.776  50.769   6.303  1.00  0.00     0.119 A 
ATOM     16  C   UNL     1      -2.733  50.232   7.064  1.00  0.00     0.093 A 
ATOM     17  C   UNL     1      -2.476  50.714   8.356  1.00  0.00     0.130 A 
BRANCH  15  18
ATOM     18  O   UNL     1      -4.015  50.278   5.021  1.00  0.00    -0.508 OA
ATOM     19  H   UNL     1      -4.228  49.301   4.859  1.00  0.00     0.293 HD
ENDBRANCH  15  18
BRANCH  17  20
ATOM     20  O   UNL     1      -1.428  50.173   9.102  1.00  0.00    -0.507 OA
ATOM     21  H   UNL     1      -0.472  50.489   8.983  1.00  0.00     0.293 HD
ENDBRANCH  17  20
ENDBRANCH   1  12
BRANCH   2  22
ATOM     22  O   UNL     1      -1.807  54.178   9.449  1.00  0.00    -0.502 OA
ATOM     23  H   UNL     1      -1.263  53.751   8.708  1.00  0.00     0.293 HD
ENDBRANCH   2  22
BRANCH   6  24
ATOM     24  O   UNL     1      -2.115  54.678  14.744  1.00  0.00    -0.507 OA
ATOM     25  H   UNL     1      -1.241  55.092  14.459  1.00  0.00     0.293 HD
ENDBRANCH   6  24
BRANCH   8  26
ATOM     26  O   UNL     1      -4.105  50.455  15.871  1.00  0.00    -0.508 OA
ATOM     27  H   UNL     1      -3.938  49.458  15.804  1.00  0.00     0.293 HD
ENDBRANCH   8  26
TORSDOF 6
ENDMDL
MODEL 2
REMARK VINA RESULT:    -6.054      2.478      6.553
REMARK INTER + INTRA:          -7.772
REMARK INTER:                  -7.466
REMARK INTRA:                  -0.306
REMARK UNBOUND:                -0.479
REMARK SMILES O=c1c(O)c(-c2ccc(O)cc2O)oc2cc(O)cc(O)c12
REMARK SMILES IDX 5 1 3 2 2 3 1 4 22 5 20 6 19 7 17 8 16 9 15 10 14 11 6 12
REMARK SMILES IDX 8 13 7 14 9 15 11 16 12 17 10 18 13 20 4 22 21 24 18 26
REMARK H PARENT 10 19 13 21 4 23 21 25 18 27
REMARK Flexibility Score: inf
ROOT
ATOM      1  C   UNL     1      -1.801  51.986  10.539  1.00  0.00     0.184 A 
ATOM      2  C   UNL     1      -1.663  51.036   9.515  1.00  0.00     0.208 A 
ATOM      3  C   UNL     1      -2.434  51.175   8.350  1.00  0.00     0.238 A 
ATOM      4  O   UNL     1      -2.265  50.352   7.411  1.00  0.00    -0.285 OA
ATOM      5  C   UNL     1      -3.347  52.250   8.232  1.00  0.00     0.111 A 
ATOM      6  C   UNL     1      -4.207  52.466   7.114  1.00  0.00     0.134 A 
ATOM      7  C   UNL     1      -4.977  53.635   7.050  1.00  0.00     0.093 A 
ATOM      8  C   UNL     1      -4.965  54.562   8.093  1.00  0.00     0.123 A 
ATOM      9  C   UNL     1      -4.174  54.331   9.215  1.00  0.00     0.094 A 
ATOM     10  C   UNL     1      -3.369  53.194   9.293  1.00  0.00     0.146 A 
ATOM     11  O   UNL     1      -2.620  53.018  10.376  1.00  0.00    -0.451 OA
ENDROOT
BRANCH   1  12
ATOM     12  C   UNL     1      -1.037  51.887  11.805  1.00  0.00     0.063 A 
ATOM     13  C   UNL     1      -0.983  51.558  14.216  1.00  0.00     0.047 A 
ATOM     14  C   UNL     1      -1.699  51.625  13.018  1.00  0.00     0.020 A 
ATOM     15  C   UNL     1       0.401  51.762  14.221  1.00  0.00     0.119 A 
ATOM     16  C   UNL     1       1.067  52.037  13.023  1.00  0.00     0.093 A 
ATOM     17  C   UNL     1       0.356  52.104  11.815  1.00  0.00     0.130 A 
BRANCH  15  18
ATOM     18  O   UNL     1       1.125  51.699  15.410  1.00  0.00    -0.508 OA
ATOM     19  H   UNL     1       0.760  52.085  16.273  1.00  0.00     0.293 HD
ENDBRANCH  15  18
BRANCH  17  20
ATOM     20  O   UNL     1       1.034  52.372  10.625  1.00  0.00    -0.507 OA
ATOM     21  H   UNL     1       1.392  51.627  10.037  1.00  0.00     0.293 HD
ENDBRANCH  17  20
ENDBRANCH   1  12
BRANCH   2  22
ATOM     22  O   UNL     1      -0.747  49.990   9.647  1.00  0.00    -0.502 OA
ATOM     23  H   UNL     1       0.241  50.103   9.453  1.00  0.00     0.293 HD
ENDBRANCH   2  22
BRANCH   6  24
ATOM     24  O   UNL     1      -4.362  51.559   6.061  1.00  0.00    -0.507 OA
ATOM     25  H   UNL     1      -3.785  50.744   5.914  1.00  0.00     0.293 HD
ENDBRANCH   6  24
BRANCH   8  26
ATOM     26  O   UNL     1      -5.746  55.715   8.028  1.00  0.00    -0.508 OA
ATOM     27  H   UNL     1      -5.505  56.484   7.414  1.00  0.00     0.293 HD
ENDBRANCH   8  26
TORSDOF 6
ENDMDL
MODEL 3
REMARK VINA RESULT:    -5.947      1.691      6.390
REMARK INTER + INTRA:          -7.643
REMARK INTER:                  -7.216
REMARK INTRA:                  -0.428
REMARK UNBOUND:                -0.479
REMARK SMILES O=c1c(O)c(-c2ccc(O)cc2O)oc2cc(O)cc(O)c12
REMARK SMILES IDX 5 1 3 2 2 3 1 4 22 5 20 6 19 7 17 8 16 9 15 10 14 11 6 12
REMARK SMILES IDX 8 13 7 14 9 15 11 16 12 17 10 18 13 20 4 22 21 24 18 26
REMARK H PARENT 10 19 13 21 4 23 21 25 18 27
REMARK Flexibility Score: inf
ROOT
ATOM      1  C   UNL     1      -2.988  52.091  11.882  1.00  0.00     0.184 A 
ATOM      2  C   UNL     1      -3.302  53.420  11.552  1.00  0.00     0.208 A 
ATOM      3  C   UNL     1      -3.333  53.797  10.200  1.00  0.00     0.238 A 
ATOM      4  O   UNL     1      -3.671  54.974   9.909  1.00  0.00    -0.285 OA
ATOM      5  C   UNL     1      -3.031  52.846   9.197  1.00  0.00     0.111 A 
ATOM      6  C   UNL     1      -2.994  53.127   7.797  1.00  0.00     0.134 A 
ATOM      7  C   UNL     1      -2.808  52.079   6.887  1.00  0.00     0.093 A 
ATOM      8  C   UNL     1      -2.595  50.772   7.328  1.00  0.00     0.123 A 
ATOM      9  C   UNL     1      -2.570  50.497   8.693  1.00  0.00     0.094 A 
ATOM     10  C   UNL     1      -2.787  51.514   9.624  1.00  0.00     0.146 A 
ATOM     11  O   UNL     1      -2.768  51.207  10.916  1.00  0.00    -0.451 OA
ENDROOT
BRANCH   1  12
ATOM     12  C   UNL     1      -2.913  51.632  13.288  1.00  0.00     0.063 A 
ATOM     13  C   UNL     1      -4.016  51.038  15.376  1.00  0.00     0.047 A 
ATOM     14  C   UNL     1      -4.086  51.446  14.041  1.00  0.00     0.020 A 
ATOM     15  C   UNL     1      -2.772  50.822  15.980  1.00  0.00     0.119 A 
ATOM     16  C   UNL     1      -1.599  51.018  15.245  1.00  0.00     0.093 A 
ATOM     17  C   UNL     1      -1.662  51.424  13.903  1.00  0.00     0.130 A 
BRANCH  15  18
ATOM     18  O   UNL     1      -2.690  50.417  17.311  1.00  0.00    -0.508 OA
ATOM     19  H   UNL     1      -3.198  49.609  17.651  1.00  0.00     0.293 HD
ENDBRANCH  15  18
BRANCH  17  20
ATOM     20  O   UNL     1      -0.483  51.609  13.180  1.00  0.00    -0.507 OA
ATOM     21  H   UNL     1       0.401  51.226  13.496  1.00  0.00     0.293 HD
ENDBRANCH  17  20
ENDBRANCH   1  12
BRANCH   2  22
ATOM     22  O   UNL     1      -3.610  54.338  12.559  1.00  0.00    -0.502 OA
ATOM     23  H   UNL     1      -3.549  54.108  13.544  1.00  0.00     0.293 HD
ENDBRANCH   2  22
BRANCH   6  24
ATOM     24  O   UNL     1      -3.105  54.412   7.256  1.00  0.00    -0.507 OA
ATOM     25  H   UNL     1      -2.599  54.741   6.447  1.00  0.00     0.293 HD
ENDBRANCH   6  24
BRANCH   8  26
ATOM     26  O   UNL     1      -2.395  49.737   6.415  1.00  0.00    -0.508 OA
ATOM     27  H   UNL     1      -2.916  48.870   6.476  1.00  0.00     0.293 HD
ENDBRANCH   8  26
TORSDOF 6
ENDMDL
MODEL 4
REMARK VINA RESULT:    -5.930      2.174      2.499
REMARK INTER + INTRA:          -7.622
REMARK INTER:                  -7.204
REMARK INTRA:                  -0.418
REMARK UNBOUND:                -0.479
REMARK SMILES O=c1c(O)c(-c2ccc(O)cc2O)oc2cc(O)cc(O)c12
REMARK SMILES IDX 5 1 3 2 2 3 1 4 22 5 20 6 19 7 17 8 16 9 15 10 14 11 6 12
REMARK SMILES IDX 8 13 7 14 9 15 11 16 12 17 10 18 13 20 4 22 21 24 18 26
REMARK H PARENT 10 19 13 21 4 23 21 25 18 27
REMARK Flexibility Score: inf
ROOT
ATOM      1  C   UNL     1      -2.697  52.276  11.047  1.00  0.00     0.184 A 
ATOM      2  C   UNL     1      -1.312  52.049  11.098  1.00  0.00     0.208 A 
ATOM      3  C   UNL     1      -0.735  51.630  12.307  1.00  0.00     0.238 A 
ATOM      4  O   UNL     1       0.498  51.374  12.332  1.00  0.00    -0.285 OA
ATOM      5  C   UNL     1      -1.547  51.462  13.454  1.00  0.00     0.111 A 
ATOM      6  C   UNL     1      -1.063  51.080  14.742  1.00  0.00     0.134 A 
ATOM      7  C   UNL     1      -1.974  50.820  15.773  1.00  0.00     0.093 A 
ATOM      8  C   UNL     1      -3.346  50.992  15.581  1.00  0.00     0.123 A 
ATOM      9  C   UNL     1      -3.824  51.422  14.347  1.00  0.00     0.094 A 
ATOM     10  C   UNL     1      -2.943  51.655  13.288  1.00  0.00     0.146 A 
ATOM     11  O   UNL     1      -3.442  52.052  12.123  1.00  0.00    -0.451 OA
ENDROOT
BRANCH   1  12
ATOM     12  C   UNL     1      -3.367  52.743   9.811  1.00  0.00     0.063 A 
ATOM     13  C   UNL     1      -4.194  54.559   8.416  1.00  0.00     0.047 A 
ATOM     14  C   UNL     1      -3.538  54.118   9.569  1.00  0.00     0.020 A 
ATOM     15  C   UNL     1      -4.699  53.634   7.496  1.00  0.00     0.119 A 
ATOM     16  C   UNL     1      -4.546  52.264   7.734  1.00  0.00     0.093 A 
ATOM     17  C   UNL     1      -3.887  51.813   8.888  1.00  0.00     0.130 A 
BRANCH  15  18
ATOM     18  O   UNL     1      -5.355  54.062   6.345  1.00  0.00    -0.508 OA
ATOM     19  H   UNL     1      -4.919  54.706   5.695  1.00  0.00     0.293 HD
ENDBRANCH  15  18
BRANCH  17  20
ATOM     20  O   UNL     1      -3.736  50.444   9.109  1.00  0.00    -0.507 OA
ATOM     21  H   UNL     1      -4.515  49.863   9.398  1.00  0.00     0.293 HD
ENDBRANCH  17  20
ENDBRANCH   1  12
BRANCH   2  22
ATOM     22  O   UNL     1      -0.533  52.208   9.949  1.00  0.00    -0.502 OA
ATOM     23  H   UNL     1      -0.387  51.461   9.282  1.00  0.00     0.293 HD
ENDBRANCH   2  22
BRANCH   6  24
ATOM     24  O   UNL     1       0.293  50.968  15.065  1.00  0.00    -0.507 OA
ATOM     25  H   UNL     1       1.047  51.373  14.530  1.00  0.00     0.293 HD
ENDBRANCH   6  24
BRANCH   8  26
ATOM     26  O   UNL     1      -4.245  50.747  16.618  1.00  0.00    -0.508 OA
ATOM     27  H   UNL     1      -4.680  49.839  16.738  1.00  0.00     0.293 HD
ENDBRANCH   8  26
TORSDOF 6
ENDMDL
MODEL 5
REMARK VINA RESULT:    -5.709      1.480      1.933
REMARK INTER + INTRA:          -7.356
REMARK INTER:                  -6.938
REMARK INTRA:                  -0.418
REMARK UNBOUND:                -0.479
REMARK SMILES O=c1c(O)c(-c2ccc(O)cc2O)oc2cc(O)cc(O)c12
REMARK SMILES IDX 5 1 3 2 2 3 1 4 22 5 20 6 19 7 17 8 16 9 15 10 14 11 6 12
REMARK SMILES IDX 8 13 7 14 9 15 11 16 12 17 10 18 13 20 4 22 21 24 18 26
REMARK H PARENT 10 19 13 21 4 23 21 25 18 27
REMARK Flexibility Score: inf
ROOT
ATOM      1  C   UNL     1      -2.536  51.524  10.790  1.00  0.00     0.184 A 
ATOM      2  C   UNL     1      -1.255  51.995  11.116  1.00  0.00     0.208 A 
ATOM      3  C   UNL     1      -0.929  52.203  12.465  1.00  0.00     0.238 A 
ATOM      4  O   UNL     1       0.240  52.571  12.755  1.00  0.00    -0.285 OA
ATOM      5  C   UNL     1      -1.895  51.955  13.470  1.00  0.00     0.111 A 
ATOM      6  C   UNL     1      -1.687  52.169  14.866  1.00  0.00     0.134 A 
ATOM      7  C   UNL     1      -2.670  51.768  15.780  1.00  0.00     0.093 A 
ATOM      8  C   UNL     1      -3.879  51.222  15.344  1.00  0.00     0.123 A 
ATOM      9  C   UNL     1      -4.115  51.065  13.981  1.00  0.00     0.094 A 
ATOM     10  C   UNL     1      -3.140  51.421  13.047  1.00  0.00     0.146 A 
ATOM     11  O   UNL     1      -3.401  51.243  11.757  1.00  0.00    -0.451 OA
ENDROOT
BRANCH   1  12
ATOM     12  C   UNL     1      -2.955  51.307   9.385  1.00  0.00     0.063 A 
ATOM     13  C   UNL     1      -2.948  49.944   7.368  1.00  0.00     0.047 A 
ATOM     14  C   UNL     1      -2.576  50.138   8.701  1.00  0.00     0.020 A 
ATOM     15  C   UNL     1      -3.693  50.920   6.696  1.00  0.00     0.119 A 
ATOM     16  C   UNL     1      -4.063  52.092   7.363  1.00  0.00     0.093 A 
ATOM     17  C   UNL     1      -3.696  52.293   8.703  1.00  0.00     0.130 A 
BRANCH  15  18
ATOM     18  O   UNL     1      -4.068  50.738   5.367  1.00  0.00    -0.508 OA
ATOM     19  H   UNL     1      -3.668  51.298   4.623  1.00  0.00     0.293 HD
ENDBRANCH  15  18
BRANCH  17  20
ATOM     20  O   UNL     1      -4.078  53.465   9.357  1.00  0.00    -0.507 OA
ATOM     21  H   UNL     1      -3.405  54.044   9.846  1.00  0.00     0.293 HD
ENDBRANCH  17  20
ENDBRANCH   1  12
BRANCH   2  22
ATOM     22  O   UNL     1      -0.313  52.220  10.109  1.00  0.00    -0.502 OA
ATOM     23  H   UNL     1      -0.546  52.172   9.124  1.00  0.00     0.293 HD
ENDBRANCH   2  22
BRANCH   6  24
ATOM     24  O   UNL     1      -0.554  52.790  15.401  1.00  0.00    -0.507 OA
ATOM     25  H   UNL     1      -0.042  53.536  14.954  1.00  0.00     0.293 HD
ENDBRANCH   6  24
BRANCH   8  26
ATOM     26  O   UNL     1      -4.858  50.841  16.259  1.00  0.00    -0.508 OA
ATOM     27  H   UNL     1      -5.842  51.006  16.082  1.00  0.00     0.293 HD
ENDBRANCH   8  26
TORSDOF 6
ENDMDL
MODEL 6
REMARK VINA RESULT:    -5.621      2.377      6.283
REMARK INTER + INTRA:          -7.250
REMARK INTER:                  -6.861
REMARK INTRA:                  -0.389
REMARK UNBOUND:                -0.479
REMARK SMILES O=c1c(O)c(-c2ccc(O)cc2O)oc2cc(O)cc(O)c12
REMARK SMILES IDX 5 1 3 2 2 3 1 4 22 5 20 6 19 7 17 8 16 9 15 10 14 11 6 12
REMARK SMILES IDX 8 13 7 14 9 15 11 16 12 17 10 18 13 20 4 22 21 24 18 26
REMARK H PARENT 10 19 13 21 4 23 21 25 18 27
REMARK Flexibility Score: inf
ROOT
ATOM      1  C   UNL     1      -2.208  52.313  10.895  1.00  0.00     0.184 A 
ATOM      2  C   UNL     1      -2.875  53.548  10.901  1.00  0.00     0.208 A 
ATOM      3  C   UNL     1      -3.659  53.904   9.792  1.00  0.00     0.238 A 
ATOM      4  O   UNL     1      -4.300  54.987   9.827  1.00  0.00    -0.285 OA
ATOM      5  C   UNL     1      -3.750  53.028   8.684  1.00  0.00     0.111 A 
ATOM      6  C   UNL     1      -4.484  53.303   7.490  1.00  0.00     0.134 A 
ATOM      7  C   UNL     1      -4.608  52.309   6.511  1.00  0.00     0.093 A 
ATOM      8  C   UNL     1      -3.972  51.075   6.654  1.00  0.00     0.123 A 
ATOM      9  C   UNL     1      -3.205  50.818   7.787  1.00  0.00     0.094 A 
ATOM     10  C   UNL     1      -3.091  51.776   8.797  1.00  0.00     0.146 A 
ATOM     11  O   UNL     1      -2.361  51.486   9.868  1.00  0.00    -0.451 OA
ENDROOT
BRANCH   1  12
ATOM     12  C   UNL     1      -1.345  51.886  12.021  1.00  0.00     0.063 A 
ATOM     13  C   UNL     1      -1.083  51.255  14.358  1.00  0.00     0.047 A 
ATOM     14  C   UNL     1      -1.900  51.631  13.288  1.00  0.00     0.020 A 
ATOM     15  C   UNL     1       0.301  51.138  14.179  1.00  0.00     0.119 A 
ATOM     16  C   UNL     1       0.864  51.403  12.927  1.00  0.00     0.093 A 
ATOM     17  C   UNL     1       0.050  51.779  11.847  1.00  0.00     0.130 A 
BRANCH  15  18
ATOM     18  O   UNL     1       1.125  50.765  15.238  1.00  0.00    -0.508 OA
ATOM     19  H   UNL     1       0.744  50.379  16.095  1.00  0.00     0.293 HD
ENDBRANCH  15  18
BRANCH  17  20
ATOM     20  O   UNL     1       0.626  52.033  10.602  1.00  0.00    -0.507 OA
ATOM     21  H   UNL     1       0.680  52.972  10.222  1.00  0.00     0.293 HD
ENDBRANCH  17  20
ENDBRANCH   1  12
BRANCH   2  22
ATOM     22  O   UNL     1      -2.782  54.391  12.012  1.00  0.00    -0.502 OA
ATOM     23  H   UNL     1      -3.586  54.862  12.407  1.00  0.00     0.293 HD
ENDBRANCH   2  22
BRANCH   6  24
ATOM     24  O   UNL     1      -5.081  54.536   7.207  1.00  0.00    -0.507 OA
ATOM     25  H   UNL     1      -5.365  55.210   7.902  1.00  0.00     0.293 HD
ENDBRANCH   6  24
BRANCH   8  26
ATOM     26  O   UNL     1      -4.088  50.097   5.668  1.00  0.00    -0.508 OA
ATOM     27  H   UNL     1      -3.290  49.546   5.371  1.00  0.00     0.293 HD
ENDBRANCH   8  26
TORSDOF 6
ENDMDL
MODEL 7
REMARK VINA RESULT:    -5.549      3.217      7.065
REMARK INTER + INTRA:          -7.164
REMARK INTER:                  -6.750
REMARK INTRA:                  -0.414
REMARK UNBOUND:                -0.479
REMARK SMILES O=c1c(O)c(-c2ccc(O)cc2O)oc2cc(O)cc(O)c12
REMARK SMILES IDX 5 1 3 2 2 3 1 4 22 5 20 6 19 7 17 8 16 9 15 10 14 11 6 12
REMARK SMILES IDX 8 13 7 14 9 15 11 16 12 17 10 18 13 20 4 22 21 24 18 26
REMARK H PARENT 10 19 13 21 4 23 21 25 18 27
REMARK Flexibility Score: inf
ROOT
ATOM      1  C   UNL     1      -4.642  51.579  15.086  1.00  0.00     0.184 A 
ATOM      2  C   UNL     1      -3.614  51.375  16.020  1.00  0.00     0.208 A 
ATOM      3  C   UNL     1      -2.285  51.319  15.569  1.00  0.00     0.238 A 
ATOM      4  O   UNL     1      -1.364  51.194  16.418  1.00  0.00    -0.285 OA
ATOM      5  C   UNL     1      -2.004  51.449  14.188  1.00  0.00     0.111 A 
ATOM      6  C   UNL     1      -0.699  51.368  13.615  1.00  0.00     0.134 A 
ATOM      7  C   UNL     1      -0.525  51.638  12.252  1.00  0.00     0.093 A 
ATOM      8  C   UNL     1      -1.617  51.922  11.430  1.00  0.00     0.123 A 
ATOM      9  C   UNL     1      -2.901  51.944  11.968  1.00  0.00     0.094 A 
ATOM     10  C   UNL     1      -3.103  51.714  13.330  1.00  0.00     0.146 A 
ATOM     11  O   UNL     1      -4.342  51.757  13.804  1.00  0.00    -0.451 OA
ENDROOT
BRANCH   1  12
ATOM     12  C   UNL     1      -6.067  51.624  15.489  1.00  0.00     0.063 A 
ATOM     13  C   UNL     1      -8.201  50.501  15.823  1.00  0.00     0.047 A 
ATOM     14  C   UNL     1      -6.849  50.456  15.469  1.00  0.00     0.020 A 
ATOM     15  C   UNL     1      -8.791  51.716  16.190  1.00  0.00     0.119 A 
ATOM     16  C   UNL     1      -8.025  52.885  16.200  1.00  0.00     0.093 A 
ATOM     17  C   UNL     1      -6.667  52.847  15.848  1.00  0.00     0.130 A 
BRANCH  15  18
ATOM     18  O   UNL     1     -10.137  51.773  16.544  1.00  0.00    -0.508 OA
ATOM     19  H   UNL     1     -10.679  52.622  16.430  1.00  0.00     0.293 HD
ENDBRANCH  15  18
BRANCH  17  20
ATOM     20  O   UNL     1      -5.913  54.021  15.869  1.00  0.00    -0.507 OA
ATOM     21  H   UNL     1      -6.059  54.759  15.190  1.00  0.00     0.293 HD
ENDBRANCH  17  20
ENDBRANCH   1  12
BRANCH   2  22
ATOM     22  O   UNL     1      -3.914  51.264  17.380  1.00  0.00    -0.502 OA
ATOM     23  H   UNL     1      -3.271  51.556  18.106  1.00  0.00     0.293 HD
ENDBRANCH   2  22
BRANCH   6  24
ATOM     24  O   UNL     1       0.447  51.004  14.330  1.00  0.00    -0.507 OA
ATOM     25  H   UNL     1       1.042  51.647  14.830  1.00  0.00     0.293 HD
ENDBRANCH   6  24
BRANCH   8  26
ATOM     26  O   UNL     1      -1.437  52.174  10.071  1.00  0.00    -0.508 OA
ATOM     27  H   UNL     1      -1.878  51.599   9.362  1.00  0.00     0.293 HD
ENDBRANCH   8  26
TORSDOF 6
ENDMDL
MODEL 8
REMARK VINA RESULT:    -5.462      2.167      6.758
REMARK INTER + INTRA:          -7.059
REMARK INTER:                  -6.783
REMARK INTRA:                  -0.276
REMARK UNBOUND:                -0.479
REMARK SMILES O=c1c(O)c(-c2ccc(O)cc2O)oc2cc(O)cc(O)c12
REMARK SMILES IDX 5 1 3 2 2 3 1 4 22 5 20 6 19 7 17 8 16 9 15 10 14 11 6 12
REMARK SMILES IDX 8 13 7 14 9 15 11 16 12 17 10 18 13 20 4 22 21 24 18 26
REMARK H PARENT 10 19 13 21 4 23 21 25 18 27
REMARK Flexibility Score: inf
ROOT
ATOM      1  C   UNL     1      -2.909  51.876  13.518  1.00  0.00     0.184 A 
ATOM      2  C   UNL     1      -1.506  51.852  13.591  1.00  0.00     0.208 A 
ATOM      3  C   UNL     1      -0.770  51.534  12.438  1.00  0.00     0.238 A 
ATOM      4  O   UNL     1       0.487  51.569  12.495  1.00  0.00    -0.285 OA
ATOM      5  C   UNL     1      -1.445  51.225  11.233  1.00  0.00     0.111 A 
ATOM      6  C   UNL     1      -0.802  50.851  10.015  1.00  0.00     0.134 A 
ATOM      7  C   UNL     1      -1.565  50.692   8.851  1.00  0.00     0.093 A 
ATOM      8  C   UNL     1      -2.954  50.831   8.877  1.00  0.00     0.123 A 
ATOM      9  C   UNL     1      -3.597  51.138  10.073  1.00  0.00     0.094 A 
ATOM     10  C   UNL     1      -2.861  51.337  11.242  1.00  0.00     0.146 A 
ATOM     11  O   UNL     1      -3.512  51.641  12.359  1.00  0.00    -0.451 OA
ENDROOT
BRANCH   1  12
ATOM     12  C   UNL     1      -3.748  52.179  14.701  1.00  0.00     0.063 A 
ATOM     13  C   UNL     1      -5.232  53.686  15.904  1.00  0.00     0.047 A 
ATOM     14  C   UNL     1      -4.461  53.387  14.777  1.00  0.00     0.020 A 
ATOM     15  C   UNL     1      -5.290  52.787  16.975  1.00  0.00     0.119 A 
ATOM     16  C   UNL     1      -4.573  51.588  16.915  1.00  0.00     0.093 A 
ATOM     17  C   UNL     1      -3.799  51.280  15.786  1.00  0.00     0.130 A 
BRANCH  15  18
ATOM     18  O   UNL     1      -6.054  53.075  18.104  1.00  0.00    -0.508 OA
ATOM     19  H   UNL     1      -6.260  52.366  18.799  1.00  0.00     0.293 HD
ENDBRANCH  15  18
BRANCH  17  20
ATOM     20  O   UNL     1      -3.094  50.077  15.737  1.00  0.00    -0.507 OA
ATOM     21  H   UNL     1      -2.688  49.733  14.874  1.00  0.00     0.293 HD
ENDBRANCH  17  20
ENDBRANCH   1  12
BRANCH   2  22
ATOM     22  O   UNL     1      -0.861  52.173  14.787  1.00  0.00    -0.502 OA
ATOM     23  H   UNL     1      -0.025  52.743  14.819  1.00  0.00     0.293 HD
ENDBRANCH   2  22
BRANCH   6  24
ATOM     24  O   UNL     1       0.569  50.598   9.902  1.00  0.00    -0.507 OA
ATOM     25  H   UNL     1       1.112  50.065  10.565  1.00  0.00     0.293 HD
ENDBRANCH   6  24
BRANCH   8  26
ATOM     26  O   UNL     1      -3.707  50.656   7.717  1.00  0.00    -0.508 OA
ATOM     27  H   UNL     1      -3.266  50.488   6.820  1.00  0.00     0.293 HD
ENDBRANCH   8  26
TORSDOF 6
ENDMDL
MODEL 9
REMARK VINA RESULT:    -5.414      2.556      3.557
REMARK INTER + INTRA:          -7.001
REMARK INTER:                  -6.740
REMARK INTRA:                  -0.261
REMARK UNBOUND:                -0.479
REMARK SMILES O=c1c(O)c(-c2ccc(O)cc2O)oc2cc(O)cc(O)c12
REMARK SMILES IDX 5 1 3 2 2 3 1 4 22 5 20 6 19 7 17 8 16 9 15 10 14 11 6 12
REMARK SMILES IDX 8 13 7 14 9 15 11 16 12 17 10 18 13 20 4 22 21 24 18 26
REMARK H PARENT 10 19 13 21 4 23 21 25 18 27
REMARK Flexibility Score: inf
ROOT
ATOM      1  C   UNL     1      -2.747  52.800   9.732  1.00  0.00     0.184 A 
ATOM      2  C   UNL     1      -1.658  52.057   9.246  1.00  0.00     0.208 A 
ATOM      3  C   UNL     1      -0.768  51.476  10.163  1.00  0.00     0.238 A 
ATOM      4  O   UNL     1       0.174  50.764   9.723  1.00  0.00    -0.285 OA
ATOM      5  C   UNL     1      -0.965  51.662  11.552  1.00  0.00     0.111 A 
ATOM      6  C   UNL     1      -0.103  51.152  12.569  1.00  0.00     0.134 A 
ATOM      7  C   UNL     1      -0.466  51.289  13.915  1.00  0.00     0.093 A 
ATOM      8  C   UNL     1      -1.627  51.973  14.281  1.00  0.00     0.123 A 
ATOM      9  C   UNL     1      -2.444  52.525  13.298  1.00  0.00     0.094 A 
ATOM     10  C   UNL     1      -2.127  52.375  11.947  1.00  0.00     0.146 A 
ATOM     11  O   UNL     1      -2.940  52.906  11.041  1.00  0.00    -0.451 OA
ENDROOT
BRANCH   1  12
ATOM     12  C   UNL     1      -3.711  53.460   8.821  1.00  0.00     0.063 A 
ATOM     13  C   UNL     1      -5.251  53.350   6.939  1.00  0.00     0.047 A 
ATOM     14  C   UNL     1      -4.361  52.723   7.816  1.00  0.00     0.020 A 
ATOM     15  C   UNL     1      -5.493  54.724   7.047  1.00  0.00     0.119 A 
ATOM     16  C   UNL     1      -4.840  55.469   8.034  1.00  0.00     0.093 A 
ATOM     17  C   UNL     1      -3.948  54.846   8.919  1.00  0.00     0.130 A 
BRANCH  15  18
ATOM     18  O   UNL     1      -6.376  55.360   6.177  1.00  0.00    -0.508 OA
ATOM     19  H   UNL     1      -6.137  55.524   5.206  1.00  0.00     0.293 HD
ENDBRANCH  15  18
BRANCH  17  20
ATOM     20  O   UNL     1      -3.309  55.601   9.904  1.00  0.00    -0.507 OA
ATOM     21  H   UNL     1      -3.487  55.450  10.890  1.00  0.00     0.293 HD
ENDBRANCH  17  20
ENDBRANCH   1  12
BRANCH   2  22
ATOM     22  O   UNL     1      -1.491  51.876   7.871  1.00  0.00    -0.502 OA
ATOM     23  H   UNL     1      -1.123  52.601   7.267  1.00  0.00     0.293 HD
ENDBRANCH   2  22
BRANCH   6  24
ATOM     24  O   UNL     1       1.125  50.533  12.314  1.00  0.00    -0.507 OA
ATOM     25  H   UNL     1       1.233  49.595  11.958  1.00  0.00     0.293 HD
ENDBRANCH   6  24
BRANCH   8  26
ATOM     26  O   UNL     1      -1.973  52.118  15.623  1.00  0.00    -0.508 OA
ATOM     27  H   UNL     1      -2.855  51.771  15.984  1.00  0.00     0.293 HD
ENDBRANCH   8  26
TORSDOF 6
ENDMDL
