MODEL 1
REMARK VINA RESULT:    -3.871      0.000      0.000
REMARK INTER + INTRA:         -15.089
REMARK INTER:                  -9.754
REMARK INTRA:                  -5.335
REMARK UNBOUND:                -5.335
REMARK SMILES CCCCCCCCCCCCCCCCCCCCCCCCCCCC(=O)[O-]
REMARK SMILES IDX 15 1 16 2 17 3 18 4 19 5 20 6 21 7 22 8 23 9 24 10 25 11
REMARK SMILES IDX 26 12 27 13 28 14 29 15 30 16 14 17 13 18 12 19 11 20 10 21
REMARK SMILES IDX 9 22 8 23 7 24 6 25 5 26 4 27 3 28 2 29 1 30
REMARK H PARENT
REMARK Flexibility Score: inf
ROOT
ATOM      1  C   UNL     1      -8.751  16.349  -3.232  1.00  0.00     0.000 C 
ENDROOT
BRANCH   1   2
ATOM      2  C   UNL     1      -7.682  15.275  -3.519  1.00  0.00     0.000 C 
BRANCH   2   3
ATOM      3  C   UNL     1      -7.055  14.636  -2.268  1.00  0.00     0.000 C 
BRANCH   3   4
ATOM      4  C   UNL     1      -7.286  13.116  -2.197  1.00  0.00     0.000 C 
BRANCH   4   5
ATOM      5  C   UNL     1      -8.112  12.594  -3.383  1.00  0.00     0.000 C 
BRANCH   5   6
ATOM      6  C   UNL     1      -9.295  11.720  -2.933  1.00  0.00     0.000 C 
BRANCH   6   7
ATOM      7  C   UNL     1     -10.655  12.414  -3.121  1.00  0.00     0.000 C 
BRANCH   7   8
ATOM      8  C   UNL     1     -10.699  13.456  -4.257  1.00  0.00     0.000 C 
BRANCH   8   9
ATOM      9  C   UNL     1     -11.163  12.917  -5.624  1.00  0.00     0.000 C 
BRANCH   9  10
ATOM     10  C   UNL     1     -10.227  13.241  -6.806  1.00  0.00     0.000 C 
BRANCH  10  11
ATOM     11  C   UNL     1      -9.477  14.580  -6.696  1.00  0.00     0.000 C 
BRANCH  11  12
ATOM     12  C   UNL     1      -8.011  14.554  -7.174  1.00  0.00     0.006 C 
BRANCH  12  13
ATOM     13  C   UNL     1      -7.424  13.138  -7.310  1.00  0.00     0.053 C 
BRANCH  13  14
ATOM     14  C   UNL     1      -6.280  12.900  -6.371  1.00  0.00     0.041 C 
ATOM     15  O   UNL     1      -5.659  13.873  -5.868  1.00  0.00    -0.550 OA
ATOM     16  O   UNL     1      -5.872  11.603  -6.082  1.00  0.00    -0.550 OA
ENDBRANCH  13  14
ENDBRANCH  12  13
ENDBRANCH  11  12
ENDBRANCH  10  11
ENDBRANCH   9  10
ENDBRANCH   8   9
ENDBRANCH   7   8
ENDBRANCH   6   7
ENDBRANCH   5   6
ENDBRANCH   4   5
ENDBRANCH   3   4
ENDBRANCH   2   3
ENDBRANCH   1   2
BRANCH   1  17
ATOM     17  C   UNL     1      -8.657  17.018  -1.845  1.00  0.00     0.000 C 
BRANCH  17  18
ATOM     18  C   UNL     1      -9.919  16.888  -0.974  1.00  0.00     0.000 C 
BRANCH  18  19
ATOM     19  C   UNL     1     -10.598  15.517  -1.109  1.00  0.00     0.000 C 
BRANCH  19  20
ATOM     20  C   UNL     1     -10.837  14.890   0.270  1.00  0.00     0.000 C 
BRANCH  20  21
ATOM     21  C   UNL     1     -10.211  13.489   0.356  1.00  0.00     0.000 C 
BRANCH  21  22
ATOM     22  C   UNL     1      -8.758  13.512   0.866  1.00  0.00    -0.000 C 
BRANCH  22  23
ATOM     23  C   UNL     1      -8.430  14.642   1.859  1.00  0.00    -0.000 C 
BRANCH  23  24
ATOM     24  C   UNL     1      -7.170  15.432   1.469  1.00  0.00    -0.000 C 
BRANCH  24  25
ATOM     25  C   UNL     1      -7.344  16.950   1.651  1.00  0.00    -0.000 C 
BRANCH  25  26
ATOM     26  C   UNL     1      -7.517  17.353   3.125  1.00  0.00    -0.000 C 
BRANCH  26  27
ATOM     27  C   UNL     1      -8.784  18.193   3.369  1.00  0.00    -0.000 C 
BRANCH  27  28
ATOM     28  C   UNL     1     -10.030  17.749   2.574  1.00  0.00    -0.000 C 
BRANCH  28  29
ATOM     29  C   UNL     1     -11.353  17.795   3.359  1.00  0.00    -0.003 C 
ATOM     30  C   UNL     1     -11.973  19.192   3.401  1.00  0.00     0.004 C 
ENDBRANCH  28  29
ENDBRANCH  27  28
ENDBRANCH  26  27
ENDBRANCH  25  26
ENDBRANCH  24  25
ENDBRANCH  23  24
ENDBRANCH  22  23
ENDBRANCH  21  22
ENDBRANCH  20  21
ENDBRANCH  19  20
ENDBRANCH  18  19
ENDBRANCH  17  18
ENDBRANCH   1  17
TORSDOF 26
ENDMDL
MODEL 2
REMARK VINA RESULT:    -3.858      3.083      7.957
REMARK INTER + INTRA:         -15.057
REMARK INTER:                 -10.000
REMARK INTRA:                  -5.057
REMARK UNBOUND:                -5.335
REMARK SMILES CCCCCCCCCCCCCCCCCCCCCCCCCCCC(=O)[O-]
REMARK SMILES IDX 15 1 16 2 17 3 18 4 19 5 20 6 21 7 22 8 23 9 24 10 25 11
REMARK SMILES IDX 26 12 27 13 28 14 29 15 30 16 14 17 13 18 12 19 11 20 10 21
REMARK SMILES IDX 9 22 8 23 7 24 6 25 5 26 4 27 3 28 2 29 1 30
REMARK H PARENT
REMARK Flexibility Score: inf
ROOT
ATOM      1  C   UNL     1      -9.991  17.145  -1.245  1.00  0.00     0.000 C 
ENDROOT
BRANCH   1   2
ATOM      2  C   UNL     1     -10.166  16.077  -0.146  1.00  0.00     0.000 C 
BRANCH   2   3
ATOM      3  C   UNL     1     -11.163  14.956  -0.486  1.00  0.00     0.000 C 
BRANCH   3   4
ATOM      4  C   UNL     1     -10.603  13.553  -0.195  1.00  0.00     0.000 C 
BRANCH   4   5
ATOM      5  C   UNL     1      -9.258  13.602   0.546  1.00  0.00     0.000 C 
BRANCH   5   6
ATOM      6  C   UNL     1      -8.239  12.601  -0.025  1.00  0.00     0.000 C 
BRANCH   6   7
ATOM      7  C   UNL     1      -6.783  12.981   0.301  1.00  0.00     0.000 C 
BRANCH   7   8
ATOM      8  C   UNL     1      -6.110  13.911  -0.728  1.00  0.00     0.000 C 
BRANCH   8   9
ATOM      9  C   UNL     1      -6.002  15.388  -0.303  1.00  0.00     0.000 C 
BRANCH   9  10
ATOM     10  C   UNL     1      -6.227  15.654   1.199  1.00  0.00     0.000 C 
BRANCH  10  11
ATOM     11  C   UNL     1      -6.464  17.128   1.573  1.00  0.00     0.000 C 
BRANCH  11  12
ATOM     12  C   UNL     1      -6.585  17.412   3.083  1.00  0.00     0.006 C 
BRANCH  12  13
ATOM     13  C   UNL     1      -7.766  18.327   3.454  1.00  0.00     0.053 C 
BRANCH  13  14
ATOM     14  C   UNL     1      -9.093  17.673   3.215  1.00  0.00     0.041 C 
ATOM     15  O   UNL     1     -10.071  18.353   2.807  1.00  0.00    -0.550 OA
ATOM     16  O   UNL     1      -9.261  16.318   3.479  1.00  0.00    -0.550 OA
ENDBRANCH  13  14
ENDBRANCH  12  13
ENDBRANCH  11  12
ENDBRANCH  10  11
ENDBRANCH   9  10
ENDBRANCH   8   9
ENDBRANCH   7   8
ENDBRANCH   6   7
ENDBRANCH   5   6
ENDBRANCH   4   5
ENDBRANCH   3   4
ENDBRANCH   2   3
ENDBRANCH   1   2
BRANCH   1  17
ATOM     17  C   UNL     1      -8.675  17.057  -2.045  1.00  0.00     0.000 C 
BRANCH  17  18
ATOM     18  C   UNL     1      -8.759  16.235  -3.344  1.00  0.00     0.000 C 
BRANCH  18  19
ATOM     19  C   UNL     1      -8.584  14.727  -3.108  1.00  0.00     0.000 C 
BRANCH  19  20
ATOM     20  C   UNL     1      -9.697  13.934  -3.802  1.00  0.00     0.000 C 
BRANCH  20  21
ATOM     21  C   UNL     1      -9.510  12.423  -3.597  1.00  0.00     0.000 C 
BRANCH  21  22
ATOM     22  C   UNL     1      -8.677  11.764  -4.712  1.00  0.00    -0.000 C 
BRANCH  22  23
ATOM     23  C   UNL     1      -7.153  11.935  -4.577  1.00  0.00    -0.000 C 
BRANCH  23  24
ATOM     24  C   UNL     1      -6.415  11.783  -5.918  1.00  0.00    -0.000 C 
BRANCH  24  25
ATOM     25  C   UNL     1      -5.739  13.088  -6.372  1.00  0.00    -0.000 C 
BRANCH  25  26
ATOM     26  C   UNL     1      -6.326  14.330  -5.680  1.00  0.00    -0.000 C 
BRANCH  26  27
ATOM     27  C   UNL     1      -7.319  15.097  -6.573  1.00  0.00    -0.000 C 
BRANCH  27  28
ATOM     28  C   UNL     1      -7.723  14.376  -7.876  1.00  0.00    -0.000 C 
BRANCH  28  29
ATOM     29  C   UNL     1      -9.113  13.717  -7.852  1.00  0.00    -0.003 C 
ATOM     30  C   UNL     1     -10.219  14.674  -7.409  1.00  0.00     0.004 C 
ENDBRANCH  28  29
ENDBRANCH  27  28
ENDBRANCH  26  27
ENDBRANCH  25  26
ENDBRANCH  24  25
ENDBRANCH  23  24
ENDBRANCH  22  23
ENDBRANCH  21  22
ENDBRANCH  20  21
ENDBRANCH  19  20
ENDBRANCH  18  19
ENDBRANCH  17  18
ENDBRANCH   1  17
TORSDOF 26
ENDMDL
MODEL 3
REMARK VINA RESULT:    -3.823      1.085      2.453
REMARK INTER + INTRA:         -14.969
REMARK INTER:                  -9.936
REMARK INTRA:                  -5.033
REMARK UNBOUND:                -5.335
REMARK SMILES CCCCCCCCCCCCCCCCCCCCCCCCCCCC(=O)[O-]
REMARK SMILES IDX 15 1 16 2 17 3 18 4 19 5 20 6 21 7 22 8 23 9 24 10 25 11
REMARK SMILES IDX 26 12 27 13 28 14 29 15 30 16 14 17 13 18 12 19 11 20 10 21
REMARK SMILES IDX 9 22 8 23 7 24 6 25 5 26 4 27 3 28 2 29 1 30
REMARK H PARENT
REMARK Flexibility Score: inf
ROOT
ATOM      1  C   UNL     1      -8.732  16.083  -3.238  1.00  0.00     0.000 C 
ENDROOT
BRANCH   1   2
ATOM      2  C   UNL     1      -7.477  15.196  -3.366  1.00  0.00     0.000 C 
BRANCH   2   3
ATOM      3  C   UNL     1      -6.693  14.992  -2.058  1.00  0.00     0.000 C 
BRANCH   3   4
ATOM      4  C   UNL     1      -7.016  13.654  -1.372  1.00  0.00     0.000 C 
BRANCH   4   5
ATOM      5  C   UNL     1      -7.612  12.625  -2.347  1.00  0.00     0.000 C 
BRANCH   5   6
ATOM      6  C   UNL     1      -8.923  12.014  -1.823  1.00  0.00     0.000 C 
BRANCH   6   7
ATOM      7  C   UNL     1     -10.047  12.024  -2.873  1.00  0.00     0.000 C 
BRANCH   7   8
ATOM      8  C   UNL     1      -9.623  12.514  -4.272  1.00  0.00     0.000 C 
BRANCH   8   9
ATOM      9  C   UNL     1     -10.655  13.401  -4.996  1.00  0.00     0.000 C 
BRANCH   9  10
ATOM     10  C   UNL     1     -10.920  13.025  -6.468  1.00  0.00     0.000 C 
BRANCH  10  11
ATOM     11  C   UNL     1     -10.987  14.214  -7.444  1.00  0.00     0.000 C 
BRANCH  11  12
ATOM     12  C   UNL     1      -9.624  14.728  -7.947  1.00  0.00     0.006 C 
BRANCH  12  13
ATOM     13  C   UNL     1      -8.496  13.683  -7.875  1.00  0.00     0.053 C 
BRANCH  13  14
ATOM     14  C   UNL     1      -7.330  14.153  -7.061  1.00  0.00     0.041 C 
ATOM     15  O   UNL     1      -6.509  13.324  -6.588  1.00  0.00    -0.550 OA
ATOM     16  O   UNL     1      -7.169  15.508  -6.790  1.00  0.00    -0.550 OA
ENDBRANCH  13  14
ENDBRANCH  12  13
ENDBRANCH  11  12
ENDBRANCH  10  11
ENDBRANCH   9  10
ENDBRANCH   8   9
ENDBRANCH   7   8
ENDBRANCH   6   7
ENDBRANCH   5   6
ENDBRANCH   4   5
ENDBRANCH   3   4
ENDBRANCH   2   3
ENDBRANCH   1   2
BRANCH   1  17
ATOM     17  C   UNL     1      -8.780  16.979  -1.983  1.00  0.00     0.000 C 
BRANCH  17  18
ATOM     18  C   UNL     1      -9.945  16.686  -1.021  1.00  0.00     0.000 C 
BRANCH  18  19
ATOM     19  C   UNL     1     -10.752  15.442  -1.422  1.00  0.00     0.000 C 
BRANCH  19  20
ATOM     20  C   UNL     1     -11.120  14.609  -0.188  1.00  0.00     0.000 C 
BRANCH  20  21
ATOM     21  C   UNL     1      -9.915  14.451   0.752  1.00  0.00     0.000 C 
BRANCH  21  22
ATOM     22  C   UNL     1     -10.294  14.568   2.239  1.00  0.00    -0.000 C 
BRANCH  22  23
ATOM     23  C   UNL     1     -11.596  15.340   2.524  1.00  0.00    -0.000 C 
BRANCH  23  24
ATOM     24  C   UNL     1     -11.500  16.232   3.773  1.00  0.00    -0.000 C 
BRANCH  24  25
ATOM     25  C   UNL     1     -11.273  17.713   3.426  1.00  0.00    -0.000 C 
BRANCH  25  26
ATOM     26  C   UNL     1     -10.008  17.935   2.579  1.00  0.00    -0.000 C 
BRANCH  26  27
ATOM     27  C   UNL     1      -8.776  18.296   3.429  1.00  0.00    -0.000 C 
BRANCH  27  28
ATOM     28  C   UNL     1      -7.508  17.468   3.133  1.00  0.00    -0.000 C 
BRANCH  28  29
ATOM     29  C   UNL     1      -7.344  17.030   1.667  1.00  0.00    -0.003 C 
ATOM     30  C   UNL     1      -6.229  16.003   1.473  1.00  0.00     0.004 C 
ENDBRANCH  28  29
ENDBRANCH  27  28
ENDBRANCH  26  27
ENDBRANCH  25  26
ENDBRANCH  24  25
ENDBRANCH  23  24
ENDBRANCH  22  23
ENDBRANCH  21  22
ENDBRANCH  20  21
ENDBRANCH  19  20
ENDBRANCH  18  19
ENDBRANCH  17  18
ENDBRANCH   1  17
TORSDOF 26
ENDMDL
MODEL 4
REMARK VINA RESULT:    -3.787      1.245      2.523
REMARK INTER + INTRA:         -14.878
REMARK INTER:                 -10.925
REMARK INTRA:                  -3.953
REMARK UNBOUND:                -5.335
REMARK SMILES CCCCCCCCCCCCCCCCCCCCCCCCCCCC(=O)[O-]
REMARK SMILES IDX 15 1 16 2 17 3 18 4 19 5 20 6 21 7 22 8 23 9 24 10 25 11
REMARK SMILES IDX 26 12 27 13 28 14 29 15 30 16 14 17 13 18 12 19 11 20 10 21
REMARK SMILES IDX 9 22 8 23 7 24 6 25 5 26 4 27 3 28 2 29 1 30
REMARK H PARENT
REMARK Flexibility Score: inf
ROOT
ATOM      1  C   UNL     1      -9.962  16.880  -1.051  1.00  0.00     0.000 C 
ENDROOT
BRANCH   1   2
ATOM      2  C   UNL     1      -9.791  15.935   0.156  1.00  0.00     0.000 C 
BRANCH   2   3
ATOM      3  C   UNL     1     -10.919  14.905   0.336  1.00  0.00     0.000 C 
BRANCH   3   4
ATOM      4  C   UNL     1     -10.775  13.694  -0.602  1.00  0.00     0.000 C 
BRANCH   4   5
ATOM      5  C   UNL     1     -11.701  13.788  -1.826  1.00  0.00     0.000 C 
BRANCH   5   6
ATOM      6  C   UNL     1     -11.606  12.546  -2.728  1.00  0.00     0.000 C 
BRANCH   6   7
ATOM      7  C   UNL     1     -10.397  12.591  -3.680  1.00  0.00     0.000 C 
BRANCH   7   8
ATOM      8  C   UNL     1     -10.568  13.517  -4.901  1.00  0.00     0.000 C 
BRANCH   8   9
ATOM      9  C   UNL     1     -11.292  12.885  -6.106  1.00  0.00     0.000 C 
BRANCH   9  10
ATOM     10  C   UNL     1     -10.931  13.493  -7.476  1.00  0.00     0.000 C 
BRANCH  10  11
ATOM     11  C   UNL     1     -10.016  14.730  -7.422  1.00  0.00     0.000 C 
BRANCH  11  12
ATOM     12  C   UNL     1      -8.801  14.692  -8.369  1.00  0.00     0.006 C 
BRANCH  12  13
ATOM     13  C   UNL     1      -7.706  13.698  -7.941  1.00  0.00     0.053 C 
BRANCH  13  14
ATOM     14  C   UNL     1      -7.207  13.959  -6.553  1.00  0.00     0.041 C 
ATOM     15  O   UNL     1      -7.272  13.060  -5.675  1.00  0.00    -0.550 OA
ATOM     16  O   UNL     1      -6.704  15.212  -6.217  1.00  0.00    -0.550 OA
ENDBRANCH  13  14
ENDBRANCH  12  13
ENDBRANCH  11  12
ENDBRANCH  10  11
ENDBRANCH   9  10
ENDBRANCH   8   9
ENDBRANCH   7   8
ENDBRANCH   6   7
ENDBRANCH   5   6
ENDBRANCH   4   5
ENDBRANCH   3   4
ENDBRANCH   2   3
ENDBRANCH   1   2
BRANCH   1  17
ATOM     17  C   UNL     1      -8.732  17.000  -1.973  1.00  0.00     0.000 C 
BRANCH  17  18
ATOM     18  C   UNL     1      -8.555  15.844  -2.974  1.00  0.00     0.000 C 
BRANCH  18  19
ATOM     19  C   UNL     1      -7.223  15.101  -2.798  1.00  0.00     0.000 C 
BRANCH  19  20
ATOM     20  C   UNL     1      -7.359  13.972  -1.769  1.00  0.00     0.000 C 
BRANCH  20  21
ATOM     21  C   UNL     1      -6.066  13.804  -0.958  1.00  0.00     0.000 C 
BRANCH  21  22
ATOM     22  C   UNL     1      -6.205  14.282   0.499  1.00  0.00    -0.000 C 
BRANCH  22  23
ATOM     23  C   UNL     1      -5.966  15.787   0.720  1.00  0.00    -0.000 C 
BRANCH  23  24
ATOM     24  C   UNL     1      -6.697  16.333   1.958  1.00  0.00    -0.000 C 
BRANCH  24  25
ATOM     25  C   UNL     1      -6.408  17.823   2.206  1.00  0.00    -0.000 C 
BRANCH  25  26
ATOM     26  C   UNL     1      -7.255  18.407   3.350  1.00  0.00    -0.000 C 
BRANCH  26  27
ATOM     27  C   UNL     1      -8.536  17.595   3.618  1.00  0.00    -0.000 C 
BRANCH  27  28
ATOM     28  C   UNL     1      -9.775  18.037   2.812  1.00  0.00    -0.000 C 
BRANCH  28  29
ATOM     29  C   UNL     1     -10.484  19.294   3.346  1.00  0.00    -0.003 C 
ATOM     30  C   UNL     1     -11.995  19.111   3.489  1.00  0.00     0.004 C 
ENDBRANCH  28  29
ENDBRANCH  27  28
ENDBRANCH  26  27
ENDBRANCH  25  26
ENDBRANCH  24  25
ENDBRANCH  23  24
ENDBRANCH  22  23
ENDBRANCH  21  22
ENDBRANCH  20  21
ENDBRANCH  19  20
ENDBRANCH  18  19
ENDBRANCH  17  18
ENDBRANCH   1  17
TORSDOF 26
ENDMDL
MODEL 5
REMARK VINA RESULT:    -3.779      1.687      3.375
REMARK INTER + INTRA:         -14.859
REMARK INTER:                  -9.674
REMARK INTRA:                  -5.185
REMARK UNBOUND:                -5.335
REMARK SMILES CCCCCCCCCCCCCCCCCCCCCCCCCCCC(=O)[O-]
REMARK SMILES IDX 15 1 16 2 17 3 18 4 19 5 20 6 21 7 22 8 23 9 24 10 25 11
REMARK SMILES IDX 26 12 27 13 28 14 29 15 30 16 14 17 13 18 12 19 11 20 10 21
REMARK SMILES IDX 9 22 8 23 7 24 6 25 5 26 4 27 3 28 2 29 1 30
REMARK H PARENT
REMARK Flexibility Score: inf
ROOT
ATOM      1  C   UNL     1      -8.744  17.145  -2.042  1.00  0.00     0.000 C 
ENDROOT
BRANCH   1   2
ATOM      2  C   UNL     1      -8.267  15.960  -2.905  1.00  0.00     0.000 C 
BRANCH   2   3
ATOM      3  C   UNL     1      -9.377  15.246  -3.696  1.00  0.00     0.000 C 
BRANCH   3   4
ATOM      4  C   UNL     1      -9.303  13.714  -3.576  1.00  0.00     0.000 C 
BRANCH   4   5
ATOM      5  C   UNL     1     -10.645  13.037  -3.897  1.00  0.00     0.000 C 
BRANCH   5   6
ATOM      6  C   UNL     1     -10.474  11.793  -4.786  1.00  0.00     0.000 C 
BRANCH   6   7
ATOM      7  C   UNL     1     -11.034  11.993  -6.205  1.00  0.00     0.000 C 
BRANCH   7   8
ATOM      8  C   UNL     1     -11.716  13.354  -6.447  1.00  0.00     0.000 C 
BRANCH   8   9
ATOM      9  C   UNL     1     -11.087  14.213  -7.561  1.00  0.00     0.000 C 
BRANCH   9  10
ATOM     10  C   UNL     1      -9.706  14.811  -7.223  1.00  0.00     0.000 C 
BRANCH  10  11
ATOM     11  C   UNL     1      -8.618  14.585  -8.288  1.00  0.00     0.000 C 
BRANCH  11  12
ATOM     12  C   UNL     1      -7.795  13.292  -8.122  1.00  0.00     0.006 C 
BRANCH  12  13
ATOM     13  C   UNL     1      -7.472  12.940  -6.658  1.00  0.00     0.053 C 
BRANCH  13  14
ATOM     14  C   UNL     1      -6.243  13.638  -6.159  1.00  0.00     0.041 C 
ATOM     15  O   UNL     1      -6.332  14.772  -5.620  1.00  0.00    -0.550 OA
ATOM     16  O   UNL     1      -4.993  13.052  -6.324  1.00  0.00    -0.550 OA
ENDBRANCH  13  14
ENDBRANCH  12  13
ENDBRANCH  11  12
ENDBRANCH  10  11
ENDBRANCH   9  10
ENDBRANCH   8   9
ENDBRANCH   7   8
ENDBRANCH   6   7
ENDBRANCH   5   6
ENDBRANCH   4   5
ENDBRANCH   3   4
ENDBRANCH   2   3
ENDBRANCH   1   2
BRANCH   1  17
ATOM     17  C   UNL     1     -10.057  16.909  -1.267  1.00  0.00     0.000 C 
BRANCH  17  18
ATOM     18  C   UNL     1      -9.888  16.226   0.102  1.00  0.00     0.000 C 
BRANCH  18  19
ATOM     19  C   UNL     1      -9.922  14.693   0.012  1.00  0.00     0.000 C 
BRANCH  19  20
ATOM     20  C   UNL     1      -9.661  14.060   1.384  1.00  0.00     0.000 C 
BRANCH  20  21
ATOM     21  C   UNL     1      -9.645  15.125   2.491  1.00  0.00     0.000 C 
BRANCH  21  22
ATOM     22  C   UNL     1      -8.622  14.823   3.600  1.00  0.00    -0.000 C 
BRANCH  22  23
ATOM     23  C   UNL     1      -7.261  15.525   3.444  1.00  0.00    -0.000 C 
BRANCH  23  24
ATOM     24  C   UNL     1      -7.372  16.900   2.763  1.00  0.00    -0.000 C 
BRANCH  24  25
ATOM     25  C   UNL     1      -6.463  17.024   1.529  1.00  0.00    -0.000 C 
BRANCH  25  26
ATOM     26  C   UNL     1      -5.772  15.699   1.167  1.00  0.00    -0.000 C 
BRANCH  26  27
ATOM     27  C   UNL     1      -6.119  15.213  -0.252  1.00  0.00    -0.000 C 
BRANCH  27  28
ATOM     28  C   UNL     1      -6.315  13.689  -0.395  1.00  0.00    -0.000 C 
BRANCH  28  29
ATOM     29  C   UNL     1      -6.175  12.889   0.912  1.00  0.00    -0.003 C 
ATOM     30  C   UNL     1      -4.911  12.031   0.953  1.00  0.00     0.004 C 
ENDBRANCH  28  29
ENDBRANCH  27  28
ENDBRANCH  26  27
ENDBRANCH  25  26
ENDBRANCH  24  25
ENDBRANCH  23  24
ENDBRANCH  22  23
ENDBRANCH  21  22
ENDBRANCH  20  21
ENDBRANCH  19  20
ENDBRANCH  18  19
ENDBRANCH  17  18
ENDBRANCH   1  17
TORSDOF 26
ENDMDL
MODEL 6
REMARK VINA RESULT:    -3.763      3.330      8.274
REMARK INTER + INTRA:         -14.818
REMARK INTER:                  -9.413
REMARK INTRA:                  -5.406
REMARK UNBOUND:                -5.335
REMARK SMILES CCCCCCCCCCCCCCCCCCCCCCCCCCCC(=O)[O-]
REMARK SMILES IDX 15 1 16 2 17 3 18 4 19 5 20 6 21 7 22 8 23 9 24 10 25 11
REMARK SMILES IDX 26 12 27 13 28 14 29 15 30 16 14 17 13 18 12 19 11 20 10 21
REMARK SMILES IDX 9 22 8 23 7 24 6 25 5 26 4 27 3 28 2 29 1 30
REMARK H PARENT
REMARK Flexibility Score: inf
ROOT
ATOM      1  C   UNL     1      -8.185  15.994  -2.426  1.00  0.00     0.000 C 
ENDROOT
BRANCH   1   2
ATOM      2  C   UNL     1      -8.956  16.903  -1.448  1.00  0.00     0.000 C 
BRANCH   2   3
ATOM      3  C   UNL     1     -10.350  16.390  -1.049  1.00  0.00     0.000 C 
BRANCH   3   4
ATOM      4  C   UNL     1     -10.836  15.233  -1.938  1.00  0.00     0.000 C 
BRANCH   4   5
ATOM      5  C   UNL     1     -11.445  14.083  -1.121  1.00  0.00     0.000 C 
BRANCH   5   6
ATOM      6  C   UNL     1     -10.869  14.008   0.303  1.00  0.00     0.000 C 
BRANCH   6   7
ATOM      7  C   UNL     1      -9.856  12.862   0.477  1.00  0.00     0.000 C 
BRANCH   7   8
ATOM      8  C   UNL     1      -8.585  13.235   1.267  1.00  0.00     0.000 C 
BRANCH   8   9
ATOM      9  C   UNL     1      -8.414  14.738   1.561  1.00  0.00     0.000 C 
BRANCH   9  10
ATOM     10  C   UNL     1      -7.164  15.104   2.386  1.00  0.00     0.000 C 
BRANCH  10  11
ATOM     11  C   UNL     1      -6.158  16.026   1.673  1.00  0.00     0.000 C 
BRANCH  11  12
ATOM     12  C   UNL     1      -6.413  17.536   1.847  1.00  0.00     0.006 C 
BRANCH  12  13
ATOM     13  C   UNL     1      -6.368  18.013   3.310  1.00  0.00     0.053 C 
BRANCH  13  14
ATOM     14  C   UNL     1      -7.570  18.826   3.684  1.00  0.00     0.041 C 
ATOM     15  O   UNL     1      -8.728  18.381   3.474  1.00  0.00    -0.550 OA
ATOM     16  O   UNL     1      -7.410  20.095   4.231  1.00  0.00    -0.550 OA
ENDBRANCH  13  14
ENDBRANCH  12  13
ENDBRANCH  11  12
ENDBRANCH  10  11
ENDBRANCH   9  10
ENDBRANCH   8   9
ENDBRANCH   7   8
ENDBRANCH   6   7
ENDBRANCH   5   6
ENDBRANCH   4   5
ENDBRANCH   3   4
ENDBRANCH   2   3
ENDBRANCH   1   2
BRANCH   1  17
ATOM     17  C   UNL     1      -6.930  15.313  -1.842  1.00  0.00     0.000 C 
BRANCH  17  18
ATOM     18  C   UNL     1      -6.917  13.777  -1.945  1.00  0.00     0.000 C 
BRANCH  18  19
ATOM     19  C   UNL     1      -8.105  13.223  -2.745  1.00  0.00     0.000 C 
BRANCH  19  20
ATOM     20  C   UNL     1      -8.055  11.691  -2.805  1.00  0.00     0.000 C 
BRANCH  20  21
ATOM     21  C   UNL     1      -8.888  11.156  -3.979  1.00  0.00     0.000 C 
BRANCH  21  22
ATOM     22  C   UNL     1      -9.847  12.210  -4.564  1.00  0.00    -0.000 C 
BRANCH  22  23
ATOM     23  C   UNL     1     -10.464  11.848  -5.927  1.00  0.00    -0.000 C 
BRANCH  23  24
ATOM     24  C   UNL     1     -11.063  13.064  -6.653  1.00  0.00    -0.000 C 
BRANCH  24  25
ATOM     25  C   UNL     1     -10.085  14.248  -6.729  1.00  0.00    -0.000 C 
BRANCH  25  26
ATOM     26  C   UNL     1      -9.106  14.132  -7.910  1.00  0.00    -0.000 C 
BRANCH  26  27
ATOM     27  C   UNL     1      -7.725  14.742  -7.603  1.00  0.00    -0.000 C 
BRANCH  27  28
ATOM     28  C   UNL     1      -7.380  14.863  -6.104  1.00  0.00    -0.000 C 
BRANCH  28  29
ATOM     29  C   UNL     1      -6.155  14.049  -5.651  1.00  0.00    -0.003 C 
ATOM     30  C   UNL     1      -6.237  12.576  -6.049  1.00  0.00     0.004 C 
ENDBRANCH  28  29
ENDBRANCH  27  28
ENDBRANCH  26  27
ENDBRANCH  25  26
ENDBRANCH  24  25
ENDBRANCH  23  24
ENDBRANCH  22  23
ENDBRANCH  21  22
ENDBRANCH  20  21
ENDBRANCH  19  20
ENDBRANCH  18  19
ENDBRANCH  17  18
ENDBRANCH   1  17
TORSDOF 26
ENDMDL
MODEL 7
REMARK VINA RESULT:    -3.756      1.463      2.163
REMARK INTER + INTRA:         -14.799
REMARK INTER:                  -9.339
REMARK INTRA:                  -5.459
REMARK UNBOUND:                -5.335
REMARK SMILES CCCCCCCCCCCCCCCCCCCCCCCCCCCC(=O)[O-]
REMARK SMILES IDX 15 1 16 2 17 3 18 4 19 5 20 6 21 7 22 8 23 9 24 10 25 11
REMARK SMILES IDX 26 12 27 13 28 14 29 15 30 16 14 17 13 18 12 19 11 20 10 21
REMARK SMILES IDX 9 22 8 23 7 24 6 25 5 26 4 27 3 28 2 29 1 30
REMARK H PARENT
REMARK Flexibility Score: inf
ROOT
ATOM      1  C   UNL     1      -8.737  17.098  -2.229  1.00  0.00     0.000 C 
ENDROOT
BRANCH   1   2
ATOM      2  C   UNL     1      -8.797  16.112  -3.413  1.00  0.00     0.000 C 
BRANCH   2   3
ATOM      3  C   UNL     1      -7.580  15.179  -3.541  1.00  0.00     0.000 C 
BRANCH   3   4
ATOM      4  C   UNL     1      -6.799  15.035  -2.223  1.00  0.00     0.000 C 
BRANCH   4   5
ATOM      5  C   UNL     1      -6.857  13.605  -1.662  1.00  0.00     0.000 C 
BRANCH   5   6
ATOM      6  C   UNL     1      -7.493  12.614  -2.651  1.00  0.00     0.000 C 
BRANCH   6   7
ATOM      7  C   UNL     1      -8.476  11.643  -1.973  1.00  0.00     0.000 C 
BRANCH   7   8
ATOM      8  C   UNL     1      -9.965  12.012  -2.133  1.00  0.00     0.000 C 
BRANCH   8   9
ATOM      9  C   UNL     1     -10.340  12.652  -3.484  1.00  0.00     0.000 C 
BRANCH   9  10
ATOM     10  C   UNL     1     -10.043  11.783  -4.722  1.00  0.00     0.000 C 
BRANCH  10  11
ATOM     11  C   UNL     1      -9.432  12.536  -5.918  1.00  0.00     0.000 C 
BRANCH  11  12
ATOM     12  C   UNL     1      -9.989  13.954  -6.155  1.00  0.00     0.006 C 
BRANCH  12  13
ATOM     13  C   UNL     1      -9.838  14.449  -7.605  1.00  0.00     0.053 C 
BRANCH  13  14
ATOM     14  C   UNL     1      -8.435  14.312  -8.114  1.00  0.00     0.041 C 
ATOM     15  O   UNL     1      -7.514  15.025  -7.637  1.00  0.00    -0.550 OA
ATOM     16  O   UNL     1      -8.151  13.421  -9.144  1.00  0.00    -0.550 OA
ENDBRANCH  13  14
ENDBRANCH  12  13
ENDBRANCH  11  12
ENDBRANCH  10  11
ENDBRANCH   9  10
ENDBRANCH   8   9
ENDBRANCH   7   8
ENDBRANCH   6   7
ENDBRANCH   5   6
ENDBRANCH   4   5
ENDBRANCH   3   4
ENDBRANCH   2   3
ENDBRANCH   1   2
BRANCH   1  17
ATOM     17  C   UNL     1      -9.802  16.877  -1.134  1.00  0.00     0.000 C 
BRANCH  17  18
ATOM     18  C   UNL     1     -10.800  15.741  -1.418  1.00  0.00     0.000 C 
BRANCH  18  19
ATOM     19  C   UNL     1     -11.052  14.847  -0.195  1.00  0.00     0.000 C 
BRANCH  19  20
ATOM     20  C   UNL     1      -9.746  14.582   0.565  1.00  0.00     0.000 C 
BRANCH  20  21
ATOM     21  C   UNL     1     -10.003  13.756   1.835  1.00  0.00     0.000 C 
BRANCH  21  22
ATOM     22  C   UNL     1      -8.710  13.404   2.593  1.00  0.00    -0.000 C 
BRANCH  22  23
ATOM     23  C   UNL     1      -7.406  13.638   1.808  1.00  0.00    -0.000 C 
BRANCH  23  24
ATOM     24  C   UNL     1      -6.571  14.800   2.371  1.00  0.00    -0.000 C 
BRANCH  24  25
ATOM     25  C   UNL     1      -6.097  15.772   1.278  1.00  0.00    -0.000 C 
BRANCH  25  26
ATOM     26  C   UNL     1      -6.660  17.192   1.464  1.00  0.00    -0.000 C 
BRANCH  26  27
ATOM     27  C   UNL     1      -6.709  17.625   2.941  1.00  0.00    -0.000 C 
BRANCH  27  28
ATOM     28  C   UNL     1      -8.087  18.110   3.438  1.00  0.00    -0.000 C 
BRANCH  28  29
ATOM     29  C   UNL     1      -9.234  17.098   3.266  1.00  0.00    -0.003 C 
ATOM     30  C   UNL     1     -10.453  17.693   2.563  1.00  0.00     0.004 C 
ENDBRANCH  28  29
ENDBRANCH  27  28
ENDBRANCH  26  27
ENDBRANCH  25  26
ENDBRANCH  24  25
ENDBRANCH  23  24
ENDBRANCH  22  23
ENDBRANCH  21  22
ENDBRANCH  20  21
ENDBRANCH  19  20
ENDBRANCH  18  19
ENDBRANCH  17  18
ENDBRANCH   1  17
TORSDOF 26
ENDMDL
MODEL 8
REMARK VINA RESULT:    -3.718      3.379      7.836
REMARK INTER + INTRA:         -14.704
REMARK INTER:                  -9.279
REMARK INTRA:                  -5.424
REMARK UNBOUND:                -5.335
REMARK SMILES CCCCCCCCCCCCCCCCCCCCCCCCCCCC(=O)[O-]
REMARK SMILES IDX 15 1 16 2 17 3 18 4 19 5 20 6 21 7 22 8 23 9 24 10 25 11
REMARK SMILES IDX 26 12 27 13 28 14 29 15 30 16 14 17 13 18 12 19 11 20 10 21
REMARK SMILES IDX 9 22 8 23 7 24 6 25 5 26 4 27 3 28 2 29 1 30
REMARK H PARENT
REMARK Flexibility Score: inf
ROOT
ATOM      1  C   UNL     1      -8.708  15.991  -3.174  1.00  0.00     0.000 C 
ENDROOT
BRANCH   1   2
ATOM      2  C   UNL     1      -7.307  15.363  -3.313  1.00  0.00     0.000 C 
BRANCH   2   3
ATOM      3  C   UNL     1      -7.005  14.228  -2.321  1.00  0.00     0.000 C 
BRANCH   3   4
ATOM      4  C   UNL     1      -6.208  14.706  -1.094  1.00  0.00     0.000 C 
BRANCH   4   5
ATOM      5  C   UNL     1      -5.777  13.542  -0.187  1.00  0.00     0.000 C 
BRANCH   5   6
ATOM      6  C   UNL     1      -6.786  12.381  -0.207  1.00  0.00     0.000 C 
BRANCH   6   7
ATOM      7  C   UNL     1      -7.494  12.183   1.145  1.00  0.00     0.000 C 
BRANCH   7   8
ATOM      8  C   UNL     1      -6.947  13.051   2.296  1.00  0.00     0.000 C 
BRANCH   8   9
ATOM      9  C   UNL     1      -8.016  13.790   3.124  1.00  0.00     0.000 C 
BRANCH   9  10
ATOM     10  C   UNL     1      -7.820  15.316   3.229  1.00  0.00     0.000 C 
BRANCH  10  11
ATOM     11  C   UNL     1      -6.589  15.869   2.488  1.00  0.00     0.000 C 
BRANCH  11  12
ATOM     12  C   UNL     1      -6.580  17.396   2.277  1.00  0.00     0.006 C 
BRANCH  12  13
ATOM     13  C   UNL     1      -6.549  18.208   3.585  1.00  0.00     0.053 C 
BRANCH  13  14
ATOM     14  C   UNL     1      -7.714  19.143   3.706  1.00  0.00     0.041 C 
ATOM     15  O   UNL     1      -8.887  18.721   3.531  1.00  0.00    -0.550 OA
ATOM     16  O   UNL     1      -7.501  20.490   3.976  1.00  0.00    -0.550 OA
ENDBRANCH  13  14
ENDBRANCH  12  13
ENDBRANCH  11  12
ENDBRANCH  10  11
ENDBRANCH   9  10
ENDBRANCH   8   9
ENDBRANCH   7   8
ENDBRANCH   6   7
ENDBRANCH   5   6
ENDBRANCH   4   5
ENDBRANCH   3   4
ENDBRANCH   2   3
ENDBRANCH   1   2
BRANCH   1  17
ATOM     17  C   UNL     1      -8.778  17.259  -2.298  1.00  0.00     0.000 C 
BRANCH  17  18
ATOM     18  C   UNL     1      -9.821  17.210  -1.167  1.00  0.00     0.000 C 
BRANCH  18  19
ATOM     19  C   UNL     1      -9.336  16.420   0.057  1.00  0.00     0.000 C 
BRANCH  19  20
ATOM     20  C   UNL     1     -10.422  15.453   0.547  1.00  0.00     0.000 C 
BRANCH  20  21
ATOM     21  C   UNL     1     -10.201  14.042  -0.019  1.00  0.00     0.000 C 
BRANCH  21  22
ATOM     22  C   UNL     1     -11.328  13.592  -0.967  1.00  0.00    -0.000 C 
BRANCH  22  23
ATOM     23  C   UNL     1     -10.956  13.570  -2.461  1.00  0.00    -0.000 C 
BRANCH  23  24
ATOM     24  C   UNL     1     -10.083  12.363  -2.841  1.00  0.00    -0.000 C 
BRANCH  24  25
ATOM     25  C   UNL     1      -9.571  12.436  -4.289  1.00  0.00    -0.000 C 
BRANCH  25  26
ATOM     26  C   UNL     1     -10.470  13.299  -5.191  1.00  0.00    -0.000 C 
BRANCH  26  27
ATOM     27  C   UNL     1      -9.820  13.619  -6.550  1.00  0.00    -0.000 C 
BRANCH  27  28
ATOM     28  C   UNL     1      -9.080  14.971  -6.622  1.00  0.00    -0.000 C 
BRANCH  28  29
ATOM     29  C   UNL     1      -7.597  14.881  -7.024  1.00  0.00    -0.003 C 
ATOM     30  C   UNL     1      -6.972  13.525  -6.698  1.00  0.00     0.004 C 
ENDBRANCH  28  29
ENDBRANCH  27  28
ENDBRANCH  26  27
ENDBRANCH  25  26
ENDBRANCH  24  25
ENDBRANCH  23  24
ENDBRANCH  22  23
ENDBRANCH  21  22
ENDBRANCH  20  21
ENDBRANCH  19  20
ENDBRANCH  18  19
ENDBRANCH  17  18
ENDBRANCH   1  17
TORSDOF 26
ENDMDL
MODEL 9
REMARK VINA RESULT:    -3.643      3.409      8.061
REMARK INTER + INTRA:         -14.515
REMARK INTER:                  -9.241
REMARK INTRA:                  -5.274
REMARK UNBOUND:                -5.335
REMARK SMILES CCCCCCCCCCCCCCCCCCCCCCCCCCCC(=O)[O-]
REMARK SMILES IDX 15 1 16 2 17 3 18 4 19 5 20 6 21 7 22 8 23 9 24 10 25 11
REMARK SMILES IDX 26 12 27 13 28 14 29 15 30 16 14 17 13 18 12 19 11 20 10 21
REMARK SMILES IDX 9 22 8 23 7 24 6 25 5 26 4 27 3 28 2 29 1 30
REMARK H PARENT
REMARK Flexibility Score: inf
ROOT
ATOM      1  C   UNL     1      -6.160  14.996  -1.221  1.00  0.00     0.000 C 
ENDROOT
BRANCH   1   2
ATOM      2  C   UNL     1      -6.135  13.654  -0.462  1.00  0.00     0.000 C 
BRANCH   2   3
ATOM      3  C   UNL     1      -7.519  13.050  -0.169  1.00  0.00     0.000 C 
BRANCH   3   4
ATOM      4  C   UNL     1      -7.683  12.618   1.298  1.00  0.00     0.000 C 
BRANCH   4   5
ATOM      5  C   UNL     1      -9.017  13.086   1.901  1.00  0.00     0.000 C 
BRANCH   5   6
ATOM      6  C   UNL     1     -10.023  13.526   0.823  1.00  0.00     0.000 C 
BRANCH   6   7
ATOM      7  C   UNL     1     -10.895  14.713   1.270  1.00  0.00     0.000 C 
BRANCH   7   8
ATOM      8  C   UNL     1     -10.481  15.352   2.611  1.00  0.00     0.000 C 
BRANCH   8   9
ATOM      9  C   UNL     1     -10.104  16.844   2.537  1.00  0.00     0.000 C 
BRANCH   9  10
ATOM     10  C   UNL     1      -9.006  17.190   1.512  1.00  0.00     0.000 C 
BRANCH  10  11
ATOM     11  C   UNL     1      -7.665  16.461   1.721  1.00  0.00     0.000 C 
BRANCH  11  12
ATOM     12  C   UNL     1      -6.530  17.328   2.303  1.00  0.00     0.006 C 
BRANCH  12  13
ATOM     13  C   UNL     1      -6.490  17.352   3.841  1.00  0.00     0.053 C 
BRANCH  13  14
ATOM     14  C   UNL     1      -6.778  18.712   4.400  1.00  0.00     0.041 C 
ATOM     15  O   UNL     1      -6.164  19.123   5.419  1.00  0.00    -0.550 OA
ATOM     16  O   UNL     1      -7.754  19.513   3.817  1.00  0.00    -0.550 OA
ENDBRANCH  13  14
ENDBRANCH  12  13
ENDBRANCH  11  12
ENDBRANCH  10  11
ENDBRANCH   9  10
ENDBRANCH   8   9
ENDBRANCH   7   8
ENDBRANCH   6   7
ENDBRANCH   5   6
ENDBRANCH   4   5
ENDBRANCH   3   4
ENDBRANCH   2   3
ENDBRANCH   1   2
BRANCH   1  17
ATOM     17  C   UNL     1      -7.264  15.128  -2.290  1.00  0.00     0.000 C 
BRANCH  17  18
ATOM     18  C   UNL     1      -8.352  16.170  -1.974  1.00  0.00     0.000 C 
BRANCH  18  19
ATOM     19  C   UNL     1      -9.775  15.628  -2.182  1.00  0.00     0.000 C 
BRANCH  19  20
ATOM     20  C   UNL     1      -9.799  14.568  -3.290  1.00  0.00     0.000 C 
BRANCH  20  21
ATOM     21  C   UNL     1     -10.305  13.220  -2.755  1.00  0.00     0.000 C 
BRANCH  21  22
ATOM     22  C   UNL     1      -9.437  12.031  -3.208  1.00  0.00    -0.000 C 
BRANCH  22  23
ATOM     23  C   UNL     1      -8.798  12.180  -4.601  1.00  0.00    -0.000 C 
BRANCH  23  24
ATOM     24  C   UNL     1      -7.262  12.234  -4.550  1.00  0.00    -0.000 C 
BRANCH  24  25
ATOM     25  C   UNL     1      -6.658  13.000  -5.738  1.00  0.00    -0.000 C 
BRANCH  25  26
ATOM     26  C   UNL     1      -7.119  14.466  -5.794  1.00  0.00    -0.000 C 
BRANCH  26  27
ATOM     27  C   UNL     1      -7.414  14.945  -7.227  1.00  0.00    -0.000 C 
BRANCH  27  28
ATOM     28  C   UNL     1      -8.696  14.366  -7.863  1.00  0.00    -0.000 C 
BRANCH  28  29
ATOM     29  C   UNL     1      -9.992  14.646  -7.083  1.00  0.00    -0.003 C 
ATOM     30  C   UNL     1     -11.040  13.547  -7.254  1.00  0.00     0.004 C 
ENDBRANCH  28  29
ENDBRANCH  27  28
ENDBRANCH  26  27
ENDBRANCH  25  26
ENDBRANCH  24  25
ENDBRANCH  23  24
ENDBRANCH  22  23
ENDBRANCH  21  22
ENDBRANCH  20  21
ENDBRANCH  19  20
ENDBRANCH  18  19
ENDBRANCH  17  18
ENDBRANCH   1  17
TORSDOF 26
ENDMDL
