MODEL 1
REMARK VINA RESULT:    -4.244      0.000      0.000
REMARK INTER + INTRA:         -16.702
REMARK INTER:                 -11.191
REMARK INTRA:                  -5.512
REMARK UNBOUND:                -5.512
REMARK SMILES CCCCCCCCCCCCCCCCCCCCCCCCCCCCCC(=O)[O-]
REMARK SMILES IDX 16 1 17 2 18 3 19 4 20 5 21 6 22 7 23 8 24 9 25 10 26 11
REMARK SMILES IDX 27 12 28 13 29 14 30 15 31 16 32 17 15 18 14 19 13 20 12 21
REMARK SMILES IDX 11 22 10 23 9 24 8 25 7 26 6 27 5 28 4 29 3 30 2 31 1 32
REMARK H PARENT
REMARK Flexibility Score: inf
ROOT
ATOM      1  C   UNL     1       0.106 -20.110  -3.603  1.00  0.00     0.000 C 
ENDROOT
BRANCH   1   2
ATOM      2  C   UNL     1       0.727 -21.273  -4.400  1.00  0.00     0.000 C 
BRANCH   2   3
ATOM      3  C   UNL     1      -0.013 -21.551  -5.717  1.00  0.00     0.000 C 
BRANCH   3   4
ATOM      4  C   UNL     1       0.507 -22.804  -6.437  1.00  0.00     0.000 C 
BRANCH   4   5
ATOM      5  C   UNL     1       0.931 -22.465  -7.875  1.00  0.00     0.000 C 
BRANCH   5   6
ATOM      6  C   UNL     1       1.283 -20.981  -8.069  1.00  0.00     0.000 C 
BRANCH   6   7
ATOM      7  C   UNL     1       2.756 -20.618  -7.804  1.00  0.00     0.000 C 
BRANCH   7   8
ATOM      8  C   UNL     1       2.921 -19.487  -6.774  1.00  0.00     0.000 C 
BRANCH   8   9
ATOM      9  C   UNL     1       4.060 -19.766  -5.773  1.00  0.00     0.000 C 
BRANCH   9  10
ATOM     10  C   UNL     1       4.268 -21.255  -5.425  1.00  0.00     0.000 C 
BRANCH  10  11
ATOM     11  C   UNL     1       5.704 -21.792  -5.617  1.00  0.00     0.000 C 
BRANCH  11  12
ATOM     12  C   UNL     1       6.009 -22.342  -7.023  1.00  0.00     0.000 C 
BRANCH  12  13
ATOM     13  C   UNL     1       7.238 -21.674  -7.660  1.00  0.00     0.006 C 
BRANCH  13  14
ATOM     14  C   UNL     1       7.414 -20.226  -7.181  1.00  0.00     0.053 C 
BRANCH  14  15
ATOM     15  C   UNL     1       7.211 -19.253  -8.306  1.00  0.00     0.041 C 
ATOM     16  O   UNL     1       6.050 -18.885  -8.629  1.00  0.00    -0.550 OA
ATOM     17  O   UNL     1       8.309 -18.772  -9.009  1.00  0.00    -0.550 OA
ENDBRANCH  14  15
ENDBRANCH  13  14
ENDBRANCH  12  13
ENDBRANCH  11  12
ENDBRANCH  10  11
ENDBRANCH   9  10
ENDBRANCH   8   9
ENDBRANCH   7   8
ENDBRANCH   6   7
ENDBRANCH   5   6
ENDBRANCH   4   5
ENDBRANCH   3   4
ENDBRANCH   2   3
ENDBRANCH   1   2
BRANCH   1  18
ATOM     18  C   UNL     1       1.058 -18.912  -3.468  1.00  0.00     0.000 C 
BRANCH  18  19
ATOM     19  C   UNL     1       2.234 -19.193  -2.518  1.00  0.00     0.000 C 
BRANCH  19  20
ATOM     20  C   UNL     1       3.309 -18.096  -2.572  1.00  0.00     0.000 C 
BRANCH  20  21
ATOM     21  C   UNL     1       2.956 -16.969  -3.555  1.00  0.00     0.000 C 
BRANCH  21  22
ATOM     22  C   UNL     1       3.202 -15.591  -2.927  1.00  0.00     0.000 C 
BRANCH  22  23
ATOM     23  C   UNL     1       2.379 -15.356  -1.647  1.00  0.00     0.000 C 
BRANCH  23  24
ATOM     24  C   UNL     1       3.203 -15.185  -0.356  1.00  0.00    -0.000 C 
BRANCH  24  25
ATOM     25  C   UNL     1       4.310 -14.126  -0.485  1.00  0.00    -0.000 C 
BRANCH  25  26
ATOM     26  C   UNL     1       5.666 -14.599   0.075  1.00  0.00    -0.000 C 
BRANCH  26  27
ATOM     27  C   UNL     1       6.319 -15.766  -0.692  1.00  0.00    -0.000 C 
BRANCH  27  28
ATOM     28  C   UNL     1       6.668 -15.474  -2.164  1.00  0.00    -0.000 C 
BRANCH  28  29
ATOM     29  C   UNL     1       6.745 -16.714  -3.076  1.00  0.00    -0.000 C 
BRANCH  29  30
ATOM     30  C   UNL     1       7.226 -17.999  -2.382  1.00  0.00    -0.000 C 
BRANCH  30  31
ATOM     31  C   UNL     1       6.863 -19.270  -3.164  1.00  0.00    -0.003 C 
ATOM     32  C   UNL     1       6.203 -20.301  -2.254  1.00  0.00     0.004 C 
ENDBRANCH  30  31
ENDBRANCH  29  30
ENDBRANCH  28  29
ENDBRANCH  27  28
ENDBRANCH  26  27
ENDBRANCH  25  26
ENDBRANCH  24  25
ENDBRANCH  23  24
ENDBRANCH  22  23
ENDBRANCH  21  22
ENDBRANCH  20  21
ENDBRANCH  19  20
ENDBRANCH  18  19
ENDBRANCH   1  18
TORSDOF 28
ENDMDL
MODEL 2
REMARK VINA RESULT:    -4.205      2.805      6.438
REMARK INTER + INTRA:         -16.599
REMARK INTER:                 -10.920
REMARK INTRA:                  -5.679
REMARK UNBOUND:                -5.512
REMARK SMILES CCCCCCCCCCCCCCCCCCCCCCCCCCCCCC(=O)[O-]
REMARK SMILES IDX 16 1 17 2 18 3 19 4 20 5 21 6 22 7 23 8 24 9 25 10 26 11
REMARK SMILES IDX 27 12 28 13 29 14 30 15 31 16 32 17 15 18 14 19 13 20 12 21
REMARK SMILES IDX 11 22 10 23 9 24 8 25 7 26 6 27 5 28 4 29 3 30 2 31 1 32
REMARK H PARENT
REMARK Flexibility Score: inf
ROOT
ATOM      1  C   UNL     1       3.653 -21.189  -7.404  1.00  0.00     0.000 C 
ENDROOT
BRANCH   1   2
ATOM      2  C   UNL     1       2.519 -20.270  -7.894  1.00  0.00     0.000 C 
BRANCH   2   3
ATOM      3  C   UNL     1       1.301 -21.053  -8.408  1.00  0.00     0.000 C 
BRANCH   3   4
ATOM      4  C   UNL     1       0.978 -22.281  -7.544  1.00  0.00     0.000 C 
BRANCH   4   5
ATOM      5  C   UNL     1       0.050 -21.896  -6.382  1.00  0.00     0.000 C 
BRANCH   5   6
ATOM      6  C   UNL     1       0.804 -21.618  -5.070  1.00  0.00     0.000 C 
BRANCH   6   7
ATOM      7  C   UNL     1       0.363 -20.348  -4.319  1.00  0.00     0.000 C 
BRANCH   7   8
ATOM      8  C   UNL     1       1.325 -19.165  -4.522  1.00  0.00     0.000 C 
BRANCH   8   9
ATOM      9  C   UNL     1       1.552 -18.363  -3.226  1.00  0.00     0.000 C 
BRANCH   9  10
ATOM     10  C   UNL     1       2.718 -18.864  -2.349  1.00  0.00     0.000 C 
BRANCH  10  11
ATOM     11  C   UNL     1       4.115 -18.826  -3.010  1.00  0.00     0.000 C 
BRANCH  11  12
ATOM     12  C   UNL     1       5.297 -18.741  -2.027  1.00  0.00     0.000 C 
BRANCH  12  13
ATOM     13  C   UNL     1       6.241 -17.571  -2.345  1.00  0.00     0.006 C 
BRANCH  13  14
ATOM     14  C   UNL     1       5.652 -16.224  -1.899  1.00  0.00     0.053 C 
BRANCH  14  15
ATOM     15  C   UNL     1       6.178 -15.820  -0.552  1.00  0.00     0.041 C 
ATOM     16  O   UNL     1       7.111 -16.471  -0.011  1.00  0.00    -0.550 OA
ATOM     17  O   UNL     1       5.617 -14.735   0.110  1.00  0.00    -0.550 OA
ENDBRANCH  14  15
ENDBRANCH  13  14
ENDBRANCH  12  13
ENDBRANCH  11  12
ENDBRANCH  10  11
ENDBRANCH   9  10
ENDBRANCH   8   9
ENDBRANCH   7   8
ENDBRANCH   6   7
ENDBRANCH   5   6
ENDBRANCH   4   5
ENDBRANCH   3   4
ENDBRANCH   2   3
ENDBRANCH   1   2
BRANCH   1  18
ATOM     18  C   UNL     1       4.259 -20.721  -6.073  1.00  0.00     0.000 C 
BRANCH  18  19
ATOM     19  C   UNL     1       5.172 -21.780  -5.432  1.00  0.00     0.000 C 
BRANCH  19  20
ATOM     20  C   UNL     1       6.404 -21.161  -4.753  1.00  0.00     0.000 C 
BRANCH  20  21
ATOM     21  C   UNL     1       7.383 -20.537  -5.758  1.00  0.00     0.000 C 
BRANCH  21  22
ATOM     22  C   UNL     1       7.836 -21.567  -6.802  1.00  0.00     0.000 C 
BRANCH  22  23
ATOM     23  C   UNL     1       7.604 -21.100  -8.251  1.00  0.00     0.000 C 
BRANCH  23  24
ATOM     24  C   UNL     1       6.892 -19.741  -8.399  1.00  0.00    -0.000 C 
BRANCH  24  25
ATOM     25  C   UNL     1       6.989 -19.162  -9.819  1.00  0.00    -0.000 C 
BRANCH  25  26
ATOM     26  C   UNL     1       7.030 -17.621  -9.841  1.00  0.00    -0.000 C 
BRANCH  26  27
ATOM     27  C   UNL     1       7.683 -16.966  -8.608  1.00  0.00    -0.000 C 
BRANCH  27  28
ATOM     28  C   UNL     1       6.795 -15.962  -7.848  1.00  0.00    -0.000 C 
BRANCH  28  29
ATOM     29  C   UNL     1       6.675 -16.213  -6.332  1.00  0.00    -0.000 C 
BRANCH  29  30
ATOM     30  C   UNL     1       5.692 -17.327  -5.936  1.00  0.00    -0.000 C 
BRANCH  30  31
ATOM     31  C   UNL     1       4.224 -16.926  -6.141  1.00  0.00    -0.003 C 
ATOM     32  C   UNL     1       3.810 -15.846  -5.146  1.00  0.00     0.004 C 
ENDBRANCH  30  31
ENDBRANCH  29  30
ENDBRANCH  28  29
ENDBRANCH  27  28
ENDBRANCH  26  27
ENDBRANCH  25  26
ENDBRANCH  24  25
ENDBRANCH  23  24
ENDBRANCH  22  23
ENDBRANCH  21  22
ENDBRANCH  20  21
ENDBRANCH  19  20
ENDBRANCH  18  19
ENDBRANCH   1  18
TORSDOF 28
ENDMDL
MODEL 3
REMARK VINA RESULT:    -4.200      1.708      4.609
REMARK INTER + INTRA:         -16.588
REMARK INTER:                 -11.418
REMARK INTRA:                  -5.169
REMARK UNBOUND:                -5.512
REMARK SMILES CCCCCCCCCCCCCCCCCCCCCCCCCCCCCC(=O)[O-]
REMARK SMILES IDX 16 1 17 2 18 3 19 4 20 5 21 6 22 7 23 8 24 9 25 10 26 11
REMARK SMILES IDX 27 12 28 13 29 14 30 15 31 16 32 17 15 18 14 19 13 20 12 21
REMARK SMILES IDX 11 22 10 23 9 24 8 25 7 26 6 27 5 28 4 29 3 30 2 31 1 32
REMARK H PARENT
REMARK Flexibility Score: inf
ROOT
ATOM      1  C   UNL     1       0.968 -22.124  -6.786  1.00  0.00     0.000 C 
ENDROOT
BRANCH   1   2
ATOM      2  C   UNL     1       0.183 -21.721  -5.524  1.00  0.00     0.000 C 
BRANCH   2   3
ATOM      3  C   UNL     1       0.762 -20.472  -4.839  1.00  0.00     0.000 C 
BRANCH   3   4
ATOM      4  C   UNL     1       0.123 -20.196  -3.470  1.00  0.00     0.000 C 
BRANCH   4   5
ATOM      5  C   UNL     1       1.163 -20.344  -2.349  1.00  0.00     0.000 C 
BRANCH   5   6
ATOM      6  C   UNL     1       2.613 -20.223  -2.847  1.00  0.00     0.000 C 
BRANCH   6   7
ATOM      7  C   UNL     1       3.374 -18.979  -2.351  1.00  0.00     0.000 C 
BRANCH   7   8
ATOM      8  C   UNL     1       4.896 -19.088  -2.546  1.00  0.00     0.000 C 
BRANCH   8   9
ATOM      9  C   UNL     1       5.366 -20.549  -2.695  1.00  0.00     0.000 C 
BRANCH   9  10
ATOM     10  C   UNL     1       6.597 -20.745  -3.605  1.00  0.00     0.000 C 
BRANCH  10  11
ATOM     11  C   UNL     1       7.182 -19.455  -4.224  1.00  0.00     0.000 C 
BRANCH  11  12
ATOM     12  C   UNL     1       7.829 -19.635  -5.609  1.00  0.00     0.000 C 
BRANCH  12  13
ATOM     13  C   UNL     1       8.320 -21.072  -5.844  1.00  0.00     0.006 C 
BRANCH  13  14
ATOM     14  C   UNL     1       8.694 -21.316  -7.313  1.00  0.00     0.053 C 
BRANCH  14  15
ATOM     15  C   UNL     1       7.710 -22.232  -7.981  1.00  0.00     0.041 C 
ATOM     16  O   UNL     1       7.949 -22.697  -9.127  1.00  0.00    -0.550 OA
ATOM     17  O   UNL     1       6.520 -22.552  -7.339  1.00  0.00    -0.550 OA
ENDBRANCH  14  15
ENDBRANCH  13  14
ENDBRANCH  12  13
ENDBRANCH  11  12
ENDBRANCH  10  11
ENDBRANCH   9  10
ENDBRANCH   8   9
ENDBRANCH   7   8
ENDBRANCH   6   7
ENDBRANCH   5   6
ENDBRANCH   4   5
ENDBRANCH   3   4
ENDBRANCH   2   3
ENDBRANCH   1   2
BRANCH   1  18
ATOM     18  C   UNL     1       1.032 -20.997  -7.827  1.00  0.00     0.000 C 
BRANCH  18  19
ATOM     19  C   UNL     1       2.474 -20.587  -8.169  1.00  0.00     0.000 C 
BRANCH  19  20
ATOM     20  C   UNL     1       3.511 -21.280  -7.270  1.00  0.00     0.000 C 
BRANCH  20  21
ATOM     21  C   UNL     1       4.081 -20.344  -6.194  1.00  0.00     0.000 C 
BRANCH  21  22
ATOM     22  C   UNL     1       4.169 -18.901  -6.708  1.00  0.00     0.000 C 
BRANCH  22  23
ATOM     23  C   UNL     1       3.252 -17.930  -5.940  1.00  0.00     0.000 C 
BRANCH  23  24
ATOM     24  C   UNL     1       3.959 -16.717  -5.307  1.00  0.00    -0.000 C 
BRANCH  24  25
ATOM     25  C   UNL     1       2.979 -15.690  -4.716  1.00  0.00    -0.000 C 
BRANCH  25  26
ATOM     26  C   UNL     1       1.723 -16.339  -4.102  1.00  0.00    -0.000 C 
BRANCH  26  27
ATOM     27  C   UNL     1       1.057 -15.533  -2.970  1.00  0.00    -0.000 C 
BRANCH  27  28
ATOM     28  C   UNL     1       1.559 -15.855  -1.549  1.00  0.00    -0.000 C 
BRANCH  28  29
ATOM     29  C   UNL     1       1.932 -14.628  -0.694  1.00  0.00    -0.000 C 
BRANCH  29  30
ATOM     30  C   UNL     1       3.434 -14.301  -0.651  1.00  0.00    -0.000 C 
BRANCH  30  31
ATOM     31  C   UNL     1       4.318 -15.555  -0.707  1.00  0.00    -0.003 C 
ATOM     32  C   UNL     1       5.745 -15.236  -0.272  1.00  0.00     0.004 C 
ENDBRANCH  30  31
ENDBRANCH  29  30
ENDBRANCH  28  29
ENDBRANCH  27  28
ENDBRANCH  26  27
ENDBRANCH  25  26
ENDBRANCH  24  25
ENDBRANCH  23  24
ENDBRANCH  22  23
ENDBRANCH  21  22
ENDBRANCH  20  21
ENDBRANCH  19  20
ENDBRANCH  18  19
ENDBRANCH   1  18
TORSDOF 28
ENDMDL
MODEL 4
REMARK VINA RESULT:    -4.153      1.366      3.273
REMARK INTER + INTRA:         -16.463
REMARK INTER:                 -10.954
REMARK INTRA:                  -5.508
REMARK UNBOUND:                -5.512
REMARK SMILES CCCCCCCCCCCCCCCCCCCCCCCCCCCCCC(=O)[O-]
REMARK SMILES IDX 16 1 17 2 18 3 19 4 20 5 21 6 22 7 23 8 24 9 25 10 26 11
REMARK SMILES IDX 27 12 28 13 29 14 30 15 31 16 32 17 15 18 14 19 13 20 12 21
REMARK SMILES IDX 11 22 10 23 9 24 8 25 7 26 6 27 5 28 4 29 3 30 2 31 1 32
REMARK H PARENT
REMARK Flexibility Score: inf
ROOT
ATOM      1  C   UNL     1       1.759 -21.045  -5.933  1.00  0.00     0.000 C 
ENDROOT
BRANCH   1   2
ATOM      2  C   UNL     1       0.459 -21.096  -5.109  1.00  0.00     0.000 C 
BRANCH   2   3
ATOM      3  C   UNL     1       0.448 -20.080  -3.956  1.00  0.00     0.000 C 
BRANCH   3   4
ATOM      4  C   UNL     1       0.510 -20.749  -2.575  1.00  0.00     0.000 C 
BRANCH   4   5
ATOM      5  C   UNL     1       1.875 -20.496  -1.913  1.00  0.00     0.000 C 
BRANCH   5   6
ATOM      6  C   UNL     1       2.467 -19.118  -2.252  1.00  0.00     0.000 C 
BRANCH   6   7
ATOM      7  C   UNL     1       3.937 -19.132  -2.708  1.00  0.00     0.000 C 
BRANCH   7   8
ATOM      8  C   UNL     1       4.417 -20.527  -3.146  1.00  0.00     0.000 C 
BRANCH   8   9
ATOM      9  C   UNL     1       5.235 -20.483  -4.452  1.00  0.00     0.000 C 
BRANCH   9  10
ATOM     10  C   UNL     1       5.236 -21.798  -5.261  1.00  0.00     0.000 C 
BRANCH  10  11
ATOM     11  C   UNL     1       5.362 -21.639  -6.793  1.00  0.00     0.000 C 
BRANCH  11  12
ATOM     12  C   UNL     1       6.801 -21.705  -7.336  1.00  0.00     0.000 C 
BRANCH  12  13
ATOM     13  C   UNL     1       7.197 -20.432  -8.103  1.00  0.00     0.006 C 
BRANCH  13  14
ATOM     14  C   UNL     1       6.018 -19.457  -8.240  1.00  0.00     0.053 C 
BRANCH  14  15
ATOM     15  C   UNL     1       6.435 -18.052  -7.919  1.00  0.00     0.041 C 
ATOM     16  O   UNL     1       6.883 -17.298  -8.824  1.00  0.00    -0.550 OA
ATOM     17  O   UNL     1       6.346 -17.587  -6.613  1.00  0.00    -0.550 OA
ENDBRANCH  14  15
ENDBRANCH  13  14
ENDBRANCH  12  13
ENDBRANCH  11  12
ENDBRANCH  10  11
ENDBRANCH   9  10
ENDBRANCH   8   9
ENDBRANCH   7   8
ENDBRANCH   6   7
ENDBRANCH   5   6
ENDBRANCH   4   5
ENDBRANCH   3   4
ENDBRANCH   2   3
ENDBRANCH   1   2
BRANCH   1  18
ATOM     18  C   UNL     1       1.833 -19.812  -6.845  1.00  0.00     0.000 C 
BRANCH  18  19
ATOM     19  C   UNL     1       2.897 -18.800  -6.388  1.00  0.00     0.000 C 
BRANCH  19  20
ATOM     20  C   UNL     1       2.280 -17.520  -5.802  1.00  0.00     0.000 C 
BRANCH  20  21
ATOM     21  C   UNL     1       3.331 -16.585  -5.187  1.00  0.00     0.000 C 
BRANCH  21  22
ATOM     22  C   UNL     1       2.727 -15.742  -4.055  1.00  0.00     0.000 C 
BRANCH  22  23
ATOM     23  C   UNL     1       1.249 -16.075  -3.780  1.00  0.00     0.000 C 
BRANCH  23  24
ATOM     24  C   UNL     1       0.690 -15.540  -2.447  1.00  0.00    -0.000 C 
BRANCH  24  25
ATOM     25  C   UNL     1       1.723 -15.566  -1.308  1.00  0.00    -0.000 C 
BRANCH  25  26
ATOM     26  C   UNL     1       2.068 -14.161  -0.774  1.00  0.00    -0.000 C 
BRANCH  26  27
ATOM     27  C   UNL     1       3.537 -13.964  -0.354  1.00  0.00    -0.000 C 
BRANCH  27  28
ATOM     28  C   UNL     1       4.433 -15.210  -0.485  1.00  0.00    -0.000 C 
BRANCH  28  29
ATOM     29  C   UNL     1       5.900 -15.008  -0.058  1.00  0.00    -0.000 C 
BRANCH  29  30
ATOM     30  C   UNL     1       6.945 -15.493  -1.077  1.00  0.00    -0.000 C 
BRANCH  30  31
ATOM     31  C   UNL     1       6.365 -16.485  -2.096  1.00  0.00    -0.003 C 
ATOM     32  C   UNL     1       6.635 -16.020  -3.524  1.00  0.00     0.004 C 
ENDBRANCH  30  31
ENDBRANCH  29  30
ENDBRANCH  28  29
ENDBRANCH  27  28
ENDBRANCH  26  27
ENDBRANCH  25  26
ENDBRANCH  24  25
ENDBRANCH  23  24
ENDBRANCH  22  23
ENDBRANCH  21  22
ENDBRANCH  20  21
ENDBRANCH  19  20
ENDBRANCH  18  19
ENDBRANCH   1  18
TORSDOF 28
ENDMDL
MODEL 5
REMARK VINA RESULT:    -4.138      2.501      7.991
REMARK INTER + INTRA:         -16.424
REMARK INTER:                 -10.972
REMARK INTRA:                  -5.452
REMARK UNBOUND:                -5.512
REMARK SMILES CCCCCCCCCCCCCCCCCCCCCCCCCCCCCC(=O)[O-]
REMARK SMILES IDX 16 1 17 2 18 3 19 4 20 5 21 6 22 7 23 8 24 9 25 10 26 11
REMARK SMILES IDX 27 12 28 13 29 14 30 15 31 16 32 17 15 18 14 19 13 20 12 21
REMARK SMILES IDX 11 22 10 23 9 24 8 25 7 26 6 27 5 28 4 29 3 30 2 31 1 32
REMARK H PARENT
REMARK Flexibility Score: inf
ROOT
ATOM      1  C   UNL     1       6.201 -17.333  -5.209  1.00  0.00     0.000 C 
ENDROOT
BRANCH   1   2
ATOM      2  C   UNL     1       5.535 -17.586  -3.844  1.00  0.00     0.000 C 
BRANCH   2   3
ATOM      3  C   UNL     1       5.107 -16.287  -3.144  1.00  0.00     0.000 C 
BRANCH   3   4
ATOM      4  C   UNL     1       5.824 -16.071  -1.803  1.00  0.00     0.000 C 
BRANCH   4   5
ATOM      5  C   UNL     1       4.928 -15.285  -0.831  1.00  0.00     0.000 C 
BRANCH   5   6
ATOM      6  C   UNL     1       3.490 -15.824  -0.763  1.00  0.00     0.000 C 
BRANCH   6   7
ATOM      7  C   UNL     1       2.422 -14.789  -0.361  1.00  0.00     0.000 C 
BRANCH   7   8
ATOM      8  C   UNL     1       1.201 -14.791  -1.297  1.00  0.00     0.000 C 
BRANCH   8   9
ATOM      9  C   UNL     1       1.593 -14.583  -2.773  1.00  0.00     0.000 C 
BRANCH   9  10
ATOM     10  C   UNL     1       0.996 -15.613  -3.755  1.00  0.00     0.000 C 
BRANCH  10  11
ATOM     11  C   UNL     1       1.907 -16.017  -4.936  1.00  0.00     0.000 C 
BRANCH  11  12
ATOM     12  C   UNL     1       1.832 -17.502  -5.337  1.00  0.00     0.000 C 
BRANCH  12  13
ATOM     13  C   UNL     1       2.097 -18.443  -4.150  1.00  0.00     0.006 C 
BRANCH  13  14
ATOM     14  C   UNL     1       0.954 -19.449  -3.952  1.00  0.00     0.053 C 
BRANCH  14  15
ATOM     15  C   UNL     1       1.203 -20.327  -2.760  1.00  0.00     0.041 C 
ATOM     16  O   UNL     1       2.343 -20.363  -2.222  1.00  0.00    -0.550 OA
ATOM     17  O   UNL     1       0.177 -21.119  -2.260  1.00  0.00    -0.550 OA
ENDBRANCH  14  15
ENDBRANCH  13  14
ENDBRANCH  12  13
ENDBRANCH  11  12
ENDBRANCH  10  11
ENDBRANCH   9  10
ENDBRANCH   8   9
ENDBRANCH   7   8
ENDBRANCH   6   7
ENDBRANCH   5   6
ENDBRANCH   4   5
ENDBRANCH   3   4
ENDBRANCH   2   3
ENDBRANCH   1   2
BRANCH   1  18
ATOM     18  C   UNL     1       5.241 -17.564  -6.386  1.00  0.00     0.000 C 
BRANCH  18  19
ATOM     19  C   UNL     1       5.883 -18.374  -7.525  1.00  0.00     0.000 C 
BRANCH  19  20
ATOM     20  C   UNL     1       7.354 -17.994  -7.760  1.00  0.00     0.000 C 
BRANCH  20  21
ATOM     21  C   UNL     1       8.306 -19.188  -7.596  1.00  0.00     0.000 C 
BRANCH  21  22
ATOM     22  C   UNL     1       7.615 -20.503  -7.982  1.00  0.00     0.000 C 
BRANCH  22  23
ATOM     23  C   UNL     1       7.628 -21.545  -6.848  1.00  0.00     0.000 C 
BRANCH  23  24
ATOM     24  C   UNL     1       7.742 -20.968  -5.424  1.00  0.00    -0.000 C 
BRANCH  24  25
ATOM     25  C   UNL     1       6.420 -21.026  -4.643  1.00  0.00    -0.000 C 
BRANCH  25  26
ATOM     26  C   UNL     1       5.333 -21.854  -5.357  1.00  0.00    -0.000 C 
BRANCH  26  27
ATOM     27  C   UNL     1       4.047 -21.080  -5.711  1.00  0.00    -0.000 C 
BRANCH  27  28
ATOM     28  C   UNL     1       3.613 -21.165  -7.187  1.00  0.00    -0.000 C 
BRANCH  28  29
ATOM     29  C   UNL     1       2.366 -20.335  -7.549  1.00  0.00    -0.000 C 
BRANCH  29  30
ATOM     30  C   UNL     1       1.267 -21.109  -8.296  1.00  0.00    -0.000 C 
BRANCH  30  31
ATOM     31  C   UNL     1       0.902 -22.434  -7.610  1.00  0.00    -0.003 C 
ATOM     32  C   UNL     1       0.148 -22.183  -6.308  1.00  0.00     0.004 C 
ENDBRANCH  30  31
ENDBRANCH  29  30
ENDBRANCH  28  29
ENDBRANCH  27  28
ENDBRANCH  26  27
ENDBRANCH  25  26
ENDBRANCH  24  25
ENDBRANCH  23  24
ENDBRANCH  22  23
ENDBRANCH  21  22
ENDBRANCH  20  21
ENDBRANCH  19  20
ENDBRANCH  18  19
ENDBRANCH   1  18
TORSDOF 28
ENDMDL
MODEL 6
REMARK VINA RESULT:    -4.096      1.862      4.189
REMARK INTER + INTRA:         -16.311
REMARK INTER:                 -10.313
REMARK INTRA:                  -5.999
REMARK UNBOUND:                -5.512
REMARK SMILES CCCCCCCCCCCCCCCCCCCCCCCCCCCCCC(=O)[O-]
REMARK SMILES IDX 16 1 17 2 18 3 19 4 20 5 21 6 22 7 23 8 24 9 25 10 26 11
REMARK SMILES IDX 27 12 28 13 29 14 30 15 31 16 32 17 15 18 14 19 13 20 12 21
REMARK SMILES IDX 11 22 10 23 9 24 8 25 7 26 6 27 5 28 4 29 3 30 2 31 1 32
REMARK H PARENT
REMARK Flexibility Score: inf
ROOT
ATOM      1  C   UNL     1       0.498 -22.126  -6.968  1.00  0.00     0.000 C 
ENDROOT
BRANCH   1   2
ATOM      2  C   UNL     1       1.202 -21.003  -7.752  1.00  0.00     0.000 C 
BRANCH   2   3
ATOM      3  C   UNL     1       2.731 -21.160  -7.769  1.00  0.00     0.000 C 
BRANCH   3   4
ATOM      4  C   UNL     1       3.466 -19.855  -7.430  1.00  0.00     0.000 C 
BRANCH   4   5
ATOM      5  C   UNL     1       4.044 -19.914  -6.007  1.00  0.00     0.000 C 
BRANCH   5   6
ATOM      6  C   UNL     1       4.321 -21.348  -5.524  1.00  0.00     0.000 C 
BRANCH   6   7
ATOM      7  C   UNL     1       5.793 -21.794  -5.610  1.00  0.00     0.000 C 
BRANCH   7   8
ATOM      8  C   UNL     1       6.230 -22.152  -7.041  1.00  0.00     0.000 C 
BRANCH   8   9
ATOM      9  C   UNL     1       7.566 -21.489  -7.431  1.00  0.00     0.000 C 
BRANCH   9  10
ATOM     10  C   UNL     1       7.589 -20.854  -8.837  1.00  0.00     0.000 C 
BRANCH  10  11
ATOM     11  C   UNL     1       7.790 -19.322  -8.875  1.00  0.00     0.000 C 
BRANCH  11  12
ATOM     12  C   UNL     1       6.495 -18.495  -8.770  1.00  0.00     0.000 C 
BRANCH  12  13
ATOM     13  C   UNL     1       6.450 -17.636  -7.496  1.00  0.00     0.006 C 
BRANCH  13  14
ATOM     14  C   UNL     1       7.739 -17.769  -6.671  1.00  0.00     0.053 C 
BRANCH  14  15
ATOM     15  C   UNL     1       7.452 -18.296  -5.295  1.00  0.00     0.041 C 
ATOM     16  O   UNL     1       6.515 -17.808  -4.608  1.00  0.00    -0.550 OA
ATOM     17  O   UNL     1       8.238 -19.313  -4.769  1.00  0.00    -0.550 OA
ENDBRANCH  14  15
ENDBRANCH  13  14
ENDBRANCH  12  13
ENDBRANCH  11  12
ENDBRANCH  10  11
ENDBRANCH   9  10
ENDBRANCH   8   9
ENDBRANCH   7   8
ENDBRANCH   6   7
ENDBRANCH   5   6
ENDBRANCH   4   5
ENDBRANCH   3   4
ENDBRANCH   2   3
ENDBRANCH   1   2
BRANCH   1  18
ATOM     18  C   UNL     1       0.473 -21.866  -5.455  1.00  0.00     0.000 C 
BRANCH  18  19
ATOM     19  C   UNL     1       0.569 -20.371  -5.109  1.00  0.00     0.000 C 
BRANCH  19  20
ATOM     20  C   UNL     1       0.538 -20.114  -3.593  1.00  0.00     0.000 C 
BRANCH  20  21
ATOM     21  C   UNL     1       1.911 -20.305  -2.932  1.00  0.00     0.000 C 
BRANCH  21  22
ATOM     22  C   UNL     1       2.351 -19.032  -2.195  1.00  0.00     0.000 C 
BRANCH  22  23
ATOM     23  C   UNL     1       3.791 -18.605  -2.537  1.00  0.00     0.000 C 
BRANCH  23  24
ATOM     24  C   UNL     1       4.253 -17.280  -1.902  1.00  0.00    -0.000 C 
BRANCH  24  25
ATOM     25  C   UNL     1       3.204 -16.666  -0.960  1.00  0.00    -0.000 C 
BRANCH  25  26
ATOM     26  C   UNL     1       3.201 -15.124  -0.984  1.00  0.00    -0.000 C 
BRANCH  26  27
ATOM     27  C   UNL     1       3.139 -14.491  -2.388  1.00  0.00    -0.000 C 
BRANCH  27  28
ATOM     28  C   UNL     1       1.731 -14.082  -2.864  1.00  0.00    -0.000 C 
BRANCH  28  29
ATOM     29  C   UNL     1       1.270 -14.741  -4.178  1.00  0.00    -0.000 C 
BRANCH  29  30
ATOM     30  C   UNL     1       1.304 -16.279  -4.180  1.00  0.00    -0.000 C 
BRANCH  30  31
ATOM     31  C   UNL     1       1.971 -16.858  -5.435  1.00  0.00    -0.003 C 
ATOM     32  C   UNL     1       3.407 -16.362  -5.568  1.00  0.00     0.004 C 
ENDBRANCH  30  31
ENDBRANCH  29  30
ENDBRANCH  28  29
ENDBRANCH  27  28
ENDBRANCH  26  27
ENDBRANCH  25  26
ENDBRANCH  24  25
ENDBRANCH  23  24
ENDBRANCH  22  23
ENDBRANCH  21  22
ENDBRANCH  20  21
ENDBRANCH  19  20
ENDBRANCH  18  19
ENDBRANCH   1  18
TORSDOF 28
ENDMDL
MODEL 7
REMARK VINA RESULT:    -4.067      1.655      3.876
REMARK INTER + INTRA:         -16.235
REMARK INTER:                 -10.302
REMARK INTRA:                  -5.932
REMARK UNBOUND:                -5.512
REMARK SMILES CCCCCCCCCCCCCCCCCCCCCCCCCCCCCC(=O)[O-]
REMARK SMILES IDX 16 1 17 2 18 3 19 4 20 5 21 6 22 7 23 8 24 9 25 10 26 11
REMARK SMILES IDX 27 12 28 13 29 14 30 15 31 16 32 17 15 18 14 19 13 20 12 21
REMARK SMILES IDX 11 22 10 23 9 24 8 25 7 26 6 27 5 28 4 29 3 30 2 31 1 32
REMARK H PARENT
REMARK Flexibility Score: inf
ROOT
ATOM      1  C   UNL     1       0.867 -22.114  -7.518  1.00  0.00     0.000 C 
ENDROOT
BRANCH   1   2
ATOM      2  C   UNL     1       1.711 -21.018  -8.194  1.00  0.00     0.000 C 
BRANCH   2   3
ATOM      3  C   UNL     1       3.138 -20.935  -7.630  1.00  0.00     0.000 C 
BRANCH   3   4
ATOM      4  C   UNL     1       3.512 -19.519  -7.169  1.00  0.00     0.000 C 
BRANCH   4   5
ATOM      5  C   UNL     1       4.058 -19.546  -5.732  1.00  0.00     0.000 C 
BRANCH   5   6
ATOM      6  C   UNL     1       4.516 -20.943  -5.284  1.00  0.00     0.000 C 
BRANCH   6   7
ATOM      7  C   UNL     1       5.384 -20.970  -4.012  1.00  0.00     0.000 C 
BRANCH   7   8
ATOM      8  C   UNL     1       6.849 -21.351  -4.291  1.00  0.00     0.000 C 
BRANCH   8   9
ATOM      9  C   UNL     1       7.447 -20.557  -5.468  1.00  0.00     0.000 C 
BRANCH   9  10
ATOM     10  C   UNL     1       7.909 -21.418  -6.664  1.00  0.00     0.000 C 
BRANCH  10  11
ATOM     11  C   UNL     1       6.994 -21.376  -7.909  1.00  0.00     0.000 C 
BRANCH  11  12
ATOM     12  C   UNL     1       7.712 -21.047  -9.231  1.00  0.00     0.000 C 
BRANCH  12  13
ATOM     13  C   UNL     1       7.688 -19.544  -9.552  1.00  0.00     0.006 C 
BRANCH  13  14
ATOM     14  C   UNL     1       6.514 -18.831  -8.865  1.00  0.00     0.053 C 
BRANCH  14  15
ATOM     15  C   UNL     1       6.996 -17.717  -7.981  1.00  0.00     0.041 C 
ATOM     16  O   UNL     1       8.222 -17.427  -7.933  1.00  0.00    -0.550 OA
ATOM     17  O   UNL     1       6.089 -17.018  -7.195  1.00  0.00    -0.550 OA
ENDBRANCH  14  15
ENDBRANCH  13  14
ENDBRANCH  12  13
ENDBRANCH  11  12
ENDBRANCH  10  11
ENDBRANCH   9  10
ENDBRANCH   8   9
ENDBRANCH   7   8
ENDBRANCH   6   7
ENDBRANCH   5   6
ENDBRANCH   4   5
ENDBRANCH   3   4
ENDBRANCH   2   3
ENDBRANCH   1   2
BRANCH   1  18
ATOM     18  C   UNL     1       1.058 -22.152  -5.994  1.00  0.00     0.000 C 
BRANCH  18  19
ATOM     19  C   UNL     1       0.110 -21.194  -5.254  1.00  0.00     0.000 C 
BRANCH  19  20
ATOM     20  C   UNL     1       0.860 -20.223  -4.328  1.00  0.00     0.000 C 
BRANCH  20  21
ATOM     21  C   UNL     1       0.669 -20.558  -2.841  1.00  0.00     0.000 C 
BRANCH  21  22
ATOM     22  C   UNL     1       1.941 -20.251  -2.038  1.00  0.00     0.000 C 
BRANCH  22  23
ATOM     23  C   UNL     1       2.706 -19.024  -2.567  1.00  0.00     0.000 C 
BRANCH  23  24
ATOM     24  C   UNL     1       2.840 -17.853  -1.574  1.00  0.00    -0.000 C 
BRANCH  24  25
ATOM     25  C   UNL     1       2.030 -16.614  -1.993  1.00  0.00    -0.000 C 
BRANCH  25  26
ATOM     26  C   UNL     1       1.588 -16.654  -3.469  1.00  0.00    -0.000 C 
BRANCH  26  27
ATOM     27  C   UNL     1       2.171 -15.537  -4.357  1.00  0.00    -0.000 C 
BRANCH  27  28
ATOM     28  C   UNL     1       3.488 -15.889  -5.077  1.00  0.00    -0.000 C 
BRANCH  28  29
ATOM     29  C   UNL     1       4.734 -15.143  -4.561  1.00  0.00    -0.000 C 
BRANCH  29  30
ATOM     30  C   UNL     1       5.420 -15.790  -3.347  1.00  0.00    -0.000 C 
BRANCH  30  31
ATOM     31  C   UNL     1       5.857 -17.238  -3.612  1.00  0.00    -0.003 C 
ATOM     32  C   UNL     1       7.357 -17.316  -3.875  1.00  0.00     0.004 C 
ENDBRANCH  30  31
ENDBRANCH  29  30
ENDBRANCH  28  29
ENDBRANCH  27  28
ENDBRANCH  26  27
ENDBRANCH  25  26
ENDBRANCH  24  25
ENDBRANCH  23  24
ENDBRANCH  22  23
ENDBRANCH  21  22
ENDBRANCH  20  21
ENDBRANCH  19  20
ENDBRANCH  18  19
ENDBRANCH   1  18
TORSDOF 28
ENDMDL
MODEL 8
REMARK VINA RESULT:    -4.066      2.998      6.640
REMARK INTER + INTRA:         -16.233
REMARK INTER:                 -10.522
REMARK INTRA:                  -5.710
REMARK UNBOUND:                -5.512
REMARK SMILES CCCCCCCCCCCCCCCCCCCCCCCCCCCCCC(=O)[O-]
REMARK SMILES IDX 16 1 17 2 18 3 19 4 20 5 21 6 22 7 23 8 24 9 25 10 26 11
REMARK SMILES IDX 27 12 28 13 29 14 30 15 31 16 32 17 15 18 14 19 13 20 12 21
REMARK SMILES IDX 11 22 10 23 9 24 8 25 7 26 6 27 5 28 4 29 3 30 2 31 1 32
REMARK H PARENT
REMARK Flexibility Score: inf
ROOT
ATOM      1  C   UNL     1       0.731 -22.131  -6.880  1.00  0.00     0.000 C 
ENDROOT
BRANCH   1   2
ATOM      2  C   UNL     1       0.194 -21.721  -5.496  1.00  0.00     0.000 C 
BRANCH   2   3
ATOM      3  C   UNL     1       0.916 -20.493  -4.920  1.00  0.00     0.000 C 
BRANCH   3   4
ATOM      4  C   UNL     1       0.494 -20.179  -3.477  1.00  0.00     0.000 C 
BRANCH   4   5
ATOM      5  C   UNL     1       1.716 -19.799  -2.627  1.00  0.00     0.000 C 
BRANCH   5   6
ATOM      6  C   UNL     1       3.039 -20.346  -3.189  1.00  0.00     0.000 C 
BRANCH   6   7
ATOM      7  C   UNL     1       4.312 -19.692  -2.619  1.00  0.00     0.000 C 
BRANCH   7   8
ATOM      8  C   UNL     1       4.103 -18.222  -2.215  1.00  0.00     0.000 C 
BRANCH   8   9
ATOM      9  C   UNL     1       4.930 -17.252  -3.082  1.00  0.00     0.000 C 
BRANCH   9  10
ATOM     10  C   UNL     1       4.485 -17.159  -4.557  1.00  0.00     0.000 C 
BRANCH  10  11
ATOM     11  C   UNL     1       3.317 -16.187  -4.841  1.00  0.00     0.000 C 
BRANCH  11  12
ATOM     12  C   UNL     1       1.912 -16.798  -4.685  1.00  0.00     0.000 C 
BRANCH  12  13
ATOM     13  C   UNL     1       1.160 -16.235  -3.469  1.00  0.00     0.006 C 
BRANCH  13  14
ATOM     14  C   UNL     1       1.924 -15.078  -2.809  1.00  0.00     0.053 C 
BRANCH  14  15
ATOM     15  C   UNL     1       1.821 -15.142  -1.312  1.00  0.00     0.041 C 
ATOM     16  O   UNL     1       2.848 -15.345  -0.611  1.00  0.00    -0.550 OA
ATOM     17  O   UNL     1       0.583 -14.997  -0.700  1.00  0.00    -0.550 OA
ENDBRANCH  14  15
ENDBRANCH  13  14
ENDBRANCH  12  13
ENDBRANCH  11  12
ENDBRANCH  10  11
ENDBRANCH   9  10
ENDBRANCH   8   9
ENDBRANCH   7   8
ENDBRANCH   6   7
ENDBRANCH   5   6
ENDBRANCH   4   5
ENDBRANCH   3   4
ENDBRANCH   2   3
ENDBRANCH   1   2
BRANCH   1  18
ATOM     18  C   UNL     1       1.139 -20.924  -7.737  1.00  0.00     0.000 C 
BRANCH  18  19
ATOM     19  C   UNL     1       2.619 -20.966  -8.152  1.00  0.00     0.000 C 
BRANCH  19  20
ATOM     20  C   UNL     1       3.444 -19.844  -7.501  1.00  0.00     0.000 C 
BRANCH  20  21
ATOM     21  C   UNL     1       4.364 -20.360  -6.384  1.00  0.00     0.000 C 
BRANCH  21  22
ATOM     22  C   UNL     1       5.155 -21.592  -6.844  1.00  0.00     0.000 C 
BRANCH  22  23
ATOM     23  C   UNL     1       6.551 -21.688  -6.198  1.00  0.00     0.000 C 
BRANCH  23  24
ATOM     24  C   UNL     1       6.602 -21.370  -4.691  1.00  0.00    -0.000 C 
BRANCH  24  25
ATOM     25  C   UNL     1       8.027 -21.103  -4.181  1.00  0.00    -0.000 C 
BRANCH  25  26
ATOM     26  C   UNL     1       8.726 -19.945  -4.922  1.00  0.00    -0.000 C 
BRANCH  26  27
ATOM     27  C   UNL     1       7.971 -18.601  -4.896  1.00  0.00    -0.000 C 
BRANCH  27  28
ATOM     28  C   UNL     1       7.989 -17.811  -6.218  1.00  0.00    -0.000 C 
BRANCH  28  29
ATOM     29  C   UNL     1       6.823 -18.118  -7.178  1.00  0.00    -0.000 C 
BRANCH  29  30
ATOM     30  C   UNL     1       6.918 -17.433  -8.552  1.00  0.00    -0.000 C 
BRANCH  30  31
ATOM     31  C   UNL     1       6.848 -18.429  -9.719  1.00  0.00    -0.003 C 
ATOM     32  C   UNL     1       7.401 -19.790  -9.309  1.00  0.00     0.004 C 
ENDBRANCH  30  31
ENDBRANCH  29  30
ENDBRANCH  28  29
ENDBRANCH  27  28
ENDBRANCH  26  27
ENDBRANCH  25  26
ENDBRANCH  24  25
ENDBRANCH  23  24
ENDBRANCH  22  23
ENDBRANCH  21  22
ENDBRANCH  20  21
ENDBRANCH  19  20
ENDBRANCH  18  19
ENDBRANCH   1  18
TORSDOF 28
ENDMDL
MODEL 9
REMARK VINA RESULT:    -4.049      1.387      4.135
REMARK INTER + INTRA:         -16.188
REMARK INTER:                 -10.595
REMARK INTRA:                  -5.593
REMARK UNBOUND:                -5.512
REMARK SMILES CCCCCCCCCCCCCCCCCCCCCCCCCCCCCC(=O)[O-]
REMARK SMILES IDX 16 1 17 2 18 3 19 4 20 5 21 6 22 7 23 8 24 9 25 10 26 11
REMARK SMILES IDX 27 12 28 13 29 14 30 15 31 16 32 17 15 18 14 19 13 20 12 21
REMARK SMILES IDX 11 22 10 23 9 24 8 25 7 26 6 27 5 28 4 29 3 30 2 31 1 32
REMARK H PARENT
REMARK Flexibility Score: inf
ROOT
ATOM      1  C   UNL     1       0.471 -21.423  -5.279  1.00  0.00     0.000 C 
ENDROOT
BRANCH   1   2
ATOM      2  C   UNL     1       0.796 -19.939  -5.029  1.00  0.00     0.000 C 
BRANCH   2   3
ATOM      3  C   UNL     1       0.467 -19.493  -3.596  1.00  0.00     0.000 C 
BRANCH   3   4
ATOM      4  C   UNL     1       0.548 -20.644  -2.583  1.00  0.00     0.000 C 
BRANCH   4   5
ATOM      5  C   UNL     1       1.900 -20.628  -1.852  1.00  0.00     0.000 C 
BRANCH   5   6
ATOM      6  C   UNL     1       2.797 -19.448  -2.264  1.00  0.00     0.000 C 
BRANCH   6   7
ATOM      7  C   UNL     1       4.159 -19.841  -2.866  1.00  0.00     0.000 C 
BRANCH   7   8
ATOM      8  C   UNL     1       4.053 -20.969  -3.907  1.00  0.00     0.000 C 
BRANCH   8   9
ATOM      9  C   UNL     1       5.417 -21.321  -4.533  1.00  0.00     0.000 C 
BRANCH   9  10
ATOM     10  C   UNL     1       6.567 -20.360  -4.163  1.00  0.00     0.000 C 
BRANCH  10  11
ATOM     11  C   UNL     1       7.912 -20.623  -4.878  1.00  0.00     0.000 C 
BRANCH  11  12
ATOM     12  C   UNL     1       7.792 -21.259  -6.275  1.00  0.00     0.000 C 
BRANCH  12  13
ATOM     13  C   UNL     1       8.410 -20.379  -7.373  1.00  0.00     0.006 C 
BRANCH  13  14
ATOM     14  C   UNL     1       7.495 -19.203  -7.747  1.00  0.00     0.053 C 
BRANCH  14  15
ATOM     15  C   UNL     1       7.522 -18.942  -9.225  1.00  0.00     0.041 C 
ATOM     16  O   UNL     1       7.450 -19.898 -10.043  1.00  0.00    -0.550 OA
ATOM     17  O   UNL     1       7.649 -17.640  -9.693  1.00  0.00    -0.550 OA
ENDBRANCH  14  15
ENDBRANCH  13  14
ENDBRANCH  12  13
ENDBRANCH  11  12
ENDBRANCH  10  11
ENDBRANCH   9  10
ENDBRANCH   8   9
ENDBRANCH   7   8
ENDBRANCH   6   7
ENDBRANCH   5   6
ENDBRANCH   4   5
ENDBRANCH   3   4
ENDBRANCH   2   3
ENDBRANCH   1   2
BRANCH   1  18
ATOM     18  C   UNL     1       0.926 -21.903  -6.665  1.00  0.00     0.000 C 
BRANCH  18  19
ATOM     19  C   UNL     1       1.681 -20.817  -7.450  1.00  0.00     0.000 C 
BRANCH  19  20
ATOM     20  C   UNL     1       3.194 -21.082  -7.514  1.00  0.00     0.000 C 
BRANCH  20  21
ATOM     21  C   UNL     1       4.022 -19.788  -7.513  1.00  0.00     0.000 C 
BRANCH  21  22
ATOM     22  C   UNL     1       3.383 -18.724  -6.609  1.00  0.00     0.000 C 
BRANCH  22  23
ATOM     23  C   UNL     1       4.420 -17.808  -5.932  1.00  0.00     0.000 C 
BRANCH  23  24
ATOM     24  C   UNL     1       3.838 -16.753  -4.971  1.00  0.00    -0.000 C 
BRANCH  24  25
ATOM     25  C   UNL     1       4.921 -15.937  -4.247  1.00  0.00    -0.000 C 
BRANCH  25  26
ATOM     26  C   UNL     1       5.845 -16.805  -3.369  1.00  0.00    -0.000 C 
BRANCH  26  27
ATOM     27  C   UNL     1       5.650 -16.639  -1.849  1.00  0.00    -0.000 C 
BRANCH  27  28
ATOM     28  C   UNL     1       5.039 -15.295  -1.407  1.00  0.00    -0.000 C 
BRANCH  28  29
ATOM     29  C   UNL     1       3.831 -15.409  -0.456  1.00  0.00    -0.000 C 
BRANCH  29  30
ATOM     30  C   UNL     1       2.605 -16.125  -1.049  1.00  0.00    -0.000 C 
BRANCH  30  31
ATOM     31  C   UNL     1       1.722 -15.193  -1.892  1.00  0.00    -0.003 C 
ATOM     32  C   UNL     1       0.921 -15.985  -2.921  1.00  0.00     0.004 C 
ENDBRANCH  30  31
ENDBRANCH  29  30
ENDBRANCH  28  29
ENDBRANCH  27  28
ENDBRANCH  26  27
ENDBRANCH  25  26
ENDBRANCH  24  25
ENDBRANCH  23  24
ENDBRANCH  22  23
ENDBRANCH  21  22
ENDBRANCH  20  21
ENDBRANCH  19  20
ENDBRANCH  18  19
ENDBRANCH   1  18
TORSDOF 28
ENDMDL
