MODEL 1
REMARK VINA RESULT:    14.061      0.000      0.000
REMARK INTER + INTRA:          24.796
REMARK INTER:                  25.570
REMARK INTRA:                  -0.774
REMARK UNBOUND:                -0.774
REMARK SMILES CCCCCCCCCCCCCCCC(=O)[O-]
REMARK SMILES IDX 9 1 10 2 11 3 12 4 13 5 14 6 15 7 16 8 17 9 18 10 8 11 7 12
REMARK SMILES IDX 6 13 5 14 4 15 3 16 2 17 1 18
REMARK H PARENT
REMARK Flexibility Score: inf
ROOT
ATOM      1  C   UNL     1      -5.762  11.285 -23.763  1.00  0.00     0.000 C 
ENDROOT
BRANCH   1   2
ATOM      2  C   UNL     1      -6.568  12.535 -24.133  1.00  0.00     0.000 C 
BRANCH   2   3
ATOM      3  C   UNL     1      -6.218  13.018 -25.546  1.00  0.00     0.000 C 
BRANCH   3   4
ATOM      4  C   UNL     1      -5.168  14.135 -25.501  1.00  0.00     0.000 C 
BRANCH   4   5
ATOM      5  C   UNL     1      -5.279  15.045 -26.733  1.00  0.00     0.000 C 
BRANCH   5   6
ATOM      6  C   UNL     1      -5.279  16.543 -26.379  1.00  0.00     0.006 C 
BRANCH   6   7
ATOM      7  C   UNL     1      -4.569  16.872 -25.053  1.00  0.00     0.053 C 
BRANCH   7   8
ATOM      8  C   UNL     1      -5.266  17.949 -24.279  1.00  0.00     0.041 C 
ATOM      9  O   UNL     1      -5.347  17.876 -23.024  1.00  0.00    -0.550 OA
ATOM     10  O   UNL     1      -5.796  19.052 -24.938  1.00  0.00    -0.550 OA
ENDBRANCH   7   8
ENDBRANCH   6   7
ENDBRANCH   5   6
ENDBRANCH   4   5
ENDBRANCH   3   4
ENDBRANCH   2   3
ENDBRANCH   1   2
BRANCH   1  11
ATOM     11  C   UNL     1      -5.711  10.297 -24.938  1.00  0.00     0.000 C 
BRANCH  11  12
ATOM     12  C   UNL     1      -4.879   9.040 -24.626  1.00  0.00    -0.000 C 
BRANCH  12  13
ATOM     13  C   UNL     1      -3.395   9.119 -25.037  1.00  0.00    -0.000 C 
BRANCH  13  14
ATOM     14  C   UNL     1      -2.388   8.862 -23.902  1.00  0.00    -0.000 C 
BRANCH  14  15
ATOM     15  C   UNL     1      -0.977   8.539 -24.418  1.00  0.00    -0.000 C 
BRANCH  15  16
ATOM     16  C   UNL     1      -0.595   9.462 -25.581  1.00  0.00    -0.000 C 
BRANCH  16  17
ATOM     17  C   UNL     1       0.556   8.865 -26.400  1.00  0.00    -0.003 C 
ATOM     18  C   UNL     1       0.852   7.431 -25.969  1.00  0.00     0.004 C 
ENDBRANCH  16  17
ENDBRANCH  15  16
ENDBRANCH  14  15
ENDBRANCH  13  14
ENDBRANCH  12  13
ENDBRANCH  11  12
ENDBRANCH   1  11
TORSDOF 14
ENDMDL
MODEL 2
REMARK VINA RESULT:    14.296      3.937      8.362
REMARK INTER + INTRA:          25.222
REMARK INTER:                  25.937
REMARK INTRA:                  -0.715
REMARK UNBOUND:                -0.774
REMARK SMILES CCCCCCCCCCCCCCCC(=O)[O-]
REMARK SMILES IDX 9 1 10 2 11 3 12 4 13 5 14 6 15 7 16 8 17 9 18 10 8 11 7 12
REMARK SMILES IDX 6 13 5 14 4 15 3 16 2 17 1 18
REMARK H PARENT
REMARK Flexibility Score: inf
ROOT
ATOM      1  C   UNL     1      -6.078  11.440 -23.721  1.00  0.00     0.000 C 
ENDROOT
BRANCH   1   2
ATOM      2  C   UNL     1      -5.609  10.616 -24.925  1.00  0.00     0.000 C 
BRANCH   2   3
ATOM      3  C   UNL     1      -5.035   9.266 -24.478  1.00  0.00     0.000 C 
BRANCH   3   4
ATOM      4  C   UNL     1      -3.601   9.082 -24.991  1.00  0.00     0.000 C 
BRANCH   4   5
ATOM      5  C   UNL     1      -2.719   8.409 -23.930  1.00  0.00     0.000 C 
BRANCH   5   6
ATOM      6  C   UNL     1      -1.228   8.764 -24.070  1.00  0.00     0.006 C 
BRANCH   6   7
ATOM      7  C   UNL     1      -0.885   9.523 -25.364  1.00  0.00     0.053 C 
BRANCH   7   8
ATOM      8  C   UNL     1       0.253   8.899 -26.113  1.00  0.00     0.041 C 
ATOM      9  O   UNL     1       0.867   9.557 -26.994  1.00  0.00    -0.550 OA
ATOM     10  O   UNL     1       0.659   7.604 -25.816  1.00  0.00    -0.550 OA
ENDBRANCH   7   8
ENDBRANCH   6   7
ENDBRANCH   5   6
ENDBRANCH   4   5
ENDBRANCH   3   4
ENDBRANCH   2   3
ENDBRANCH   1   2
BRANCH   1  11
ATOM     11  C   UNL     1      -6.648  12.794 -24.169  1.00  0.00     0.000 C 
BRANCH  11  12
ATOM     12  C   UNL     1      -6.213  13.185 -25.592  1.00  0.00    -0.000 C 
BRANCH  12  13
ATOM     13  C   UNL     1      -4.979  14.107 -25.667  1.00  0.00    -0.000 C 
BRANCH  13  14
ATOM     14  C   UNL     1      -5.199  15.434 -26.418  1.00  0.00    -0.000 C 
BRANCH  14  15
ATOM     15  C   UNL     1      -4.736  16.658 -25.613  1.00  0.00    -0.000 C 
BRANCH  15  16
ATOM     16  C   UNL     1      -5.658  17.858 -25.863  1.00  0.00    -0.000 C 
BRANCH  16  17
ATOM     17  C   UNL     1      -5.822  18.698 -24.591  1.00  0.00    -0.003 C 
ATOM     18  C   UNL     1      -5.450  17.894 -23.348  1.00  0.00     0.004 C 
ENDBRANCH  16  17
ENDBRANCH  15  16
ENDBRANCH  14  15
ENDBRANCH  13  14
ENDBRANCH  12  13
ENDBRANCH  11  12
ENDBRANCH   1  11
TORSDOF 14
ENDMDL
MODEL 3
REMARK VINA RESULT:    15.130      1.602      2.743
REMARK INTER + INTRA:          26.739
REMARK INTER:                  27.443
REMARK INTRA:                  -0.704
REMARK UNBOUND:                -0.774
REMARK SMILES CCCCCCCCCCCCCCCC(=O)[O-]
REMARK SMILES IDX 9 1 10 2 11 3 12 4 13 5 14 6 15 7 16 8 17 9 18 10 8 11 7 12
REMARK SMILES IDX 6 13 5 14 4 15 3 16 2 17 1 18
REMARK H PARENT
REMARK Flexibility Score: inf
ROOT
ATOM      1  C   UNL     1      -5.827  11.324 -23.738  1.00  0.00     0.000 C 
ENDROOT
BRANCH   1   2
ATOM      2  C   UNL     1      -6.632  12.559 -24.157  1.00  0.00     0.000 C 
BRANCH   2   3
ATOM      3  C   UNL     1      -6.202  13.050 -25.546  1.00  0.00     0.000 C 
BRANCH   3   4
ATOM      4  C   UNL     1      -5.203  14.209 -25.435  1.00  0.00     0.000 C 
BRANCH   4   5
ATOM      5  C   UNL     1      -5.241  15.091 -26.691  1.00  0.00     0.000 C 
BRANCH   5   6
ATOM      6  C   UNL     1      -5.355  16.592 -26.371  1.00  0.00     0.006 C 
BRANCH   6   7
ATOM      7  C   UNL     1      -4.479  17.048 -25.192  1.00  0.00     0.053 C 
BRANCH   7   8
ATOM      8  C   UNL     1      -5.198  17.982 -24.267  1.00  0.00     0.041 C 
ATOM      9  O   UNL     1      -5.091  17.845 -23.019  1.00  0.00    -0.550 OA
ATOM     10  O   UNL     1      -5.959  19.025 -24.780  1.00  0.00    -0.550 OA
ENDBRANCH   7   8
ENDBRANCH   6   7
ENDBRANCH   5   6
ENDBRANCH   4   5
ENDBRANCH   3   4
ENDBRANCH   2   3
ENDBRANCH   1   2
BRANCH   1  11
ATOM     11  C   UNL     1      -5.760  10.298 -24.879  1.00  0.00     0.000 C 
BRANCH  11  12
ATOM     12  C   UNL     1      -4.907   9.065 -24.527  1.00  0.00    -0.000 C 
BRANCH  12  13
ATOM     13  C   UNL     1      -3.450   9.115 -25.028  1.00  0.00    -0.000 C 
BRANCH  13  14
ATOM     14  C   UNL     1      -2.385   8.763 -23.974  1.00  0.00    -0.000 C 
BRANCH  14  15
ATOM     15  C   UNL     1      -2.739   7.506 -23.164  1.00  0.00    -0.000 C 
BRANCH  15  16
ATOM     16  C   UNL     1      -2.209   7.611 -21.729  1.00  0.00    -0.000 C 
BRANCH  16  17
ATOM     17  C   UNL     1      -3.201   7.003 -20.731  1.00  0.00    -0.003 C 
ATOM     18  C   UNL     1      -2.980   7.557 -19.327  1.00  0.00     0.004 C 
ENDBRANCH  16  17
ENDBRANCH  15  16
ENDBRANCH  14  15
ENDBRANCH  13  14
ENDBRANCH  12  13
ENDBRANCH  11  12
ENDBRANCH   1  11
TORSDOF 14
ENDMDL
MODEL 4
REMARK VINA RESULT:    16.072      4.173      7.787
REMARK INTER + INTRA:          28.452
REMARK INTER:                  29.159
REMARK INTRA:                  -0.707
REMARK UNBOUND:                -0.774
REMARK SMILES CCCCCCCCCCCCCCCC(=O)[O-]
REMARK SMILES IDX 9 1 10 2 11 3 12 4 13 5 14 6 15 7 16 8 17 9 18 10 8 11 7 12
REMARK SMILES IDX 6 13 5 14 4 15 3 16 2 17 1 18
REMARK H PARENT
REMARK Flexibility Score: inf
ROOT
ATOM      1  C   UNL     1      -6.439  12.538 -23.215  1.00  0.00     0.000 C 
ENDROOT
BRANCH   1   2
ATOM      2  C   UNL     1      -6.581  11.952 -24.624  1.00  0.00     0.000 C 
BRANCH   2   3
ATOM      3  C   UNL     1      -6.449  13.046 -25.690  1.00  0.00     0.000 C 
BRANCH   3   4
ATOM      4  C   UNL     1      -5.484  14.148 -25.232  1.00  0.00     0.000 C 
BRANCH   4   5
ATOM      5  C   UNL     1      -5.168  15.116 -26.380  1.00  0.00     0.000 C 
BRANCH   5   6
ATOM      6  C   UNL     1      -4.541  16.437 -25.900  1.00  0.00     0.006 C 
BRANCH   6   7
ATOM      7  C   UNL     1      -5.542  17.599 -25.784  1.00  0.00     0.053 C 
BRANCH   7   8
ATOM      8  C   UNL     1      -5.495  18.268 -24.444  1.00  0.00     0.041 C 
ATOM      9  O   UNL     1      -6.122  19.344 -24.251  1.00  0.00    -0.550 OA
ATOM     10  O   UNL     1      -4.787  17.689 -23.398  1.00  0.00    -0.550 OA
ENDBRANCH   7   8
ENDBRANCH   6   7
ENDBRANCH   5   6
ENDBRANCH   4   5
ENDBRANCH   3   4
ENDBRANCH   2   3
ENDBRANCH   1   2
BRANCH   1  11
ATOM     11  C   UNL     1      -7.646  12.167 -22.341  1.00  0.00     0.000 C 
BRANCH  11  12
ATOM     12  C   UNL     1      -8.276  13.385 -21.641  1.00  0.00    -0.000 C 
BRANCH  12  13
ATOM     13  C   UNL     1      -8.608  13.182 -20.150  1.00  0.00    -0.000 C 
BRANCH  13  14
ATOM     14  C   UNL     1      -8.752  14.476 -19.330  1.00  0.00    -0.000 C 
BRANCH  14  15
ATOM     15  C   UNL     1      -9.099  14.214 -17.856  1.00  0.00    -0.000 C 
BRANCH  15  16
ATOM     16  C   UNL     1      -9.562  15.502 -17.164  1.00  0.00    -0.000 C 
BRANCH  16  17
ATOM     17  C   UNL     1      -9.980  16.558 -18.194  1.00  0.00    -0.003 C 
ATOM     18  C   UNL     1      -9.855  17.966 -17.620  1.00  0.00     0.004 C 
ENDBRANCH  16  17
ENDBRANCH  15  16
ENDBRANCH  14  15
ENDBRANCH  13  14
ENDBRANCH  12  13
ENDBRANCH  11  12
ENDBRANCH   1  11
TORSDOF 14
ENDMDL
MODEL 5
REMARK VINA RESULT:    16.914      4.255      8.527
REMARK INTER + INTRA:          29.984
REMARK INTER:                  30.850
REMARK INTRA:                  -0.866
REMARK UNBOUND:                -0.774
REMARK SMILES CCCCCCCCCCCCCCCC(=O)[O-]
REMARK SMILES IDX 9 1 10 2 11 3 12 4 13 5 14 6 15 7 16 8 17 9 18 10 8 11 7 12
REMARK SMILES IDX 6 13 5 14 4 15 3 16 2 17 1 18
REMARK H PARENT
REMARK Flexibility Score: inf
ROOT
ATOM      1  C   UNL     1      -6.462  12.266 -23.790  1.00  0.00     0.000 C 
ENDROOT
BRANCH   1   2
ATOM      2  C   UNL     1      -5.723  10.935 -23.614  1.00  0.00     0.000 C 
BRANCH   2   3
ATOM      3  C   UNL     1      -5.697  10.142 -24.927  1.00  0.00     0.000 C 
BRANCH   3   4
ATOM      4  C   UNL     1      -4.759   8.933 -24.821  1.00  0.00     0.000 C 
BRANCH   4   5
ATOM      5  C   UNL     1      -3.352   9.363 -24.384  1.00  0.00     0.000 C 
BRANCH   5   6
ATOM      6  C   UNL     1      -2.484   8.188 -23.899  1.00  0.00     0.006 C 
BRANCH   6   7
ATOM      7  C   UNL     1      -3.156   7.318 -22.822  1.00  0.00     0.053 C 
BRANCH   7   8
ATOM      8  C   UNL     1      -2.498   7.451 -21.482  1.00  0.00     0.041 C 
ATOM      9  O   UNL     1      -1.296   7.816 -21.401  1.00  0.00    -0.550 OA
ATOM     10  O   UNL     1      -3.221   7.204 -20.322  1.00  0.00    -0.550 OA
ENDBRANCH   7   8
ENDBRANCH   6   7
ENDBRANCH   5   6
ENDBRANCH   4   5
ENDBRANCH   3   4
ENDBRANCH   2   3
ENDBRANCH   1   2
BRANCH   1  11
ATOM     11  C   UNL     1      -6.299  12.799 -25.221  1.00  0.00     0.000 C 
BRANCH  11  12
ATOM     12  C   UNL     1      -5.529  14.131 -25.280  1.00  0.00    -0.000 C 
BRANCH  12  13
ATOM     13  C   UNL     1      -5.169  14.615 -26.698  1.00  0.00    -0.000 C 
BRANCH  13  14
ATOM     14  C   UNL     1      -4.925  16.130 -26.830  1.00  0.00    -0.000 C 
BRANCH  14  15
ATOM     15  C   UNL     1      -4.925  16.854 -25.475  1.00  0.00    -0.000 C 
BRANCH  15  16
ATOM     16  C   UNL     1      -5.518  18.262 -25.607  1.00  0.00    -0.000 C 
BRANCH  16  17
ATOM     17  C   UNL     1      -6.022  18.775 -24.252  1.00  0.00    -0.003 C 
ATOM     18  C   UNL     1      -5.523  17.894 -23.110  1.00  0.00     0.004 C 
ENDBRANCH  16  17
ENDBRANCH  15  16
ENDBRANCH  14  15
ENDBRANCH  13  14
ENDBRANCH  12  13
ENDBRANCH  11  12
ENDBRANCH   1  11
TORSDOF 14
ENDMDL
