MODEL 1
REMARK VINA RESULT:    -3.876      0.000      0.000
REMARK INTER + INTRA:          -7.186
REMARK INTER:                  -6.594
REMARK INTRA:                  -0.592
REMARK UNBOUND:                -0.592
REMARK SMILES CCCCCCCCCCCCCC(=O)[O-]
REMARK SMILES IDX 8 1 9 2 10 3 11 4 12 5 13 6 14 7 15 8 16 9 7 10 6 11 5 12
REMARK SMILES IDX 4 13 3 14 2 15 1 16
REMARK H PARENT
REMARK Flexibility Score: inf
ROOT
ATOM      1  C   UNL     1      -4.739  18.545  15.013  1.00  0.00     0.000 C 
ENDROOT
BRANCH   1   2
ATOM      2  C   UNL     1      -4.114  18.695  13.615  1.00  0.00     0.000 C 
BRANCH   2   3
ATOM      3  C   UNL     1      -2.664  18.192  13.552  1.00  0.00     0.000 C 
BRANCH   3   4
ATOM      4  C   UNL     1      -2.517  16.850  14.279  1.00  0.00     0.000 C 
BRANCH   4   5
ATOM      5  C   UNL     1      -1.403  16.003  13.652  1.00  0.00     0.006 C 
BRANCH   5   6
ATOM      6  C   UNL     1      -1.979  14.767  12.955  1.00  0.00     0.053 C 
BRANCH   6   7
ATOM      7  C   UNL     1      -2.064  14.992  11.478  1.00  0.00     0.041 C 
ATOM      8  O   UNL     1      -1.689  16.086  10.981  1.00  0.00    -0.550 OA
ATOM      9  O   UNL     1      -2.512  13.975  10.645  1.00  0.00    -0.550 OA
ENDBRANCH   6   7
ENDBRANCH   5   6
ENDBRANCH   4   5
ENDBRANCH   3   4
ENDBRANCH   2   3
ENDBRANCH   1   2
BRANCH   1  10
ATOM     10  C   UNL     1      -6.210  18.996  15.125  1.00  0.00     0.000 C 
BRANCH  10  11
ATOM     11  C   UNL     1      -6.448  20.511  14.986  1.00  0.00    -0.000 C 
BRANCH  11  12
ATOM     12  C   UNL     1      -7.504  20.856  13.923  1.00  0.00    -0.000 C 
BRANCH  12  13
ATOM     13  C   UNL     1      -8.870  21.224  14.531  1.00  0.00    -0.000 C 
BRANCH  13  14
ATOM     14  C   UNL     1      -9.209  22.726  14.521  1.00  0.00    -0.000 C 
BRANCH  14  15
ATOM     15  C   UNL     1      -8.199  23.563  13.722  1.00  0.00    -0.003 C 
ATOM     16  C   UNL     1      -8.604  25.035  13.698  1.00  0.00     0.004 C 
ENDBRANCH  14  15
ENDBRANCH  13  14
ENDBRANCH  12  13
ENDBRANCH  11  12
ENDBRANCH  10  11
ENDBRANCH   1  10
TORSDOF 12
ENDMDL
MODEL 2
REMARK VINA RESULT:    -3.804      1.333      2.149
REMARK INTER + INTRA:          -7.064
REMARK INTER:                  -6.524
REMARK INTRA:                  -0.541
REMARK UNBOUND:                -0.592
REMARK SMILES CCCCCCCCCCCCCC(=O)[O-]
REMARK SMILES IDX 8 1 9 2 10 3 11 4 12 5 13 6 14 7 15 8 16 9 7 10 6 11 5 12
REMARK SMILES IDX 4 13 3 14 2 15 1 16
REMARK H PARENT
REMARK Flexibility Score: inf
ROOT
ATOM      1  C   UNL     1      -3.507  17.274  14.020  1.00  0.00     0.000 C 
ENDROOT
BRANCH   1   2
ATOM      2  C   UNL     1      -2.826  18.267  13.062  1.00  0.00     0.000 C 
BRANCH   2   3
ATOM      3  C   UNL     1      -1.306  18.062  12.972  1.00  0.00     0.000 C 
BRANCH   3   4
ATOM      4  C   UNL     1      -0.949  16.572  13.025  1.00  0.00     0.000 C 
BRANCH   4   5
ATOM      5  C   UNL     1      -1.254  15.885  11.689  1.00  0.00     0.006 C 
BRANCH   5   6
ATOM      6  C   UNL     1      -0.947  14.386  11.760  1.00  0.00     0.053 C 
BRANCH   6   7
ATOM      7  C   UNL     1      -2.075  13.592  11.179  1.00  0.00     0.041 C 
ATOM      8  O   UNL     1      -2.340  12.447  11.628  1.00  0.00    -0.550 OA
ATOM      9  O   UNL     1      -2.864  14.137  10.175  1.00  0.00    -0.550 OA
ENDBRANCH   6   7
ENDBRANCH   5   6
ENDBRANCH   4   5
ENDBRANCH   3   4
ENDBRANCH   2   3
ENDBRANCH   1   2
BRANCH   1  10
ATOM     10  C   UNL     1      -4.463  17.908  15.051  1.00  0.00     0.000 C 
BRANCH  10  11
ATOM     11  C   UNL     1      -4.633  19.434  14.942  1.00  0.00    -0.000 C 
BRANCH  11  12
ATOM     12  C   UNL     1      -5.894  19.841  14.161  1.00  0.00    -0.000 C 
BRANCH  12  13
ATOM     13  C   UNL     1      -6.936  20.561  15.036  1.00  0.00    -0.000 C 
BRANCH  13  14
ATOM     14  C   UNL     1      -7.043  22.081  14.813  1.00  0.00    -0.000 C 
BRANCH  14  15
ATOM     15  C   UNL     1      -8.459  22.531  14.424  1.00  0.00    -0.003 C 
ATOM     16  C   UNL     1      -9.397  21.335  14.288  1.00  0.00     0.004 C 
ENDBRANCH  14  15
ENDBRANCH  13  14
ENDBRANCH  12  13
ENDBRANCH  11  12
ENDBRANCH  10  11
ENDBRANCH   1  10
TORSDOF 12
ENDMDL
MODEL 3
REMARK VINA RESULT:    -3.605      4.378      7.938
REMARK INTER + INTRA:          -6.725
REMARK INTER:                  -5.103
REMARK INTRA:                  -1.622
REMARK UNBOUND:                -0.592
REMARK SMILES CCCCCCCCCCCCCC(=O)[O-]
REMARK SMILES IDX 8 1 9 2 10 3 11 4 12 5 13 6 14 7 15 8 16 9 7 10 6 11 5 12
REMARK SMILES IDX 4 13 3 14 2 15 1 16
REMARK H PARENT
REMARK Flexibility Score: inf
ROOT
ATOM      1  C   UNL     1      -2.515  13.673  10.464  1.00  0.00     0.000 C 
ENDROOT
BRANCH   1   2
ATOM      2  C   UNL     1      -2.154  15.086  10.956  1.00  0.00     0.000 C 
BRANCH   2   3
ATOM      3  C   UNL     1      -0.957  15.095  11.918  1.00  0.00     0.000 C 
BRANCH   3   4
ATOM      4  C   UNL     1      -0.892  16.413  12.701  1.00  0.00     0.000 C 
BRANCH   4   5
ATOM      5  C   UNL     1      -2.034  17.351  12.294  1.00  0.00     0.006 C 
BRANCH   5   6
ATOM      6  C   UNL     1      -2.330  18.367  13.401  1.00  0.00     0.053 C 
BRANCH   6   7
ATOM      7  C   UNL     1      -3.741  18.227  13.877  1.00  0.00     0.041 C 
ATOM      8  O   UNL     1      -4.609  19.077  13.546  1.00  0.00    -0.550 OA
ATOM      9  O   UNL     1      -4.110  17.131  14.646  1.00  0.00    -0.550 OA
ENDBRANCH   6   7
ENDBRANCH   5   6
ENDBRANCH   4   5
ENDBRANCH   3   4
ENDBRANCH   2   3
ENDBRANCH   1   2
BRANCH   1  10
ATOM     10  C   UNL     1      -1.653  12.535  11.050  1.00  0.00     0.000 C 
BRANCH  10  11
ATOM     11  C   UNL     1      -2.416  11.499  11.897  1.00  0.00    -0.000 C 
BRANCH  11  12
ATOM     12  C   UNL     1      -3.932  11.518  11.643  1.00  0.00    -0.000 C 
BRANCH  12  13
ATOM     13  C   UNL     1      -4.734  12.076  12.833  1.00  0.00    -0.000 C 
BRANCH  13  14
ATOM     14  C   UNL     1      -3.937  12.244  14.140  1.00  0.00    -0.000 C 
BRANCH  14  15
ATOM     15  C   UNL     1      -3.464  13.686  14.372  1.00  0.00    -0.003 C 
ATOM     16  C   UNL     1      -2.108  13.713  15.073  1.00  0.00     0.004 C 
ENDBRANCH  14  15
ENDBRANCH  13  14
ENDBRANCH  12  13
ENDBRANCH  11  12
ENDBRANCH  10  11
ENDBRANCH   1  10
TORSDOF 12
ENDMDL
MODEL 4
REMARK VINA RESULT:    -3.583      5.004      9.711
REMARK INTER + INTRA:          -6.688
REMARK INTER:                  -5.131
REMARK INTRA:                  -1.557
REMARK UNBOUND:                -0.592
REMARK SMILES CCCCCCCCCCCCCC(=O)[O-]
REMARK SMILES IDX 8 1 9 2 10 3 11 4 12 5 13 6 14 7 15 8 16 9 7 10 6 11 5 12
REMARK SMILES IDX 4 13 3 14 2 15 1 16
REMARK H PARENT
REMARK Flexibility Score: inf
ROOT
ATOM      1  C   UNL     1      -3.240  12.809  10.985  1.00  0.00     0.000 C 
ENDROOT
BRANCH   1   2
ATOM      2  C   UNL     1      -2.270  13.356  12.048  1.00  0.00     0.000 C 
BRANCH   2   3
ATOM      3  C   UNL     1      -0.933  13.821  11.453  1.00  0.00     0.000 C 
BRANCH   3   4
ATOM      4  C   UNL     1      -0.628  15.269  11.854  1.00  0.00     0.000 C 
BRANCH   4   5
ATOM      5  C   UNL     1      -1.781  16.203  11.467  1.00  0.00     0.006 C 
BRANCH   5   6
ATOM      6  C   UNL     1      -1.767  17.475  12.319  1.00  0.00     0.053 C 
BRANCH   6   7
ATOM      7  C   UNL     1      -2.912  17.471  13.283  1.00  0.00     0.041 C 
ATOM      8  O   UNL     1      -3.067  16.506  14.077  1.00  0.00    -0.550 OA
ATOM      9  O   UNL     1      -3.779  18.554  13.338  1.00  0.00    -0.550 OA
ENDBRANCH   6   7
ENDBRANCH   5   6
ENDBRANCH   4   5
ENDBRANCH   3   4
ENDBRANCH   2   3
ENDBRANCH   1   2
BRANCH   1  10
ATOM     10  C   UNL     1      -4.066  11.581  11.421  1.00  0.00     0.000 C 
BRANCH  10  11
ATOM     11  C   UNL     1      -3.283  10.497  12.185  1.00  0.00    -0.000 C 
BRANCH  11  12
ATOM     12  C   UNL     1      -2.505   9.553  11.254  1.00  0.00    -0.000 C 
BRANCH  12  13
ATOM     13  C   UNL     1      -0.985   9.793  11.288  1.00  0.00    -0.000 C 
BRANCH  13  14
ATOM     14  C   UNL     1      -0.387  10.402  10.007  1.00  0.00    -0.000 C 
BRANCH  14  15
ATOM     15  C   UNL     1      -1.301  10.240   8.783  1.00  0.00    -0.003 C 
ATOM     16  C   UNL     1      -1.408  11.546   8.001  1.00  0.00     0.004 C 
ENDBRANCH  14  15
ENDBRANCH  13  14
ENDBRANCH  12  13
ENDBRANCH  11  12
ENDBRANCH  10  11
ENDBRANCH   1  10
TORSDOF 12
ENDMDL
MODEL 5
REMARK VINA RESULT:    -3.559      4.092      9.250
REMARK INTER + INTRA:          -6.648
REMARK INTER:                  -5.550
REMARK INTRA:                  -1.098
REMARK UNBOUND:                -0.592
REMARK SMILES CCCCCCCCCCCCCC(=O)[O-]
REMARK SMILES IDX 8 1 9 2 10 3 11 4 12 5 13 6 14 7 15 8 16 9 7 10 6 11 5 12
REMARK SMILES IDX 4 13 3 14 2 15 1 16
REMARK H PARENT
REMARK Flexibility Score: inf
ROOT
ATOM      1  C   UNL     1      -2.126  14.285  12.851  1.00  0.00     0.000 C 
ENDROOT
BRANCH   1   2
ATOM      2  C   UNL     1      -1.603  15.027  11.609  1.00  0.00     0.000 C 
BRANCH   2   3
ATOM      3  C   UNL     1      -1.878  16.538  11.656  1.00  0.00     0.000 C 
BRANCH   3   4
ATOM      4  C   UNL     1      -1.034  17.216  12.742  1.00  0.00     0.000 C 
BRANCH   4   5
ATOM      5  C   UNL     1      -1.918  18.022  13.701  1.00  0.00     0.006 C 
BRANCH   5   6
ATOM      6  C   UNL     1      -3.200  18.489  13.006  1.00  0.00     0.053 C 
BRANCH   6   7
ATOM      7  C   UNL     1      -4.346  18.492  13.968  1.00  0.00     0.041 C 
ATOM      8  O   UNL     1      -5.203  19.413  13.928  1.00  0.00    -0.550 OA
ATOM      9  O   UNL     1      -4.494  17.453  14.877  1.00  0.00    -0.550 OA
ENDBRANCH   6   7
ENDBRANCH   5   6
ENDBRANCH   4   5
ENDBRANCH   3   4
ENDBRANCH   2   3
ENDBRANCH   1   2
BRANCH   1  10
ATOM     10  C   UNL     1      -1.284  13.069  13.291  1.00  0.00     0.000 C 
BRANCH  10  11
ATOM     11  C   UNL     1      -0.637  12.266  12.146  1.00  0.00    -0.000 C 
BRANCH  11  12
ATOM     12  C   UNL     1      -1.472  11.045  11.727  1.00  0.00    -0.000 C 
BRANCH  12  13
ATOM     13  C   UNL     1      -2.442  11.349  10.571  1.00  0.00    -0.000 C 
BRANCH  13  14
ATOM     14  C   UNL     1      -1.822  12.089   9.371  1.00  0.00    -0.000 C 
BRANCH  14  15
ATOM     15  C   UNL     1      -1.437  11.148   8.220  1.00  0.00    -0.003 C 
ATOM     16  C   UNL     1       0.066  10.885   8.205  1.00  0.00     0.004 C 
ENDBRANCH  14  15
ENDBRANCH  13  14
ENDBRANCH  12  13
ENDBRANCH  11  12
ENDBRANCH  10  11
ENDBRANCH   1  10
TORSDOF 12
ENDMDL
MODEL 6
REMARK VINA RESULT:    -3.467      4.086      8.258
REMARK INTER + INTRA:          -6.491
REMARK INTER:                  -4.974
REMARK INTRA:                  -1.517
REMARK UNBOUND:                -0.592
REMARK SMILES CCCCCCCCCCCCCC(=O)[O-]
REMARK SMILES IDX 8 1 9 2 10 3 11 4 12 5 13 6 14 7 15 8 16 9 7 10 6 11 5 12
REMARK SMILES IDX 4 13 3 14 2 15 1 16
REMARK H PARENT
REMARK Flexibility Score: inf
ROOT
ATOM      1  C   UNL     1      -0.079  14.086  11.727  1.00  0.00     0.000 C 
ENDROOT
BRANCH   1   2
ATOM      2  C   UNL     1      -0.360  15.583  11.949  1.00  0.00     0.000 C 
BRANCH   2   3
ATOM      3  C   UNL     1      -1.725  16.023  11.398  1.00  0.00     0.000 C 
BRANCH   3   4
ATOM      4  C   UNL     1      -2.134  17.386  11.970  1.00  0.00     0.000 C 
BRANCH   4   5
ATOM      5  C   UNL     1      -2.558  17.261  13.438  1.00  0.00     0.006 C 
BRANCH   5   6
ATOM      6  C   UNL     1      -3.078  18.599  13.974  1.00  0.00     0.053 C 
BRANCH   6   7
ATOM      7  C   UNL     1      -4.537  18.504  14.292  1.00  0.00     0.041 C 
ATOM      8  O   UNL     1      -4.975  17.541  14.975  1.00  0.00    -0.550 OA
ATOM      9  O   UNL     1      -5.406  19.503  13.875  1.00  0.00    -0.550 OA
ENDBRANCH   6   7
ENDBRANCH   5   6
ENDBRANCH   4   5
ENDBRANCH   3   4
ENDBRANCH   2   3
ENDBRANCH   1   2
BRANCH   1  10
ATOM     10  C   UNL     1      -0.306  13.187  12.960  1.00  0.00     0.000 C 
BRANCH  10  11
ATOM     11  C   UNL     1      -1.187  13.795  14.067  1.00  0.00    -0.000 C 
BRANCH  11  12
ATOM     12  C   UNL     1      -2.683  13.497  13.872  1.00  0.00    -0.000 C 
BRANCH  12  13
ATOM     13  C   UNL     1      -2.953  12.050  13.420  1.00  0.00    -0.000 C 
BRANCH  13  14
ATOM     14  C   UNL     1      -3.888  11.906  12.205  1.00  0.00    -0.000 C 
BRANCH  14  15
ATOM     15  C   UNL     1      -3.379  12.654  10.965  1.00  0.00    -0.003 C 
ATOM     16  C   UNL     1      -2.402  11.794  10.167  1.00  0.00     0.004 C 
ENDBRANCH  14  15
ENDBRANCH  13  14
ENDBRANCH  12  13
ENDBRANCH  11  12
ENDBRANCH  10  11
ENDBRANCH   1  10
TORSDOF 12
ENDMDL
MODEL 7
REMARK VINA RESULT:    -3.424      5.503      9.721
REMARK INTER + INTRA:          -6.418
REMARK INTER:                  -5.131
REMARK INTRA:                  -1.287
REMARK UNBOUND:                -0.592
REMARK SMILES CCCCCCCCCCCCCC(=O)[O-]
REMARK SMILES IDX 8 1 9 2 10 3 11 4 12 5 13 6 14 7 15 8 16 9 7 10 6 11 5 12
REMARK SMILES IDX 4 13 3 14 2 15 1 16
REMARK H PARENT
REMARK Flexibility Score: inf
ROOT
ATOM      1  C   UNL     1      -1.241  12.163   9.909  1.00  0.00     0.000 C 
ENDROOT
BRANCH   1   2
ATOM      2  C   UNL     1      -2.501  12.969  10.272  1.00  0.00     0.000 C 
BRANCH   2   3
ATOM      3  C   UNL     1      -2.294  13.888  11.485  1.00  0.00     0.000 C 
BRANCH   3   4
ATOM      4  C   UNL     1      -0.808  14.214  11.679  1.00  0.00     0.000 C 
BRANCH   4   5
ATOM      5  C   UNL     1      -0.611  15.694  12.028  1.00  0.00     0.006 C 
BRANCH   5   6
ATOM      6  C   UNL     1      -1.861  16.510  11.686  1.00  0.00     0.053 C 
BRANCH   6   7
ATOM      7  C   UNL     1      -2.016  17.654  12.637  1.00  0.00     0.041 C 
ATOM      8  O   UNL     1      -1.000  18.201  13.141  1.00  0.00    -0.550 OA
ATOM      9  O   UNL     1      -3.280  18.149  12.930  1.00  0.00    -0.550 OA
ENDBRANCH   6   7
ENDBRANCH   5   6
ENDBRANCH   4   5
ENDBRANCH   3   4
ENDBRANCH   2   3
ENDBRANCH   1   2
BRANCH   1  10
ATOM     10  C   UNL     1      -1.325  11.376   8.585  1.00  0.00     0.000 C 
BRANCH  10  11
ATOM     11  C   UNL     1      -1.386   9.844   8.731  1.00  0.00    -0.000 C 
BRANCH  11  12
ATOM     12  C   UNL     1      -1.331   9.380  10.196  1.00  0.00    -0.000 C 
BRANCH  12  13
ATOM     13  C   UNL     1      -2.698   8.911  10.729  1.00  0.00    -0.000 C 
BRANCH  13  14
ATOM     14  C   UNL     1      -3.202   9.652  11.981  1.00  0.00    -0.000 C 
BRANCH  14  15
ATOM     15  C   UNL     1      -4.539  10.373  11.753  1.00  0.00    -0.003 C 
ATOM     16  C   UNL     1      -4.819  11.376  12.870  1.00  0.00     0.004 C 
ENDBRANCH  14  15
ENDBRANCH  13  14
ENDBRANCH  12  13
ENDBRANCH  11  12
ENDBRANCH  10  11
ENDBRANCH   1  10
TORSDOF 12
ENDMDL
MODEL 8
REMARK VINA RESULT:    -3.422     16.977     18.750
REMARK INTER + INTRA:          -6.414
REMARK INTER:                  -5.375
REMARK INTRA:                  -1.039
REMARK UNBOUND:                -0.592
REMARK SMILES CCCCCCCCCCCCCC(=O)[O-]
REMARK SMILES IDX 8 1 9 2 10 3 11 4 12 5 13 6 14 7 15 8 16 9 7 10 6 11 5 12
REMARK SMILES IDX 4 13 3 14 2 15 1 16
REMARK H PARENT
REMARK Flexibility Score: inf
ROOT
ATOM      1  C   UNL     1     -16.442  10.044   4.043  1.00  0.00     0.000 C 
ENDROOT
BRANCH   1   2
ATOM      2  C   UNL     1     -17.634   9.846   3.089  1.00  0.00     0.000 C 
BRANCH   2   3
ATOM      3  C   UNL     1     -18.602  11.039   3.086  1.00  0.00     0.000 C 
BRANCH   3   4
ATOM      4  C   UNL     1     -18.746  11.626   1.677  1.00  0.00     0.000 C 
BRANCH   4   5
ATOM      5  C   UNL     1     -19.744  12.790   1.666  1.00  0.00     0.006 C 
BRANCH   5   6
ATOM      6  C   UNL     1     -19.048  14.107   1.311  1.00  0.00     0.053 C 
BRANCH   6   7
ATOM      7  C   UNL     1     -19.298  14.461  -0.121  1.00  0.00     0.041 C 
ATOM      8  O   UNL     1     -18.747  15.473  -0.628  1.00  0.00    -0.550 OA
ATOM      9  O   UNL     1     -20.100  13.647  -0.910  1.00  0.00    -0.550 OA
ENDBRANCH   6   7
ENDBRANCH   5   6
ENDBRANCH   4   5
ENDBRANCH   3   4
ENDBRANCH   2   3
ENDBRANCH   1   2
BRANCH   1  10
ATOM     10  C   UNL     1     -16.286  11.471   4.608  1.00  0.00     0.000 C 
BRANCH  10  11
ATOM     11  C   UNL     1     -15.454  11.581   5.900  1.00  0.00    -0.000 C 
BRANCH  11  12
ATOM     12  C   UNL     1     -15.209  10.220   6.571  1.00  0.00    -0.000 C 
BRANCH  12  13
ATOM     13  C   UNL     1     -13.719   9.945   6.844  1.00  0.00    -0.000 C 
BRANCH  13  14
ATOM     14  C   UNL     1     -12.742  10.536   5.811  1.00  0.00    -0.000 C 
BRANCH  14  15
ATOM     15  C   UNL     1     -12.180   9.482   4.846  1.00  0.00    -0.003 C 
ATOM     16  C   UNL     1     -12.876   9.554   3.489  1.00  0.00     0.004 C 
ENDBRANCH  14  15
ENDBRANCH  13  14
ENDBRANCH  12  13
ENDBRANCH  11  12
ENDBRANCH  10  11
ENDBRANCH   1  10
TORSDOF 12
ENDMDL
MODEL 9
REMARK VINA RESULT:    -3.404     16.530     17.424
REMARK INTER + INTRA:          -6.384
REMARK INTER:                  -5.636
REMARK INTRA:                  -0.748
REMARK UNBOUND:                -0.592
REMARK SMILES CCCCCCCCCCCCCC(=O)[O-]
REMARK SMILES IDX 8 1 9 2 10 3 11 4 12 5 13 6 14 7 15 8 16 9 7 10 6 11 5 12
REMARK SMILES IDX 4 13 3 14 2 15 1 16
REMARK H PARENT
REMARK Flexibility Score: inf
ROOT
ATOM      1  C   UNL     1     -17.079  11.815   3.907  1.00  0.00     0.000 C 
ENDROOT
BRANCH   1   2
ATOM      2  C   UNL     1     -15.850  11.181   4.583  1.00  0.00     0.000 C 
BRANCH   2   3
ATOM      3  C   UNL     1     -15.825   9.650   4.459  1.00  0.00     0.000 C 
BRANCH   3   4
ATOM      4  C   UNL     1     -14.680   9.192   3.548  1.00  0.00     0.000 C 
BRANCH   4   5
ATOM      5  C   UNL     1     -13.439  10.072   3.739  1.00  0.00     0.006 C 
BRANCH   5   6
ATOM      6  C   UNL     1     -12.532   9.510   4.837  1.00  0.00     0.053 C 
BRANCH   6   7
ATOM      7  C   UNL     1     -12.584  10.380   6.054  1.00  0.00     0.041 C 
ATOM      8  O   UNL     1     -12.071  11.529   6.033  1.00  0.00    -0.550 OA
ATOM      9  O   UNL     1     -13.241   9.940   7.196  1.00  0.00    -0.550 OA
ENDBRANCH   6   7
ENDBRANCH   5   6
ENDBRANCH   4   5
ENDBRANCH   3   4
ENDBRANCH   2   3
ENDBRANCH   1   2
BRANCH   1  10
ATOM     10  C   UNL     1     -18.131  10.814   3.387  1.00  0.00     0.000 C 
BRANCH  10  11
ATOM     11  C   UNL     1     -18.495  10.953   1.897  1.00  0.00    -0.000 C 
BRANCH  11  12
ATOM     12  C   UNL     1     -19.399  12.164   1.613  1.00  0.00    -0.000 C 
BRANCH  12  13
ATOM     13  C   UNL     1     -19.013  12.913   0.325  1.00  0.00    -0.000 C 
BRANCH  13  14
ATOM     14  C   UNL     1     -19.009  14.449   0.435  1.00  0.00    -0.000 C 
BRANCH  14  15
ATOM     15  C   UNL     1     -19.623  15.139  -0.792  1.00  0.00    -0.003 C 
ATOM     16  C   UNL     1     -19.013  16.522  -1.007  1.00  0.00     0.004 C 
ENDBRANCH  14  15
ENDBRANCH  13  14
ENDBRANCH  12  13
ENDBRANCH  11  12
ENDBRANCH  10  11
ENDBRANCH   1  10
TORSDOF 12
ENDMDL
