MODEL 1
REMARK VINA RESULT:    -4.367      0.000      0.000
REMARK INTER + INTRA:         -13.475
REMARK INTER:                  -9.982
REMARK INTRA:                  -3.493
REMARK UNBOUND:                -3.493
REMARK SMILES CCCCCCCCCCCCCCCCCCCCCCCC(=O)[O-]
REMARK SMILES IDX 13 1 14 2 15 3 16 4 17 5 18 6 19 7 20 8 21 9 22 10 23 11
REMARK SMILES IDX 24 12 25 13 26 14 12 15 11 16 10 17 9 18 8 19 7 20 6 21 5 22
REMARK SMILES IDX 4 23 3 24 2 25 1 26
REMARK H PARENT
REMARK Flexibility Score: inf
ROOT
ATOM      1  C   UNL     1      22.834   6.671  16.777  1.00  0.00     0.000 C 
ENDROOT
BRANCH   1   2
ATOM      2  C   UNL     1      24.119   7.099  16.037  1.00  0.00     0.000 C 
BRANCH   2   3
ATOM      3  C   UNL     1      25.049   5.944  15.623  1.00  0.00     0.000 C 
BRANCH   3   4
ATOM      4  C   UNL     1      26.494   6.359  15.290  1.00  0.00     0.000 C 
BRANCH   4   5
ATOM      5  C   UNL     1      27.187   5.440  14.261  1.00  0.00     0.000 C 
BRANCH   5   6
ATOM      6  C   UNL     1      26.361   4.180  13.949  1.00  0.00     0.000 C 
BRANCH   6   7
ATOM      7  C   UNL     1      26.129   3.988  12.441  1.00  0.00     0.000 C 
BRANCH   7   8
ATOM      8  C   UNL     1      25.134   5.007  11.861  1.00  0.00     0.000 C 
BRANCH   8   9
ATOM      9  C   UNL     1      23.700   4.790  12.393  1.00  0.00     0.000 C 
BRANCH   9  10
ATOM     10  C   UNL     1      22.958   6.100  12.714  1.00  0.00     0.006 C 
BRANCH  10  11
ATOM     11  C   UNL     1      21.427   5.971  12.712  1.00  0.00     0.053 C 
BRANCH  11  12
ATOM     12  C   UNL     1      20.750   7.244  13.118  1.00  0.00     0.041 C 
ATOM     13  O   UNL     1      20.431   7.438  14.321  1.00  0.00    -0.550 OA
ATOM     14  O   UNL     1      20.456   8.213  12.167  1.00  0.00    -0.550 OA
ENDBRANCH  11  12
ENDBRANCH  10  11
ENDBRANCH   9  10
ENDBRANCH   8   9
ENDBRANCH   7   8
ENDBRANCH   6   7
ENDBRANCH   5   6
ENDBRANCH   4   5
ENDBRANCH   3   4
ENDBRANCH   2   3
ENDBRANCH   1   2
BRANCH   1  15
ATOM     15  C   UNL     1      23.056   6.073  18.176  1.00  0.00     0.000 C 
BRANCH  15  16
ATOM     16  C   UNL     1      22.747   4.567  18.237  1.00  0.00     0.000 C 
BRANCH  16  17
ATOM     17  C   UNL     1      23.295   3.907  19.514  1.00  0.00     0.000 C 
BRANCH  17  18
ATOM     18  C   UNL     1      24.589   3.116  19.258  1.00  0.00    -0.000 C 
BRANCH  18  19
ATOM     19  C   UNL     1      24.952   3.047  17.767  1.00  0.00    -0.000 C 
BRANCH  19  20
ATOM     20  C   UNL     1      26.471   3.023  17.524  1.00  0.00    -0.000 C 
BRANCH  20  21
ATOM     21  C   UNL     1      27.268   3.554  18.726  1.00  0.00    -0.000 C 
BRANCH  21  22
ATOM     22  C   UNL     1      28.782   3.338  18.572  1.00  0.00    -0.000 C 
BRANCH  22  23
ATOM     23  C   UNL     1      29.325   4.097  17.354  1.00  0.00    -0.000 C 
BRANCH  23  24
ATOM     24  C   UNL     1      29.641   5.570  17.659  1.00  0.00    -0.000 C 
BRANCH  24  25
ATOM     25  C   UNL     1      30.054   6.384  16.414  1.00  0.00    -0.003 C 
ATOM     26  C   UNL     1      30.738   5.520  15.356  1.00  0.00     0.004 C 
ENDBRANCH  24  25
ENDBRANCH  23  24
ENDBRANCH  22  23
ENDBRANCH  21  22
ENDBRANCH  20  21
ENDBRANCH  19  20
ENDBRANCH  18  19
ENDBRANCH  17  18
ENDBRANCH  16  17
ENDBRANCH  15  16
ENDBRANCH   1  15
TORSDOF 22
ENDMDL
MODEL 2
REMARK VINA RESULT:    -4.280      2.477      3.486
REMARK INTER + INTRA:         -13.278
REMARK INTER:                  -8.991
REMARK INTRA:                  -4.287
REMARK UNBOUND:                -3.493
REMARK SMILES CCCCCCCCCCCCCCCCCCCCCCCC(=O)[O-]
REMARK SMILES IDX 13 1 14 2 15 3 16 4 17 5 18 6 19 7 20 8 21 9 22 10 23 11
REMARK SMILES IDX 24 12 25 13 26 14 12 15 11 16 10 17 9 18 8 19 7 20 6 21 5 22
REMARK SMILES IDX 4 23 3 24 2 25 1 26
REMARK H PARENT
REMARK Flexibility Score: inf
ROOT
ATOM      1  C   UNL     1      22.760   6.773  16.099  1.00  0.00     0.000 C 
ENDROOT
BRANCH   1   2
ATOM      2  C   UNL     1      24.223   7.265  16.115  1.00  0.00     0.000 C 
BRANCH   2   3
ATOM      3  C   UNL     1      25.092   6.764  14.947  1.00  0.00     0.000 C 
BRANCH   3   4
ATOM      4  C   UNL     1      26.329   5.945  15.362  1.00  0.00     0.000 C 
BRANCH   4   5
ATOM      5  C   UNL     1      25.989   4.622  16.082  1.00  0.00     0.000 C 
BRANCH   5   6
ATOM      6  C   UNL     1      25.551   3.517  15.105  1.00  0.00     0.000 C 
BRANCH   6   7
ATOM      7  C   UNL     1      24.149   2.973  15.422  1.00  0.00     0.000 C 
BRANCH   7   8
ATOM      8  C   UNL     1      23.095   3.421  14.396  1.00  0.00     0.000 C 
BRANCH   8   9
ATOM      9  C   UNL     1      23.542   3.145  12.942  1.00  0.00     0.000 C 
BRANCH   9  10
ATOM     10  C   UNL     1      23.623   4.413  12.072  1.00  0.00     0.006 C 
BRANCH  10  11
ATOM     11  C   UNL     1      25.038   4.743  11.573  1.00  0.00     0.053 C 
BRANCH  11  12
ATOM     12  C   UNL     1      25.265   6.218  11.446  1.00  0.00     0.041 C 
ATOM     13  O   UNL     1      24.288   7.013  11.443  1.00  0.00    -0.550 OA
ATOM     14  O   UNL     1      26.556   6.717  11.316  1.00  0.00    -0.550 OA
ENDBRANCH  11  12
ENDBRANCH  10  11
ENDBRANCH   9  10
ENDBRANCH   8   9
ENDBRANCH   7   8
ENDBRANCH   6   7
ENDBRANCH   5   6
ENDBRANCH   4   5
ENDBRANCH   3   4
ENDBRANCH   2   3
ENDBRANCH   1   2
BRANCH   1  15
ATOM     15  C   UNL     1      22.422   5.702  17.151  1.00  0.00     0.000 C 
BRANCH  15  16
ATOM     16  C   UNL     1      23.225   5.870  18.452  1.00  0.00     0.000 C 
BRANCH  16  17
ATOM     17  C   UNL     1      23.758   4.531  18.989  1.00  0.00     0.000 C 
BRANCH  17  18
ATOM     18  C   UNL     1      22.825   3.905  20.040  1.00  0.00    -0.000 C 
BRANCH  18  19
ATOM     19  C   UNL     1      22.953   2.375  20.103  1.00  0.00    -0.000 C 
BRANCH  19  20
ATOM     20  C   UNL     1      23.132   1.735  18.715  1.00  0.00    -0.000 C 
BRANCH  20  21
ATOM     21  C   UNL     1      24.313   0.753  18.667  1.00  0.00    -0.000 C 
BRANCH  21  22
ATOM     22  C   UNL     1      25.363   1.039  19.752  1.00  0.00    -0.000 C 
BRANCH  22  23
ATOM     23  C   UNL     1      26.711   1.422  19.126  1.00  0.00    -0.000 C 
BRANCH  23  24
ATOM     24  C   UNL     1      26.854   0.938  17.673  1.00  0.00    -0.000 C 
BRANCH  24  25
ATOM     25  C   UNL     1      28.083   1.525  16.945  1.00  0.00    -0.003 C 
ATOM     26  C   UNL     1      28.249   0.957  15.536  1.00  0.00     0.004 C 
ENDBRANCH  24  25
ENDBRANCH  23  24
ENDBRANCH  22  23
ENDBRANCH  21  22
ENDBRANCH  20  21
ENDBRANCH  19  20
ENDBRANCH  18  19
ENDBRANCH  17  18
ENDBRANCH  16  17
ENDBRANCH  15  16
ENDBRANCH   1  15
TORSDOF 22
ENDMDL
MODEL 3
REMARK VINA RESULT:    -4.181      3.333      8.351
REMARK INTER + INTRA:         -13.051
REMARK INTER:                  -9.767
REMARK INTRA:                  -3.284
REMARK UNBOUND:                -3.493
REMARK SMILES CCCCCCCCCCCCCCCCCCCCCCCC(=O)[O-]
REMARK SMILES IDX 13 1 14 2 15 3 16 4 17 5 18 6 19 7 20 8 21 9 22 10 23 11
REMARK SMILES IDX 24 12 25 13 26 14 12 15 11 16 10 17 9 18 8 19 7 20 6 21 5 22
REMARK SMILES IDX 4 23 3 24 2 25 1 26
REMARK H PARENT
REMARK Flexibility Score: inf
ROOT
ATOM      1  C   UNL     1      23.536   2.847  14.332  1.00  0.00     0.000 C 
ENDROOT
BRANCH   1   2
ATOM      2  C   UNL     1      23.863   2.308  15.740  1.00  0.00     0.000 C 
BRANCH   2   3
ATOM      3  C   UNL     1      24.013   3.382  16.832  1.00  0.00     0.000 C 
BRANCH   3   4
ATOM      4  C   UNL     1      22.770   4.267  17.048  1.00  0.00     0.000 C 
BRANCH   4   5
ATOM      5  C   UNL     1      23.070   5.600  17.767  1.00  0.00     0.000 C 
BRANCH   5   6
ATOM      6  C   UNL     1      23.071   6.800  16.803  1.00  0.00     0.000 C 
BRANCH   6   7
ATOM      7  C   UNL     1      22.739   6.393  15.358  1.00  0.00     0.000 C 
BRANCH   7   8
ATOM      8  C   UNL     1      23.936   6.559  14.407  1.00  0.00     0.000 C 
BRANCH   8   9
ATOM      9  C   UNL     1      25.199   7.063  15.142  1.00  0.00     0.000 C 
BRANCH   9  10
ATOM     10  C   UNL     1      26.341   6.031  15.179  1.00  0.00     0.006 C 
BRANCH  10  11
ATOM     11  C   UNL     1      27.103   5.890  13.852  1.00  0.00     0.053 C 
BRANCH  11  12
ATOM     12  C   UNL     1      28.137   6.960  13.676  1.00  0.00     0.041 C 
ATOM     13  O   UNL     1      28.908   7.262  14.626  1.00  0.00    -0.550 OA
ATOM     14  O   UNL     1      28.242   7.637  12.467  1.00  0.00    -0.550 OA
ENDBRANCH  11  12
ENDBRANCH  10  11
ENDBRANCH   9  10
ENDBRANCH   8   9
ENDBRANCH   7   8
ENDBRANCH   6   7
ENDBRANCH   5   6
ENDBRANCH   4   5
ENDBRANCH   3   4
ENDBRANCH   2   3
ENDBRANCH   1   2
BRANCH   1  15
ATOM     15  C   UNL     1      24.754   3.063  13.417  1.00  0.00     0.000 C 
BRANCH  15  16
ATOM     16  C   UNL     1      24.371   3.190  11.933  1.00  0.00     0.000 C 
BRANCH  16  17
ATOM     17  C   UNL     1      24.692   4.581  11.361  1.00  0.00     0.000 C 
BRANCH  17  18
ATOM     18  C   UNL     1      23.518   5.174  10.563  1.00  0.00    -0.000 C 
BRANCH  18  19
ATOM     19  C   UNL     1      23.720   6.661  10.237  1.00  0.00    -0.000 C 
BRANCH  19  20
ATOM     20  C   UNL     1      22.434   7.488  10.410  1.00  0.00    -0.000 C 
BRANCH  20  21
ATOM     21  C   UNL     1      21.601   7.036  11.620  1.00  0.00    -0.000 C 
BRANCH  21  22
ATOM     22  C   UNL     1      20.133   6.763  11.257  1.00  0.00    -0.000 C 
BRANCH  22  23
ATOM     23  C   UNL     1      19.760   7.437   9.929  1.00  0.00    -0.000 C 
BRANCH  23  24
ATOM     24  C   UNL     1      18.318   7.136   9.489  1.00  0.00    -0.000 C 
BRANCH  24  25
ATOM     25  C   UNL     1      18.201   6.700   8.013  1.00  0.00    -0.003 C 
ATOM     26  C   UNL     1      18.561   5.228   7.812  1.00  0.00     0.004 C 
ENDBRANCH  24  25
ENDBRANCH  23  24
ENDBRANCH  22  23
ENDBRANCH  21  22
ENDBRANCH  20  21
ENDBRANCH  19  20
ENDBRANCH  18  19
ENDBRANCH  17  18
ENDBRANCH  16  17
ENDBRANCH  15  16
ENDBRANCH   1  15
TORSDOF 22
ENDMDL
MODEL 4
REMARK VINA RESULT:    -4.177      4.121      7.118
REMARK INTER + INTRA:         -13.041
REMARK INTER:                  -9.155
REMARK INTRA:                  -3.886
REMARK UNBOUND:                -3.493
REMARK SMILES CCCCCCCCCCCCCCCCCCCCCCCC(=O)[O-]
REMARK SMILES IDX 13 1 14 2 15 3 16 4 17 5 18 6 19 7 20 8 21 9 22 10 23 11
REMARK SMILES IDX 24 12 25 13 26 14 12 15 11 16 10 17 9 18 8 19 7 20 6 21 5 22
REMARK SMILES IDX 4 23 3 24 2 25 1 26
REMARK H PARENT
REMARK Flexibility Score: inf
ROOT
ATOM      1  C   UNL     1      30.508   2.652  18.027  1.00  0.00     0.000 C 
ENDROOT
BRANCH   1   2
ATOM      2  C   UNL     1      29.574   3.373  19.022  1.00  0.00     0.000 C 
BRANCH   2   3
ATOM      3  C   UNL     1      29.156   4.796  18.610  1.00  0.00     0.000 C 
BRANCH   3   4
ATOM      4  C   UNL     1      30.276   5.850  18.682  1.00  0.00     0.000 C 
BRANCH   4   5
ATOM      5  C   UNL     1      30.850   6.249  17.305  1.00  0.00     0.000 C 
BRANCH   5   6
ATOM      6  C   UNL     1      29.751   6.437  16.244  1.00  0.00     0.000 C 
BRANCH   6   7
ATOM      7  C   UNL     1      29.683   5.264  15.253  1.00  0.00     0.000 C 
BRANCH   7   8
ATOM      8  C   UNL     1      28.240   4.896  14.871  1.00  0.00     0.000 C 
BRANCH   8   9
ATOM      9  C   UNL     1      27.251   6.051  15.148  1.00  0.00     0.000 C 
BRANCH   9  10
ATOM     10  C   UNL     1      25.794   5.714  14.781  1.00  0.00     0.006 C 
BRANCH  10  11
ATOM     11  C   UNL     1      25.244   6.518  13.593  1.00  0.00     0.053 C 
BRANCH  11  12
ATOM     12  C   UNL     1      25.805   6.053  12.284  1.00  0.00     0.041 C 
ATOM     13  O   UNL     1      25.460   4.940  11.805  1.00  0.00    -0.550 OA
ATOM     14  O   UNL     1      26.723   6.839  11.599  1.00  0.00    -0.550 OA
ENDBRANCH  11  12
ENDBRANCH  10  11
ENDBRANCH   9  10
ENDBRANCH   8   9
ENDBRANCH   7   8
ENDBRANCH   6   7
ENDBRANCH   5   6
ENDBRANCH   4   5
ENDBRANCH   3   4
ENDBRANCH   2   3
ENDBRANCH   1   2
BRANCH   1  15
ATOM     15  C   UNL     1      31.932   2.386  18.546  1.00  0.00     0.000 C 
BRANCH  15  16
ATOM     16  C   UNL     1      32.968   3.368  17.972  1.00  0.00     0.000 C 
BRANCH  16  17
ATOM     17  C   UNL     1      34.392   3.078  18.476  1.00  0.00     0.000 C 
BRANCH  17  18
ATOM     18  C   UNL     1      34.965   4.233  19.316  1.00  0.00    -0.000 C 
BRANCH  18  19
ATOM     19  C   UNL     1      33.924   5.326  19.600  1.00  0.00    -0.000 C 
BRANCH  19  20
ATOM     20  C   UNL     1      34.147   6.024  20.953  1.00  0.00    -0.000 C 
BRANCH  20  21
ATOM     21  C   UNL     1      33.226   5.478  22.056  1.00  0.00    -0.000 C 
BRANCH  21  22
ATOM     22  C   UNL     1      32.061   4.647  21.495  1.00  0.00    -0.000 C 
BRANCH  22  23
ATOM     23  C   UNL     1      31.933   3.310  22.237  1.00  0.00    -0.000 C 
BRANCH  23  24
ATOM     24  C   UNL     1      33.294   2.682  22.578  1.00  0.00    -0.000 C 
BRANCH  24  25
ATOM     25  C   UNL     1      33.617   1.419  21.750  1.00  0.00    -0.003 C 
ATOM     26  C   UNL     1      35.121   1.198  21.590  1.00  0.00     0.004 C 
ENDBRANCH  24  25
ENDBRANCH  23  24
ENDBRANCH  22  23
ENDBRANCH  21  22
ENDBRANCH  20  21
ENDBRANCH  19  20
ENDBRANCH  18  19
ENDBRANCH  17  18
ENDBRANCH  16  17
ENDBRANCH  15  16
ENDBRANCH   1  15
TORSDOF 22
ENDMDL
MODEL 5
REMARK VINA RESULT:    -4.154     10.330     13.160
REMARK INTER + INTRA:         -12.990
REMARK INTER:                  -8.430
REMARK INTRA:                  -4.560
REMARK UNBOUND:                -3.493
REMARK SMILES CCCCCCCCCCCCCCCCCCCCCCCC(=O)[O-]
REMARK SMILES IDX 13 1 14 2 15 3 16 4 17 5 18 6 19 7 20 8 21 9 22 10 23 11
REMARK SMILES IDX 24 12 25 13 26 14 12 15 11 16 10 17 9 18 8 19 7 20 6 21 5 22
REMARK SMILES IDX 4 23 3 24 2 25 1 26
REMARK H PARENT
REMARK Flexibility Score: inf
ROOT
ATOM      1  C   UNL     1      30.191  -3.423   8.742  1.00  0.00     0.000 C 
ENDROOT
BRANCH   1   2
ATOM      2  C   UNL     1      28.820  -3.893   8.211  1.00  0.00     0.000 C 
BRANCH   2   3
ATOM      3  C   UNL     1      28.215  -3.017   7.100  1.00  0.00     0.000 C 
BRANCH   3   4
ATOM      4  C   UNL     1      29.184  -1.994   6.479  1.00  0.00     0.000 C 
BRANCH   4   5
ATOM      5  C   UNL     1      29.003  -1.805   4.956  1.00  0.00     0.000 C 
BRANCH   5   6
ATOM      6  C   UNL     1      30.175  -2.389   4.149  1.00  0.00     0.000 C 
BRANCH   6   7
ATOM      7  C   UNL     1      30.259  -3.920   4.256  1.00  0.00     0.000 C 
BRANCH   7   8
ATOM      8  C   UNL     1      31.700  -4.421   4.453  1.00  0.00     0.000 C 
BRANCH   8   9
ATOM      9  C   UNL     1      32.081  -4.527   5.947  1.00  0.00     0.000 C 
BRANCH   9  10
ATOM     10  C   UNL     1      32.963  -3.365   6.440  1.00  0.00     0.006 C 
BRANCH  10  11
ATOM     11  C   UNL     1      33.472  -3.531   7.880  1.00  0.00     0.053 C 
BRANCH  11  12
ATOM     12  C   UNL     1      33.842  -4.950   8.190  1.00  0.00     0.041 C 
ATOM     13  O   UNL     1      33.097  -5.655   8.921  1.00  0.00    -0.550 OA
ATOM     14  O   UNL     1      35.018  -5.491   7.685  1.00  0.00    -0.550 OA
ENDBRANCH  11  12
ENDBRANCH  10  11
ENDBRANCH   9  10
ENDBRANCH   8   9
ENDBRANCH   7   8
ENDBRANCH   6   7
ENDBRANCH   5   6
ENDBRANCH   4   5
ENDBRANCH   3   4
ENDBRANCH   2   3
ENDBRANCH   1   2
BRANCH   1  15
ATOM     15  C   UNL     1      30.273  -3.248  10.269  1.00  0.00     0.000 C 
BRANCH  15  16
ATOM     16  C   UNL     1      30.879  -1.896  10.682  1.00  0.00     0.000 C 
BRANCH  16  17
ATOM     17  C   UNL     1      30.480  -0.757   9.728  1.00  0.00     0.000 C 
BRANCH  17  18
ATOM     18  C   UNL     1      29.279   0.052  10.247  1.00  0.00    -0.000 C 
BRANCH  18  19
ATOM     19  C   UNL     1      27.986  -0.257   9.478  1.00  0.00    -0.000 C 
BRANCH  19  20
ATOM     20  C   UNL     1      26.805  -0.587  10.407  1.00  0.00    -0.000 C 
BRANCH  20  21
ATOM     21  C   UNL     1      26.186  -1.961  10.108  1.00  0.00    -0.000 C 
BRANCH  21  22
ATOM     22  C   UNL     1      26.729  -3.067  11.027  1.00  0.00    -0.000 C 
BRANCH  22  23
ATOM     23  C   UNL     1      27.039  -2.515  12.426  1.00  0.00    -0.000 C 
BRANCH  23  24
ATOM     24  C   UNL     1      28.068  -3.366  13.189  1.00  0.00    -0.000 C 
BRANCH  24  25
ATOM     25  C   UNL     1      29.033  -2.533  14.060  1.00  0.00    -0.003 C 
ATOM     26  C   UNL     1      28.959  -1.040  13.743  1.00  0.00     0.004 C 
ENDBRANCH  24  25
ENDBRANCH  23  24
ENDBRANCH  22  23
ENDBRANCH  21  22
ENDBRANCH  20  21
ENDBRANCH  19  20
ENDBRANCH  18  19
ENDBRANCH  17  18
ENDBRANCH  16  17
ENDBRANCH  15  16
ENDBRANCH   1  15
TORSDOF 22
ENDMDL
MODEL 6
REMARK VINA RESULT:    -4.133      1.765      2.762
REMARK INTER + INTRA:         -12.942
REMARK INTER:                  -9.616
REMARK INTRA:                  -3.326
REMARK UNBOUND:                -3.493
REMARK SMILES CCCCCCCCCCCCCCCCCCCCCCCC(=O)[O-]
REMARK SMILES IDX 13 1 14 2 15 3 16 4 17 5 18 6 19 7 20 8 21 9 22 10 23 11
REMARK SMILES IDX 24 12 25 13 26 14 12 15 11 16 10 17 9 18 8 19 7 20 6 21 5 22
REMARK SMILES IDX 4 23 3 24 2 25 1 26
REMARK H PARENT
REMARK Flexibility Score: inf
ROOT
ATOM      1  C   UNL     1      23.716   4.775  19.067  1.00  0.00     0.000 C 
ENDROOT
BRANCH   1   2
ATOM      2  C   UNL     1      23.012   5.931  18.326  1.00  0.00     0.000 C 
BRANCH   2   3
ATOM      3  C   UNL     1      23.153   5.907  16.794  1.00  0.00     0.000 C 
BRANCH   3   4
ATOM      4  C   UNL     1      23.782   7.172  16.179  1.00  0.00     0.000 C 
BRANCH   4   5
ATOM      5  C   UNL     1      25.233   6.972  15.688  1.00  0.00     0.000 C 
BRANCH   5   6
ATOM      6  C   UNL     1      25.320   6.821  14.159  1.00  0.00     0.000 C 
BRANCH   6   7
ATOM      7  C   UNL     1      25.042   5.382  13.694  1.00  0.00     0.000 C 
BRANCH   7   8
ATOM      8  C   UNL     1      23.648   5.222  13.065  1.00  0.00     0.000 C 
BRANCH   8   9
ATOM      9  C   UNL     1      23.090   6.563  12.537  1.00  0.00     0.000 C 
BRANCH   9  10
ATOM     10  C   UNL     1      23.379   6.802  11.043  1.00  0.00     0.006 C 
BRANCH  10  11
ATOM     11  C   UNL     1      22.345   7.696  10.340  1.00  0.00     0.053 C 
BRANCH  11  12
ATOM     12  C   UNL     1      21.025   7.009  10.167  1.00  0.00     0.041 C 
ATOM     13  O   UNL     1      19.958   7.677  10.148  1.00  0.00    -0.550 OA
ATOM     14  O   UNL     1      20.970   5.626  10.042  1.00  0.00    -0.550 OA
ENDBRANCH  11  12
ENDBRANCH  10  11
ENDBRANCH   9  10
ENDBRANCH   8   9
ENDBRANCH   7   8
ENDBRANCH   6   7
ENDBRANCH   5   6
ENDBRANCH   4   5
ENDBRANCH   3   4
ENDBRANCH   2   3
ENDBRANCH   1   2
BRANCH   1  15
ATOM     15  C   UNL     1      22.814   3.577  19.411  1.00  0.00     0.000 C 
BRANCH  15  16
ATOM     16  C   UNL     1      22.975   3.109  20.868  1.00  0.00     0.000 C 
BRANCH  16  17
ATOM     17  C   UNL     1      23.537   1.681  20.967  1.00  0.00     0.000 C 
BRANCH  17  18
ATOM     18  C   UNL     1      24.182   1.211  19.652  1.00  0.00    -0.000 C 
BRANCH  18  19
ATOM     19  C   UNL     1      25.713   1.124  19.745  1.00  0.00    -0.000 C 
BRANCH  19  20
ATOM     20  C   UNL     1      26.412   1.487  18.424  1.00  0.00    -0.000 C 
BRANCH  20  21
ATOM     21  C   UNL     1      25.439   1.526  17.234  1.00  0.00    -0.000 C 
BRANCH  21  22
ATOM     22  C   UNL     1      25.491   2.859  16.472  1.00  0.00    -0.000 C 
BRANCH  22  23
ATOM     23  C   UNL     1      26.553   3.793  17.069  1.00  0.00    -0.000 C 
BRANCH  23  24
ATOM     24  C   UNL     1      27.610   4.231  16.041  1.00  0.00    -0.000 C 
BRANCH  24  25
ATOM     25  C   UNL     1      28.752   5.073  16.650  1.00  0.00    -0.003 C 
ATOM     26  C   UNL     1      29.076   6.307  15.809  1.00  0.00     0.004 C 
ENDBRANCH  24  25
ENDBRANCH  23  24
ENDBRANCH  22  23
ENDBRANCH  21  22
ENDBRANCH  20  21
ENDBRANCH  19  20
ENDBRANCH  18  19
ENDBRANCH  17  18
ENDBRANCH  16  17
ENDBRANCH  15  16
ENDBRANCH   1  15
TORSDOF 22
ENDMDL
MODEL 7
REMARK VINA RESULT:    -4.128      3.211      4.477
REMARK INTER + INTRA:         -12.930
REMARK INTER:                  -8.975
REMARK INTRA:                  -3.956
REMARK UNBOUND:                -3.493
REMARK SMILES CCCCCCCCCCCCCCCCCCCCCCCC(=O)[O-]
REMARK SMILES IDX 13 1 14 2 15 3 16 4 17 5 18 6 19 7 20 8 21 9 22 10 23 11
REMARK SMILES IDX 24 12 25 13 26 14 12 15 11 16 10 17 9 18 8 19 7 20 6 21 5 22
REMARK SMILES IDX 4 23 3 24 2 25 1 26
REMARK H PARENT
REMARK Flexibility Score: inf
ROOT
ATOM      1  C   UNL     1      22.467   3.382  18.760  1.00  0.00     0.000 C 
ENDROOT
BRANCH   1   2
ATOM      2  C   UNL     1      23.045   4.564  19.566  1.00  0.00     0.000 C 
BRANCH   2   3
ATOM      3  C   UNL     1      23.120   5.899  18.803  1.00  0.00     0.000 C 
BRANCH   3   4
ATOM      4  C   UNL     1      23.082   5.774  17.268  1.00  0.00     0.000 C 
BRANCH   4   5
ATOM      5  C   UNL     1      23.406   7.089  16.526  1.00  0.00     0.000 C 
BRANCH   5   6
ATOM      6  C   UNL     1      24.651   6.966  15.630  1.00  0.00     0.000 C 
BRANCH   6   7
ATOM      7  C   UNL     1      25.211   5.535  15.593  1.00  0.00     0.000 C 
BRANCH   7   8
ATOM      8  C   UNL     1      25.119   4.900  14.195  1.00  0.00     0.000 C 
BRANCH   8   9
ATOM      9  C   UNL     1      24.799   3.390  14.260  1.00  0.00     0.000 C 
BRANCH   9  10
ATOM     10  C   UNL     1      24.704   2.843  15.697  1.00  0.00     0.006 C 
BRANCH  10  11
ATOM     11  C   UNL     1      24.674   1.309  15.784  1.00  0.00     0.053 C 
BRANCH  11  12
ATOM     12  C   UNL     1      25.876   0.682  15.147  1.00  0.00     0.041 C 
ATOM     13  O   UNL     1      27.017   0.831  15.659  1.00  0.00    -0.550 OA
ATOM     14  O   UNL     1      25.741  -0.056  13.977  1.00  0.00    -0.550 OA
ENDBRANCH  11  12
ENDBRANCH  10  11
ENDBRANCH   9  10
ENDBRANCH   8   9
ENDBRANCH   7   8
ENDBRANCH   6   7
ENDBRANCH   5   6
ENDBRANCH   4   5
ENDBRANCH   3   4
ENDBRANCH   2   3
ENDBRANCH   1   2
BRANCH   1  15
ATOM     15  C   UNL     1      23.115   2.017  19.051  1.00  0.00     0.000 C 
BRANCH  15  16
ATOM     16  C   UNL     1      24.382   2.131  19.917  1.00  0.00     0.000 C 
BRANCH  16  17
ATOM     17  C   UNL     1      25.437   1.072  19.555  1.00  0.00     0.000 C 
BRANCH  17  18
ATOM     18  C   UNL     1      26.736   1.695  19.016  1.00  0.00    -0.000 C 
BRANCH  18  19
ATOM     19  C   UNL     1      26.600   3.202  18.754  1.00  0.00    -0.000 C 
BRANCH  19  20
ATOM     20  C   UNL     1      27.632   3.725  17.740  1.00  0.00    -0.000 C 
BRANCH  20  21
ATOM     21  C   UNL     1      29.055   3.224  18.036  1.00  0.00    -0.000 C 
BRANCH  21  22
ATOM     22  C   UNL     1      29.858   4.206  18.904  1.00  0.00    -0.000 C 
BRANCH  22  23
ATOM     23  C   UNL     1      30.945   4.907  18.079  1.00  0.00    -0.000 C 
BRANCH  23  24
ATOM     24  C   UNL     1      30.450   6.203  17.415  1.00  0.00    -0.000 C 
BRANCH  24  25
ATOM     25  C   UNL     1      30.193   6.060  15.899  1.00  0.00    -0.003 C 
ATOM     26  C   UNL     1      28.779   6.488  15.507  1.00  0.00     0.004 C 
ENDBRANCH  24  25
ENDBRANCH  23  24
ENDBRANCH  22  23
ENDBRANCH  21  22
ENDBRANCH  20  21
ENDBRANCH  19  20
ENDBRANCH  18  19
ENDBRANCH  17  18
ENDBRANCH  16  17
ENDBRANCH  15  16
ENDBRANCH   1  15
TORSDOF 22
ENDMDL
MODEL 8
REMARK VINA RESULT:    -4.112      2.850      5.992
REMARK INTER + INTRA:         -12.893
REMARK INTER:                  -8.836
REMARK INTRA:                  -4.057
REMARK UNBOUND:                -3.493
REMARK SMILES CCCCCCCCCCCCCCCCCCCCCCCC(=O)[O-]
REMARK SMILES IDX 13 1 14 2 15 3 16 4 17 5 18 6 19 7 20 8 21 9 22 10 23 11
REMARK SMILES IDX 24 12 25 13 26 14 12 15 11 16 10 17 9 18 8 19 7 20 6 21 5 22
REMARK SMILES IDX 4 23 3 24 2 25 1 26
REMARK H PARENT
REMARK Flexibility Score: inf
ROOT
ATOM      1  C   UNL     1      27.884   1.607  18.018  1.00  0.00     0.000 C 
ENDROOT
BRANCH   1   2
ATOM      2  C   UNL     1      26.780   0.585  18.359  1.00  0.00     0.000 C 
BRANCH   2   3
ATOM      3  C   UNL     1      25.771   1.046  19.426  1.00  0.00     0.000 C 
BRANCH   3   4
ATOM      4  C   UNL     1      24.407   1.503  18.877  1.00  0.00     0.000 C 
BRANCH   4   5
ATOM      5  C   UNL     1      23.934   2.864  19.434  1.00  0.00     0.000 C 
BRANCH   5   6
ATOM      6  C   UNL     1      24.612   4.054  18.731  1.00  0.00     0.000 C 
BRANCH   6   7
ATOM      7  C   UNL     1      23.714   4.693  17.659  1.00  0.00     0.000 C 
BRANCH   7   8
ATOM      8  C   UNL     1      24.393   4.761  16.282  1.00  0.00     0.000 C 
BRANCH   8   9
ATOM      9  C   UNL     1      25.692   3.925  16.231  1.00  0.00     0.000 C 
BRANCH   9  10
ATOM     10  C   UNL     1      26.943   4.753  15.882  1.00  0.00     0.006 C 
BRANCH  10  11
ATOM     11  C   UNL     1      27.160   4.957  14.374  1.00  0.00     0.053 C 
BRANCH  11  12
ATOM     12  C   UNL     1      27.379   6.396  14.022  1.00  0.00     0.041 C 
ATOM     13  O   UNL     1      28.504   6.931  14.206  1.00  0.00    -0.550 OA
ATOM     14  O   UNL     1      26.336   7.155  13.505  1.00  0.00    -0.550 OA
ENDBRANCH  11  12
ENDBRANCH  10  11
ENDBRANCH   9  10
ENDBRANCH   8   9
ENDBRANCH   7   8
ENDBRANCH   6   7
ENDBRANCH   5   6
ENDBRANCH   4   5
ENDBRANCH   3   4
ENDBRANCH   2   3
ENDBRANCH   1   2
BRANCH   1  15
ATOM     15  C   UNL     1      27.979   2.808  18.976  1.00  0.00     0.000 C 
BRANCH  15  16
ATOM     16  C   UNL     1      29.352   3.499  18.931  1.00  0.00     0.000 C 
BRANCH  16  17
ATOM     17  C   UNL     1      29.240   5.009  18.661  1.00  0.00     0.000 C 
BRANCH  17  18
ATOM     18  C   UNL     1      30.612   5.671  18.444  1.00  0.00    -0.000 C 
BRANCH  18  19
ATOM     19  C   UNL     1      30.827   6.114  16.989  1.00  0.00    -0.000 C 
BRANCH  19  20
ATOM     20  C   UNL     1      32.197   5.686  16.434  1.00  0.00    -0.000 C 
BRANCH  20  21
ATOM     21  C   UNL     1      32.097   4.479  15.488  1.00  0.00    -0.000 C 
BRANCH  21  22
ATOM     22  C   UNL     1      30.643   4.060  15.215  1.00  0.00    -0.000 C 
BRANCH  22  23
ATOM     23  C   UNL     1      30.438   2.566  15.501  1.00  0.00    -0.000 C 
BRANCH  23  24
ATOM     24  C   UNL     1      31.428   2.015  16.541  1.00  0.00    -0.000 C 
BRANCH  24  25
ATOM     25  C   UNL     1      31.302   0.493  16.766  1.00  0.00    -0.003 C 
ATOM     26  C   UNL     1      30.239  -0.141  15.869  1.00  0.00     0.004 C 
ENDBRANCH  24  25
ENDBRANCH  23  24
ENDBRANCH  22  23
ENDBRANCH  21  22
ENDBRANCH  20  21
ENDBRANCH  19  20
ENDBRANCH  18  19
ENDBRANCH  17  18
ENDBRANCH  16  17
ENDBRANCH  15  16
ENDBRANCH   1  15
TORSDOF 22
ENDMDL
MODEL 9
REMARK VINA RESULT:    -4.111      4.137      7.558
REMARK INTER + INTRA:         -12.890
REMARK INTER:                  -8.863
REMARK INTRA:                  -4.028
REMARK UNBOUND:                -3.493
REMARK SMILES CCCCCCCCCCCCCCCCCCCCCCCC(=O)[O-]
REMARK SMILES IDX 13 1 14 2 15 3 16 4 17 5 18 6 19 7 20 8 21 9 22 10 23 11
REMARK SMILES IDX 24 12 25 13 26 14 12 15 11 16 10 17 9 18 8 19 7 20 6 21 5 22
REMARK SMILES IDX 4 23 3 24 2 25 1 26
REMARK H PARENT
REMARK Flexibility Score: inf
ROOT
ATOM      1  C   UNL     1      26.402   3.857  15.757  1.00  0.00     0.000 C 
ENDROOT
BRANCH   1   2
ATOM      2  C   UNL     1      25.774   2.537  15.263  1.00  0.00     0.000 C 
BRANCH   2   3
ATOM      3  C   UNL     1      25.492   1.497  16.362  1.00  0.00     0.000 C 
BRANCH   3   4
ATOM      4  C   UNL     1      26.466   0.304  16.394  1.00  0.00     0.000 C 
BRANCH   4   5
ATOM      5  C   UNL     1      27.671   0.506  17.339  1.00  0.00     0.000 C 
BRANCH   5   6
ATOM      6  C   UNL     1      28.888   1.111  16.616  1.00  0.00     0.000 C 
BRANCH   6   7
ATOM      7  C   UNL     1      29.523   2.269  17.402  1.00  0.00     0.000 C 
BRANCH   7   8
ATOM      8  C   UNL     1      28.707   2.657  18.647  1.00  0.00     0.000 C 
BRANCH   8   9
ATOM      9  C   UNL     1      28.410   4.173  18.700  1.00  0.00     0.000 C 
BRANCH   9  10
ATOM     10  C   UNL     1      29.326   5.011  17.788  1.00  0.00     0.006 C 
BRANCH  10  11
ATOM     11  C   UNL     1      30.244   5.984  18.544  1.00  0.00     0.053 C 
BRANCH  11  12
ATOM     12  C   UNL     1      31.461   5.303  19.093  1.00  0.00     0.041 C 
ATOM     13  O   UNL     1      31.744   5.398  20.316  1.00  0.00    -0.550 OA
ATOM     14  O   UNL     1      32.293   4.576  18.251  1.00  0.00    -0.550 OA
ENDBRANCH  11  12
ENDBRANCH  10  11
ENDBRANCH   9  10
ENDBRANCH   8   9
ENDBRANCH   7   8
ENDBRANCH   6   7
ENDBRANCH   5   6
ENDBRANCH   4   5
ENDBRANCH   3   4
ENDBRANCH   2   3
ENDBRANCH   1   2
BRANCH   1  15
ATOM     15  C   UNL     1      27.493   4.441  14.842  1.00  0.00     0.000 C 
BRANCH  15  16
ATOM     16  C   UNL     1      27.182   5.875  14.383  1.00  0.00     0.000 C 
BRANCH  16  17
ATOM     17  C   UNL     1      26.153   6.571  15.289  1.00  0.00     0.000 C 
BRANCH  17  18
ATOM     18  C   UNL     1      24.861   6.938  14.538  1.00  0.00    -0.000 C 
BRANCH  18  19
ATOM     19  C   UNL     1      23.616   6.282  15.154  1.00  0.00    -0.000 C 
BRANCH  19  20
ATOM     20  C   UNL     1      23.160   6.972  16.451  1.00  0.00    -0.000 C 
BRANCH  20  21
ATOM     21  C   UNL     1      23.257   6.048  17.676  1.00  0.00    -0.000 C 
BRANCH  21  22
ATOM     22  C   UNL     1      23.038   4.569  17.318  1.00  0.00    -0.000 C 
BRANCH  22  23
ATOM     23  C   UNL     1      22.856   3.718  18.582  1.00  0.00    -0.000 C 
BRANCH  23  24
ATOM     24  C   UNL     1      24.186   3.402  19.287  1.00  0.00    -0.000 C 
BRANCH  24  25
ATOM     25  C   UNL     1      24.100   2.207  20.262  1.00  0.00    -0.003 C 
ATOM     26  C   UNL     1      25.135   1.127  19.949  1.00  0.00     0.004 C 
ENDBRANCH  24  25
ENDBRANCH  23  24
ENDBRANCH  22  23
ENDBRANCH  21  22
ENDBRANCH  20  21
ENDBRANCH  19  20
ENDBRANCH  18  19
ENDBRANCH  17  18
ENDBRANCH  16  17
ENDBRANCH  15  16
ENDBRANCH   1  15
TORSDOF 22
ENDMDL
