MODEL 1
REMARK VINA RESULT:    -3.950      0.000      0.000
REMARK INTER + INTRA:          -4.771
REMARK INTER:                  -4.642
REMARK INTRA:                  -0.128
REMARK UNBOUND:                -0.128
REMARK SMILES O=C([O-])C=Cc1ccc(O)c(O)c1
REMARK SMILES IDX 6 1 13 2 7 3 11 4 8 5 9 6 5 7 4 8 2 9 1 10 3 11 12 12 10 14
REMARK H PARENT 12 13 10 15
REMARK Flexibility Score: inf
ROOT
ATOM      1  C   UNL     1      73.969  40.413  21.485  1.00  0.00    -0.022 A 
ATOM      2  C   UNL     1      74.455  40.255  22.799  1.00  0.00     0.058 A 
ATOM      3  C   UNL     1      74.428  41.496  20.719  1.00  0.00     0.012 A 
ATOM      4  C   UNL     1      75.399  41.151  23.323  1.00  0.00     0.157 A 
ATOM      5  C   UNL     1      75.369  42.388  21.240  1.00  0.00     0.051 A 
ATOM      6  C   UNL     1      75.860  42.220  22.536  1.00  0.00     0.157 A 
ENDROOT
BRANCH   1   7
ATOM      7  C   UNL     1      72.964  39.498  20.891  1.00  0.00     0.010 C 
ATOM      8  C   UNL     1      73.277  38.404  20.183  1.00  0.00     0.025 C 
BRANCH   8   9
ATOM      9  C   UNL     1      72.245  37.531  19.603  1.00  0.00     0.064 C 
ATOM     10  O   UNL     1      71.031  37.841  19.721  1.00  0.00    -0.545 OA
ATOM     11  O   UNL     1      72.588  36.368  18.923  1.00  0.00    -0.545 OA
ENDBRANCH   8   9
ENDBRANCH   1   7
BRANCH   4  12
ATOM     12  O   UNL     1      75.875  40.986  24.623  1.00  0.00    -0.504 OA
ATOM     13  H   UNL     1      76.340  41.736  25.119  1.00  0.00     0.293 HD
ENDBRANCH   4  12
BRANCH   6  14
ATOM     14  O   UNL     1      76.800  43.125  23.029  1.00  0.00    -0.504 OA
ATOM     15  H   UNL     1      77.796  42.991  22.900  1.00  0.00     0.293 HD
ENDBRANCH   6  14
TORSDOF 4
ENDMDL
MODEL 2
REMARK VINA RESULT:    -3.948      3.407      4.743
REMARK INTER + INTRA:          -4.769
REMARK INTER:                  -4.636
REMARK INTRA:                  -0.133
REMARK UNBOUND:                -0.128
REMARK SMILES O=C([O-])C=Cc1ccc(O)c(O)c1
REMARK SMILES IDX 6 1 13 2 7 3 11 4 8 5 9 6 5 7 4 8 2 9 1 10 3 11 12 12 10 14
REMARK H PARENT 12 13 10 15
REMARK Flexibility Score: inf
ROOT
ATOM      1  C   UNL     1      73.055  40.823  21.621  1.00  0.00    -0.022 A 
ATOM      2  C   UNL     1      74.368  41.328  21.528  1.00  0.00     0.058 A 
ATOM      3  C   UNL     1      72.681  39.751  20.797  1.00  0.00     0.012 A 
ATOM      4  C   UNL     1      75.292  40.752  20.643  1.00  0.00     0.157 A 
ATOM      5  C   UNL     1      73.602  39.176  19.916  1.00  0.00     0.051 A 
ATOM      6  C   UNL     1      74.906  39.668  19.837  1.00  0.00     0.157 A 
ENDROOT
BRANCH   1   7
ATOM      7  C   UNL     1      72.040  41.404  22.533  1.00  0.00     0.010 C 
ATOM      8  C   UNL     1      71.020  42.171  22.122  1.00  0.00     0.025 C 
BRANCH   8   9
ATOM      9  C   UNL     1      70.042  42.735  23.065  1.00  0.00     0.064 C 
ATOM     10  O   UNL     1      70.416  43.079  24.217  1.00  0.00    -0.545 OA
ATOM     11  O   UNL     1      68.709  42.897  22.705  1.00  0.00    -0.545 OA
ENDBRANCH   8   9
ENDBRANCH   1   7
BRANCH   4  12
ATOM     12  O   UNL     1      76.589  41.257  20.559  1.00  0.00    -0.504 OA
ATOM     13  H   UNL     1      77.318  40.960  21.196  1.00  0.00     0.293 HD
ENDBRANCH   4  12
BRANCH   6  14
ATOM     14  O   UNL     1      75.804  39.073  18.950  1.00  0.00    -0.504 OA
ATOM     15  H   UNL     1      75.497  38.596  18.111  1.00  0.00     0.293 HD
ENDBRANCH   6  14
TORSDOF 4
ENDMDL
MODEL 3
REMARK VINA RESULT:    -3.563      3.294      4.897
REMARK INTER + INTRA:          -4.316
REMARK INTER:                  -4.193
REMARK INTRA:                  -0.123
REMARK UNBOUND:                -0.128
REMARK SMILES O=C([O-])C=Cc1ccc(O)c(O)c1
REMARK SMILES IDX 6 1 13 2 7 3 11 4 8 5 9 6 5 7 4 8 2 9 1 10 3 11 12 12 10 14
REMARK H PARENT 12 13 10 15
REMARK Flexibility Score: inf
ROOT
ATOM      1  C   UNL     1      73.130  40.831  21.509  1.00  0.00    -0.022 A 
ATOM      2  C   UNL     1      72.793  39.707  20.728  1.00  0.00     0.058 A 
ATOM      3  C   UNL     1      74.430  41.355  21.418  1.00  0.00     0.012 A 
ATOM      4  C   UNL     1      73.734  39.137  19.855  1.00  0.00     0.157 A 
ATOM      5  C   UNL     1      75.366  40.788  20.549  1.00  0.00     0.051 A 
ATOM      6  C   UNL     1      75.024  39.685  19.765  1.00  0.00     0.157 A 
ENDROOT
BRANCH   1   7
ATOM      7  C   UNL     1      72.175  41.462  22.453  1.00  0.00     0.010 C 
ATOM      8  C   UNL     1      71.009  42.008  22.080  1.00  0.00     0.025 C 
BRANCH   8   9
ATOM      9  C   UNL     1      70.098  42.633  23.050  1.00  0.00     0.064 C 
ATOM     10  O   UNL     1      68.884  42.787  22.753  1.00  0.00    -0.545 OA
ATOM     11  O   UNL     1      70.553  43.058  24.293  1.00  0.00    -0.545 OA
ENDBRANCH   8   9
ENDBRANCH   1   7
BRANCH   4  12
ATOM     12  O   UNL     1      73.390  38.027  19.085  1.00  0.00    -0.504 OA
ATOM     13  H   UNL     1      72.442  37.876  18.762  1.00  0.00     0.293 HD
ENDBRANCH   4  12
BRANCH   6  14
ATOM     14  O   UNL     1      75.979  39.141  18.904  1.00  0.00    -0.504 OA
ATOM     15  H   UNL     1      75.761  38.384  18.268  1.00  0.00     0.293 HD
ENDBRANCH   6  14
TORSDOF 4
ENDMDL
MODEL 4
REMARK VINA RESULT:    -3.538      1.992      5.779
REMARK INTER + INTRA:          -4.287
REMARK INTER:                  -4.156
REMARK INTRA:                  -0.131
REMARK UNBOUND:                -0.128
REMARK SMILES O=C([O-])C=Cc1ccc(O)c(O)c1
REMARK SMILES IDX 6 1 13 2 7 3 11 4 8 5 9 6 5 7 4 8 2 9 1 10 3 11 12 12 10 14
REMARK H PARENT 12 13 10 15
REMARK Flexibility Score: inf
ROOT
ATOM      1  C   UNL     1      73.790  40.553  20.298  1.00  0.00    -0.022 A 
ATOM      2  C   UNL     1      73.719  39.194  20.666  1.00  0.00     0.058 A 
ATOM      3  C   UNL     1      72.705  41.129  19.618  1.00  0.00     0.012 A 
ATOM      4  C   UNL     1      72.573  38.437  20.379  1.00  0.00     0.157 A 
ATOM      5  C   UNL     1      71.563  40.375  19.333  1.00  0.00     0.051 A 
ATOM      6  C   UNL     1      71.490  39.033  19.712  1.00  0.00     0.157 A 
ENDROOT
BRANCH   1   7
ATOM      7  C   UNL     1      74.983  41.392  20.570  1.00  0.00     0.010 C 
ATOM      8  C   UNL     1      75.873  41.748  19.634  1.00  0.00     0.025 C 
BRANCH   8   9
ATOM      9  C   UNL     1      77.048  42.574  19.952  1.00  0.00     0.064 C 
ATOM     10  O   UNL     1      77.916  42.786  19.065  1.00  0.00    -0.545 OA
ATOM     11  O   UNL     1      77.218  43.125  21.217  1.00  0.00    -0.545 OA
ENDBRANCH   8   9
ENDBRANCH   1   7
BRANCH   4  12
ATOM     12  O   UNL     1      72.511  37.093  20.749  1.00  0.00    -0.504 OA
ATOM     13  H   UNL     1      72.520  36.351  20.060  1.00  0.00     0.293 HD
ENDBRANCH   4  12
BRANCH   6  14
ATOM     14  O   UNL     1      70.336  38.306  19.416  1.00  0.00    -0.504 OA
ATOM     15  H   UNL     1      69.570  38.220  20.073  1.00  0.00     0.293 HD
ENDBRANCH   6  14
TORSDOF 4
ENDMDL
MODEL 5
REMARK VINA RESULT:    -3.376      1.179      5.765
REMARK INTER + INTRA:          -4.097
REMARK INTER:                  -3.973
REMARK INTRA:                  -0.123
REMARK UNBOUND:                -0.128
REMARK SMILES O=C([O-])C=Cc1ccc(O)c(O)c1
REMARK SMILES IDX 6 1 13 2 7 3 11 4 8 5 9 6 5 7 4 8 2 9 1 10 3 11 12 12 10 14
REMARK H PARENT 12 13 10 15
REMARK Flexibility Score: inf
ROOT
ATOM      1  C   UNL     1      73.451  40.120  21.065  1.00  0.00    -0.022 A 
ATOM      2  C   UNL     1      73.319  38.717  21.079  1.00  0.00     0.058 A 
ATOM      3  C   UNL     1      72.540  40.879  20.313  1.00  0.00     0.012 A 
ATOM      4  C   UNL     1      72.280  38.091  20.373  1.00  0.00     0.157 A 
ATOM      5  C   UNL     1      71.505  40.256  19.611  1.00  0.00     0.051 A 
ATOM      6  C   UNL     1      71.368  38.867  19.639  1.00  0.00     0.157 A 
ENDROOT
BRANCH   1   7
ATOM      7  C   UNL     1      74.538  40.827  21.786  1.00  0.00     0.010 C 
ATOM      8  C   UNL     1      74.848  40.605  23.071  1.00  0.00     0.025 C 
BRANCH   8   9
ATOM      9  C   UNL     1      75.928  41.338  23.749  1.00  0.00     0.064 C 
ATOM     10  O   UNL     1      76.288  42.461  23.309  1.00  0.00    -0.545 OA
ATOM     11  O   UNL     1      76.559  40.812  24.870  1.00  0.00    -0.545 OA
ENDBRANCH   8   9
ENDBRANCH   1   7
BRANCH   4  12
ATOM     12  O   UNL     1      72.156  36.702  20.396  1.00  0.00    -0.504 OA
ATOM     13  H   UNL     1      72.907  36.096  20.087  1.00  0.00     0.293 HD
ENDBRANCH   4  12
BRANCH   6  14
ATOM     14  O   UNL     1      70.323  38.273  18.931  1.00  0.00    -0.504 OA
ATOM     15  H   UNL     1      69.870  38.734  18.151  1.00  0.00     0.293 HD
ENDBRANCH   6  14
TORSDOF 4
ENDMDL
MODEL 6
REMARK VINA RESULT:    -3.279      3.308      4.218
REMARK INTER + INTRA:          -3.982
REMARK INTER:                  -3.852
REMARK INTRA:                  -0.130
REMARK UNBOUND:                -0.128
REMARK SMILES O=C([O-])C=Cc1ccc(O)c(O)c1
REMARK SMILES IDX 6 1 13 2 7 3 11 4 8 5 9 6 5 7 4 8 2 9 1 10 3 11 12 12 10 14
REMARK H PARENT 12 13 10 15
REMARK Flexibility Score: inf
ROOT
ATOM      1  C   UNL     1      73.618  42.052  21.256  1.00  0.00    -0.022 A 
ATOM      2  C   UNL     1      74.130  40.966  20.518  1.00  0.00     0.058 A 
ATOM      3  C   UNL     1      74.478  43.110  21.589  1.00  0.00     0.012 A 
ATOM      4  C   UNL     1      75.471  40.955  20.102  1.00  0.00     0.157 A 
ATOM      5  C   UNL     1      75.813  43.100  21.175  1.00  0.00     0.051 A 
ATOM      6  C   UNL     1      76.313  42.030  20.430  1.00  0.00     0.157 A 
ENDROOT
BRANCH   1   7
ATOM      7  C   UNL     1      72.213  42.104  21.728  1.00  0.00     0.010 C 
ATOM      8  C   UNL     1      71.851  41.969  23.011  1.00  0.00     0.025 C 
BRANCH   8   9
ATOM      9  C   UNL     1      70.442  42.017  23.431  1.00  0.00     0.064 C 
ATOM     10  O   UNL     1      69.920  43.124  23.731  1.00  0.00    -0.545 OA
ATOM     11  O   UNL     1      69.674  40.861  23.504  1.00  0.00    -0.545 OA
ENDBRANCH   8   9
ENDBRANCH   1   7
BRANCH   4  12
ATOM     12  O   UNL     1      75.968  39.877  19.370  1.00  0.00    -0.504 OA
ATOM     13  H   UNL     1      75.356  39.262  18.847  1.00  0.00     0.293 HD
ENDBRANCH   4  12
BRANCH   6  14
ATOM     14  O   UNL     1      77.649  42.049  20.027  1.00  0.00    -0.504 OA
ATOM     15  H   UNL     1      78.234  42.867  20.141  1.00  0.00     0.293 HD
ENDBRANCH   6  14
TORSDOF 4
ENDMDL
MODEL 7
REMARK VINA RESULT:    -3.261      3.230      3.984
REMARK INTER + INTRA:          -3.961
REMARK INTER:                  -3.838
REMARK INTRA:                  -0.123
REMARK UNBOUND:                -0.128
REMARK SMILES O=C([O-])C=Cc1ccc(O)c(O)c1
REMARK SMILES IDX 6 1 13 2 7 3 11 4 8 5 9 6 5 7 4 8 2 9 1 10 3 11 12 12 10 14
REMARK H PARENT 12 13 10 15
REMARK Flexibility Score: inf
ROOT
ATOM      1  C   UNL     1      73.655  41.976  21.438  1.00  0.00    -0.022 A 
ATOM      2  C   UNL     1      74.612  42.468  22.349  1.00  0.00     0.058 A 
ATOM      3  C   UNL     1      74.057  41.685  20.124  1.00  0.00     0.012 A 
ATOM      4  C   UNL     1      75.948  42.640  21.956  1.00  0.00     0.157 A 
ATOM      5  C   UNL     1      75.388  41.855  19.733  1.00  0.00     0.051 A 
ATOM      6  C   UNL     1      76.336  42.328  20.642  1.00  0.00     0.157 A 
ENDROOT
BRANCH   1   7
ATOM      7  C   UNL     1      72.230  41.787  21.802  1.00  0.00     0.010 C 
ATOM      8  C   UNL     1      71.667  42.304  22.903  1.00  0.00     0.025 C 
BRANCH   8   9
ATOM      9  C   UNL     1      70.250  42.081  23.230  1.00  0.00     0.064 C 
ATOM     10  O   UNL     1      69.861  40.928  23.552  1.00  0.00    -0.545 OA
ATOM     11  O   UNL     1      69.331  43.124  23.191  1.00  0.00    -0.545 OA
ENDBRANCH   8   9
ENDBRANCH   1   7
BRANCH   4  12
ATOM     12  O   UNL     1      76.888  43.125  22.865  1.00  0.00    -0.504 OA
ATOM     13  H   UNL     1      77.867  42.874  22.803  1.00  0.00     0.293 HD
ENDBRANCH   4  12
BRANCH   6  14
ATOM     14  O   UNL     1      77.658  42.486  20.224  1.00  0.00    -0.504 OA
ATOM     15  H   UNL     1      78.010  42.055  19.378  1.00  0.00     0.293 HD
ENDBRANCH   6  14
TORSDOF 4
ENDMDL
MODEL 8
REMARK VINA RESULT:    -3.043      1.459      5.929
REMARK INTER + INTRA:          -3.705
REMARK INTER:                  -3.581
REMARK INTRA:                  -0.124
REMARK UNBOUND:                -0.128
REMARK SMILES O=C([O-])C=Cc1ccc(O)c(O)c1
REMARK SMILES IDX 6 1 13 2 7 3 11 4 8 5 9 6 5 7 4 8 2 9 1 10 3 11 12 12 10 14
REMARK H PARENT 12 13 10 15
REMARK Flexibility Score: inf
ROOT
ATOM      1  C   UNL     1      73.565  39.697  21.080  1.00  0.00    -0.022 A 
ATOM      2  C   UNL     1      72.709  40.635  20.468  1.00  0.00     0.058 A 
ATOM      3  C   UNL     1      73.269  38.330  20.960  1.00  0.00     0.012 A 
ATOM      4  C   UNL     1      71.595  40.208  19.729  1.00  0.00     0.157 A 
ATOM      5  C   UNL     1      72.160  37.904  20.225  1.00  0.00     0.051 A 
ATOM      6  C   UNL     1      71.323  38.835  19.605  1.00  0.00     0.157 A 
ENDROOT
BRANCH   1   7
ATOM      7  C   UNL     1      74.749  40.100  21.879  1.00  0.00     0.010 C 
ATOM      8  C   UNL     1      74.678  40.832  23.000  1.00  0.00     0.025 C 
BRANCH   8   9
ATOM      9  C   UNL     1      75.880  41.217  23.754  1.00  0.00     0.064 C 
ATOM     10  O   UNL     1      76.297  40.474  24.681  1.00  0.00    -0.545 OA
ATOM     11  O   UNL     1      76.567  42.390  23.461  1.00  0.00    -0.545 OA
ENDBRANCH   8   9
ENDBRANCH   1   7
BRANCH   4  12
ATOM     12  O   UNL     1      70.756  41.143  19.124  1.00  0.00    -0.504 OA
ATOM     13  H   UNL     1      69.751  41.112  19.244  1.00  0.00     0.293 HD
ENDBRANCH   4  12
BRANCH   6  14
ATOM     14  O   UNL     1      70.225  38.381  18.875  1.00  0.00    -0.504 OA
ATOM     15  H   UNL     1      69.416  38.965  18.698  1.00  0.00     0.293 HD
ENDBRANCH   6  14
TORSDOF 4
ENDMDL
MODEL 9
REMARK VINA RESULT:    -2.404      1.042      1.825
REMARK INTER + INTRA:          -2.954
REMARK INTER:                  -2.825
REMARK INTRA:                  -0.128
REMARK UNBOUND:                -0.128
REMARK SMILES O=C([O-])C=Cc1ccc(O)c(O)c1
REMARK SMILES IDX 6 1 13 2 7 3 11 4 8 5 9 6 5 7 4 8 2 9 1 10 3 11 12 12 10 14
REMARK H PARENT 12 13 10 15
REMARK Flexibility Score: inf
ROOT
ATOM      1  C   UNL     1      73.939  40.425  20.923  1.00  0.00    -0.022 A 
ATOM      2  C   UNL     1      75.135  40.844  20.306  1.00  0.00     0.058 A 
ATOM      3  C   UNL     1      73.676  40.835  22.240  1.00  0.00     0.012 A 
ATOM      4  C   UNL     1      76.036  41.676  20.988  1.00  0.00     0.157 A 
ATOM      5  C   UNL     1      74.573  41.664  22.919  1.00  0.00     0.051 A 
ATOM      6  C   UNL     1      75.749  42.090  22.300  1.00  0.00     0.157 A 
ENDROOT
BRANCH   1   7
ATOM      7  C   UNL     1      72.961  39.537  20.247  1.00  0.00     0.010 C 
ATOM      8  C   UNL     1      73.211  38.260  19.927  1.00  0.00     0.025 C 
BRANCH   8   9
ATOM      9  C   UNL     1      72.213  37.420  19.247  1.00  0.00     0.064 C 
ATOM     10  O   UNL     1      71.072  37.889  18.996  1.00  0.00    -0.545 OA
ATOM     11  O   UNL     1      72.509  36.113  18.875  1.00  0.00    -0.545 OA
ENDBRANCH   8   9
ENDBRANCH   1   7
BRANCH   4  12
ATOM     12  O   UNL     1      77.216  42.087  20.368  1.00  0.00    -0.504 OA
ATOM     13  H   UNL     1      78.109  41.665  20.591  1.00  0.00     0.293 HD
ENDBRANCH   4  12
BRANCH   6  14
ATOM     14  O   UNL     1      76.624  42.920  23.001  1.00  0.00    -0.504 OA
ATOM     15  H   UNL     1      76.510  43.110  23.990  1.00  0.00     0.293 HD
ENDBRANCH   6  14
TORSDOF 4
ENDMDL
