MODEL 1
REMARK VINA RESULT:    -4.076      0.000      0.000
REMARK INTER + INTRA:         -12.414
REMARK INTER:                  -8.843
REMARK INTRA:                  -3.571
REMARK UNBOUND:                -3.571
REMARK SMILES CCCCCCCCCCCCCCCCCCCCCC(=O)[O-]
REMARK SMILES IDX 12 1 11 2 10 3 9 4 8 5 7 6 6 7 5 8 4 9 3 10 2 11 1 12 13 13
REMARK SMILES IDX 14 14 15 15 16 16 17 17 18 18 19 19 20 20 21 21 22 22 23 23
REMARK SMILES IDX 24 24
REMARK H PARENT
REMARK Flexibility Score: inf
ROOT
ATOM      1  C   UNL     1     -41.297 -35.046  39.107  1.00  0.00     0.000 C 
ENDROOT
BRANCH   1   2
ATOM      2  C   UNL     1     -39.952 -35.165  38.368  1.00  0.00     0.000 C 
BRANCH   2   3
ATOM      3  C   UNL     1     -40.091 -35.034  36.844  1.00  0.00     0.000 C 
BRANCH   3   4
ATOM      4  C   UNL     1     -41.113 -36.043  36.299  1.00  0.00    -0.000 C 
BRANCH   4   5
ATOM      5  C   UNL     1     -42.388 -35.373  35.763  1.00  0.00    -0.000 C 
BRANCH   5   6
ATOM      6  C   UNL     1     -43.660 -35.870  36.473  1.00  0.00    -0.000 C 
BRANCH   6   7
ATOM      7  C   UNL     1     -44.757 -34.795  36.536  1.00  0.00    -0.000 C 
BRANCH   7   8
ATOM      8  C   UNL     1     -45.790 -35.066  37.644  1.00  0.00    -0.000 C 
BRANCH   8   9
ATOM      9  C   UNL     1     -45.206 -35.921  38.789  1.00  0.00    -0.000 C 
BRANCH   9  10
ATOM     10  C   UNL     1     -44.989 -35.139  40.097  1.00  0.00    -0.000 C 
BRANCH  10  11
ATOM     11  C   UNL     1     -46.042 -34.046  40.322  1.00  0.00    -0.003 C 
ATOM     12  C   UNL     1     -45.482 -32.908  41.170  1.00  0.00     0.004 C 
ENDBRANCH  10  11
ENDBRANCH   9  10
ENDBRANCH   8   9
ENDBRANCH   7   8
ENDBRANCH   6   7
ENDBRANCH   5   6
ENDBRANCH   4   5
ENDBRANCH   3   4
ENDBRANCH   2   3
ENDBRANCH   1   2
BRANCH   1  13
ATOM     13  C   UNL     1     -41.545 -33.694  39.799  1.00  0.00     0.000 C 
BRANCH  13  14
ATOM     14  C   UNL     1     -42.444 -32.755  38.975  1.00  0.00     0.000 C 
BRANCH  14  15
ATOM     15  C   UNL     1     -42.467 -31.323  39.536  1.00  0.00     0.000 C 
BRANCH  15  16
ATOM     16  C   UNL     1     -43.564 -30.458  38.896  1.00  0.00     0.000 C 
BRANCH  16  17
ATOM     17  C   UNL     1     -44.498 -31.310  38.027  1.00  0.00     0.000 C 
BRANCH  17  18
ATOM     18  C   UNL     1     -45.855 -30.617  37.832  1.00  0.00     0.000 C 
BRANCH  18  19
ATOM     19  C   UNL     1     -47.032 -31.606  37.754  1.00  0.00     0.000 C 
BRANCH  19  20
ATOM     20  C   UNL     1     -47.887 -31.505  36.478  1.00  0.00     0.006 C 
BRANCH  20  21
ATOM     21  C   UNL     1     -47.204 -30.709  35.361  1.00  0.00     0.053 C 
BRANCH  21  22
ATOM     22  C   UNL     1     -48.048 -29.541  34.958  1.00  0.00     0.041 C 
ATOM     23  O   UNL     1     -47.764 -28.882  33.924  1.00  0.00    -0.550 OA
ATOM     24  O   UNL     1     -49.129 -29.159  35.744  1.00  0.00    -0.550 OA
ENDBRANCH  21  22
ENDBRANCH  20  21
ENDBRANCH  19  20
ENDBRANCH  18  19
ENDBRANCH  17  18
ENDBRANCH  16  17
ENDBRANCH  15  16
ENDBRANCH  14  15
ENDBRANCH  13  14
ENDBRANCH   1  13
TORSDOF 20
ENDMDL
MODEL 2
REMARK VINA RESULT:    -4.005      2.442      5.264
REMARK INTER + INTRA:         -12.258
REMARK INTER:                  -8.957
REMARK INTRA:                  -3.301
REMARK UNBOUND:                -3.571
REMARK SMILES CCCCCCCCCCCCCCCCCCCCCC(=O)[O-]
REMARK SMILES IDX 12 1 11 2 10 3 9 4 8 5 7 6 6 7 5 8 4 9 3 10 2 11 1 12 13 13
REMARK SMILES IDX 14 14 15 15 16 16 17 17 18 18 19 19 20 20 21 21 22 22 23 23
REMARK SMILES IDX 24 24
REMARK H PARENT
REMARK Flexibility Score: inf
ROOT
ATOM      1  C   UNL     1     -43.352 -36.226  36.866  1.00  0.00     0.000 C 
ENDROOT
BRANCH   1   2
ATOM      2  C   UNL     1     -44.765 -35.616  36.811  1.00  0.00     0.000 C 
BRANCH   2   3
ATOM      3  C   UNL     1     -45.877 -36.675  36.831  1.00  0.00     0.000 C 
BRANCH   3   4
ATOM      4  C   UNL     1     -46.035 -37.276  38.237  1.00  0.00    -0.000 C 
BRANCH   4   5
ATOM      5  C   UNL     1     -47.435 -37.050  38.830  1.00  0.00    -0.000 C 
BRANCH   5   6
ATOM      6  C   UNL     1     -47.397 -36.270  40.155  1.00  0.00    -0.000 C 
BRANCH   6   7
ATOM      7  C   UNL     1     -47.892 -34.823  40.001  1.00  0.00    -0.000 C 
BRANCH   7   8
ATOM      8  C   UNL     1     -46.752 -33.834  39.700  1.00  0.00    -0.000 C 
BRANCH   8   9
ATOM      9  C   UNL     1     -47.219 -32.658  38.815  1.00  0.00    -0.000 C 
BRANCH   9  10
ATOM     10  C   UNL     1     -46.834 -32.809  37.332  1.00  0.00    -0.000 C 
BRANCH  10  11
ATOM     11  C   UNL     1     -46.256 -31.521  36.730  1.00  0.00    -0.003 C 
ATOM     12  C   UNL     1     -46.593 -30.310  37.594  1.00  0.00     0.004 C 
ENDBRANCH  10  11
ENDBRANCH   9  10
ENDBRANCH   8   9
ENDBRANCH   7   8
ENDBRANCH   6   7
ENDBRANCH   5   6
ENDBRANCH   4   5
ENDBRANCH   3   4
ENDBRANCH   2   3
ENDBRANCH   1   2
BRANCH   1  13
ATOM     13  C   UNL     1     -42.273 -35.447  36.093  1.00  0.00     0.000 C 
BRANCH  13  14
ATOM     14  C   UNL     1     -40.949 -36.221  35.968  1.00  0.00     0.000 C 
BRANCH  14  15
ATOM     15  C   UNL     1     -39.793 -35.527  36.706  1.00  0.00     0.000 C 
BRANCH  15  16
ATOM     16  C   UNL     1     -40.272 -34.366  37.591  1.00  0.00     0.000 C 
BRANCH  16  17
ATOM     17  C   UNL     1     -40.414 -34.811  39.052  1.00  0.00     0.000 C 
BRANCH  17  18
ATOM     18  C   UNL     1     -41.259 -33.810  39.854  1.00  0.00     0.000 C 
BRANCH  18  19
ATOM     19  C   UNL     1     -42.772 -33.974  39.619  1.00  0.00     0.000 C 
BRANCH  19  20
ATOM     20  C   UNL     1     -43.425 -32.868  38.771  1.00  0.00     0.006 C 
BRANCH  20  21
ATOM     21  C   UNL     1     -42.701 -31.521  38.883  1.00  0.00     0.053 C 
BRANCH  21  22
ATOM     22  C   UNL     1     -43.521 -30.550  39.672  1.00  0.00     0.041 C 
ATOM     23  O   UNL     1     -43.263 -29.319  39.625  1.00  0.00    -0.550 OA
ATOM     24  O   UNL     1     -44.550 -31.008  40.487  1.00  0.00    -0.550 OA
ENDBRANCH  21  22
ENDBRANCH  20  21
ENDBRANCH  19  20
ENDBRANCH  18  19
ENDBRANCH  17  18
ENDBRANCH  16  17
ENDBRANCH  15  16
ENDBRANCH  14  15
ENDBRANCH  13  14
ENDBRANCH   1  13
TORSDOF 20
ENDMDL
MODEL 3
REMARK VINA RESULT:    -3.989      4.767      8.339
REMARK INTER + INTRA:         -12.224
REMARK INTER:                  -9.552
REMARK INTRA:                  -2.672
REMARK UNBOUND:                -3.571
REMARK SMILES CCCCCCCCCCCCCCCCCCCCCC(=O)[O-]
REMARK SMILES IDX 12 1 11 2 10 3 9 4 8 5 7 6 6 7 5 8 4 9 3 10 2 11 1 12 13 13
REMARK SMILES IDX 14 14 15 15 16 16 17 17 18 18 19 19 20 20 21 21 22 22 23 23
REMARK SMILES IDX 24 24
REMARK H PARENT
REMARK Flexibility Score: inf
ROOT
ATOM      1  C   UNL     1     -43.024 -28.945  40.258  1.00  0.00     0.000 C 
ENDROOT
BRANCH   1   2
ATOM      2  C   UNL     1     -41.876 -28.648  41.240  1.00  0.00     0.000 C 
BRANCH   2   3
ATOM      3  C   UNL     1     -40.540 -28.367  40.535  1.00  0.00     0.000 C 
BRANCH   3   4
ATOM      4  C   UNL     1     -39.668 -27.418  41.372  1.00  0.00    -0.000 C 
BRANCH   4   5
ATOM      5  C   UNL     1     -38.871 -26.424  40.512  1.00  0.00    -0.000 C 
BRANCH   5   6
ATOM      6  C   UNL     1     -39.092 -24.963  40.940  1.00  0.00    -0.000 C 
BRANCH   6   7
ATOM      7  C   UNL     1     -40.130 -24.828  42.066  1.00  0.00    -0.000 C 
BRANCH   7   8
ATOM      8  C   UNL     1     -41.405 -24.093  41.613  1.00  0.00    -0.000 C 
BRANCH   8   9
ATOM      9  C   UNL     1     -42.475 -25.063  41.071  1.00  0.00    -0.000 C 
BRANCH   9  10
ATOM     10  C   UNL     1     -43.160 -24.572  39.783  1.00  0.00    -0.000 C 
BRANCH  10  11
ATOM     11  C   UNL     1     -43.096 -25.596  38.642  1.00  0.00    -0.003 C 
ATOM     12  C   UNL     1     -41.662 -25.798  38.163  1.00  0.00     0.004 C 
ENDBRANCH  10  11
ENDBRANCH   9  10
ENDBRANCH   8   9
ENDBRANCH   7   8
ENDBRANCH   6   7
ENDBRANCH   5   6
ENDBRANCH   4   5
ENDBRANCH   3   4
ENDBRANCH   2   3
ENDBRANCH   1   2
BRANCH   1  13
ATOM     13  C   UNL     1     -42.584 -29.453  38.873  1.00  0.00     0.000 C 
BRANCH  13  14
ATOM     14  C   UNL     1     -43.500 -30.560  38.323  1.00  0.00     0.000 C 
BRANCH  14  15
ATOM     15  C   UNL     1     -43.520 -31.806  39.224  1.00  0.00     0.000 C 
BRANCH  15  16
ATOM     16  C   UNL     1     -42.129 -32.156  39.776  1.00  0.00     0.000 C 
BRANCH  16  17
ATOM     17  C   UNL     1     -41.210 -32.668  38.660  1.00  0.00     0.000 C 
BRANCH  17  18
ATOM     18  C   UNL     1     -40.951 -34.175  38.806  1.00  0.00     0.000 C 
BRANCH  18  19
ATOM     19  C   UNL     1     -41.573 -35.007  37.670  1.00  0.00     0.000 C 
BRANCH  19  20
ATOM     20  C   UNL     1     -43.106 -35.137  37.718  1.00  0.00     0.006 C 
BRANCH  20  21
ATOM     21  C   UNL     1     -43.702 -35.675  36.412  1.00  0.00     0.053 C 
BRANCH  21  22
ATOM     22  C   UNL     1     -44.847 -36.595  36.699  1.00  0.00     0.041 C 
ATOM     23  O   UNL     1     -45.905 -36.148  37.212  1.00  0.00    -0.550 OA
ATOM     24  O   UNL     1     -44.731 -37.955  36.432  1.00  0.00    -0.550 OA
ENDBRANCH  21  22
ENDBRANCH  20  21
ENDBRANCH  19  20
ENDBRANCH  18  19
ENDBRANCH  17  18
ENDBRANCH  16  17
ENDBRANCH  15  16
ENDBRANCH  14  15
ENDBRANCH  13  14
ENDBRANCH   1  13
TORSDOF 20
ENDMDL
MODEL 4
REMARK VINA RESULT:    -3.910      1.472      3.510
REMARK INTER + INTRA:         -12.052
REMARK INTER:                  -9.467
REMARK INTRA:                  -2.584
REMARK UNBOUND:                -3.571
REMARK SMILES CCCCCCCCCCCCCCCCCCCCCC(=O)[O-]
REMARK SMILES IDX 12 1 11 2 10 3 9 4 8 5 7 6 6 7 5 8 4 9 3 10 2 11 1 12 13 13
REMARK SMILES IDX 14 14 15 15 16 16 17 17 18 18 19 19 20 20 21 21 22 22 23 23
REMARK SMILES IDX 24 24
REMARK H PARENT
REMARK Flexibility Score: inf
ROOT
ATOM      1  C   UNL     1     -42.690 -32.415  39.238  1.00  0.00     0.000 C 
ENDROOT
BRANCH   1   2
ATOM      2  C   UNL     1     -41.817 -33.515  39.869  1.00  0.00     0.000 C 
BRANCH   2   3
ATOM      3  C   UNL     1     -40.539 -33.802  39.066  1.00  0.00     0.000 C 
BRANCH   3   4
ATOM      4  C   UNL     1     -39.914 -35.139  39.492  1.00  0.00    -0.000 C 
BRANCH   4   5
ATOM      5  C   UNL     1     -39.241 -35.882  38.327  1.00  0.00    -0.000 C 
BRANCH   5   6
ATOM      6  C   UNL     1     -39.623 -35.300  36.955  1.00  0.00    -0.000 C 
BRANCH   6   7
ATOM      7  C   UNL     1     -40.592 -36.208  36.179  1.00  0.00    -0.000 C 
BRANCH   7   8
ATOM      8  C   UNL     1     -41.894 -35.487  35.784  1.00  0.00    -0.000 C 
BRANCH   8   9
ATOM      9  C   UNL     1     -42.951 -35.539  36.908  1.00  0.00    -0.000 C 
BRANCH   9  10
ATOM     10  C   UNL     1     -44.402 -35.528  36.393  1.00  0.00    -0.000 C 
BRANCH  10  11
ATOM     11  C   UNL     1     -45.337 -36.422  37.217  1.00  0.00    -0.003 C 
ATOM     12  C   UNL     1     -45.279 -37.869  36.739  1.00  0.00     0.004 C 
ENDBRANCH  10  11
ENDBRANCH   9  10
ENDBRANCH   8   9
ENDBRANCH   7   8
ENDBRANCH   6   7
ENDBRANCH   5   6
ENDBRANCH   4   5
ENDBRANCH   3   4
ENDBRANCH   2   3
ENDBRANCH   1   2
BRANCH   1  13
ATOM     13  C   UNL     1     -44.188 -32.749  39.132  1.00  0.00     0.000 C 
BRANCH  13  14
ATOM     14  C   UNL     1     -44.994 -31.664  38.396  1.00  0.00     0.000 C 
BRANCH  14  15
ATOM     15  C   UNL     1     -45.710 -32.211  37.150  1.00  0.00     0.000 C 
BRANCH  15  16
ATOM     16  C   UNL     1     -46.975 -33.009  37.501  1.00  0.00     0.000 C 
BRANCH  16  17
ATOM     17  C   UNL     1     -47.899 -32.198  38.418  1.00  0.00     0.000 C 
BRANCH  17  18
ATOM     18  C   UNL     1     -48.960 -31.442  37.603  1.00  0.00     0.000 C 
BRANCH  18  19
ATOM     19  C   UNL     1     -48.954 -29.925  37.866  1.00  0.00     0.000 C 
BRANCH  19  20
ATOM     20  C   UNL     1     -47.707 -29.179  37.359  1.00  0.00     0.006 C 
BRANCH  20  21
ATOM     21  C   UNL     1     -48.014 -28.211  36.210  1.00  0.00     0.053 C 
BRANCH  21  22
ATOM     22  C   UNL     1     -47.806 -28.883  34.889  1.00  0.00     0.041 C 
ATOM     23  O   UNL     1     -46.987 -29.833  34.785  1.00  0.00    -0.550 OA
ATOM     24  O   UNL     1     -48.491 -28.437  33.766  1.00  0.00    -0.550 OA
ENDBRANCH  21  22
ENDBRANCH  20  21
ENDBRANCH  19  20
ENDBRANCH  18  19
ENDBRANCH  17  18
ENDBRANCH  16  17
ENDBRANCH  15  16
ENDBRANCH  14  15
ENDBRANCH  13  14
ENDBRANCH   1  13
TORSDOF 20
ENDMDL
MODEL 5
REMARK VINA RESULT:    -3.906      1.731      4.691
REMARK INTER + INTRA:         -12.043
REMARK INTER:                  -9.197
REMARK INTRA:                  -2.847
REMARK UNBOUND:                -3.571
REMARK SMILES CCCCCCCCCCCCCCCCCCCCCC(=O)[O-]
REMARK SMILES IDX 12 1 11 2 10 3 9 4 8 5 7 6 6 7 5 8 4 9 3 10 2 11 1 12 13 13
REMARK SMILES IDX 14 14 15 15 16 16 17 17 18 18 19 19 20 20 21 21 22 22 23 23
REMARK SMILES IDX 24 24
REMARK H PARENT
REMARK Flexibility Score: inf
ROOT
ATOM      1  C   UNL     1     -46.673 -37.503  38.713  1.00  0.00     0.000 C 
ENDROOT
BRANCH   1   2
ATOM      2  C   UNL     1     -46.409 -37.204  37.226  1.00  0.00     0.000 C 
BRANCH   2   3
ATOM      3  C   UNL     1     -45.021 -37.668  36.758  1.00  0.00     0.000 C 
BRANCH   3   4
ATOM      4  C   UNL     1     -44.108 -36.465  36.474  1.00  0.00    -0.000 C 
BRANCH   4   5
ATOM      5  C   UNL     1     -44.866 -35.128  36.469  1.00  0.00    -0.000 C 
BRANCH   5   6
ATOM      6  C   UNL     1     -44.274 -34.108  37.457  1.00  0.00    -0.000 C 
BRANCH   6   7
ATOM      7  C   UNL     1     -44.159 -34.669  38.884  1.00  0.00    -0.000 C 
BRANCH   7   8
ATOM      8  C   UNL     1     -42.728 -35.116  39.232  1.00  0.00    -0.000 C 
BRANCH   8   9
ATOM      9  C   UNL     1     -41.728 -33.940  39.203  1.00  0.00    -0.000 C 
BRANCH   9  10
ATOM     10  C   UNL     1     -40.321 -34.336  38.718  1.00  0.00    -0.000 C 
BRANCH  10  11
ATOM     11  C   UNL     1     -40.197 -34.347  37.188  1.00  0.00    -0.003 C 
ATOM     12  C   UNL     1     -40.435 -35.745  36.626  1.00  0.00     0.004 C 
ENDBRANCH  10  11
ENDBRANCH   9  10
ENDBRANCH   8   9
ENDBRANCH   7   8
ENDBRANCH   6   7
ENDBRANCH   5   6
ENDBRANCH   4   5
ENDBRANCH   3   4
ENDBRANCH   2   3
ENDBRANCH   1   2
BRANCH   1  13
ATOM     13  C   UNL     1     -48.102 -37.199  39.197  1.00  0.00     0.000 C 
BRANCH  13  14
ATOM     14  C   UNL     1     -48.140 -36.181  40.351  1.00  0.00     0.000 C 
BRANCH  14  15
ATOM     15  C   UNL     1     -47.427 -34.866  39.996  1.00  0.00     0.000 C 
BRANCH  15  16
ATOM     16  C   UNL     1     -47.543 -33.814  41.110  1.00  0.00     0.000 C 
BRANCH  16  17
ATOM     17  C   UNL     1     -46.434 -32.762  40.990  1.00  0.00     0.000 C 
BRANCH  17  18
ATOM     18  C   UNL     1     -46.875 -31.596  40.092  1.00  0.00     0.000 C 
BRANCH  18  19
ATOM     19  C   UNL     1     -45.861 -31.275  38.979  1.00  0.00     0.000 C 
BRANCH  19  20
ATOM     20  C   UNL     1     -46.475 -30.772  37.660  1.00  0.00     0.006 C 
BRANCH  20  21
ATOM     21  C   UNL     1     -47.192 -31.876  36.874  1.00  0.00     0.053 C 
BRANCH  21  22
ATOM     22  C   UNL     1     -48.623 -31.508  36.640  1.00  0.00     0.041 C 
ATOM     23  O   UNL     1     -49.378 -31.256  37.615  1.00  0.00    -0.550 OA
ATOM     24  O   UNL     1     -49.132 -31.478  35.347  1.00  0.00    -0.550 OA
ENDBRANCH  21  22
ENDBRANCH  20  21
ENDBRANCH  19  20
ENDBRANCH  18  19
ENDBRANCH  17  18
ENDBRANCH  16  17
ENDBRANCH  15  16
ENDBRANCH  14  15
ENDBRANCH  13  14
ENDBRANCH   1  13
TORSDOF 20
ENDMDL
MODEL 6
REMARK VINA RESULT:    -3.898      3.411      5.749
REMARK INTER + INTRA:         -12.026
REMARK INTER:                  -8.621
REMARK INTRA:                  -3.406
REMARK UNBOUND:                -3.571
REMARK SMILES CCCCCCCCCCCCCCCCCCCCCC(=O)[O-]
REMARK SMILES IDX 12 1 11 2 10 3 9 4 8 5 7 6 6 7 5 8 4 9 3 10 2 11 1 12 13 13
REMARK SMILES IDX 14 14 15 15 16 16 17 17 18 18 19 19 20 20 21 21 22 22 23 23
REMARK SMILES IDX 24 24
REMARK H PARENT
REMARK Flexibility Score: inf
ROOT
ATOM      1  C   UNL     1     -47.426 -32.487  39.144  1.00  0.00     0.000 C 
ENDROOT
BRANCH   1   2
ATOM      2  C   UNL     1     -47.334 -34.009  39.362  1.00  0.00     0.000 C 
BRANCH   2   3
ATOM      3  C   UNL     1     -46.391 -34.394  40.512  1.00  0.00     0.000 C 
BRANCH   3   4
ATOM      4  C   UNL     1     -44.948 -33.968  40.203  1.00  0.00    -0.000 C 
BRANCH   4   5
ATOM      5  C   UNL     1     -44.167 -35.031  39.414  1.00  0.00    -0.000 C 
BRANCH   5   6
ATOM      6  C   UNL     1     -43.834 -34.578  37.982  1.00  0.00    -0.000 C 
BRANCH   6   7
ATOM      7  C   UNL     1     -44.730 -35.249  36.928  1.00  0.00    -0.000 C 
BRANCH   7   8
ATOM      8  C   UNL     1     -44.235 -36.653  36.535  1.00  0.00    -0.000 C 
BRANCH   8   9
ATOM      9  C   UNL     1     -45.276 -37.747  36.852  1.00  0.00    -0.000 C 
BRANCH   9  10
ATOM     10  C   UNL     1     -46.540 -37.215  37.551  1.00  0.00    -0.000 C 
BRANCH  10  11
ATOM     11  C   UNL     1     -46.735 -37.795  38.958  1.00  0.00    -0.003 C 
ATOM     12  C   UNL     1     -48.184 -37.657  39.415  1.00  0.00     0.004 C 
ENDBRANCH  10  11
ENDBRANCH   9  10
ENDBRANCH   8   9
ENDBRANCH   7   8
ENDBRANCH   6   7
ENDBRANCH   5   6
ENDBRANCH   4   5
ENDBRANCH   3   4
ENDBRANCH   2   3
ENDBRANCH   1   2
BRANCH   1  13
ATOM     13  C   UNL     1     -47.709 -32.051  37.696  1.00  0.00     0.000 C 
BRANCH  13  14
ATOM     14  C   UNL     1     -46.433 -31.944  36.842  1.00  0.00     0.000 C 
BRANCH  14  15
ATOM     15  C   UNL     1     -45.272 -31.282  37.603  1.00  0.00     0.000 C 
BRANCH  15  16
ATOM     16  C   UNL     1     -45.402 -29.752  37.659  1.00  0.00     0.000 C 
BRANCH  16  17
ATOM     17  C   UNL     1     -44.881 -29.206  38.995  1.00  0.00     0.000 C 
BRANCH  17  18
ATOM     18  C   UNL     1     -44.304 -30.333  39.864  1.00  0.00     0.000 C 
BRANCH  18  19
ATOM     19  C   UNL     1     -42.885 -30.032  40.377  1.00  0.00     0.000 C 
BRANCH  19  20
ATOM     20  C   UNL     1     -41.806 -29.917  39.285  1.00  0.00     0.006 C 
BRANCH  20  21
ATOM     21  C   UNL     1     -41.305 -28.482  39.086  1.00  0.00     0.053 C 
BRANCH  21  22
ATOM     22  C   UNL     1     -41.015 -27.841  40.406  1.00  0.00     0.041 C 
ATOM     23  O   UNL     1     -41.730 -26.891  40.819  1.00  0.00    -0.550 OA
ATOM     24  O   UNL     1     -39.932 -28.269  41.165  1.00  0.00    -0.550 OA
ENDBRANCH  21  22
ENDBRANCH  20  21
ENDBRANCH  19  20
ENDBRANCH  18  19
ENDBRANCH  17  18
ENDBRANCH  16  17
ENDBRANCH  15  16
ENDBRANCH  14  15
ENDBRANCH  13  14
ENDBRANCH   1  13
TORSDOF 20
ENDMDL
MODEL 7
REMARK VINA RESULT:    -3.890      7.069      9.591
REMARK INTER + INTRA:         -12.010
REMARK INTER:                  -7.341
REMARK INTRA:                  -4.669
REMARK UNBOUND:                -3.571
REMARK SMILES CCCCCCCCCCCCCCCCCCCCCC(=O)[O-]
REMARK SMILES IDX 12 1 11 2 10 3 9 4 8 5 7 6 6 7 5 8 4 9 3 10 2 11 1 12 13 13
REMARK SMILES IDX 14 14 15 15 16 16 17 17 18 18 19 19 20 20 21 21 22 22 23 23
REMARK SMILES IDX 24 24
REMARK H PARENT
REMARK Flexibility Score: inf
ROOT
ATOM      1  C   UNL     1     -42.008 -24.262  40.821  1.00  0.00     0.000 C 
ENDROOT
BRANCH   1   2
ATOM      2  C   UNL     1     -40.929 -24.540  41.884  1.00  0.00     0.000 C 
BRANCH   2   3
ATOM      3  C   UNL     1     -39.501 -24.329  41.360  1.00  0.00     0.000 C 
BRANCH   3   4
ATOM      4  C   UNL     1     -39.511 -24.022  39.854  1.00  0.00    -0.000 C 
BRANCH   4   5
ATOM      5  C   UNL     1     -38.378 -24.729  39.093  1.00  0.00    -0.000 C 
BRANCH   5   6
ATOM      6  C   UNL     1     -38.901 -25.634  37.963  1.00  0.00    -0.000 C 
BRANCH   6   7
ATOM      7  C   UNL     1     -40.413 -25.477  37.734  1.00  0.00    -0.000 C 
BRANCH   7   8
ATOM      8  C   UNL     1     -41.215 -26.704  38.203  1.00  0.00    -0.000 C 
BRANCH   8   9
ATOM      9  C   UNL     1     -40.298 -27.851  38.680  1.00  0.00    -0.000 C 
BRANCH   9  10
ATOM     10  C   UNL     1     -40.770 -28.519  39.984  1.00  0.00    -0.000 C 
BRANCH  10  11
ATOM     11  C   UNL     1     -40.006 -28.025  41.220  1.00  0.00    -0.003 C 
ATOM     12  C   UNL     1     -38.514 -27.897  40.931  1.00  0.00     0.004 C 
ENDBRANCH  10  11
ENDBRANCH   9  10
ENDBRANCH   8   9
ENDBRANCH   7   8
ENDBRANCH   6   7
ENDBRANCH   5   6
ENDBRANCH   4   5
ENDBRANCH   3   4
ENDBRANCH   2   3
ENDBRANCH   1   2
BRANCH   1  13
ATOM     13  C   UNL     1     -43.411 -24.795  41.158  1.00  0.00     0.000 C 
BRANCH  13  14
ATOM     14  C   UNL     1     -43.521 -26.324  41.022  1.00  0.00     0.000 C 
BRANCH  14  15
ATOM     15  C   UNL     1     -44.446 -26.745  39.869  1.00  0.00     0.000 C 
BRANCH  15  16
ATOM     16  C   UNL     1     -45.024 -25.541  39.108  1.00  0.00     0.000 C 
BRANCH  16  17
ATOM     17  C   UNL     1     -44.676 -25.616  37.616  1.00  0.00     0.000 C 
BRANCH  17  18
ATOM     18  C   UNL     1     -43.891 -24.374  37.169  1.00  0.00     0.000 C 
BRANCH  18  19
ATOM     19  C   UNL     1     -44.229 -23.119  37.995  1.00  0.00     0.000 C 
BRANCH  19  20
ATOM     20  C   UNL     1     -43.463 -21.846  37.591  1.00  0.00     0.006 C 
BRANCH  20  21
ATOM     21  C   UNL     1     -41.974 -21.903  37.953  1.00  0.00     0.053 C 
BRANCH  21  22
ATOM     22  C   UNL     1     -41.134 -21.910  36.715  1.00  0.00     0.041 C 
ATOM     23  O   UNL     1     -39.880 -21.980  36.802  1.00  0.00    -0.550 OA
ATOM     24  O   UNL     1     -41.734 -21.802  35.466  1.00  0.00    -0.550 OA
ENDBRANCH  21  22
ENDBRANCH  20  21
ENDBRANCH  19  20
ENDBRANCH  18  19
ENDBRANCH  17  18
ENDBRANCH  16  17
ENDBRANCH  15  16
ENDBRANCH  14  15
ENDBRANCH  13  14
ENDBRANCH   1  13
TORSDOF 20
ENDMDL
MODEL 8
REMARK VINA RESULT:    -3.884      5.694      9.308
REMARK INTER + INTRA:         -11.997
REMARK INTER:                  -7.734
REMARK INTRA:                  -4.263
REMARK UNBOUND:                -3.571
REMARK SMILES CCCCCCCCCCCCCCCCCCCCCC(=O)[O-]
REMARK SMILES IDX 12 1 11 2 10 3 9 4 8 5 7 6 6 7 5 8 4 9 3 10 2 11 1 12 13 13
REMARK SMILES IDX 14 14 15 15 16 16 17 17 18 18 19 19 20 20 21 21 22 22 23 23
REMARK SMILES IDX 24 24
REMARK H PARENT
REMARK Flexibility Score: inf
ROOT
ATOM      1  C   UNL     1     -43.043 -26.275  41.392  1.00  0.00     0.000 C 
ENDROOT
BRANCH   1   2
ATOM      2  C   UNL     1     -41.754 -25.614  40.871  1.00  0.00     0.000 C 
BRANCH   2   3
ATOM      3  C   UNL     1     -40.917 -24.968  41.985  1.00  0.00     0.000 C 
BRANCH   3   4
ATOM      4  C   UNL     1     -40.350 -23.615  41.529  1.00  0.00    -0.000 C 
BRANCH   4   5
ATOM      5  C   UNL     1     -40.794 -23.228  40.110  1.00  0.00    -0.000 C 
BRANCH   5   6
ATOM      6  C   UNL     1     -39.605 -22.944  39.175  1.00  0.00    -0.000 C 
BRANCH   6   7
ATOM      7  C   UNL     1     -39.599 -23.855  37.937  1.00  0.00    -0.000 C 
BRANCH   7   8
ATOM      8  C   UNL     1     -39.024 -25.253  38.231  1.00  0.00    -0.000 C 
BRANCH   8   9
ATOM      9  C   UNL     1     -37.745 -25.187  39.093  1.00  0.00    -0.000 C 
BRANCH   9  10
ATOM     10  C   UNL     1     -37.810 -26.053  40.364  1.00  0.00    -0.000 C 
BRANCH  10  11
ATOM     11  C   UNL     1     -38.499 -27.405  40.132  1.00  0.00    -0.003 C 
ATOM     12  C   UNL     1     -38.982 -28.009  41.447  1.00  0.00     0.004 C 
ENDBRANCH  10  11
ENDBRANCH   9  10
ENDBRANCH   8   9
ENDBRANCH   7   8
ENDBRANCH   6   7
ENDBRANCH   5   6
ENDBRANCH   4   5
ENDBRANCH   3   4
ENDBRANCH   2   3
ENDBRANCH   1   2
BRANCH   1  13
ATOM     13  C   UNL     1     -44.215 -26.297  40.396  1.00  0.00     0.000 C 
BRANCH  13  14
ATOM     14  C   UNL     1     -43.838 -25.736  39.014  1.00  0.00     0.000 C 
BRANCH  14  15
ATOM     15  C   UNL     1     -43.952 -26.792  37.901  1.00  0.00     0.000 C 
BRANCH  15  16
ATOM     16  C   UNL     1     -42.625 -27.008  37.157  1.00  0.00     0.000 C 
BRANCH  16  17
ATOM     17  C   UNL     1     -41.607 -27.731  38.049  1.00  0.00     0.000 C 
BRANCH  17  18
ATOM     18  C   UNL     1     -42.016 -29.194  38.278  1.00  0.00     0.000 C 
BRANCH  18  19
ATOM     19  C   UNL     1     -41.617 -29.721  39.668  1.00  0.00     0.000 C 
BRANCH  19  20
ATOM     20  C   UNL     1     -42.767 -29.817  40.686  1.00  0.00     0.006 C 
BRANCH  20  21
ATOM     21  C   UNL     1     -44.127 -30.081  40.029  1.00  0.00     0.053 C 
BRANCH  21  22
ATOM     22  C   UNL     1     -44.547 -31.500  40.248  1.00  0.00     0.041 C 
ATOM     23  O   UNL     1     -43.963 -32.434  39.640  1.00  0.00    -0.550 OA
ATOM     24  O   UNL     1     -45.609 -31.789  41.098  1.00  0.00    -0.550 OA
ENDBRANCH  21  22
ENDBRANCH  20  21
ENDBRANCH  19  20
ENDBRANCH  18  19
ENDBRANCH  17  18
ENDBRANCH  16  17
ENDBRANCH  15  16
ENDBRANCH  14  15
ENDBRANCH  13  14
ENDBRANCH   1  13
TORSDOF 20
ENDMDL
MODEL 9
REMARK VINA RESULT:    -3.874      3.355      6.537
REMARK INTER + INTRA:         -11.974
REMARK INTER:                  -9.267
REMARK INTRA:                  -2.707
REMARK UNBOUND:                -3.571
REMARK SMILES CCCCCCCCCCCCCCCCCCCCCC(=O)[O-]
REMARK SMILES IDX 12 1 11 2 10 3 9 4 8 5 7 6 6 7 5 8 4 9 3 10 2 11 1 12 13 13
REMARK SMILES IDX 14 14 15 15 16 16 17 17 18 18 19 19 20 20 21 21 22 22 23 23
REMARK SMILES IDX 24 24
REMARK H PARENT
REMARK Flexibility Score: inf
ROOT
ATOM      1  C   UNL     1     -44.957 -29.459  39.046  1.00  0.00     0.000 C 
ENDROOT
BRANCH   1   2
ATOM      2  C   UNL     1     -44.357 -29.095  37.675  1.00  0.00     0.000 C 
BRANCH   2   3
ATOM      3  C   UNL     1     -42.821 -29.102  37.672  1.00  0.00     0.000 C 
BRANCH   3   4
ATOM      4  C   UNL     1     -42.270 -28.973  39.101  1.00  0.00    -0.000 C 
BRANCH   4   5
ATOM      5  C   UNL     1     -41.331 -30.127  39.486  1.00  0.00    -0.000 C 
BRANCH   5   6
ATOM      6  C   UNL     1     -41.666 -31.435  38.747  1.00  0.00    -0.000 C 
BRANCH   6   7
ATOM      7  C   UNL     1     -42.232 -32.513  39.684  1.00  0.00    -0.000 C 
BRANCH   7   8
ATOM      8  C   UNL     1     -41.561 -33.884  39.486  1.00  0.00    -0.000 C 
BRANCH   8   9
ATOM      9  C   UNL     1     -40.577 -33.884  38.297  1.00  0.00    -0.000 C 
BRANCH   9  10
ATOM     10  C   UNL     1     -39.599 -35.073  38.304  1.00  0.00    -0.000 C 
BRANCH  10  11
ATOM     11  C   UNL     1     -39.582 -35.842  36.977  1.00  0.00    -0.003 C 
ATOM     12  C   UNL     1     -40.880 -35.634  36.203  1.00  0.00     0.004 C 
ENDBRANCH  10  11
ENDBRANCH   9  10
ENDBRANCH   8   9
ENDBRANCH   7   8
ENDBRANCH   6   7
ENDBRANCH   5   6
ENDBRANCH   4   5
ENDBRANCH   3   4
ENDBRANCH   2   3
ENDBRANCH   1   2
BRANCH   1  13
ATOM     13  C   UNL     1     -45.540 -30.880  39.147  1.00  0.00     0.000 C 
BRANCH  13  14
ATOM     14  C   UNL     1     -45.363 -31.695  37.854  1.00  0.00     0.000 C 
BRANCH  14  15
ATOM     15  C   UNL     1     -45.718 -33.179  38.043  1.00  0.00     0.000 C 
BRANCH  15  16
ATOM     16  C   UNL     1     -45.264 -34.047  36.859  1.00  0.00     0.000 C 
BRANCH  16  17
ATOM     17  C   UNL     1     -44.340 -35.177  37.330  1.00  0.00     0.000 C 
BRANCH  17  18
ATOM     18  C   UNL     1     -44.557 -36.450  36.499  1.00  0.00     0.000 C 
BRANCH  18  19
ATOM     19  C   UNL     1     -45.370 -37.524  37.244  1.00  0.00     0.000 C 
BRANCH  19  20
ATOM     20  C   UNL     1     -46.741 -37.059  37.768  1.00  0.00     0.006 C 
BRANCH  20  21
ATOM     21  C   UNL     1     -47.134 -37.727  39.091  1.00  0.00     0.053 C 
BRANCH  21  22
ATOM     22  C   UNL     1     -46.781 -36.847  40.248  1.00  0.00     0.041 C 
ATOM     23  O   UNL     1     -47.664 -36.510  41.079  1.00  0.00    -0.550 OA
ATOM     24  O   UNL     1     -45.483 -36.370  40.388  1.00  0.00    -0.550 OA
ENDBRANCH  21  22
ENDBRANCH  20  21
ENDBRANCH  19  20
ENDBRANCH  18  19
ENDBRANCH  17  18
ENDBRANCH  16  17
ENDBRANCH  15  16
ENDBRANCH  14  15
ENDBRANCH  13  14
ENDBRANCH   1  13
TORSDOF 20
ENDMDL
