MODEL 1
REMARK VINA RESULT:    -3.200      0.000      0.000
REMARK INTER + INTRA:          -8.653
REMARK INTER:                  -6.942
REMARK INTRA:                  -1.711
REMARK UNBOUND:                -1.711
REMARK SMILES CCCCCCCCCCCCCCCCCCCCCC(=O)[O-]
REMARK SMILES IDX 12 1 11 2 10 3 9 4 8 5 7 6 6 7 5 8 4 9 3 10 2 11 1 12 13 13
REMARK SMILES IDX 14 14 15 15 16 16 17 17 18 18 19 19 20 20 21 21 22 22 23 23
REMARK SMILES IDX 24 24
REMARK H PARENT
REMARK Flexibility Score: inf
ROOT
ATOM      1  C   UNL     1     -12.463  -7.746  -7.064  1.00  0.00     0.000 C 
ENDROOT
BRANCH   1   2
ATOM      2  C   UNL     1     -12.870  -7.587  -5.589  1.00  0.00     0.000 C 
BRANCH   2   3
ATOM      3  C   UNL     1     -13.025  -8.939  -4.876  1.00  0.00     0.000 C 
BRANCH   3   4
ATOM      4  C   UNL     1     -14.429  -9.541  -5.057  1.00  0.00    -0.000 C 
BRANCH   4   5
ATOM      5  C   UNL     1     -14.427 -10.828  -5.904  1.00  0.00    -0.000 C 
BRANCH   5   6
ATOM      6  C   UNL     1     -15.735 -11.114  -6.667  1.00  0.00    -0.000 C 
BRANCH   6   7
ATOM      7  C   UNL     1     -16.807 -10.034  -6.445  1.00  0.00    -0.000 C 
BRANCH   7   8
ATOM      8  C   UNL     1     -16.859  -8.995  -7.582  1.00  0.00    -0.000 C 
BRANCH   8   9
ATOM      9  C   UNL     1     -16.269  -7.613  -7.242  1.00  0.00    -0.000 C 
BRANCH   9  10
ATOM     10  C   UNL     1     -16.524  -7.193  -5.784  1.00  0.00    -0.000 C 
BRANCH  10  11
ATOM     11  C   UNL     1     -17.628  -6.132  -5.662  1.00  0.00    -0.003 C 
ATOM     12  C   UNL     1     -18.842  -6.625  -4.875  1.00  0.00     0.004 C 
ENDBRANCH  10  11
ENDBRANCH   9  10
ENDBRANCH   8   9
ENDBRANCH   7   8
ENDBRANCH   6   7
ENDBRANCH   5   6
ENDBRANCH   4   5
ENDBRANCH   3   4
ENDBRANCH   2   3
ENDBRANCH   1   2
BRANCH   1  13
ATOM     13  C   UNL     1     -11.484  -8.909  -7.281  1.00  0.00     0.000 C 
BRANCH  13  14
ATOM     14  C   UNL     1     -10.093  -8.630  -6.685  1.00  0.00     0.000 C 
BRANCH  14  15
ATOM     15  C   UNL     1      -9.446  -9.881  -6.067  1.00  0.00     0.000 C 
BRANCH  15  16
ATOM     16  C   UNL     1      -7.944  -9.742  -5.759  1.00  0.00     0.000 C 
BRANCH  16  17
ATOM     17  C   UNL     1      -7.060 -10.502  -6.763  1.00  0.00     0.000 C 
BRANCH  17  18
ATOM     18  C   UNL     1      -5.568 -10.170  -6.600  1.00  0.00     0.000 C 
BRANCH  18  19
ATOM     19  C   UNL     1      -4.935  -9.660  -7.905  1.00  0.00     0.000 C 
BRANCH  19  20
ATOM     20  C   UNL     1      -4.587  -8.173  -7.799  1.00  0.00     0.006 C 
BRANCH  20  21
ATOM     21  C   UNL     1      -4.660  -7.690  -6.346  1.00  0.00     0.053 C 
BRANCH  21  22
ATOM     22  C   UNL     1      -3.287  -7.407  -5.820  1.00  0.00     0.041 C 
ATOM     23  O   UNL     1      -2.997  -6.259  -5.387  1.00  0.00    -0.550 OA
ATOM     24  O   UNL     1      -2.313  -8.396  -5.858  1.00  0.00    -0.550 OA
ENDBRANCH  21  22
ENDBRANCH  20  21
ENDBRANCH  19  20
ENDBRANCH  18  19
ENDBRANCH  17  18
ENDBRANCH  16  17
ENDBRANCH  15  16
ENDBRANCH  14  15
ENDBRANCH  13  14
ENDBRANCH   1  13
TORSDOF 20
ENDMDL
MODEL 2
REMARK VINA RESULT:    -2.759      3.892     10.160
REMARK INTER + INTRA:          -7.696
REMARK INTER:                  -6.736
REMARK INTRA:                  -0.960
REMARK UNBOUND:                -1.711
REMARK SMILES CCCCCCCCCCCCCCCCCCCCCC(=O)[O-]
REMARK SMILES IDX 12 1 11 2 10 3 9 4 8 5 7 6 6 7 5 8 4 9 3 10 2 11 1 12 13 13
REMARK SMILES IDX 14 14 15 15 16 16 17 17 18 18 19 19 20 20 21 21 22 22 23 23
REMARK SMILES IDX 24 24
REMARK H PARENT
REMARK Flexibility Score: inf
ROOT
ATOM      1  C   UNL     1     -11.698  -8.112  -6.727  1.00  0.00     0.000 C 
ENDROOT
BRANCH   1   2
ATOM      2  C   UNL     1     -10.653  -9.009  -7.414  1.00  0.00     0.000 C 
BRANCH   2   3
ATOM      3  C   UNL     1      -9.405  -9.223  -6.544  1.00  0.00     0.000 C 
BRANCH   3   4
ATOM      4  C   UNL     1      -8.994 -10.702  -6.458  1.00  0.00    -0.000 C 
BRANCH   4   5
ATOM      5  C   UNL     1      -7.554 -10.899  -5.947  1.00  0.00    -0.000 C 
BRANCH   5   6
ATOM      6  C   UNL     1      -6.485 -10.038  -6.648  1.00  0.00    -0.000 C 
BRANCH   6   7
ATOM      7  C   UNL     1      -5.896 -10.714  -7.898  1.00  0.00    -0.000 C 
BRANCH   7   8
ATOM      8  C   UNL     1      -4.749  -9.905  -8.534  1.00  0.00    -0.000 C 
BRANCH   8   9
ATOM      9  C   UNL     1      -4.343  -8.626  -7.775  1.00  0.00    -0.000 C 
BRANCH   9  10
ATOM     10  C   UNL     1      -3.648  -8.917  -6.435  1.00  0.00    -0.000 C 
BRANCH  10  11
ATOM     11  C   UNL     1      -3.178  -7.638  -5.726  1.00  0.00    -0.003 C 
ATOM     12  C   UNL     1      -4.268  -6.570  -5.643  1.00  0.00     0.004 C 
ENDBRANCH  10  11
ENDBRANCH   9  10
ENDBRANCH   8   9
ENDBRANCH   7   8
ENDBRANCH   6   7
ENDBRANCH   5   6
ENDBRANCH   4   5
ENDBRANCH   3   4
ENDBRANCH   2   3
ENDBRANCH   1   2
BRANCH   1  13
ATOM     13  C   UNL     1     -11.813  -8.390  -5.222  1.00  0.00     0.000 C 
BRANCH  13  14
ATOM     14  C   UNL     1     -13.015  -9.285  -4.875  1.00  0.00     0.000 C 
BRANCH  14  15
ATOM     15  C   UNL     1     -13.181 -10.465  -5.849  1.00  0.00     0.000 C 
BRANCH  15  16
ATOM     16  C   UNL     1     -14.631 -10.733  -6.290  1.00  0.00     0.000 C 
BRANCH  16  17
ATOM     17  C   UNL     1     -15.546 -11.125  -5.116  1.00  0.00     0.000 C 
BRANCH  17  18
ATOM     18  C   UNL     1     -16.997 -10.662  -5.322  1.00  0.00     0.000 C 
BRANCH  18  19
ATOM     19  C   UNL     1     -17.089  -9.385  -6.173  1.00  0.00     0.000 C 
BRANCH  19  20
ATOM     20  C   UNL     1     -17.058  -8.134  -5.289  1.00  0.00     0.006 C 
BRANCH  20  21
ATOM     21  C   UNL     1     -16.999  -6.860  -6.139  1.00  0.00     0.053 C 
BRANCH  21  22
ATOM     22  C   UNL     1     -16.102  -7.061  -7.321  1.00  0.00     0.041 C 
ATOM     23  O   UNL     1     -14.900  -7.406  -7.155  1.00  0.00    -0.550 OA
ATOM     24  O   UNL     1     -16.579  -6.815  -8.602  1.00  0.00    -0.550 OA
ENDBRANCH  21  22
ENDBRANCH  20  21
ENDBRANCH  19  20
ENDBRANCH  18  19
ENDBRANCH  17  18
ENDBRANCH  16  17
ENDBRANCH  15  16
ENDBRANCH  14  15
ENDBRANCH  13  14
ENDBRANCH   1  13
TORSDOF 20
ENDMDL
MODEL 3
REMARK VINA RESULT:    -2.464      4.534     10.277
REMARK INTER + INTRA:          -7.056
REMARK INTER:                  -6.600
REMARK INTRA:                  -0.456
REMARK UNBOUND:                -1.711
REMARK SMILES CCCCCCCCCCCCCCCCCCCCCC(=O)[O-]
REMARK SMILES IDX 12 1 11 2 10 3 9 4 8 5 7 6 6 7 5 8 4 9 3 10 2 11 1 12 13 13
REMARK SMILES IDX 14 14 15 15 16 16 17 17 18 18 19 19 20 20 21 21 22 22 23 23
REMARK SMILES IDX 24 24
REMARK H PARENT
REMARK Flexibility Score: inf
ROOT
ATOM      1  C   UNL     1     -12.117  -7.562  -6.203  1.00  0.00     0.000 C 
ENDROOT
BRANCH   1   2
ATOM      2  C   UNL     1     -11.380  -8.903  -6.364  1.00  0.00     0.000 C 
BRANCH   2   3
ATOM      3  C   UNL     1     -10.556  -9.269  -5.120  1.00  0.00     0.000 C 
BRANCH   3   4
ATOM      4  C   UNL     1      -9.654 -10.493  -5.352  1.00  0.00    -0.000 C 
BRANCH   4   5
ATOM      5  C   UNL     1      -8.685 -10.310  -6.537  1.00  0.00    -0.000 C 
BRANCH   5   6
ATOM      6  C   UNL     1      -7.240  -9.943  -6.152  1.00  0.00    -0.000 C 
BRANCH   6   7
ATOM      7  C   UNL     1      -7.036  -8.432  -5.953  1.00  0.00    -0.000 C 
BRANCH   7   8
ATOM      8  C   UNL     1      -5.567  -7.996  -6.118  1.00  0.00    -0.000 C 
BRANCH   8   9
ATOM      9  C   UNL     1      -4.654  -9.012  -6.831  1.00  0.00    -0.000 C 
BRANCH   9  10
ATOM     10  C   UNL     1      -4.644  -8.843  -8.360  1.00  0.00    -0.000 C 
BRANCH  10  11
ATOM     11  C   UNL     1      -4.723 -10.186  -9.101  1.00  0.00    -0.003 C 
ATOM     12  C   UNL     1      -3.387 -10.930  -9.126  1.00  0.00     0.004 C 
ENDBRANCH  10  11
ENDBRANCH   9  10
ENDBRANCH   8   9
ENDBRANCH   7   8
ENDBRANCH   6   7
ENDBRANCH   5   6
ENDBRANCH   4   5
ENDBRANCH   3   4
ENDBRANCH   2   3
ENDBRANCH   1   2
BRANCH   1  13
ATOM     13  C   UNL     1     -12.882  -7.467  -4.875  1.00  0.00     0.000 C 
BRANCH  13  14
ATOM     14  C   UNL     1     -14.189  -8.279  -4.887  1.00  0.00     0.000 C 
BRANCH  14  15
ATOM     15  C   UNL     1     -13.948  -9.799  -4.892  1.00  0.00     0.000 C 
BRANCH  15  16
ATOM     16  C   UNL     1     -14.745 -10.571  -5.959  1.00  0.00     0.000 C 
BRANCH  16  17
ATOM     17  C   UNL     1     -16.169 -10.924  -5.496  1.00  0.00     0.000 C 
BRANCH  17  18
ATOM     18  C   UNL     1     -17.231  -9.990  -6.098  1.00  0.00     0.000 C 
BRANCH  18  19
ATOM     19  C   UNL     1     -16.748  -9.310  -7.388  1.00  0.00     0.000 C 
BRANCH  19  20
ATOM     20  C   UNL     1     -16.102  -7.955  -7.085  1.00  0.00     0.006 C 
BRANCH  20  21
ATOM     21  C   UNL     1     -16.367  -6.952  -8.214  1.00  0.00     0.053 C 
BRANCH  21  22
ATOM     22  C   UNL     1     -17.279  -5.863  -7.742  1.00  0.00     0.041 C 
ATOM     23  O   UNL     1     -17.742  -5.023  -8.560  1.00  0.00    -0.550 OA
ATOM     24  O   UNL     1     -17.575  -5.745  -6.390  1.00  0.00    -0.550 OA
ENDBRANCH  21  22
ENDBRANCH  20  21
ENDBRANCH  19  20
ENDBRANCH  18  19
ENDBRANCH  17  18
ENDBRANCH  16  17
ENDBRANCH  15  16
ENDBRANCH  14  15
ENDBRANCH  13  14
ENDBRANCH   1  13
TORSDOF 20
ENDMDL
MODEL 4
REMARK VINA RESULT:    -1.767      1.766      4.758
REMARK INTER + INTRA:          -5.544
REMARK INTER:                  -4.077
REMARK INTRA:                  -1.467
REMARK UNBOUND:                -1.711
REMARK SMILES CCCCCCCCCCCCCCCCCCCCCC(=O)[O-]
REMARK SMILES IDX 12 1 11 2 10 3 9 4 8 5 7 6 6 7 5 8 4 9 3 10 2 11 1 12 13 13
REMARK SMILES IDX 14 14 15 15 16 16 17 17 18 18 19 19 20 20 21 21 22 22 23 23
REMARK SMILES IDX 24 24
REMARK H PARENT
REMARK Flexibility Score: inf
ROOT
ATOM      1  C   UNL     1      -6.613  -6.805  -5.008  1.00  0.00     0.000 C 
ENDROOT
BRANCH   1   2
ATOM      2  C   UNL     1      -6.704  -8.037  -5.925  1.00  0.00     0.000 C 
BRANCH   2   3
ATOM      3  C   UNL     1      -7.243  -9.273  -5.190  1.00  0.00     0.000 C 
BRANCH   3   4
ATOM      4  C   UNL     1      -8.744  -9.162  -4.876  1.00  0.00    -0.000 C 
BRANCH   4   5
ATOM      5  C   UNL     1      -9.639  -9.679  -6.019  1.00  0.00    -0.000 C 
BRANCH   5   6
ATOM      6  C   UNL     1     -11.065  -9.097  -6.051  1.00  0.00    -0.000 C 
BRANCH   6   7
ATOM      7  C   UNL     1     -11.220  -7.837  -5.182  1.00  0.00    -0.000 C 
BRANCH   7   8
ATOM      8  C   UNL     1     -12.682  -7.370  -5.057  1.00  0.00    -0.000 C 
BRANCH   8   9
ATOM      9  C   UNL     1     -13.509  -7.431  -6.357  1.00  0.00    -0.000 C 
BRANCH   9  10
ATOM     10  C   UNL     1     -14.865  -8.132  -6.174  1.00  0.00    -0.000 C 
BRANCH  10  11
ATOM     11  C   UNL     1     -15.994  -7.442  -6.955  1.00  0.00    -0.003 C 
ATOM     12  C   UNL     1     -17.128  -6.956  -6.052  1.00  0.00     0.004 C 
ENDBRANCH  10  11
ENDBRANCH   9  10
ENDBRANCH   8   9
ENDBRANCH   7   8
ENDBRANCH   6   7
ENDBRANCH   5   6
ENDBRANCH   4   5
ENDBRANCH   3   4
ENDBRANCH   2   3
ENDBRANCH   1   2
BRANCH   1  13
ATOM     13  C   UNL     1      -5.178  -6.275  -4.875  1.00  0.00     0.000 C 
BRANCH  13  14
ATOM     14  C   UNL     1      -4.130  -7.268  -5.408  1.00  0.00     0.000 C 
BRANCH  14  15
ATOM     15  C   UNL     1      -3.187  -6.640  -6.450  1.00  0.00     0.000 C 
BRANCH  15  16
ATOM     16  C   UNL     1      -3.844  -6.332  -7.807  1.00  0.00     0.000 C 
BRANCH  16  17
ATOM     17  C   UNL     1      -3.852  -7.548  -8.751  1.00  0.00     0.000 C 
BRANCH  17  18
ATOM     18  C   UNL     1      -4.895  -8.602  -8.343  1.00  0.00     0.000 C 
BRANCH  18  19
ATOM     19  C   UNL     1      -4.664  -9.952  -9.038  1.00  0.00     0.000 C 
BRANCH  19  20
ATOM     20  C   UNL     1      -4.437 -11.066  -8.011  1.00  0.00     0.006 C 
BRANCH  20  21
ATOM     21  C   UNL     1      -2.968 -11.123  -7.575  1.00  0.00     0.053 C 
BRANCH  21  22
ATOM     22  C   UNL     1      -2.807 -10.542  -6.205  1.00  0.00     0.041 C 
ATOM     23  O   UNL     1      -3.650 -10.797  -5.304  1.00  0.00    -0.550 OA
ATOM     24  O   UNL     1      -1.755  -9.675  -5.940  1.00  0.00    -0.550 OA
ENDBRANCH  21  22
ENDBRANCH  20  21
ENDBRANCH  19  20
ENDBRANCH  18  19
ENDBRANCH  17  18
ENDBRANCH  16  17
ENDBRANCH  15  16
ENDBRANCH  14  15
ENDBRANCH  13  14
ENDBRANCH   1  13
TORSDOF 20
ENDMDL
MODEL 5
REMARK VINA RESULT:    -1.699      4.293      9.847
REMARK INTER + INTRA:          -5.396
REMARK INTER:                  -3.745
REMARK INTRA:                  -1.651
REMARK UNBOUND:                -1.711
REMARK SMILES CCCCCCCCCCCCCCCCCCCCCC(=O)[O-]
REMARK SMILES IDX 12 1 11 2 10 3 9 4 8 5 7 6 6 7 5 8 4 9 3 10 2 11 1 12 13 13
REMARK SMILES IDX 14 14 15 15 16 16 17 17 18 18 19 19 20 20 21 21 22 22 23 23
REMARK SMILES IDX 24 24
REMARK H PARENT
REMARK Flexibility Score: inf
ROOT
ATOM      1  C   UNL     1      -3.892  -5.666  -5.734  1.00  0.00     0.000 C 
ENDROOT
BRANCH   1   2
ATOM      2  C   UNL     1      -4.047  -5.718  -7.264  1.00  0.00     0.000 C 
BRANCH   2   3
ATOM      3  C   UNL     1      -3.636  -7.080  -7.846  1.00  0.00     0.000 C 
BRANCH   3   4
ATOM      4  C   UNL     1      -4.748  -8.135  -7.713  1.00  0.00    -0.000 C 
BRANCH   4   5
ATOM      5  C   UNL     1      -4.283  -9.551  -8.103  1.00  0.00    -0.000 C 
BRANCH   5   6
ATOM      6  C   UNL     1      -3.466 -10.293  -7.028  1.00  0.00    -0.000 C 
BRANCH   6   7
ATOM      7  C   UNL     1      -3.889  -9.929  -5.595  1.00  0.00    -0.000 C 
BRANCH   7   8
ATOM      8  C   UNL     1      -4.986 -10.856  -5.038  1.00  0.00    -0.000 C 
BRANCH   8   9
ATOM      9  C   UNL     1      -6.389 -10.227  -4.928  1.00  0.00    -0.000 C 
BRANCH   9  10
ATOM     10  C   UNL     1      -7.487 -11.092  -5.568  1.00  0.00    -0.000 C 
BRANCH  10  11
ATOM     11  C   UNL     1      -7.946 -10.547  -6.930  1.00  0.00    -0.003 C 
ATOM     12  C   UNL     1      -7.149 -11.125  -8.099  1.00  0.00     0.004 C 
ENDBRANCH  10  11
ENDBRANCH   9  10
ENDBRANCH   8   9
ENDBRANCH   7   8
ENDBRANCH   6   7
ENDBRANCH   5   6
ENDBRANCH   4   5
ENDBRANCH   3   4
ENDBRANCH   2   3
ENDBRANCH   1   2
BRANCH   1  13
ATOM     13  C   UNL     1      -4.808  -6.668  -5.016  1.00  0.00     0.000 C 
BRANCH  13  14
ATOM     14  C   UNL     1      -6.251  -6.155  -4.877  1.00  0.00     0.000 C 
BRANCH  14  15
ATOM     15  C   UNL     1      -7.298  -7.278  -4.984  1.00  0.00     0.000 C 
BRANCH  15  16
ATOM     16  C   UNL     1      -8.751  -6.790  -5.125  1.00  0.00     0.000 C 
BRANCH  16  17
ATOM     17  C   UNL     1      -9.588  -7.683  -6.058  1.00  0.00     0.000 C 
BRANCH  17  18
ATOM     18  C   UNL     1     -11.048  -7.810  -5.594  1.00  0.00     0.000 C 
BRANCH  18  19
ATOM     19  C   UNL     1     -11.935  -8.504  -6.640  1.00  0.00     0.000 C 
BRANCH  19  20
ATOM     20  C   UNL     1     -13.067  -7.580  -7.099  1.00  0.00     0.006 C 
BRANCH  20  21
ATOM     21  C   UNL     1     -14.326  -7.785  -6.248  1.00  0.00     0.053 C 
BRANCH  21  22
ATOM     22  C   UNL     1     -15.549  -7.415  -7.028  1.00  0.00     0.041 C 
ATOM     23  O   UNL     1     -16.613  -7.099  -6.429  1.00  0.00    -0.550 OA
ATOM     24  O   UNL     1     -15.529  -7.470  -8.415  1.00  0.00    -0.550 OA
ENDBRANCH  21  22
ENDBRANCH  20  21
ENDBRANCH  19  20
ENDBRANCH  18  19
ENDBRANCH  17  18
ENDBRANCH  16  17
ENDBRANCH  15  16
ENDBRANCH  14  15
ENDBRANCH  13  14
ENDBRANCH   1  13
TORSDOF 20
ENDMDL
MODEL 6
REMARK VINA RESULT:    -1.647      1.711      2.255
REMARK INTER + INTRA:          -5.285
REMARK INTER:                  -4.934
REMARK INTRA:                  -0.351
REMARK UNBOUND:                -1.711
REMARK SMILES CCCCCCCCCCCCCCCCCCCCCC(=O)[O-]
REMARK SMILES IDX 12 1 11 2 10 3 9 4 8 5 7 6 6 7 5 8 4 9 3 10 2 11 1 12 13 13
REMARK SMILES IDX 14 14 15 15 16 16 17 17 18 18 19 19 20 20 21 21 22 22 23 23
REMARK SMILES IDX 24 24
REMARK H PARENT
REMARK Flexibility Score: inf
ROOT
ATOM      1  C   UNL     1     -13.162  -7.406  -7.953  1.00  0.00     0.000 C 
ENDROOT
BRANCH   1   2
ATOM      2  C   UNL     1     -13.463  -6.850  -6.550  1.00  0.00     0.000 C 
BRANCH   2   3
ATOM      3  C   UNL     1     -13.198  -7.883  -5.443  1.00  0.00     0.000 C 
BRANCH   3   4
ATOM      4  C   UNL     1     -14.487  -8.570  -4.960  1.00  0.00    -0.000 C 
BRANCH   4   5
ATOM      5  C   UNL     1     -14.356 -10.103  -4.875  1.00  0.00    -0.000 C 
BRANCH   5   6
ATOM      6  C   UNL     1     -15.619 -10.892  -5.272  1.00  0.00    -0.000 C 
BRANCH   6   7
ATOM      7  C   UNL     1     -16.746  -9.992  -5.807  1.00  0.00    -0.000 C 
BRANCH   7   8
ATOM      8  C   UNL     1     -17.120 -10.303  -7.269  1.00  0.00    -0.000 C 
BRANCH   8   9
ATOM      9  C   UNL     1     -16.980  -9.124  -8.251  1.00  0.00    -0.000 C 
BRANCH   9  10
ATOM     10  C   UNL     1     -16.628  -7.799  -7.554  1.00  0.00    -0.000 C 
BRANCH  10  11
ATOM     11  C   UNL     1     -16.424  -6.647  -8.549  1.00  0.00    -0.003 C 
ATOM     12  C   UNL     1     -17.431  -5.513  -8.358  1.00  0.00     0.004 C 
ENDBRANCH  10  11
ENDBRANCH   9  10
ENDBRANCH   8   9
ENDBRANCH   7   8
ENDBRANCH   6   7
ENDBRANCH   5   6
ENDBRANCH   4   5
ENDBRANCH   3   4
ENDBRANCH   2   3
ENDBRANCH   1   2
BRANCH   1  13
ATOM     13  C   UNL     1     -11.745  -7.985  -8.064  1.00  0.00     0.000 C 
BRANCH  13  14
ATOM     14  C   UNL     1     -11.207  -8.495  -6.717  1.00  0.00     0.000 C 
BRANCH  14  15
ATOM     15  C   UNL     1     -11.011 -10.021  -6.690  1.00  0.00     0.000 C 
BRANCH  15  16
ATOM     16  C   UNL     1     -10.454 -10.574  -5.366  1.00  0.00     0.000 C 
BRANCH  16  17
ATOM     17  C   UNL     1      -8.962 -10.256  -5.171  1.00  0.00     0.000 C 
BRANCH  17  18
ATOM     18  C   UNL     1      -8.184 -10.249  -6.498  1.00  0.00     0.000 C 
BRANCH  18  19
ATOM     19  C   UNL     1      -7.231  -9.048  -6.611  1.00  0.00     0.000 C 
BRANCH  19  20
ATOM     20  C   UNL     1      -6.021  -9.221  -5.687  1.00  0.00     0.006 C 
BRANCH  20  21
ATOM     21  C   UNL     1      -4.769  -8.575  -6.292  1.00  0.00     0.053 C 
BRANCH  21  22
ATOM     22  C   UNL     1      -3.986  -9.585  -7.072  1.00  0.00     0.041 C 
ATOM     23  O   UNL     1      -3.092 -10.271  -6.506  1.00  0.00    -0.550 OA
ATOM     24  O   UNL     1      -4.207  -9.729  -8.435  1.00  0.00    -0.550 OA
ENDBRANCH  21  22
ENDBRANCH  20  21
ENDBRANCH  19  20
ENDBRANCH  18  19
ENDBRANCH  17  18
ENDBRANCH  16  17
ENDBRANCH  15  16
ENDBRANCH  14  15
ENDBRANCH  13  14
ENDBRANCH   1  13
TORSDOF 20
ENDMDL
MODEL 7
REMARK VINA RESULT:    -0.405      4.567     10.043
REMARK INTER + INTRA:          -2.590
REMARK INTER:                  -1.576
REMARK INTRA:                  -1.014
REMARK UNBOUND:                -1.711
REMARK SMILES CCCCCCCCCCCCCCCCCCCCCC(=O)[O-]
REMARK SMILES IDX 12 1 11 2 10 3 9 4 8 5 7 6 6 7 5 8 4 9 3 10 2 11 1 12 13 13
REMARK SMILES IDX 14 14 15 15 16 16 17 17 18 18 19 19 20 20 21 21 22 22 23 23
REMARK SMILES IDX 24 24
REMARK H PARENT
REMARK Flexibility Score: inf
ROOT
ATOM      1  C   UNL     1     -14.656  -7.528  -7.613  1.00  0.00     0.000 C 
ENDROOT
BRANCH   1   2
ATOM      2  C   UNL     1     -13.185  -7.762  -7.226  1.00  0.00     0.000 C 
BRANCH   2   3
ATOM      3  C   UNL     1     -12.876  -7.295  -5.795  1.00  0.00     0.000 C 
BRANCH   3   4
ATOM      4  C   UNL     1     -11.637  -7.990  -5.205  1.00  0.00    -0.000 C 
BRANCH   4   5
ATOM      5  C   UNL     1     -11.500  -9.458  -5.653  1.00  0.00    -0.000 C 
BRANCH   5   6
ATOM      6  C   UNL     1     -10.066 -10.022  -5.622  1.00  0.00    -0.000 C 
BRANCH   6   7
ATOM      7  C   UNL     1      -9.061  -9.072  -4.949  1.00  0.00    -0.000 C 
BRANCH   7   8
ATOM      8  C   UNL     1      -8.369  -8.124  -5.948  1.00  0.00    -0.000 C 
BRANCH   8   9
ATOM      9  C   UNL     1      -7.728  -8.809  -7.171  1.00  0.00    -0.000 C 
BRANCH   9  10
ATOM     10  C   UNL     1      -7.583 -10.330  -7.001  1.00  0.00    -0.000 C 
BRANCH  10  11
ATOM     11  C   UNL     1      -6.145 -10.749  -6.660  1.00  0.00    -0.003 C 
ATOM     12  C   UNL     1      -5.099  -9.761  -7.176  1.00  0.00     0.004 C 
ENDBRANCH  10  11
ENDBRANCH   9  10
ENDBRANCH   8   9
ENDBRANCH   7   8
ENDBRANCH   6   7
ENDBRANCH   5   6
ENDBRANCH   4   5
ENDBRANCH   3   4
ENDBRANCH   2   3
ENDBRANCH   1   2
BRANCH   1  13
ATOM     13  C   UNL     1     -15.386  -6.612  -6.620  1.00  0.00     0.000 C 
BRANCH  13  14
ATOM     14  C   UNL     1     -16.784  -6.200  -7.114  1.00  0.00     0.000 C 
BRANCH  14  15
ATOM     15  C   UNL     1     -17.770  -5.934  -5.963  1.00  0.00     0.000 C 
BRANCH  15  16
ATOM     16  C   UNL     1     -17.800  -7.024  -4.878  1.00  0.00     0.000 C 
BRANCH  16  17
ATOM     17  C   UNL     1     -18.874  -8.094  -5.140  1.00  0.00     0.000 C 
BRANCH  17  18
ATOM     18  C   UNL     1     -18.271  -9.490  -5.363  1.00  0.00     0.000 C 
BRANCH  18  19
ATOM     19  C   UNL     1     -16.738  -9.488  -5.264  1.00  0.00     0.000 C 
BRANCH  19  20
ATOM     20  C   UNL     1     -16.106 -10.049  -6.542  1.00  0.00     0.006 C 
BRANCH  20  21
ATOM     21  C   UNL     1     -17.158 -10.726  -7.427  1.00  0.00     0.053 C 
BRANCH  21  22
ATOM     22  C   UNL     1     -17.010 -10.281  -8.848  1.00  0.00     0.041 C 
ATOM     23  O   UNL     1     -16.784 -11.125  -9.758  1.00  0.00    -0.550 OA
ATOM     24  O   UNL     1     -17.068  -8.929  -9.160  1.00  0.00    -0.550 OA
ENDBRANCH  21  22
ENDBRANCH  20  21
ENDBRANCH  19  20
ENDBRANCH  18  19
ENDBRANCH  17  18
ENDBRANCH  16  17
ENDBRANCH  15  16
ENDBRANCH  14  15
ENDBRANCH  13  14
ENDBRANCH   1  13
TORSDOF 20
ENDMDL
MODEL 8
REMARK VINA RESULT:    -0.383      1.670      2.450
REMARK INTER + INTRA:          -2.542
REMARK INTER:                  -2.083
REMARK INTRA:                  -0.459
REMARK UNBOUND:                -1.711
REMARK SMILES CCCCCCCCCCCCCCCCCCCCCC(=O)[O-]
REMARK SMILES IDX 12 1 11 2 10 3 9 4 8 5 7 6 6 7 5 8 4 9 3 10 2 11 1 12 13 13
REMARK SMILES IDX 14 14 15 15 16 16 17 17 18 18 19 19 20 20 21 21 22 22 23 23
REMARK SMILES IDX 24 24
REMARK H PARENT
REMARK Flexibility Score: inf
ROOT
ATOM      1  C   UNL     1     -11.480  -8.507  -7.550  1.00  0.00     0.000 C 
ENDROOT
BRANCH   1   2
ATOM      2  C   UNL     1     -11.523  -9.966  -7.061  1.00  0.00     0.000 C 
BRANCH   2   3
ATOM      3  C   UNL     1     -12.935 -10.397  -6.637  1.00  0.00     0.000 C 
BRANCH   3   4
ATOM      4  C   UNL     1     -13.205 -10.140  -5.145  1.00  0.00    -0.000 C 
BRANCH   4   5
ATOM      5  C   UNL     1     -13.985  -8.836  -4.890  1.00  0.00    -0.000 C 
BRANCH   5   6
ATOM      6  C   UNL     1     -14.834  -8.337  -6.074  1.00  0.00    -0.000 C 
BRANCH   6   7
ATOM      7  C   UNL     1     -16.346  -8.459  -5.822  1.00  0.00    -0.000 C 
BRANCH   7   8
ATOM      8  C   UNL     1     -16.885  -9.880  -6.074  1.00  0.00    -0.000 C 
BRANCH   8   9
ATOM      9  C   UNL     1     -17.046 -10.273  -7.556  1.00  0.00    -0.000 C 
BRANCH   9  10
ATOM     10  C   UNL     1     -16.253  -9.362  -8.508  1.00  0.00    -0.000 C 
BRANCH  10  11
ATOM     11  C   UNL     1     -16.905  -7.982  -8.681  1.00  0.00    -0.003 C 
ATOM     12  C   UNL     1     -15.884  -6.867  -8.905  1.00  0.00     0.004 C 
ENDBRANCH  10  11
ENDBRANCH   9  10
ENDBRANCH   8   9
ENDBRANCH   7   8
ENDBRANCH   6   7
ENDBRANCH   5   6
ENDBRANCH   4   5
ENDBRANCH   3   4
ENDBRANCH   2   3
ENDBRANCH   1   2
BRANCH   1  13
ATOM     13  C   UNL     1     -10.201  -7.779  -7.114  1.00  0.00     0.000 C 
BRANCH  13  14
ATOM     14  C   UNL     1      -9.906  -7.949  -5.614  1.00  0.00     0.000 C 
BRANCH  14  15
ATOM     15  C   UNL     1      -8.406  -7.854  -5.285  1.00  0.00     0.000 C 
BRANCH  15  16
ATOM     16  C   UNL     1      -7.745  -9.192  -4.909  1.00  0.00     0.000 C 
BRANCH  16  17
ATOM     17  C   UNL     1      -6.209  -9.135  -4.977  1.00  0.00     0.000 C 
BRANCH  17  18
ATOM     18  C   UNL     1      -5.645  -9.910  -6.179  1.00  0.00     0.000 C 
BRANCH  18  19
ATOM     19  C   UNL     1      -4.227 -10.443  -5.918  1.00  0.00     0.000 C 
BRANCH  19  20
ATOM     20  C   UNL     1      -3.438  -9.484  -5.021  1.00  0.00     0.006 C 
BRANCH  20  21
ATOM     21  C   UNL     1      -2.630  -8.485  -5.858  1.00  0.00     0.053 C 
BRANCH  21  22
ATOM     22  C   UNL     1      -2.846  -7.091  -5.358  1.00  0.00     0.041 C 
ATOM     23  O   UNL     1      -1.867  -6.393  -4.980  1.00  0.00    -0.550 OA
ATOM     24  O   UNL     1      -4.134  -6.582  -5.261  1.00  0.00    -0.550 OA
ENDBRANCH  21  22
ENDBRANCH  20  21
ENDBRANCH  19  20
ENDBRANCH  18  19
ENDBRANCH  17  18
ENDBRANCH  16  17
ENDBRANCH  15  16
ENDBRANCH  14  15
ENDBRANCH  13  14
ENDBRANCH   1  13
TORSDOF 20
ENDMDL
