MODEL 1
REMARK VINA RESULT:    -2.335      0.000      0.000
REMARK INTER + INTRA:          -8.808
REMARK INTER:                  -5.066
REMARK INTRA:                  -3.742
REMARK UNBOUND:                -3.742
REMARK SMILES CCCCCCCCCCCCCCCCCCCCCC(=O)[O-]
REMARK SMILES IDX 12 1 11 2 10 3 9 4 8 5 7 6 6 7 5 8 4 9 3 10 2 11 1 12 13 13
REMARK SMILES IDX 14 14 15 15 16 16 17 17 18 18 19 19 20 20 21 21 22 22 23 23
REMARK SMILES IDX 24 24
REMARK H PARENT
REMARK Flexibility Score: inf
ROOT
ATOM      1  C   UNL     1     -18.044  13.635 -23.338  1.00  0.00     0.000 C 
ENDROOT
BRANCH   1   2
ATOM      2  C   UNL     1     -18.151  15.143 -23.611  1.00  0.00     0.000 C 
BRANCH   2   3
ATOM      3  C   UNL     1     -17.256  15.984 -22.684  1.00  0.00     0.000 C 
BRANCH   3   4
ATOM      4  C   UNL     1     -15.803  16.173 -23.167  1.00  0.00    -0.000 C 
BRANCH   4   5
ATOM      5  C   UNL     1     -15.578  15.951 -24.674  1.00  0.00    -0.000 C 
BRANCH   5   6
ATOM      6  C   UNL     1     -14.795  14.663 -24.978  1.00  0.00    -0.000 C 
BRANCH   6   7
ATOM      7  C   UNL     1     -14.090  14.093 -23.736  1.00  0.00    -0.000 C 
BRANCH   7   8
ATOM      8  C   UNL     1     -14.594  12.687 -23.362  1.00  0.00    -0.000 C 
BRANCH   8   9
ATOM      9  C   UNL     1     -14.054  12.204 -22.004  1.00  0.00    -0.000 C 
BRANCH   9  10
ATOM     10  C   UNL     1     -14.427  13.090 -20.796  1.00  0.00    -0.000 C 
BRANCH  10  11
ATOM     11  C   UNL     1     -15.937  13.266 -20.560  1.00  0.00    -0.003 C 
ATOM     12  C   UNL     1     -16.254  14.042 -19.282  1.00  0.00     0.004 C 
ENDBRANCH  10  11
ENDBRANCH   9  10
ENDBRANCH   8   9
ENDBRANCH   7   8
ENDBRANCH   6   7
ENDBRANCH   5   6
ENDBRANCH   4   5
ENDBRANCH   3   4
ENDBRANCH   2   3
ENDBRANCH   1   2
BRANCH   1  13
ATOM     13  C   UNL     1     -18.806  12.828 -24.402  1.00  0.00     0.000 C 
BRANCH  13  14
ATOM     14  C   UNL     1     -19.978  13.609 -25.017  1.00  0.00     0.000 C 
BRANCH  14  15
ATOM     15  C   UNL     1     -21.330  12.905 -24.816  1.00  0.00     0.000 C 
BRANCH  15  16
ATOM     16  C   UNL     1     -21.989  13.255 -23.471  1.00  0.00     0.000 C 
BRANCH  16  17
ATOM     17  C   UNL     1     -22.257  14.764 -23.288  1.00  0.00     0.000 C 
BRANCH  17  18
ATOM     18  C   UNL     1     -21.581  15.325 -22.026  1.00  0.00     0.000 C 
BRANCH  18  19
ATOM     19  C   UNL     1     -21.008  14.225 -21.115  1.00  0.00     0.000 C 
BRANCH  19  20
ATOM     20  C   UNL     1     -19.818  14.693 -20.250  1.00  0.00     0.006 C 
BRANCH  20  21
ATOM     21  C   UNL     1     -20.176  14.764 -18.759  1.00  0.00     0.053 C 
BRANCH  21  22
ATOM     22  C   UNL     1     -20.360  13.390 -18.198  1.00  0.00     0.041 C 
ATOM     23  O   UNL     1     -21.500  13.002 -17.829  1.00  0.00    -0.550 OA
ATOM     24  O   UNL     1     -19.262  12.552 -18.036  1.00  0.00    -0.550 OA
ENDBRANCH  21  22
ENDBRANCH  20  21
ENDBRANCH  19  20
ENDBRANCH  18  19
ENDBRANCH  17  18
ENDBRANCH  16  17
ENDBRANCH  15  16
ENDBRANCH  14  15
ENDBRANCH  13  14
ENDBRANCH   1  13
TORSDOF 20
ENDMDL
MODEL 2
REMARK VINA RESULT:    -2.328      3.058      7.297
REMARK INTER + INTRA:          -8.792
REMARK INTER:                  -5.412
REMARK INTRA:                  -3.380
REMARK UNBOUND:                -3.742
REMARK SMILES CCCCCCCCCCCCCCCCCCCCCC(=O)[O-]
REMARK SMILES IDX 12 1 11 2 10 3 9 4 8 5 7 6 6 7 5 8 4 9 3 10 2 11 1 12 13 13
REMARK SMILES IDX 14 14 15 15 16 16 17 17 18 18 19 19 20 20 21 21 22 22 23 23
REMARK SMILES IDX 24 24
REMARK H PARENT
REMARK Flexibility Score: inf
ROOT
ATOM      1  C   UNL     1     -18.642  12.759 -18.421  1.00  0.00     0.000 C 
ENDROOT
BRANCH   1   2
ATOM      2  C   UNL     1     -18.151  12.775 -16.965  1.00  0.00     0.000 C 
BRANCH   2   3
ATOM      3  C   UNL     1     -19.289  12.587 -15.947  1.00  0.00     0.000 C 
BRANCH   3   4
ATOM      4  C   UNL     1     -20.470  11.723 -16.434  1.00  0.00    -0.000 C 
BRANCH   4   5
ATOM      5  C   UNL     1     -21.844  12.417 -16.412  1.00  0.00    -0.000 C 
BRANCH   5   6
ATOM      6  C   UNL     1     -22.082  13.309 -17.642  1.00  0.00    -0.000 C 
BRANCH   6   7
ATOM      7  C   UNL     1     -22.221  14.796 -17.276  1.00  0.00    -0.000 C 
BRANCH   7   8
ATOM      8  C   UNL     1     -20.901  15.572 -17.434  1.00  0.00    -0.000 C 
BRANCH   8   9
ATOM      9  C   UNL     1     -20.537  16.389 -16.182  1.00  0.00    -0.000 C 
BRANCH   9  10
ATOM     10  C   UNL     1     -21.357  16.054 -14.918  1.00  0.00    -0.000 C 
BRANCH  10  11
ATOM     11  C   UNL     1     -20.611  15.223 -13.860  1.00  0.00    -0.003 C 
ATOM     12  C   UNL     1     -21.498  14.171 -13.194  1.00  0.00     0.004 C 
ENDBRANCH  10  11
ENDBRANCH   9  10
ENDBRANCH   8   9
ENDBRANCH   7   8
ENDBRANCH   6   7
ENDBRANCH   5   6
ENDBRANCH   4   5
ENDBRANCH   3   4
ENDBRANCH   2   3
ENDBRANCH   1   2
BRANCH   1  13
ATOM     13  C   UNL     1     -18.090  13.963 -19.201  1.00  0.00     0.000 C 
BRANCH  13  14
ATOM     14  C   UNL     1     -18.543  13.982 -20.670  1.00  0.00     0.000 C 
BRANCH  14  15
ATOM     15  C   UNL     1     -19.712  14.949 -20.918  1.00  0.00     0.000 C 
BRANCH  15  16
ATOM     16  C   UNL     1     -21.013  14.224 -21.306  1.00  0.00     0.000 C 
BRANCH  16  17
ATOM     17  C   UNL     1     -21.495  14.545 -22.737  1.00  0.00     0.000 C 
BRANCH  17  18
ATOM     18  C   UNL     1     -22.050  13.303 -23.454  1.00  0.00     0.000 C 
BRANCH  18  19
ATOM     19  C   UNL     1     -21.112  12.780 -24.557  1.00  0.00     0.000 C 
BRANCH  19  20
ATOM     20  C   UNL     1     -19.867  13.664 -24.783  1.00  0.00     0.006 C 
BRANCH  20  21
ATOM     21  C   UNL     1     -18.567  12.949 -24.389  1.00  0.00     0.053 C 
BRANCH  21  22
ATOM     22  C   UNL     1     -17.444  13.930 -24.270  1.00  0.00     0.041 C 
ATOM     23  O   UNL     1     -17.671  15.112 -23.901  1.00  0.00    -0.550 OA
ATOM     24  O   UNL     1     -16.151  13.551 -24.613  1.00  0.00    -0.550 OA
ENDBRANCH  21  22
ENDBRANCH  20  21
ENDBRANCH  19  20
ENDBRANCH  18  19
ENDBRANCH  17  18
ENDBRANCH  16  17
ENDBRANCH  15  16
ENDBRANCH  14  15
ENDBRANCH  13  14
ENDBRANCH   1  13
TORSDOF 20
ENDMDL
MODEL 3
REMARK VINA RESULT:    -2.303      2.746      6.305
REMARK INTER + INTRA:          -8.738
REMARK INTER:                  -5.487
REMARK INTRA:                  -3.251
REMARK UNBOUND:                -3.742
REMARK SMILES CCCCCCCCCCCCCCCCCCCCCC(=O)[O-]
REMARK SMILES IDX 12 1 11 2 10 3 9 4 8 5 7 6 6 7 5 8 4 9 3 10 2 11 1 12 13 13
REMARK SMILES IDX 14 14 15 15 16 16 17 17 18 18 19 19 20 20 21 21 22 22 23 23
REMARK SMILES IDX 24 24
REMARK H PARENT
REMARK Flexibility Score: inf
ROOT
ATOM      1  C   UNL     1     -19.420  15.495 -21.704  1.00  0.00     0.000 C 
ENDROOT
BRANCH   1   2
ATOM      2  C   UNL     1     -18.918  14.108 -21.274  1.00  0.00     0.000 C 
BRANCH   2   3
ATOM      3  C   UNL     1     -18.702  13.995 -19.754  1.00  0.00     0.000 C 
BRANCH   3   4
ATOM      4  C   UNL     1     -19.085  15.249 -18.941  1.00  0.00    -0.000 C 
BRANCH   4   5
ATOM      5  C   UNL     1     -20.330  15.097 -18.048  1.00  0.00    -0.000 C 
BRANCH   5   6
ATOM      6  C   UNL     1     -21.318  14.043 -18.575  1.00  0.00    -0.000 C 
BRANCH   6   7
ATOM      7  C   UNL     1     -21.956  13.214 -17.448  1.00  0.00    -0.000 C 
BRANCH   7   8
ATOM      8  C   UNL     1     -21.490  13.658 -16.050  1.00  0.00    -0.000 C 
BRANCH   8   9
ATOM      9  C   UNL     1     -20.965  12.489 -15.199  1.00  0.00    -0.000 C 
BRANCH   9  10
ATOM     10  C   UNL     1     -20.007  11.523 -15.929  1.00  0.00    -0.000 C 
BRANCH  10  11
ATOM     11  C   UNL     1     -18.526  11.652 -15.533  1.00  0.00    -0.003 C 
ATOM     12  C   UNL     1     -17.762  12.651 -16.402  1.00  0.00     0.004 C 
ENDBRANCH  10  11
ENDBRANCH   9  10
ENDBRANCH   8   9
ENDBRANCH   7   8
ENDBRANCH   6   7
ENDBRANCH   5   6
ENDBRANCH   4   5
ENDBRANCH   3   4
ENDBRANCH   2   3
ENDBRANCH   1   2
BRANCH   1  13
ATOM     13  C   UNL     1     -20.907  15.445 -22.092  1.00  0.00     0.000 C 
BRANCH  13  14
ATOM     14  C   UNL     1     -21.441  14.010 -22.228  1.00  0.00     0.000 C 
BRANCH  14  15
ATOM     15  C   UNL     1     -22.287  13.810 -23.496  1.00  0.00     0.000 C 
BRANCH  15  16
ATOM     16  C   UNL     1     -21.462  13.932 -24.789  1.00  0.00     0.000 C 
BRANCH  16  17
ATOM     17  C   UNL     1     -20.281  12.941 -24.863  1.00  0.00     0.000 C 
BRANCH  17  18
ATOM     18  C   UNL     1     -18.924  13.660 -24.948  1.00  0.00     0.000 C 
BRANCH  18  19
ATOM     19  C   UNL     1     -17.751  12.781 -24.481  1.00  0.00     0.000 C 
BRANCH  19  20
ATOM     20  C   UNL     1     -16.483  13.582 -24.114  1.00  0.00     0.006 C 
BRANCH  20  21
ATOM     21  C   UNL     1     -16.494  14.994 -24.715  1.00  0.00     0.053 C 
BRANCH  21  22
ATOM     22  C   UNL     1     -16.238  16.018 -23.655  1.00  0.00     0.041 C 
ATOM     23  O   UNL     1     -15.911  15.659 -22.493  1.00  0.00    -0.550 OA
ATOM     24  O   UNL     1     -16.407  17.369 -23.937  1.00  0.00    -0.550 OA
ENDBRANCH  21  22
ENDBRANCH  20  21
ENDBRANCH  19  20
ENDBRANCH  18  19
ENDBRANCH  17  18
ENDBRANCH  16  17
ENDBRANCH  15  16
ENDBRANCH  14  15
ENDBRANCH  13  14
ENDBRANCH   1  13
TORSDOF 20
ENDMDL
MODEL 4
REMARK VINA RESULT:    -2.277      2.167      5.562
REMARK INTER + INTRA:          -8.681
REMARK INTER:                  -5.499
REMARK INTRA:                  -3.182
REMARK UNBOUND:                -3.742
REMARK SMILES CCCCCCCCCCCCCCCCCCCCCC(=O)[O-]
REMARK SMILES IDX 12 1 11 2 10 3 9 4 8 5 7 6 6 7 5 8 4 9 3 10 2 11 1 12 13 13
REMARK SMILES IDX 14 14 15 15 16 16 17 17 18 18 19 19 20 20 21 21 22 22 23 23
REMARK SMILES IDX 24 24
REMARK H PARENT
REMARK Flexibility Score: inf
ROOT
ATOM      1  C   UNL     1     -17.863  15.601 -23.240  1.00  0.00     0.000 C 
ENDROOT
BRANCH   1   2
ATOM      2  C   UNL     1     -17.206  14.859 -24.413  1.00  0.00     0.000 C 
BRANCH   2   3
ATOM      3  C   UNL     1     -18.153  13.854 -25.093  1.00  0.00     0.000 C 
BRANCH   3   4
ATOM      4  C   UNL     1     -19.184  13.189 -24.158  1.00  0.00    -0.000 C 
BRANCH   4   5
ATOM      5  C   UNL     1     -20.602  13.043 -24.742  1.00  0.00    -0.000 C 
BRANCH   5   6
ATOM      6  C   UNL     1     -21.705  13.298 -23.700  1.00  0.00    -0.000 C 
BRANCH   6   7
ATOM      7  C   UNL     1     -21.154  13.865 -22.382  1.00  0.00    -0.000 C 
BRANCH   7   8
ATOM      8  C   UNL     1     -21.706  15.266 -22.063  1.00  0.00    -0.000 C 
BRANCH   8   9
ATOM      9  C   UNL     1     -21.000  15.924 -20.864  1.00  0.00    -0.000 C 
BRANCH   9  10
ATOM     10  C   UNL     1     -21.118  15.158 -19.530  1.00  0.00    -0.000 C 
BRANCH  10  11
ATOM     11  C   UNL     1     -21.426  16.033 -18.302  1.00  0.00    -0.003 C 
ATOM     12  C   UNL     1     -22.753  16.781 -18.421  1.00  0.00     0.004 C 
ENDBRANCH  10  11
ENDBRANCH   9  10
ENDBRANCH   8   9
ENDBRANCH   7   8
ENDBRANCH   6   7
ENDBRANCH   5   6
ENDBRANCH   4   5
ENDBRANCH   3   4
ENDBRANCH   2   3
ENDBRANCH   1   2
BRANCH   1  13
ATOM     13  C   UNL     1     -16.874  15.775 -22.076  1.00  0.00     0.000 C 
BRANCH  13  14
ATOM     14  C   UNL     1     -17.439  15.282 -20.734  1.00  0.00     0.000 C 
BRANCH  14  15
ATOM     15  C   UNL     1     -17.789  13.785 -20.750  1.00  0.00     0.000 C 
BRANCH  15  16
ATOM     16  C   UNL     1     -17.983  13.203 -19.340  1.00  0.00     0.000 C 
BRANCH  16  17
ATOM     17  C   UNL     1     -17.756  14.231 -18.211  1.00  0.00     0.000 C 
BRANCH  17  18
ATOM     18  C   UNL     1     -17.882  13.598 -16.815  1.00  0.00     0.000 C 
BRANCH  18  19
ATOM     19  C   UNL     1     -18.982  12.525 -16.742  1.00  0.00     0.000 C 
BRANCH  19  20
ATOM     20  C   UNL     1     -20.373  13.087 -16.376  1.00  0.00     0.006 C 
BRANCH  20  21
ATOM     21  C   UNL     1     -21.423  11.978 -16.216  1.00  0.00     0.053 C 
BRANCH  21  22
ATOM     22  C   UNL     1     -22.772  12.568 -15.948  1.00  0.00     0.041 C 
ATOM     23  O   UNL     1     -23.381  12.298 -14.879  1.00  0.00    -0.550 OA
ATOM     24  O   UNL     1     -23.378  13.379 -16.901  1.00  0.00    -0.550 OA
ENDBRANCH  21  22
ENDBRANCH  20  21
ENDBRANCH  19  20
ENDBRANCH  18  19
ENDBRANCH  17  18
ENDBRANCH  16  17
ENDBRANCH  15  16
ENDBRANCH  14  15
ENDBRANCH  13  14
ENDBRANCH   1  13
TORSDOF 20
ENDMDL
MODEL 5
REMARK VINA RESULT:    -2.257      2.134      5.545
REMARK INTER + INTRA:          -8.638
REMARK INTER:                  -5.809
REMARK INTRA:                  -2.829
REMARK UNBOUND:                -3.742
REMARK SMILES CCCCCCCCCCCCCCCCCCCCCC(=O)[O-]
REMARK SMILES IDX 12 1 11 2 10 3 9 4 8 5 7 6 6 7 5 8 4 9 3 10 2 11 1 12 13 13
REMARK SMILES IDX 14 14 15 15 16 16 17 17 18 18 19 19 20 20 21 21 22 22 23 23
REMARK SMILES IDX 24 24
REMARK H PARENT
REMARK Flexibility Score: inf
ROOT
ATOM      1  C   UNL     1     -19.897  14.817 -20.000  1.00  0.00     0.000 C 
ENDROOT
BRANCH   1   2
ATOM      2  C   UNL     1     -20.454  14.275 -21.325  1.00  0.00     0.000 C 
BRANCH   2   3
ATOM      3  C   UNL     1     -21.530  15.188 -21.940  1.00  0.00     0.000 C 
BRANCH   3   4
ATOM      4  C   UNL     1     -22.088  14.721 -23.300  1.00  0.00    -0.000 C 
BRANCH   4   5
ATOM      5  C   UNL     1     -22.033  13.202 -23.546  1.00  0.00    -0.000 C 
BRANCH   5   6
ATOM      6  C   UNL     1     -21.254  12.832 -24.819  1.00  0.00    -0.000 C 
BRANCH   6   7
ATOM      7  C   UNL     1     -20.083  13.789 -25.096  1.00  0.00    -0.000 C 
BRANCH   7   8
ATOM      8  C   UNL     1     -18.753  13.283 -24.508  1.00  0.00    -0.000 C 
BRANCH   8   9
ATOM      9  C   UNL     1     -17.883  14.419 -23.943  1.00  0.00    -0.000 C 
BRANCH   9  10
ATOM     10  C   UNL     1     -16.541  13.974 -23.324  1.00  0.00    -0.000 C 
BRANCH  10  11
ATOM     11  C   UNL     1     -16.258  14.526 -21.916  1.00  0.00    -0.003 C 
ATOM     12  C   UNL     1     -16.490  13.494 -20.813  1.00  0.00     0.004 C 
ENDBRANCH  10  11
ENDBRANCH   9  10
ENDBRANCH   8   9
ENDBRANCH   7   8
ENDBRANCH   6   7
ENDBRANCH   5   6
ENDBRANCH   4   5
ENDBRANCH   3   4
ENDBRANCH   2   3
ENDBRANCH   1   2
BRANCH   1  13
ATOM     13  C   UNL     1     -20.986  14.847 -18.916  1.00  0.00     0.000 C 
BRANCH  13  14
ATOM     14  C   UNL     1     -21.471  13.443 -18.519  1.00  0.00     0.000 C 
BRANCH  14  15
ATOM     15  C   UNL     1     -22.305  13.446 -17.227  1.00  0.00     0.000 C 
BRANCH  15  16
ATOM     16  C   UNL     1     -21.888  12.338 -16.246  1.00  0.00     0.000 C 
BRANCH  16  17
ATOM     17  C   UNL     1     -20.706  11.482 -16.748  1.00  0.00     0.000 C 
BRANCH  17  18
ATOM     18  C   UNL     1     -19.519  11.501 -15.770  1.00  0.00     0.000 C 
BRANCH  18  19
ATOM     19  C   UNL     1     -19.082  12.926 -15.388  1.00  0.00     0.000 C 
BRANCH  19  20
ATOM     20  C   UNL     1     -18.379  13.688 -16.532  1.00  0.00     0.006 C 
BRANCH  20  21
ATOM     21  C   UNL     1     -17.434  12.784 -17.336  1.00  0.00     0.053 C 
BRANCH  21  22
ATOM     22  C   UNL     1     -16.143  12.593 -16.604  1.00  0.00     0.041 C 
ATOM     23  O   UNL     1     -15.363  13.565 -16.429  1.00  0.00    -0.550 OA
ATOM     24  O   UNL     1     -15.779  11.328 -16.156  1.00  0.00    -0.550 OA
ENDBRANCH  21  22
ENDBRANCH  20  21
ENDBRANCH  19  20
ENDBRANCH  18  19
ENDBRANCH  17  18
ENDBRANCH  16  17
ENDBRANCH  15  16
ENDBRANCH  14  15
ENDBRANCH  13  14
ENDBRANCH   1  13
TORSDOF 20
ENDMDL
MODEL 6
REMARK VINA RESULT:    -2.251     13.596     16.427
REMARK INTER + INTRA:          -8.625
REMARK INTER:                  -5.747
REMARK INTRA:                  -2.878
REMARK UNBOUND:                -3.742
REMARK SMILES CCCCCCCCCCCCCCCCCCCCCC(=O)[O-]
REMARK SMILES IDX 12 1 11 2 10 3 9 4 8 5 7 6 6 7 5 8 4 9 3 10 2 11 1 12 13 13
REMARK SMILES IDX 14 14 15 15 16 16 17 17 18 18 19 19 20 20 21 21 22 22 23 23
REMARK SMILES IDX 24 24
REMARK H PARENT
REMARK Flexibility Score: inf
ROOT
ATOM      1  C   UNL     1     -17.953  27.975 -19.144  1.00  0.00     0.000 C 
ENDROOT
BRANCH   1   2
ATOM      2  C   UNL     1     -19.132  28.874 -19.544  1.00  0.00     0.000 C 
BRANCH   2   3
ATOM      3  C   UNL     1     -19.775  28.459 -20.880  1.00  0.00     0.000 C 
BRANCH   3   4
ATOM      4  C   UNL     1     -21.285  28.749 -21.000  1.00  0.00    -0.000 C 
BRANCH   4   5
ATOM      5  C   UNL     1     -22.107  27.666 -21.722  1.00  0.00    -0.000 C 
BRANCH   5   6
ATOM      6  C   UNL     1     -23.510  28.150 -22.125  1.00  0.00    -0.000 C 
BRANCH   6   7
ATOM      7  C   UNL     1     -23.762  29.617 -21.741  1.00  0.00    -0.000 C 
BRANCH   7   8
ATOM      8  C   UNL     1     -24.908  29.776 -20.726  1.00  0.00    -0.000 C 
BRANCH   8   9
ATOM      9  C   UNL     1     -24.406  29.913 -19.278  1.00  0.00    -0.000 C 
BRANCH   9  10
ATOM     10  C   UNL     1     -24.510  28.634 -18.422  1.00  0.00    -0.000 C 
BRANCH  10  11
ATOM     11  C   UNL     1     -23.222  28.242 -17.677  1.00  0.00    -0.003 C 
ATOM     12  C   UNL     1     -22.666  26.888 -18.118  1.00  0.00     0.004 C 
ENDBRANCH  10  11
ENDBRANCH   9  10
ENDBRANCH   8   9
ENDBRANCH   7   8
ENDBRANCH   6   7
ENDBRANCH   5   6
ENDBRANCH   4   5
ENDBRANCH   3   4
ENDBRANCH   2   3
ENDBRANCH   1   2
BRANCH   1  13
ATOM     13  C   UNL     1     -16.818  28.803 -18.518  1.00  0.00     0.000 C 
BRANCH  13  14
ATOM     14  C   UNL     1     -15.476  28.623 -19.246  1.00  0.00     0.000 C 
BRANCH  14  15
ATOM     15  C   UNL     1     -14.877  29.955 -19.724  1.00  0.00     0.000 C 
BRANCH  15  16
ATOM     16  C   UNL     1     -15.937  31.054 -19.907  1.00  0.00     0.000 C 
BRANCH  16  17
ATOM     17  C   UNL     1     -16.512  31.125 -21.338  1.00  0.00     0.000 C 
BRANCH  17  18
ATOM     18  C   UNL     1     -15.496  30.659 -22.395  1.00  0.00     0.000 C 
BRANCH  18  19
ATOM     19  C   UNL     1     -16.084  29.630 -23.377  1.00  0.00     0.000 C 
BRANCH  19  20
ATOM     20  C   UNL     1     -16.681  28.385 -22.687  1.00  0.00     0.006 C 
BRANCH  20  21
ATOM     21  C   UNL     1     -16.676  27.154 -23.605  1.00  0.00     0.053 C 
BRANCH  21  22
ATOM     22  C   UNL     1     -15.455  26.325 -23.364  1.00  0.00     0.041 C 
ATOM     23  O   UNL     1     -15.292  25.240 -23.981  1.00  0.00    -0.550 OA
ATOM     24  O   UNL     1     -14.517  26.728 -22.419  1.00  0.00    -0.550 OA
ENDBRANCH  21  22
ENDBRANCH  20  21
ENDBRANCH  19  20
ENDBRANCH  18  19
ENDBRANCH  17  18
ENDBRANCH  16  17
ENDBRANCH  15  16
ENDBRANCH  14  15
ENDBRANCH  13  14
ENDBRANCH   1  13
TORSDOF 20
ENDMDL
MODEL 7
REMARK VINA RESULT:    -2.249     13.951     16.437
REMARK INTER + INTRA:          -8.619
REMARK INTER:                  -4.843
REMARK INTRA:                  -3.777
REMARK UNBOUND:                -3.742
REMARK SMILES CCCCCCCCCCCCCCCCCCCCCC(=O)[O-]
REMARK SMILES IDX 12 1 11 2 10 3 9 4 8 5 7 6 6 7 5 8 4 9 3 10 2 11 1 12 13 13
REMARK SMILES IDX 14 14 15 15 16 16 17 17 18 18 19 19 20 20 21 21 22 22 23 23
REMARK SMILES IDX 24 24
REMARK H PARENT
REMARK Flexibility Score: inf
ROOT
ATOM      1  C   UNL     1     -21.692  27.526 -21.384  1.00  0.00     0.000 C 
ENDROOT
BRANCH   1   2
ATOM      2  C   UNL     1     -22.344  28.917 -21.391  1.00  0.00     0.000 C 
BRANCH   2   3
ATOM      3  C   UNL     1     -23.853  28.869 -21.691  1.00  0.00     0.000 C 
BRANCH   3   4
ATOM      4  C   UNL     1     -24.686  29.998 -21.050  1.00  0.00    -0.000 C 
BRANCH   4   5
ATOM      5  C   UNL     1     -24.661  30.039 -19.511  1.00  0.00    -0.000 C 
BRANCH   5   6
ATOM      6  C   UNL     1     -24.977  28.676 -18.872  1.00  0.00    -0.000 C 
BRANCH   6   7
ATOM      7  C   UNL     1     -24.831  28.692 -17.342  1.00  0.00    -0.000 C 
BRANCH   7   8
ATOM      8  C   UNL     1     -25.037  30.095 -16.741  1.00  0.00    -0.000 C 
BRANCH   8   9
ATOM      9  C   UNL     1     -23.754  30.669 -16.116  1.00  0.00    -0.000 C 
BRANCH   9  10
ATOM     10  C   UNL     1     -22.601  29.659 -15.937  1.00  0.00    -0.000 C 
BRANCH  10  11
ATOM     11  C   UNL     1     -21.276  30.264 -15.443  1.00  0.00    -0.003 C 
ATOM     12  C   UNL     1     -20.557  29.378 -14.427  1.00  0.00     0.004 C 
ENDBRANCH  10  11
ENDBRANCH   9  10
ENDBRANCH   8   9
ENDBRANCH   7   8
ENDBRANCH   6   7
ENDBRANCH   5   6
ENDBRANCH   4   5
ENDBRANCH   3   4
ENDBRANCH   2   3
ENDBRANCH   1   2
BRANCH   1  13
ATOM     13  C   UNL     1     -21.661  26.941 -19.962  1.00  0.00     0.000 C 
BRANCH  13  14
ATOM     14  C   UNL     1     -21.294  27.985 -18.895  1.00  0.00     0.000 C 
BRANCH  14  15
ATOM     15  C   UNL     1     -20.317  27.439 -17.842  1.00  0.00     0.000 C 
BRANCH  15  16
ATOM     16  C   UNL     1     -19.027  28.270 -17.738  1.00  0.00     0.000 C 
BRANCH  16  17
ATOM     17  C   UNL     1     -19.108  29.629 -18.465  1.00  0.00     0.000 C 
BRANCH  17  18
ATOM     18  C   UNL     1     -18.016  29.781 -19.537  1.00  0.00     0.000 C 
BRANCH  18  19
ATOM     19  C   UNL     1     -18.516  29.444 -20.953  1.00  0.00     0.000 C 
BRANCH  19  20
ATOM     20  C   UNL     1     -17.717  28.318 -21.642  1.00  0.00     0.006 C 
BRANCH  20  21
ATOM     21  C   UNL     1     -18.122  26.925 -21.137  1.00  0.00     0.053 C 
BRANCH  21  22
ATOM     22  C   UNL     1     -17.050  26.351 -20.265  1.00  0.00     0.041 C 
ATOM     23  O   UNL     1     -17.308  25.393 -19.491  1.00  0.00    -0.550 OA
ATOM     24  O   UNL     1     -15.776  26.907 -20.273  1.00  0.00    -0.550 OA
ENDBRANCH  21  22
ENDBRANCH  20  21
ENDBRANCH  19  20
ENDBRANCH  18  19
ENDBRANCH  17  18
ENDBRANCH  16  17
ENDBRANCH  15  16
ENDBRANCH  14  15
ENDBRANCH  13  14
ENDBRANCH   1  13
TORSDOF 20
ENDMDL
MODEL 8
REMARK VINA RESULT:    -2.219      1.873      3.451
REMARK INTER + INTRA:          -8.556
REMARK INTER:                  -5.187
REMARK INTRA:                  -3.369
REMARK UNBOUND:                -3.742
REMARK SMILES CCCCCCCCCCCCCCCCCCCCCC(=O)[O-]
REMARK SMILES IDX 12 1 11 2 10 3 9 4 8 5 7 6 6 7 5 8 4 9 3 10 2 11 1 12 13 13
REMARK SMILES IDX 14 14 15 15 16 16 17 17 18 18 19 19 20 20 21 21 22 22 23 23
REMARK SMILES IDX 24 24
REMARK H PARENT
REMARK Flexibility Score: inf
ROOT
ATOM      1  C   UNL     1     -19.903  12.899 -24.557  1.00  0.00     0.000 C 
ENDROOT
BRANCH   1   2
ATOM      2  C   UNL     1     -18.389  13.140 -24.455  1.00  0.00     0.000 C 
BRANCH   2   3
ATOM      3  C   UNL     1     -17.941  13.548 -23.040  1.00  0.00     0.000 C 
BRANCH   3   4
ATOM      4  C   UNL     1     -16.714  14.480 -22.984  1.00  0.00    -0.000 C 
BRANCH   4   5
ATOM      5  C   UNL     1     -17.015  15.976 -23.193  1.00  0.00    -0.000 C 
BRANCH   5   6
ATOM      6  C   UNL     1     -18.366  16.402 -22.594  1.00  0.00    -0.000 C 
BRANCH   6   7
ATOM      7  C   UNL     1     -18.256  16.806 -21.115  1.00  0.00    -0.000 C 
BRANCH   7   8
ATOM      8  C   UNL     1     -16.802  16.816 -20.610  1.00  0.00    -0.000 C 
BRANCH   8   9
ATOM      9  C   UNL     1     -16.633  16.084 -19.267  1.00  0.00    -0.000 C 
BRANCH   9  10
ATOM     10  C   UNL     1     -16.736  14.546 -19.339  1.00  0.00    -0.000 C 
BRANCH  10  11
ATOM     11  C   UNL     1     -17.500  13.889 -18.177  1.00  0.00    -0.003 C 
ATOM     12  C   UNL     1     -17.827  14.868 -17.050  1.00  0.00     0.004 C 
ENDBRANCH  10  11
ENDBRANCH   9  10
ENDBRANCH   8   9
ENDBRANCH   7   8
ENDBRANCH   6   7
ENDBRANCH   5   6
ENDBRANCH   4   5
ENDBRANCH   3   4
ENDBRANCH   2   3
ENDBRANCH   1   2
BRANCH   1  13
ATOM     13  C   UNL     1     -20.639  14.190 -24.953  1.00  0.00     0.000 C 
BRANCH  13  14
ATOM     14  C   UNL     1     -21.775  14.551 -23.982  1.00  0.00     0.000 C 
BRANCH  14  15
ATOM     15  C   UNL     1     -21.638  13.851 -22.620  1.00  0.00     0.000 C 
BRANCH  15  16
ATOM     16  C   UNL     1     -21.439  14.839 -21.459  1.00  0.00     0.000 C 
BRANCH  16  17
ATOM     17  C   UNL     1     -20.772  14.208 -20.218  1.00  0.00     0.000 C 
BRANCH  17  18
ATOM     18  C   UNL     1     -21.012  15.036 -18.945  1.00  0.00     0.000 C 
BRANCH  18  19
ATOM     19  C   UNL     1     -21.634  14.212 -17.804  1.00  0.00     0.000 C 
BRANCH  19  20
ATOM     20  C   UNL     1     -20.995  12.818 -17.626  1.00  0.00     0.006 C 
BRANCH  20  21
ATOM     21  C   UNL     1     -21.577  12.061 -16.423  1.00  0.00     0.053 C 
BRANCH  21  22
ATOM     22  C   UNL     1     -20.490  11.667 -15.475  1.00  0.00     0.041 C 
ATOM     23  O   UNL     1     -19.301  11.565 -15.879  1.00  0.00    -0.550 OA
ATOM     24  O   UNL     1     -20.796  11.365 -14.153  1.00  0.00    -0.550 OA
ENDBRANCH  21  22
ENDBRANCH  20  21
ENDBRANCH  19  20
ENDBRANCH  18  19
ENDBRANCH  17  18
ENDBRANCH  16  17
ENDBRANCH  15  16
ENDBRANCH  14  15
ENDBRANCH  13  14
ENDBRANCH   1  13
TORSDOF 20
ENDMDL
MODEL 9
REMARK VINA RESULT:    -2.213     13.885     16.270
REMARK INTER + INTRA:          -8.542
REMARK INTER:                  -4.963
REMARK INTRA:                  -3.578
REMARK UNBOUND:                -3.742
REMARK SMILES CCCCCCCCCCCCCCCCCCCCCC(=O)[O-]
REMARK SMILES IDX 12 1 11 2 10 3 9 4 8 5 7 6 6 7 5 8 4 9 3 10 2 11 1 12 13 13
REMARK SMILES IDX 14 14 15 15 16 16 17 17 18 18 19 19 20 20 21 21 22 22 23 23
REMARK SMILES IDX 24 24
REMARK H PARENT
REMARK Flexibility Score: inf
ROOT
ATOM      1  C   UNL     1     -21.025  27.166 -20.314  1.00  0.00     0.000 C 
ENDROOT
BRANCH   1   2
ATOM      2  C   UNL     1     -21.523  28.435 -21.022  1.00  0.00     0.000 C 
BRANCH   2   3
ATOM      3  C   UNL     1     -22.959  28.298 -21.558  1.00  0.00     0.000 C 
BRANCH   3   4
ATOM      4  C   UNL     1     -23.701  29.629 -21.796  1.00  0.00    -0.000 C 
BRANCH   4   5
ATOM      5  C   UNL     1     -25.011  29.801 -21.006  1.00  0.00    -0.000 C 
BRANCH   5   6
ATOM      6  C   UNL     1     -24.968  29.125 -19.625  1.00  0.00    -0.000 C 
BRANCH   6   7
ATOM      7  C   UNL     1     -24.348  30.026 -18.544  1.00  0.00    -0.000 C 
BRANCH   7   8
ATOM      8  C   UNL     1     -23.867  29.232 -17.315  1.00  0.00    -0.000 C 
BRANCH   8   9
ATOM      9  C   UNL     1     -24.945  28.284 -16.761  1.00  0.00    -0.000 C 
BRANCH   9  10
ATOM     10  C   UNL     1     -24.491  26.824 -16.550  1.00  0.00    -0.000 C 
BRANCH  10  11
ATOM     11  C   UNL     1     -24.555  26.326 -15.096  1.00  0.00    -0.003 C 
ATOM     12  C   UNL     1     -23.304  26.674 -14.291  1.00  0.00     0.004 C 
ENDBRANCH  10  11
ENDBRANCH   9  10
ENDBRANCH   8   9
ENDBRANCH   7   8
ENDBRANCH   6   7
ENDBRANCH   5   6
ENDBRANCH   4   5
ENDBRANCH   3   4
ENDBRANCH   2   3
ENDBRANCH   1   2
BRANCH   1  13
ATOM     13  C   UNL     1     -22.003  26.733 -19.210  1.00  0.00     0.000 C 
BRANCH  13  14
ATOM     14  C   UNL     1     -21.642  25.372 -18.593  1.00  0.00     0.000 C 
BRANCH  14  15
ATOM     15  C   UNL     1     -21.125  25.492 -17.150  1.00  0.00     0.000 C 
BRANCH  15  16
ATOM     16  C   UNL     1     -19.652  25.928 -17.079  1.00  0.00     0.000 C 
BRANCH  16  17
ATOM     17  C   UNL     1     -19.394  27.070 -16.073  1.00  0.00     0.000 C 
BRANCH  17  18
ATOM     18  C   UNL     1     -20.507  28.132 -16.102  1.00  0.00     0.000 C 
BRANCH  18  19
ATOM     19  C   UNL     1     -20.002  29.514 -16.550  1.00  0.00     0.000 C 
BRANCH  19  20
ATOM     20  C   UNL     1     -19.569  29.567 -18.031  1.00  0.00     0.006 C 
BRANCH  20  21
ATOM     21  C   UNL     1     -18.095  29.966 -18.190  1.00  0.00     0.053 C 
BRANCH  21  22
ATOM     22  C   UNL     1     -17.739  30.086 -19.638  1.00  0.00     0.041 C 
ATOM     23  O   UNL     1     -17.171  31.125 -20.068  1.00  0.00    -0.550 OA
ATOM     24  O   UNL     1     -18.077  29.069 -20.524  1.00  0.00    -0.550 OA
ENDBRANCH  21  22
ENDBRANCH  20  21
ENDBRANCH  19  20
ENDBRANCH  18  19
ENDBRANCH  17  18
ENDBRANCH  16  17
ENDBRANCH  15  16
ENDBRANCH  14  15
ENDBRANCH  13  14
ENDBRANCH   1  13
TORSDOF 20
ENDMDL
