MODEL 1
REMARK VINA RESULT:    -7.462      0.000      0.000
REMARK INTER + INTRA:          -9.554
REMARK INTER:                  -9.207
REMARK INTRA:                  -0.347
REMARK UNBOUND:                -0.347
REMARK SMILES Oc1cc(O)c2cc(O)c(-c3cc(O)c(O)c(O)c3)[o+]c2c1
REMARK SMILES IDX 10 1 20 2 21 3 22 4 2 5 3 6 4 7 6 8 7 9 8 10 11 11 12 12
REMARK SMILES IDX 13 13 19 14 15 15 17 16 14 17 16 19 18 21 9 23 1 25 5 27
REMARK H PARENT 14 18 16 20 18 22 9 24 1 26 5 28
REMARK Flexibility Score: inf
ROOT
ATOM      1  C   UNL     1      39.040 -11.728   8.338  1.00  0.00     0.402 A 
ATOM      2  O   UNL     1      39.114 -11.362   7.061  1.00  0.00    -0.202 OA
ATOM      3  C   UNL     1      38.144 -11.587   6.181  1.00  0.00     0.368 A 
ATOM      4  C   UNL     1      38.313 -11.161   4.860  1.00  0.00     0.162 A 
ATOM      5  C   UNL     1      37.311 -11.382   3.915  1.00  0.00     0.128 A 
ATOM      6  C   UNL     1      36.130 -12.032   4.290  1.00  0.00     0.093 A 
ATOM      7  C   UNL     1      35.937 -12.469   5.606  1.00  0.00     0.136 A 
ATOM      8  C   UNL     1      36.955 -12.249   6.570  1.00  0.00     0.125 A 
ATOM      9  C   UNL     1      36.854 -12.663   7.908  1.00  0.00     0.078 A 
ATOM     10  C   UNL     1      37.902 -12.415   8.800  1.00  0.00     0.223 A 
ENDROOT
BRANCH   1  11
ATOM     11  C   UNL     1      40.183 -11.411   9.224  1.00  0.00     0.091 A 
ATOM     12  C   UNL     1      40.119 -10.357  10.152  1.00  0.00     0.068 A 
ATOM     13  C   UNL     1      41.220 -10.057  10.967  1.00  0.00     0.162 A 
ATOM     14  C   UNL     1      41.376 -12.138   9.099  1.00  0.00     0.068 A 
ATOM     15  C   UNL     1      42.403 -10.807  10.851  1.00  0.00     0.200 A 
ATOM     16  C   UNL     1      42.478 -11.848   9.910  1.00  0.00     0.162 A 
BRANCH  13  17
ATOM     17  O   UNL     1      41.142  -9.014  11.888  1.00  0.00    -0.504 OA
ATOM     18  H   UNL     1      41.237  -9.176  12.884  1.00  0.00     0.293 HD
ENDBRANCH  13  17
BRANCH  15  19
ATOM     19  O   UNL     1      43.506 -10.525  11.657  1.00  0.00    -0.502 OA
ATOM     20  H   UNL     1      43.753 -11.099  12.455  1.00  0.00     0.293 HD
ENDBRANCH  15  19
BRANCH  16  21
ATOM     21  O   UNL     1      43.641 -12.605   9.764  1.00  0.00    -0.504 OA
ATOM     22  H   UNL     1      44.123 -12.686   8.878  1.00  0.00     0.293 HD
ENDBRANCH  16  21
ENDBRANCH   1  11
BRANCH  10  23
ATOM     23  O   UNL     1      37.823 -12.870  10.116  1.00  0.00    -0.500 OA
ATOM     24  H   UNL     1      37.978 -12.251  10.904  1.00  0.00     0.294 HD
ENDBRANCH  10  23
BRANCH   5  25
ATOM     25  O   UNL     1      37.497 -10.950   2.604  1.00  0.00    -0.507 OA
ATOM     26  H   UNL     1      38.424 -10.816   2.216  1.00  0.00     0.293 HD
ENDBRANCH   5  25
BRANCH   7  27
ATOM     27  O   UNL     1      34.729 -13.108   5.902  1.00  0.00    -0.507 OA
ATOM     28  H   UNL     1      34.080 -12.802   6.612  1.00  0.00     0.293 HD
ENDBRANCH   7  27
TORSDOF 7
ENDMDL
MODEL 2
REMARK VINA RESULT:    -7.454      0.080      1.796
REMARK INTER + INTRA:          -9.544
REMARK INTER:                  -9.213
REMARK INTRA:                  -0.330
REMARK UNBOUND:                -0.347
REMARK SMILES Oc1cc(O)c2cc(O)c(-c3cc(O)c(O)c(O)c3)[o+]c2c1
REMARK SMILES IDX 10 1 20 2 21 3 22 4 2 5 3 6 4 7 6 8 7 9 8 10 11 11 12 12
REMARK SMILES IDX 13 13 19 14 15 15 17 16 14 17 16 19 18 21 9 23 1 25 5 27
REMARK H PARENT 14 18 16 20 18 22 9 24 1 26 5 28
REMARK Flexibility Score: inf
ROOT
ATOM      1  C   UNL     1      39.050 -11.751   8.316  1.00  0.00     0.402 A 
ATOM      2  O   UNL     1      39.088 -11.387   7.037  1.00  0.00    -0.202 OA
ATOM      3  C   UNL     1      38.096 -11.616   6.184  1.00  0.00     0.368 A 
ATOM      4  C   UNL     1      38.227 -11.192   4.858  1.00  0.00     0.162 A 
ATOM      5  C   UNL     1      37.200 -11.417   3.941  1.00  0.00     0.128 A 
ATOM      6  C   UNL     1      36.032 -12.070   4.350  1.00  0.00     0.093 A 
ATOM      7  C   UNL     1      35.876 -12.505   5.671  1.00  0.00     0.136 A 
ATOM      8  C   UNL     1      36.920 -12.281   6.607  1.00  0.00     0.125 A 
ATOM      9  C   UNL     1      36.856 -12.694   7.948  1.00  0.00     0.078 A 
ATOM     10  C   UNL     1      37.927 -12.440   8.810  1.00  0.00     0.223 A 
ENDROOT
BRANCH   1  11
ATOM     11  C   UNL     1      40.216 -11.429   9.171  1.00  0.00     0.091 A 
ATOM     12  C   UNL     1      41.399 -12.187   9.110  1.00  0.00     0.068 A 
ATOM     13  C   UNL     1      42.484 -11.881   9.944  1.00  0.00     0.162 A 
ATOM     14  C   UNL     1      40.123 -10.384  10.101  1.00  0.00     0.068 A 
ATOM     15  C   UNL     1      42.389 -10.816  10.856  1.00  0.00     0.200 A 
ATOM     16  C   UNL     1      41.201 -10.070  10.934  1.00  0.00     0.162 A 
BRANCH  13  17
ATOM     17  O   UNL     1      43.655 -12.635   9.870  1.00  0.00    -0.504 OA
ATOM     18  H   UNL     1      43.712 -13.568  10.260  1.00  0.00     0.293 HD
ENDBRANCH  13  17
BRANCH  15  19
ATOM     19  O   UNL     1      43.462 -10.495  11.689  1.00  0.00    -0.502 OA
ATOM     20  H   UNL     1      43.379  -9.822  12.441  1.00  0.00     0.293 HD
ENDBRANCH  15  19
BRANCH  16  21
ATOM     21  O   UNL     1      41.073  -9.013  11.836  1.00  0.00    -0.504 OA
ATOM     22  H   UNL     1      41.315  -9.107  12.814  1.00  0.00     0.293 HD
ENDBRANCH  16  21
ENDBRANCH   1  11
BRANCH  10  23
ATOM     23  O   UNL     1      37.886 -12.893  10.129  1.00  0.00    -0.500 OA
ATOM     24  H   UNL     1      37.050 -13.308  10.524  1.00  0.00     0.294 HD
ENDBRANCH  10  23
BRANCH   5  25
ATOM     25  O   UNL     1      37.350 -10.987   2.625  1.00  0.00    -0.507 OA
ATOM     26  H   UNL     1      36.670 -11.220   1.911  1.00  0.00     0.293 HD
ENDBRANCH   5  25
BRANCH   7  27
ATOM     27  O   UNL     1      34.679 -13.148   6.001  1.00  0.00    -0.507 OA
ATOM     28  H   UNL     1      34.524 -13.663   6.855  1.00  0.00     0.293 HD
ENDBRANCH   7  27
TORSDOF 7
ENDMDL
MODEL 3
REMARK VINA RESULT:    -7.077      1.414      7.234
REMARK INTER + INTRA:          -9.079
REMARK INTER:                  -8.867
REMARK INTRA:                  -0.212
REMARK UNBOUND:                -0.347
REMARK SMILES Oc1cc(O)c2cc(O)c(-c3cc(O)c(O)c(O)c3)[o+]c2c1
REMARK SMILES IDX 10 1 20 2 21 3 22 4 2 5 3 6 4 7 6 8 7 9 8 10 11 11 12 12
REMARK SMILES IDX 13 13 19 14 15 15 17 16 14 17 16 19 18 21 9 23 1 25 5 27
REMARK H PARENT 14 18 16 20 18 22 9 24 1 26 5 28
REMARK Flexibility Score: inf
ROOT
ATOM      1  C   UNL     1      39.132 -11.966   8.042  1.00  0.00     0.402 A 
ATOM      2  O   UNL     1      40.003 -12.904   8.407  1.00  0.00    -0.202 OA
ATOM      3  C   UNL     1      40.938 -12.710   9.330  1.00  0.00     0.368 A 
ATOM      4  C   UNL     1      41.807 -13.759   9.648  1.00  0.00     0.162 A 
ATOM      5  C   UNL     1      42.797 -13.586  10.615  1.00  0.00     0.128 A 
ATOM      6  C   UNL     1      42.922 -12.356  11.272  1.00  0.00     0.093 A 
ATOM      7  C   UNL     1      42.065 -11.291  10.972  1.00  0.00     0.136 A 
ATOM      8  C   UNL     1      41.058 -11.462   9.986  1.00  0.00     0.125 A 
ATOM      9  C   UNL     1      40.163 -10.446   9.612  1.00  0.00     0.078 A 
ATOM     10  C   UNL     1      39.200 -10.688   8.628  1.00  0.00     0.223 A 
ENDROOT
BRANCH   1  11
ATOM     11  C   UNL     1      38.128 -12.307   7.008  1.00  0.00     0.091 A 
ATOM     12  C   UNL     1      37.161 -13.303   7.227  1.00  0.00     0.068 A 
ATOM     13  C   UNL     1      36.234 -13.627   6.226  1.00  0.00     0.162 A 
ATOM     14  C   UNL     1      38.176 -11.664   5.762  1.00  0.00     0.068 A 
ATOM     15  C   UNL     1      36.275 -12.961   4.990  1.00  0.00     0.200 A 
ATOM     16  C   UNL     1      37.253 -11.979   4.759  1.00  0.00     0.162 A 
BRANCH  13  17
ATOM     17  O   UNL     1      35.274 -14.612   6.457  1.00  0.00    -0.504 OA
ATOM     18  H   UNL     1      35.021 -14.899   7.395  1.00  0.00     0.293 HD
ENDBRANCH  13  17
BRANCH  15  19
ATOM     19  O   UNL     1      35.356 -13.268   3.985  1.00  0.00    -0.502 OA
ATOM     20  H   UNL     1      34.990 -14.204   3.855  1.00  0.00     0.293 HD
ENDBRANCH  15  19
BRANCH  16  21
ATOM     21  O   UNL     1      37.326 -11.307   3.539  1.00  0.00    -0.504 OA
ATOM     22  H   UNL     1      38.164 -10.827   3.238  1.00  0.00     0.293 HD
ENDBRANCH  16  21
ENDBRANCH   1  11
BRANCH  10  23
ATOM     23  O   UNL     1      38.343  -9.666   8.221  1.00  0.00    -0.500 OA
ATOM     24  H   UNL     1      38.612  -8.690   8.279  1.00  0.00     0.294 HD
ENDBRANCH  10  23
BRANCH   5  25
ATOM     25  O   UNL     1      43.652 -14.642  10.917  1.00  0.00    -0.507 OA
ATOM     26  H   UNL     1      44.628 -14.630  10.643  1.00  0.00     0.293 HD
ENDBRANCH   5  25
BRANCH   7  27
ATOM     27  O   UNL     1      42.252 -10.096  11.674  1.00  0.00    -0.507 OA
ATOM     28  H   UNL     1      42.417  -9.200  11.240  1.00  0.00     0.293 HD
ENDBRANCH   7  27
TORSDOF 7
ENDMDL
MODEL 4
REMARK VINA RESULT:    -7.072      6.073      9.786
REMARK INTER + INTRA:          -9.072
REMARK INTER:                  -8.758
REMARK INTRA:                  -0.314
REMARK UNBOUND:                -0.347
REMARK SMILES Oc1cc(O)c2cc(O)c(-c3cc(O)c(O)c(O)c3)[o+]c2c1
REMARK SMILES IDX 10 1 20 2 21 3 22 4 2 5 3 6 4 7 6 8 7 9 8 10 11 11 12 12
REMARK SMILES IDX 13 13 19 14 15 15 17 16 14 17 16 19 18 21 9 23 1 25 5 27
REMARK H PARENT 14 18 16 20 18 22 9 24 1 26 5 28
REMARK Flexibility Score: inf
ROOT
ATOM      1  C   UNL     1      32.869 -14.376   1.794  1.00  0.00     0.402 A 
ATOM      2  O   UNL     1      31.718 -14.243   2.448  1.00  0.00    -0.202 OA
ATOM      3  C   UNL     1      30.546 -14.611   1.943  1.00  0.00     0.368 A 
ATOM      4  C   UNL     1      29.390 -14.435   2.710  1.00  0.00     0.162 A 
ATOM      5  C   UNL     1      28.146 -14.814   2.206  1.00  0.00     0.128 A 
ATOM      6  C   UNL     1      28.053 -15.376   0.928  1.00  0.00     0.093 A 
ATOM      7  C   UNL     1      29.195 -15.563   0.140  1.00  0.00     0.136 A 
ATOM      8  C   UNL     1      30.463 -15.175   0.647  1.00  0.00     0.125 A 
ATOM      9  C   UNL     1      31.659 -15.313  -0.076  1.00  0.00     0.078 A 
ATOM     10  C   UNL     1      32.871 -14.904   0.489  1.00  0.00     0.223 A 
ENDROOT
BRANCH   1  11
ATOM     11  C   UNL     1      34.113 -13.938   2.468  1.00  0.00     0.091 A 
ATOM     12  C   UNL     1      34.681 -14.687   3.514  1.00  0.00     0.068 A 
ATOM     13  C   UNL     1      35.846 -14.243   4.155  1.00  0.00     0.162 A 
ATOM     14  C   UNL     1      34.707 -12.723   2.098  1.00  0.00     0.068 A 
ATOM     15  C   UNL     1      36.448 -13.036   3.761  1.00  0.00     0.200 A 
ATOM     16  C   UNL     1      35.872 -12.274   2.731  1.00  0.00     0.162 A 
BRANCH  13  17
ATOM     17  O   UNL     1      36.405 -14.998   5.186  1.00  0.00    -0.504 OA
ATOM     18  H   UNL     1      35.934 -15.810   5.566  1.00  0.00     0.293 HD
ENDBRANCH  13  17
BRANCH  15  19
ATOM     19  O   UNL     1      37.611 -12.583   4.385  1.00  0.00    -0.502 OA
ATOM     20  H   UNL     1      37.672 -12.459   5.389  1.00  0.00     0.293 HD
ENDBRANCH  15  19
BRANCH  16  21
ATOM     21  O   UNL     1      36.440 -11.068   2.323  1.00  0.00    -0.504 OA
ATOM     22  H   UNL     1      35.895 -10.338   1.880  1.00  0.00     0.293 HD
ENDBRANCH  16  21
ENDBRANCH   1  11
BRANCH  10  23
ATOM     23  O   UNL     1      34.052 -14.995  -0.247  1.00  0.00    -0.500 OA
ATOM     24  H   UNL     1      34.247 -15.789  -0.846  1.00  0.00     0.294 HD
ENDBRANCH  10  23
BRANCH   5  25
ATOM     25  O   UNL     1      27.006 -14.630   2.985  1.00  0.00    -0.507 OA
ATOM     26  H   UNL     1      27.058 -14.569   3.995  1.00  0.00     0.293 HD
ENDBRANCH   5  25
BRANCH   7  27
ATOM     27  O   UNL     1      29.019 -16.132  -1.125  1.00  0.00    -0.507 OA
ATOM     28  H   UNL     1      29.144 -17.112  -1.332  1.00  0.00     0.293 HD
ENDBRANCH   7  27
TORSDOF 7
ENDMDL
MODEL 5
REMARK VINA RESULT:    -7.016      1.028      3.114
REMARK INTER + INTRA:          -9.003
REMARK INTER:                  -8.620
REMARK INTRA:                  -0.382
REMARK UNBOUND:                -0.347
REMARK SMILES Oc1cc(O)c2cc(O)c(-c3cc(O)c(O)c(O)c3)[o+]c2c1
REMARK SMILES IDX 10 1 20 2 21 3 22 4 2 5 3 6 4 7 6 8 7 9 8 10 11 11 12 12
REMARK SMILES IDX 13 13 19 14 15 15 17 16 14 17 16 19 18 21 9 23 1 25 5 27
REMARK H PARENT 14 18 16 20 18 22 9 24 1 26 5 28
REMARK Flexibility Score: inf
ROOT
ATOM      1  C   UNL     1      39.753 -11.270   7.644  1.00  0.00     0.402 A 
ATOM      2  O   UNL     1      38.708 -12.082   7.778  1.00  0.00    -0.202 OA
ATOM      3  C   UNL     1      37.788 -12.248   6.834  1.00  0.00     0.368 A 
ATOM      4  C   UNL     1      36.726 -13.127   7.067  1.00  0.00     0.162 A 
ATOM      5  C   UNL     1      35.747 -13.323   6.093  1.00  0.00     0.128 A 
ATOM      6  C   UNL     1      35.828 -12.638   4.876  1.00  0.00     0.093 A 
ATOM      7  C   UNL     1      36.881 -11.752   4.618  1.00  0.00     0.136 A 
ATOM      8  C   UNL     1      37.878 -11.547   5.608  1.00  0.00     0.125 A 
ATOM      9  C   UNL     1      38.961 -10.669   5.442  1.00  0.00     0.078 A 
ATOM     10  C   UNL     1      39.902 -10.517   6.465  1.00  0.00     0.223 A 
ENDROOT
BRANCH   1  11
ATOM     11  C   UNL     1      40.717 -11.178   8.765  1.00  0.00     0.091 A 
ATOM     12  C   UNL     1      41.817 -12.050   8.858  1.00  0.00     0.068 A 
ATOM     13  C   UNL     1      42.705 -11.962   9.939  1.00  0.00     0.162 A 
ATOM     14  C   UNL     1      40.501 -10.241   9.786  1.00  0.00     0.068 A 
ATOM     15  C   UNL     1      42.493 -11.004  10.945  1.00  0.00     0.200 A 
ATOM     16  C   UNL     1      41.384 -10.145  10.867  1.00  0.00     0.162 A 
BRANCH  13  17
ATOM     17  O   UNL     1      43.796 -12.827  10.017  1.00  0.00    -0.504 OA
ATOM     18  H   UNL     1      43.707 -13.815   9.811  1.00  0.00     0.293 HD
ENDBRANCH  13  17
BRANCH  15  19
ATOM     19  O   UNL     1      43.371 -10.900  12.025  1.00  0.00    -0.502 OA
ATOM     20  H   UNL     1      44.344 -11.173  11.959  1.00  0.00     0.293 HD
ENDBRANCH  15  19
BRANCH  16  21
ATOM     21  O   UNL     1      41.141  -9.190  11.854  1.00  0.00    -0.504 OA
ATOM     22  H   UNL     1      41.653  -8.318  11.898  1.00  0.00     0.293 HD
ENDBRANCH  16  21
ENDBRANCH   1  11
BRANCH  10  23
ATOM     23  O   UNL     1      40.951  -9.608   6.321  1.00  0.00    -0.500 OA
ATOM     24  H   UNL     1      41.173  -8.932   7.042  1.00  0.00     0.294 HD
ENDBRANCH  10  23
BRANCH   5  25
ATOM     25  O   UNL     1      34.697 -14.204   6.344  1.00  0.00    -0.507 OA
ATOM     26  H   UNL     1      33.740 -13.968   6.107  1.00  0.00     0.293 HD
ENDBRANCH   5  25
BRANCH   7  27
ATOM     27  O   UNL     1      36.892 -11.108   3.377  1.00  0.00    -0.507 OA
ATOM     28  H   UNL     1      37.414 -10.269   3.175  1.00  0.00     0.293 HD
ENDBRANCH   7  27
TORSDOF 7
ENDMDL
MODEL 6
REMARK VINA RESULT:    -6.941      1.299      7.239
REMARK INTER + INTRA:          -8.911
REMARK INTER:                  -8.539
REMARK INTRA:                  -0.371
REMARK UNBOUND:                -0.347
REMARK SMILES Oc1cc(O)c2cc(O)c(-c3cc(O)c(O)c(O)c3)[o+]c2c1
REMARK SMILES IDX 10 1 20 2 21 3 22 4 2 5 3 6 4 7 6 8 7 9 8 10 11 11 12 12
REMARK SMILES IDX 13 13 19 14 15 15 17 16 14 17 16 19 18 21 9 23 1 25 5 27
REMARK H PARENT 14 18 16 20 18 22 9 24 1 26 5 28
REMARK Flexibility Score: inf
ROOT
ATOM      1  C   UNL     1      39.139 -11.788   7.960  1.00  0.00     0.402 A 
ATOM      2  O   UNL     1      40.001 -12.756   8.260  1.00  0.00    -0.202 OA
ATOM      3  C   UNL     1      40.954 -12.626   9.177  1.00  0.00     0.368 A 
ATOM      4  C   UNL     1      41.811 -13.702   9.425  1.00  0.00     0.162 A 
ATOM      5  C   UNL     1      42.819 -13.594  10.383  1.00  0.00     0.128 A 
ATOM      6  C   UNL     1      42.974 -12.403  11.100  1.00  0.00     0.093 A 
ATOM      7  C   UNL     1      42.130 -11.310  10.870  1.00  0.00     0.136 A 
ATOM      8  C   UNL     1      41.104 -11.415   9.894  1.00  0.00     0.125 A 
ATOM      9  C   UNL     1      40.221 -10.367   9.588  1.00  0.00     0.078 A 
ATOM     10  C   UNL     1      39.237 -10.543   8.609  1.00  0.00     0.223 A 
ENDROOT
BRANCH   1  11
ATOM     11  C   UNL     1      38.114 -12.059   6.926  1.00  0.00     0.091 A 
ATOM     12  C   UNL     1      38.316 -11.697   5.582  1.00  0.00     0.068 A 
ATOM     13  C   UNL     1      37.323 -11.941   4.623  1.00  0.00     0.162 A 
ATOM     14  C   UNL     1      36.892 -12.637   7.301  1.00  0.00     0.068 A 
ATOM     15  C   UNL     1      36.112 -12.543   5.004  1.00  0.00     0.200 A 
ATOM     16  C   UNL     1      35.898 -12.887   6.349  1.00  0.00     0.162 A 
BRANCH  13  17
ATOM     17  O   UNL     1      37.537 -11.585   3.292  1.00  0.00    -0.504 OA
ATOM     18  H   UNL     1      38.471 -11.488   2.911  1.00  0.00     0.293 HD
ENDBRANCH  13  17
BRANCH  15  19
ATOM     19  O   UNL     1      35.116 -12.797   4.060  1.00  0.00    -0.502 OA
ATOM     20  H   UNL     1      35.315 -12.867   3.070  1.00  0.00     0.293 HD
ENDBRANCH  15  19
BRANCH  16  21
ATOM     21  O   UNL     1      34.702 -13.476   6.761  1.00  0.00    -0.504 OA
ATOM     22  H   UNL     1      33.823 -12.975   6.749  1.00  0.00     0.293 HD
ENDBRANCH  16  21
ENDBRANCH   1  11
BRANCH  10  23
ATOM     23  O   UNL     1      38.391  -9.488   8.269  1.00  0.00    -0.500 OA
ATOM     24  H   UNL     1      38.016  -9.386   7.333  1.00  0.00     0.294 HD
ENDBRANCH  10  23
BRANCH   5  25
ATOM     25  O   UNL     1      43.662 -14.678  10.616  1.00  0.00    -0.507 OA
ATOM     26  H   UNL     1      43.736 -15.105  11.533  1.00  0.00     0.293 HD
ENDBRANCH   5  25
BRANCH   7  27
ATOM     27  O   UNL     1      42.348 -10.156  11.629  1.00  0.00    -0.507 OA
ATOM     28  H   UNL     1      41.721  -9.816  12.343  1.00  0.00     0.293 HD
ENDBRANCH   7  27
TORSDOF 7
ENDMDL
MODEL 7
REMARK VINA RESULT:    -6.734      2.563      8.055
REMARK INTER + INTRA:          -8.655
REMARK INTER:                  -8.281
REMARK INTRA:                  -0.374
REMARK UNBOUND:                -0.347
REMARK SMILES Oc1cc(O)c2cc(O)c(-c3cc(O)c(O)c(O)c3)[o+]c2c1
REMARK SMILES IDX 10 1 20 2 21 3 22 4 2 5 3 6 4 7 6 8 7 9 8 10 11 11 12 12
REMARK SMILES IDX 13 13 19 14 15 15 17 16 14 17 16 19 18 21 9 23 1 25 5 27
REMARK H PARENT 14 18 16 20 18 22 9 24 1 26 5 28
REMARK Flexibility Score: inf
ROOT
ATOM      1  C   UNL     1      36.506 -12.733   5.540  1.00  0.00     0.402 A 
ATOM      2  O   UNL     1      37.193 -13.476   6.404  1.00  0.00    -0.202 OA
ATOM      3  C   UNL     1      37.965 -12.961   7.355  1.00  0.00     0.368 A 
ATOM      4  C   UNL     1      38.646 -13.824   8.219  1.00  0.00     0.162 A 
ATOM      5  C   UNL     1      39.461 -13.311   9.228  1.00  0.00     0.128 A 
ATOM      6  C   UNL     1      39.598 -11.927   9.378  1.00  0.00     0.093 A 
ATOM      7  C   UNL     1      38.928 -11.042   8.526  1.00  0.00     0.136 A 
ATOM      8  C   UNL     1      38.099 -11.559   7.495  1.00  0.00     0.125 A 
ATOM      9  C   UNL     1      37.400 -10.747   6.587  1.00  0.00     0.078 A 
ATOM     10  C   UNL     1      36.606 -11.330   5.595  1.00  0.00     0.223 A 
ENDROOT
BRANCH   1  11
ATOM     11  C   UNL     1      35.672 -13.425   4.531  1.00  0.00     0.091 A 
ATOM     12  C   UNL     1      34.359 -13.835   4.824  1.00  0.00     0.068 A 
ATOM     13  C   UNL     1      33.593 -14.510   3.863  1.00  0.00     0.162 A 
ATOM     14  C   UNL     1      36.217 -13.729   3.275  1.00  0.00     0.068 A 
ATOM     15  C   UNL     1      34.140 -14.789   2.599  1.00  0.00     0.200 A 
ATOM     16  C   UNL     1      35.459 -14.399   2.309  1.00  0.00     0.162 A 
BRANCH  13  17
ATOM     17  O   UNL     1      32.290 -14.906   4.162  1.00  0.00    -0.504 OA
ATOM     18  H   UNL     1      31.799 -14.551   4.974  1.00  0.00     0.293 HD
ENDBRANCH  13  17
BRANCH  15  19
ATOM     19  O   UNL     1      33.389 -15.454   1.629  1.00  0.00    -0.502 OA
ATOM     20  H   UNL     1      32.505 -15.095   1.289  1.00  0.00     0.293 HD
ENDBRANCH  15  19
BRANCH  16  21
ATOM     21  O   UNL     1      36.033 -14.669   1.067  1.00  0.00    -0.504 OA
ATOM     22  H   UNL     1      35.493 -14.666   0.212  1.00  0.00     0.293 HD
ENDBRANCH  16  21
ENDBRANCH   1  11
BRANCH  10  23
ATOM     23  O   UNL     1      35.951 -10.527   4.662  1.00  0.00    -0.500 OA
ATOM     24  H   UNL     1      34.940 -10.459   4.634  1.00  0.00     0.294 HD
ENDBRANCH  10  23
BRANCH   5  25
ATOM     25  O   UNL     1      40.131 -14.187  10.080  1.00  0.00    -0.507 OA
ATOM     26  H   UNL     1      39.873 -15.166  10.143  1.00  0.00     0.293 HD
ENDBRANCH   5  25
BRANCH   7  27
ATOM     27  O   UNL     1      39.115  -9.673   8.741  1.00  0.00    -0.507 OA
ATOM     28  H   UNL     1      39.269  -9.254   9.647  1.00  0.00     0.293 HD
ENDBRANCH   7  27
TORSDOF 7
ENDMDL
MODEL 8
REMARK VINA RESULT:    -6.662      2.912      5.373
REMARK INTER + INTRA:          -8.567
REMARK INTER:                  -8.208
REMARK INTRA:                  -0.359
REMARK UNBOUND:                -0.347
REMARK SMILES Oc1cc(O)c2cc(O)c(-c3cc(O)c(O)c(O)c3)[o+]c2c1
REMARK SMILES IDX 10 1 20 2 21 3 22 4 2 5 3 6 4 7 6 8 7 9 8 10 11 11 12 12
REMARK SMILES IDX 13 13 19 14 15 15 17 16 14 17 16 19 18 21 9 23 1 25 5 27
REMARK H PARENT 14 18 16 20 18 22 9 24 1 26 5 28
REMARK Flexibility Score: inf
ROOT
ATOM      1  C   UNL     1      36.352 -13.059   4.836  1.00  0.00     0.402 A 
ATOM      2  O   UNL     1      35.136 -13.588   4.946  1.00  0.00    -0.202 OA
ATOM      3  C   UNL     1      34.451 -14.062   3.911  1.00  0.00     0.368 A 
ATOM      4  C   UNL     1      33.179 -14.602   4.128  1.00  0.00     0.162 A 
ATOM      5  C   UNL     1      32.438 -15.109   3.061  1.00  0.00     0.128 A 
ATOM      6  C   UNL     1      32.969 -15.079   1.766  1.00  0.00     0.093 A 
ATOM      7  C   UNL     1      34.239 -14.543   1.523  1.00  0.00     0.136 A 
ATOM      8  C   UNL     1      34.996 -14.023   2.606  1.00  0.00     0.125 A 
ATOM      9  C   UNL     1      36.272 -13.455   2.454  1.00  0.00     0.078 A 
ATOM     10  C   UNL     1      36.955 -12.959   3.568  1.00  0.00     0.223 A 
ENDROOT
BRANCH   1  11
ATOM     11  C   UNL     1      37.018 -12.574   6.066  1.00  0.00     0.091 A 
ATOM     12  C   UNL     1      36.998 -11.214   6.422  1.00  0.00     0.068 A 
ATOM     13  C   UNL     1      37.654 -10.770   7.578  1.00  0.00     0.162 A 
ATOM     14  C   UNL     1      37.734 -13.477   6.866  1.00  0.00     0.068 A 
ATOM     15  C   UNL     1      38.349 -11.687   8.386  1.00  0.00     0.200 A 
ATOM     16  C   UNL     1      38.390 -13.044   8.023  1.00  0.00     0.162 A 
BRANCH  13  17
ATOM     17  O   UNL     1      37.621  -9.420   7.925  1.00  0.00    -0.504 OA
ATOM     18  H   UNL     1      38.171  -9.055   8.693  1.00  0.00     0.293 HD
ENDBRANCH  13  17
BRANCH  15  19
ATOM     19  O   UNL     1      39.003 -11.263   9.543  1.00  0.00    -0.502 OA
ATOM     20  H   UNL     1      38.619 -11.414  10.468  1.00  0.00     0.293 HD
ENDBRANCH  15  19
BRANCH  16  21
ATOM     21  O   UNL     1      39.078 -13.976   8.799  1.00  0.00    -0.504 OA
ATOM     22  H   UNL     1      38.736 -14.284   9.700  1.00  0.00     0.293 HD
ENDBRANCH  16  21
ENDBRANCH   1  11
BRANCH  10  23
ATOM     23  O   UNL     1      38.200 -12.351   3.412  1.00  0.00    -0.500 OA
ATOM     24  H   UNL     1      38.936 -12.777   2.860  1.00  0.00     0.294 HD
ENDBRANCH  10  23
BRANCH   5  25
ATOM     25  O   UNL     1      31.174 -15.643   3.297  1.00  0.00    -0.507 OA
ATOM     26  H   UNL     1      30.878 -15.914   4.227  1.00  0.00     0.293 HD
ENDBRANCH   5  25
BRANCH   7  27
ATOM     27  O   UNL     1      34.700 -14.551   0.203  1.00  0.00    -0.507 OA
ATOM     28  H   UNL     1      34.275 -15.077  -0.547  1.00  0.00     0.293 HD
ENDBRANCH   7  27
TORSDOF 7
ENDMDL
MODEL 9
REMARK VINA RESULT:    -6.615      2.080      7.602
REMARK INTER + INTRA:          -8.509
REMARK INTER:                  -8.284
REMARK INTRA:                  -0.225
REMARK UNBOUND:                -0.347
REMARK SMILES Oc1cc(O)c2cc(O)c(-c3cc(O)c(O)c(O)c3)[o+]c2c1
REMARK SMILES IDX 10 1 20 2 21 3 22 4 2 5 3 6 4 7 6 8 7 9 8 10 11 11 12 12
REMARK SMILES IDX 13 13 19 14 15 15 17 16 14 17 16 19 18 21 9 23 1 25 5 27
REMARK H PARENT 14 18 16 20 18 22 9 24 1 26 5 28
REMARK Flexibility Score: inf
ROOT
ATOM      1  C   UNL     1      37.112 -12.009   5.698  1.00  0.00     0.402 A 
ATOM      2  O   UNL     1      38.294 -11.397   5.693  1.00  0.00    -0.202 OA
ATOM      3  C   UNL     1      38.996 -11.160   6.795  1.00  0.00     0.368 A 
ATOM      4  C   UNL     1      40.231 -10.513   6.688  1.00  0.00     0.162 A 
ATOM      5  C   UNL     1      40.991 -10.253   7.828  1.00  0.00     0.128 A 
ATOM      6  C   UNL     1      40.517 -10.642   9.086  1.00  0.00     0.093 A 
ATOM      7  C   UNL     1      39.284 -11.291   9.220  1.00  0.00     0.136 A 
ATOM      8  C   UNL     1      38.506 -11.555   8.063  1.00  0.00     0.125 A 
ATOM      9  C   UNL     1      37.253 -12.189   8.103  1.00  0.00     0.078 A 
ATOM     10  C   UNL     1      36.542 -12.411   6.920  1.00  0.00     0.223 A 
ENDROOT
BRANCH   1  11
ATOM     11  C   UNL     1      36.431 -12.226   4.401  1.00  0.00     0.091 A 
ATOM     12  C   UNL     1      36.136 -13.520   3.936  1.00  0.00     0.068 A 
ATOM     13  C   UNL     1      35.511 -13.705   2.695  1.00  0.00     0.162 A 
ATOM     14  C   UNL     1      36.122 -11.123   3.591  1.00  0.00     0.068 A 
ATOM     15  C   UNL     1      35.184 -12.593   1.901  1.00  0.00     0.200 A 
ATOM     16  C   UNL     1      35.495 -11.299   2.352  1.00  0.00     0.162 A 
BRANCH  13  17
ATOM     17  O   UNL     1      35.217 -14.993   2.248  1.00  0.00    -0.504 OA
ATOM     18  H   UNL     1      34.467 -15.539   2.654  1.00  0.00     0.293 HD
ENDBRANCH  13  17
BRANCH  15  19
ATOM     19  O   UNL     1      34.557 -12.760   0.666  1.00  0.00    -0.502 OA
ATOM     20  H   UNL     1      35.030 -13.172  -0.129  1.00  0.00     0.293 HD
ENDBRANCH  15  19
BRANCH  16  21
ATOM     21  O   UNL     1      35.192 -10.176   1.584  1.00  0.00    -0.504 OA
ATOM     22  H   UNL     1      34.498  -9.497   1.872  1.00  0.00     0.293 HD
ENDBRANCH  16  21
ENDBRANCH   1  11
BRANCH  10  23
ATOM     23  O   UNL     1      35.276 -12.995   6.964  1.00  0.00    -0.500 OA
ATOM     24  H   UNL     1      34.699 -13.080   6.135  1.00  0.00     0.294 HD
ENDBRANCH  10  23
BRANCH   5  25
ATOM     25  O   UNL     1      42.219  -9.607   7.701  1.00  0.00    -0.507 OA
ATOM     26  H   UNL     1      43.092 -10.084   7.898  1.00  0.00     0.293 HD
ENDBRANCH   5  25
BRANCH   7  27
ATOM     27  O   UNL     1      38.882 -11.650  10.510  1.00  0.00    -0.507 OA
ATOM     28  H   UNL     1      39.240 -11.232  11.357  1.00  0.00     0.293 HD
ENDBRANCH   7  27
TORSDOF 7
ENDMDL
