MODEL 1
REMARK VINA RESULT:     2.854      0.000      0.000
REMARK INTER + INTRA:           2.854
REMARK INTER:                   2.854
REMARK INTRA:                   0.000
REMARK UNBOUND:                 0.000
REMARK SMILES CC1(C)O[C@]2(C)CC[C@H]1CC2
REMARK SMILES IDX 1 1 2 2 9 3 8 4 7 5 5 6 4 7 11 8 10 9 6 10 3 11
REMARK H PARENT
REMARK Flexibility Score: inf
ROOT
ATOM      1  C   UNL     1       1.024  17.928 -27.125  1.00  0.00     0.042 C 
ATOM      2  C   UNL     1       0.823  16.868 -26.020  1.00  0.00     0.066 C 
ATOM      3  C   UNL     1      -0.595  17.027 -25.346  1.00  0.00     0.021 C 
ATOM      4  C   UNL     1      -0.762  15.912 -24.287  1.00  0.00     0.009 C 
ATOM      5  C   UNL     1      -0.446  14.543 -24.936  1.00  0.00     0.035 C 
ATOM      6  C   UNL     1      -0.157  14.733 -26.453  1.00  0.00     0.066 C 
ATOM      7  O   UNL     1       0.989  15.570 -26.610  1.00  0.00    -0.369 OA
ATOM      8  C   UNL     1      -1.386  15.416 -27.120  1.00  0.00     0.035 C 
ATOM      9  C   UNL     1      -1.679  16.765 -26.419  1.00  0.00     0.009 C 
ATOM     10  C   UNL     1       0.124  13.380 -27.115  1.00  0.00     0.042 C 
ATOM     11  C   UNL     1       1.946  17.069 -24.980  1.00  0.00     0.042 C 
ENDROOT
TORSDOF 0
ENDMDL
MODEL 2
REMARK VINA RESULT:     3.977      1.269      2.329
REMARK INTER + INTRA:           3.977
REMARK INTER:                   3.977
REMARK INTRA:                   0.000
REMARK UNBOUND:                 0.000
REMARK SMILES CC1(C)O[C@]2(C)CC[C@H]1CC2
REMARK SMILES IDX 1 1 2 2 9 3 8 4 7 5 5 6 4 7 11 8 10 9 6 10 3 11
REMARK H PARENT
REMARK Flexibility Score: inf
ROOT
ATOM      1  C   UNL     1       2.040  14.912 -27.122  1.00  0.00     0.042 C 
ATOM      2  C   UNL     1       1.054  15.834 -26.371  1.00  0.00     0.066 C 
ATOM      3  C   UNL     1      -0.331  15.902 -27.123  1.00  0.00     0.021 C 
ATOM      4  C   UNL     1      -1.291  16.795 -26.302  1.00  0.00     0.009 C 
ATOM      5  C   UNL     1      -1.316  16.301 -24.836  1.00  0.00     0.035 C 
ATOM      6  C   UNL     1      -0.442  15.020 -24.696  1.00  0.00     0.066 C 
ATOM      7  O   UNL     1       0.909  15.336 -25.032  1.00  0.00    -0.369 OA
ATOM      8  C   UNL     1      -0.973  13.936 -25.678  1.00  0.00     0.035 C 
ATOM      9  C   UNL     1      -0.956  14.487 -27.125  1.00  0.00     0.009 C 
ATOM     10  C   UNL     1      -0.485  14.501 -23.256  1.00  0.00     0.042 C 
ATOM     11  C   UNL     1       1.703  17.233 -26.294  1.00  0.00     0.042 C 
ENDROOT
TORSDOF 0
ENDMDL
MODEL 3
REMARK VINA RESULT:     5.027     11.219     12.583
REMARK INTER + INTRA:           5.027
REMARK INTER:                   5.027
REMARK INTRA:                   0.000
REMARK UNBOUND:                 0.000
REMARK SMILES CC1(C)O[C@]2(C)CC[C@H]1CC2
REMARK SMILES IDX 1 1 2 2 9 3 8 4 7 5 5 6 4 7 11 8 10 9 6 10 3 11
REMARK H PARENT
REMARK Flexibility Score: inf
ROOT
ATOM      1  C   UNL     1      -6.417  23.095 -20.425  1.00  0.00     0.042 C 
ATOM      2  C   UNL     1      -7.371  23.918 -21.318  1.00  0.00     0.066 C 
ATOM      3  C   UNL     1      -7.671  25.324 -20.668  1.00  0.00     0.021 C 
ATOM      4  C   UNL     1      -8.586  26.122 -21.627  1.00  0.00     0.009 C 
ATOM      5  C   UNL     1      -7.961  26.125 -23.043  1.00  0.00     0.035 C 
ATOM      6  C   UNL     1      -6.580  25.406 -23.011  1.00  0.00     0.066 C 
ATOM      7  O   UNL     1      -6.768  24.047 -22.615  1.00  0.00    -0.369 OA
ATOM      8  C   UNL     1      -5.664  26.119 -21.975  1.00  0.00     0.035 C 
ATOM      9  C   UNL     1      -6.344  26.116 -20.584  1.00  0.00     0.009 C 
ATOM     10  C   UNL     1      -5.934  25.432 -24.400  1.00  0.00     0.042 C 
ATOM     11  C   UNL     1      -8.673  23.101 -21.474  1.00  0.00     0.042 C 
ENDROOT
TORSDOF 0
ENDMDL
