MODEL 1
REMARK VINA RESULT:    -4.737      0.000      0.000
REMARK INTER + INTRA:         -13.610
REMARK INTER:                 -10.829
REMARK INTRA:                  -2.781
REMARK UNBOUND:                -2.781
REMARK SMILES CCCCCCCCCCCCCCCCCCCCCCCC(=O)[O-]
REMARK SMILES IDX 13 1 14 2 15 3 16 4 17 5 18 6 19 7 20 8 21 9 22 10 23 11
REMARK SMILES IDX 24 12 25 13 26 14 12 15 11 16 10 17 9 18 8 19 7 20 6 21 5 22
REMARK SMILES IDX 4 23 3 24 2 25 1 26
REMARK H PARENT
REMARK Flexibility Score: inf
ROOT
ATOM      1  C   UNL     1      13.325  16.782  63.270  1.00  0.00     0.000 C 
ENDROOT
BRANCH   1   2
ATOM      2  C   UNL     1      14.277  15.603  62.978  1.00  0.00     0.000 C 
BRANCH   2   3
ATOM      3  C   UNL     1      13.673  14.203  63.191  1.00  0.00     0.000 C 
BRANCH   3   4
ATOM      4  C   UNL     1      14.143  13.184  62.139  1.00  0.00     0.000 C 
BRANCH   4   5
ATOM      5  C   UNL     1      15.353  13.683  61.333  1.00  0.00     0.000 C 
BRANCH   5   6
ATOM      6  C   UNL     1      15.213  13.426  59.826  1.00  0.00     0.000 C 
BRANCH   6   7
ATOM      7  C   UNL     1      15.808  14.588  59.017  1.00  0.00     0.000 C 
BRANCH   7   8
ATOM      8  C   UNL     1      15.374  15.967  59.546  1.00  0.00     0.000 C 
BRANCH   8   9
ATOM      9  C   UNL     1      16.528  16.955  59.813  1.00  0.00     0.000 C 
BRANCH   9  10
ATOM     10  C   UNL     1      17.918  16.312  59.965  1.00  0.00     0.006 C 
BRANCH  10  11
ATOM     11  C   UNL     1      18.352  16.169  61.430  1.00  0.00     0.053 C 
BRANCH  11  12
ATOM     12  C   UNL     1      19.390  17.191  61.772  1.00  0.00     0.041 C 
ATOM     13  O   UNL     1      19.105  18.148  62.540  1.00  0.00    -0.550 OA
ATOM     14  O   UNL     1      20.661  17.109  61.215  1.00  0.00    -0.550 OA
ENDBRANCH  11  12
ENDBRANCH  10  11
ENDBRANCH   9  10
ENDBRANCH   8   9
ENDBRANCH   7   8
ENDBRANCH   6   7
ENDBRANCH   5   6
ENDBRANCH   4   5
ENDBRANCH   3   4
ENDBRANCH   2   3
ENDBRANCH   1   2
BRANCH   1  15
ATOM     15  C   UNL     1      11.945  16.389  63.834  1.00  0.00     0.000 C 
BRANCH  15  16
ATOM     16  C   UNL     1      10.875  17.494  63.755  1.00  0.00     0.000 C 
BRANCH  16  17
ATOM     17  C   UNL     1      11.481  18.905  63.728  1.00  0.00     0.000 C 
BRANCH  17  18
ATOM     18  C   UNL     1      10.467  19.924  63.186  1.00  0.00    -0.000 C 
BRANCH  18  19
ATOM     19  C   UNL     1      10.793  21.373  63.595  1.00  0.00    -0.000 C 
BRANCH  19  20
ATOM     20  C   UNL     1      11.663  21.506  64.859  1.00  0.00    -0.000 C 
BRANCH  20  21
ATOM     21  C   UNL     1      12.711  22.628  64.749  1.00  0.00    -0.000 C 
BRANCH  21  22
ATOM     22  C   UNL     1      12.683  23.311  63.364  1.00  0.00    -0.000 C 
BRANCH  22  23
ATOM     23  C   UNL     1      13.975  23.107  62.553  1.00  0.00    -0.000 C 
BRANCH  23  24
ATOM     24  C   UNL     1      13.708  22.882  61.056  1.00  0.00    -0.000 C 
BRANCH  24  25
ATOM     25  C   UNL     1      13.368  21.419  60.731  1.00  0.00    -0.003 C 
ATOM     26  C   UNL     1      13.933  20.438  61.760  1.00  0.00     0.004 C 
ENDBRANCH  24  25
ENDBRANCH  23  24
ENDBRANCH  22  23
ENDBRANCH  21  22
ENDBRANCH  20  21
ENDBRANCH  19  20
ENDBRANCH  18  19
ENDBRANCH  17  18
ENDBRANCH  16  17
ENDBRANCH  15  16
ENDBRANCH   1  15
TORSDOF 22
ENDMDL
MODEL 2
REMARK VINA RESULT:    -4.726      1.548      2.908
REMARK INTER + INTRA:         -13.586
REMARK INTER:                 -10.703
REMARK INTRA:                  -2.883
REMARK UNBOUND:                -2.781
REMARK SMILES CCCCCCCCCCCCCCCCCCCCCCCC(=O)[O-]
REMARK SMILES IDX 13 1 14 2 15 3 16 4 17 5 18 6 19 7 20 8 21 9 22 10 23 11
REMARK SMILES IDX 24 12 25 13 26 14 12 15 11 16 10 17 9 18 8 19 7 20 6 21 5 22
REMARK SMILES IDX 4 23 3 24 2 25 1 26
REMARK H PARENT
REMARK Flexibility Score: inf
ROOT
ATOM      1  C   UNL     1      10.918  18.540  63.372  1.00  0.00     0.000 C 
ENDROOT
BRANCH   1   2
ATOM      2  C   UNL     1      10.984  17.180  64.097  1.00  0.00     0.000 C 
BRANCH   2   3
ATOM      3  C   UNL     1      12.039  16.198  63.556  1.00  0.00     0.000 C 
BRANCH   3   4
ATOM      4  C   UNL     1      13.448  16.468  64.109  1.00  0.00     0.000 C 
BRANCH   4   5
ATOM      5  C   UNL     1      14.293  17.340  63.168  1.00  0.00     0.000 C 
BRANCH   5   6
ATOM      6  C   UNL     1      15.555  16.625  62.664  1.00  0.00     0.000 C 
BRANCH   6   7
ATOM      7  C   UNL     1      15.308  15.986  61.290  1.00  0.00     0.000 C 
BRANCH   7   8
ATOM      8  C   UNL     1      15.819  16.852  60.126  1.00  0.00     0.000 C 
BRANCH   8   9
ATOM      9  C   UNL     1      16.687  16.108  59.091  1.00  0.00     0.000 C 
BRANCH   9  10
ATOM     10  C   UNL     1      18.162  15.916  59.491  1.00  0.00     0.006 C 
BRANCH  10  11
ATOM     11  C   UNL     1      18.762  17.155  60.167  1.00  0.00     0.053 C 
BRANCH  11  12
ATOM     12  C   UNL     1      18.999  16.897  61.622  1.00  0.00     0.041 C 
ATOM     13  O   UNL     1      18.910  15.726  62.078  1.00  0.00    -0.550 OA
ATOM     14  O   UNL     1      19.281  17.952  62.481  1.00  0.00    -0.550 OA
ENDBRANCH  11  12
ENDBRANCH  10  11
ENDBRANCH   9  10
ENDBRANCH   8   9
ENDBRANCH   7   8
ENDBRANCH   6   7
ENDBRANCH   5   6
ENDBRANCH   4   5
ENDBRANCH   3   4
ENDBRANCH   2   3
ENDBRANCH   1   2
BRANCH   1  15
ATOM     15  C   UNL     1      10.299  19.692  64.188  1.00  0.00     0.000 C 
BRANCH  15  16
ATOM     16  C   UNL     1       9.957  20.952  63.372  1.00  0.00     0.000 C 
BRANCH  16  17
ATOM     17  C   UNL     1       9.529  20.630  61.934  1.00  0.00     0.000 C 
BRANCH  17  18
ATOM     18  C   UNL     1       9.368  21.917  61.110  1.00  0.00    -0.000 C 
BRANCH  18  19
ATOM     19  C   UNL     1       9.348  23.189  61.978  1.00  0.00    -0.000 C 
BRANCH  19  20
ATOM     20  C   UNL     1      10.417  24.236  61.612  1.00  0.00    -0.000 C 
BRANCH  20  21
ATOM     21  C   UNL     1      11.369  23.757  60.502  1.00  0.00    -0.000 C 
BRANCH  21  22
ATOM     22  C   UNL     1      12.825  24.207  60.755  1.00  0.00    -0.000 C 
BRANCH  22  23
ATOM     23  C   UNL     1      13.837  23.049  60.740  1.00  0.00    -0.000 C 
BRANCH  23  24
ATOM     24  C   UNL     1      13.162  21.669  60.816  1.00  0.00    -0.000 C 
BRANCH  24  25
ATOM     25  C   UNL     1      13.529  20.904  62.098  1.00  0.00    -0.003 C 
ATOM     26  C   UNL     1      13.374  21.756  63.359  1.00  0.00     0.004 C 
ENDBRANCH  24  25
ENDBRANCH  23  24
ENDBRANCH  22  23
ENDBRANCH  21  22
ENDBRANCH  20  21
ENDBRANCH  19  20
ENDBRANCH  18  19
ENDBRANCH  17  18
ENDBRANCH  16  17
ENDBRANCH  15  16
ENDBRANCH   1  15
TORSDOF 22
ENDMDL
MODEL 3
REMARK VINA RESULT:    -4.656      2.514      4.120
REMARK INTER + INTRA:         -13.425
REMARK INTER:                 -10.915
REMARK INTRA:                  -2.510
REMARK UNBOUND:                -2.781
REMARK SMILES CCCCCCCCCCCCCCCCCCCCCCCC(=O)[O-]
REMARK SMILES IDX 13 1 14 2 15 3 16 4 17 5 18 6 19 7 20 8 21 9 22 10 23 11
REMARK SMILES IDX 24 12 25 13 26 14 12 15 11 16 10 17 9 18 8 19 7 20 6 21 5 22
REMARK SMILES IDX 4 23 3 24 2 25 1 26
REMARK H PARENT
REMARK Flexibility Score: inf
ROOT
ATOM      1  C   UNL     1      14.885  17.129  62.910  1.00  0.00     0.000 C 
ENDROOT
BRANCH   1   2
ATOM      2  C   UNL     1      15.747  16.875  61.656  1.00  0.00     0.000 C 
BRANCH   2   3
ATOM      3  C   UNL     1      17.139  16.277  61.927  1.00  0.00     0.000 C 
BRANCH   3   4
ATOM      4  C   UNL     1      18.129  16.518  60.775  1.00  0.00     0.000 C 
BRANCH   4   5
ATOM      5  C   UNL     1      17.422  16.831  59.447  1.00  0.00     0.000 C 
BRANCH   5   6
ATOM      6  C   UNL     1      17.712  15.790  58.356  1.00  0.00     0.000 C 
BRANCH   6   7
ATOM      7  C   UNL     1      17.130  14.422  58.738  1.00  0.00     0.000 C 
BRANCH   7   8
ATOM      8  C   UNL     1      15.616  14.469  59.003  1.00  0.00     0.000 C 
BRANCH   8   9
ATOM      9  C   UNL     1      15.032  13.214  59.683  1.00  0.00     0.000 C 
BRANCH   9  10
ATOM     10  C   UNL     1      15.402  13.042  61.167  1.00  0.00     0.006 C 
BRANCH  10  11
ATOM     11  C   UNL     1      14.174  12.890  62.074  1.00  0.00     0.053 C 
BRANCH  11  12
ATOM     12  C   UNL     1      14.523  12.116  63.306  1.00  0.00     0.041 C 
ATOM     13  O   UNL     1      13.827  12.240  64.348  1.00  0.00    -0.550 OA
ATOM     14  O   UNL     1      15.639  11.287  63.317  1.00  0.00    -0.550 OA
ENDBRANCH  11  12
ENDBRANCH  10  11
ENDBRANCH   9  10
ENDBRANCH   8   9
ENDBRANCH   7   8
ENDBRANCH   6   7
ENDBRANCH   5   6
ENDBRANCH   4   5
ENDBRANCH   3   4
ENDBRANCH   2   3
ENDBRANCH   1   2
BRANCH   1  15
ATOM     15  C   UNL     1      14.673  15.905  63.822  1.00  0.00     0.000 C 
BRANCH  15  16
ATOM     16  C   UNL     1      13.299  15.845  64.517  1.00  0.00     0.000 C 
BRANCH  16  17
ATOM     17  C   UNL     1      12.143  15.641  63.528  1.00  0.00     0.000 C 
BRANCH  17  18
ATOM     18  C   UNL     1      11.001  16.629  63.810  1.00  0.00    -0.000 C 
BRANCH  18  19
ATOM     19  C   UNL     1      11.490  18.077  63.997  1.00  0.00    -0.000 C 
BRANCH  19  20
ATOM     20  C   UNL     1      10.527  19.157  63.470  1.00  0.00    -0.000 C 
BRANCH  20  21
ATOM     21  C   UNL     1      11.115  20.577  63.550  1.00  0.00    -0.000 C 
BRANCH  21  22
ATOM     22  C   UNL     1      12.335  20.750  62.619  1.00  0.00    -0.000 C 
BRANCH  22  23
ATOM     23  C   UNL     1      12.329  22.076  61.839  1.00  0.00    -0.000 C 
BRANCH  23  24
ATOM     24  C   UNL     1      13.706  22.428  61.253  1.00  0.00    -0.000 C 
BRANCH  24  25
ATOM     25  C   UNL     1      13.723  23.806  60.574  1.00  0.00    -0.003 C 
ATOM     26  C   UNL     1      12.336  24.255  60.112  1.00  0.00     0.004 C 
ENDBRANCH  24  25
ENDBRANCH  23  24
ENDBRANCH  22  23
ENDBRANCH  21  22
ENDBRANCH  20  21
ENDBRANCH  19  20
ENDBRANCH  18  19
ENDBRANCH  17  18
ENDBRANCH  16  17
ENDBRANCH  15  16
ENDBRANCH   1  15
TORSDOF 22
ENDMDL
MODEL 4
REMARK VINA RESULT:    -4.625      1.415      2.135
REMARK INTER + INTRA:         -13.354
REMARK INTER:                 -11.069
REMARK INTRA:                  -2.285
REMARK UNBOUND:                -2.781
REMARK SMILES CCCCCCCCCCCCCCCCCCCCCCCC(=O)[O-]
REMARK SMILES IDX 13 1 14 2 15 3 16 4 17 5 18 6 19 7 20 8 21 9 22 10 23 11
REMARK SMILES IDX 24 12 25 13 26 14 12 15 11 16 10 17 9 18 8 19 7 20 6 21 5 22
REMARK SMILES IDX 4 23 3 24 2 25 1 26
REMARK H PARENT
REMARK Flexibility Score: inf
ROOT
ATOM      1  C   UNL     1      14.168  15.913  64.131  1.00  0.00     0.000 C 
ENDROOT
BRANCH   1   2
ATOM      2  C   UNL     1      13.455  14.747  64.848  1.00  0.00     0.000 C 
BRANCH   2   3
ATOM      3  C   UNL     1      13.734  13.349  64.266  1.00  0.00     0.000 C 
BRANCH   3   4
ATOM      4  C   UNL     1      13.468  13.267  62.754  1.00  0.00     0.000 C 
BRANCH   4   5
ATOM      5  C   UNL     1      14.691  12.771  61.966  1.00  0.00     0.000 C 
BRANCH   5   6
ATOM      6  C   UNL     1      14.534  12.943  60.448  1.00  0.00     0.000 C 
BRANCH   6   7
ATOM      7  C   UNL     1      15.860  12.660  59.728  1.00  0.00     0.000 C 
BRANCH   7   8
ATOM      8  C   UNL     1      16.421  13.894  59.001  1.00  0.00     0.000 C 
BRANCH   8   9
ATOM      9  C   UNL     1      15.554  15.165  59.107  1.00  0.00     0.000 C 
BRANCH   9  10
ATOM     10  C   UNL     1      16.338  16.481  59.263  1.00  0.00     0.006 C 
BRANCH  10  11
ATOM     11  C   UNL     1      17.764  16.267  59.785  1.00  0.00     0.053 C 
BRANCH  11  12
ATOM     12  C   UNL     1      17.787  16.290  61.280  1.00  0.00     0.041 C 
ATOM     13  O   UNL     1      18.643  15.615  61.910  1.00  0.00    -0.550 OA
ATOM     14  O   UNL     1      16.839  17.028  61.980  1.00  0.00    -0.550 OA
ENDBRANCH  11  12
ENDBRANCH  10  11
ENDBRANCH   9  10
ENDBRANCH   8   9
ENDBRANCH   7   8
ENDBRANCH   6   7
ENDBRANCH   5   6
ENDBRANCH   4   5
ENDBRANCH   3   4
ENDBRANCH   2   3
ENDBRANCH   1   2
BRANCH   1  15
ATOM     15  C   UNL     1      13.239  17.007  63.569  1.00  0.00     0.000 C 
BRANCH  15  16
ATOM     16  C   UNL     1      11.736  16.758  63.796  1.00  0.00     0.000 C 
BRANCH  16  17
ATOM     17  C   UNL     1      10.915  18.055  63.811  1.00  0.00     0.000 C 
BRANCH  17  18
ATOM     18  C   UNL     1      11.799  19.265  63.473  1.00  0.00    -0.000 C 
BRANCH  18  19
ATOM     19  C   UNL     1      10.989  20.550  63.218  1.00  0.00    -0.000 C 
BRANCH  19  20
ATOM     20  C   UNL     1      10.014  20.473  62.028  1.00  0.00    -0.000 C 
BRANCH  20  21
ATOM     21  C   UNL     1       9.766  21.841  61.367  1.00  0.00    -0.000 C 
BRANCH  21  22
ATOM     22  C   UNL     1      10.821  22.887  61.791  1.00  0.00    -0.000 C 
BRANCH  22  23
ATOM     23  C   UNL     1      11.674  23.406  60.620  1.00  0.00    -0.000 C 
BRANCH  23  24
ATOM     24  C   UNL     1      13.167  23.508  60.972  1.00  0.00    -0.000 C 
BRANCH  24  25
ATOM     25  C   UNL     1      13.736  22.189  61.518  1.00  0.00    -0.003 C 
ATOM     26  C   UNL     1      13.695  21.057  60.490  1.00  0.00     0.004 C 
ENDBRANCH  24  25
ENDBRANCH  23  24
ENDBRANCH  22  23
ENDBRANCH  21  22
ENDBRANCH  20  21
ENDBRANCH  19  20
ENDBRANCH  18  19
ENDBRANCH  17  18
ENDBRANCH  16  17
ENDBRANCH  15  16
ENDBRANCH   1  15
TORSDOF 22
ENDMDL
MODEL 5
REMARK VINA RESULT:    -4.611      1.954      3.632
REMARK INTER + INTRA:         -13.323
REMARK INTER:                 -10.533
REMARK INTRA:                  -2.790
REMARK UNBOUND:                -2.781
REMARK SMILES CCCCCCCCCCCCCCCCCCCCCCCC(=O)[O-]
REMARK SMILES IDX 13 1 14 2 15 3 16 4 17 5 18 6 19 7 20 8 21 9 22 10 23 11
REMARK SMILES IDX 24 12 25 13 26 14 12 15 11 16 10 17 9 18 8 19 7 20 6 21 5 22
REMARK SMILES IDX 4 23 3 24 2 25 1 26
REMARK H PARENT
REMARK Flexibility Score: inf
ROOT
ATOM      1  C   UNL     1      10.534  19.806  63.684  1.00  0.00     0.000 C 
ENDROOT
BRANCH   1   2
ATOM      2  C   UNL     1      11.600  18.692  63.693  1.00  0.00     0.000 C 
BRANCH   2   3
ATOM      3  C   UNL     1      11.051  17.258  63.811  1.00  0.00     0.000 C 
BRANCH   3   4
ATOM      4  C   UNL     1      12.105  16.186  63.489  1.00  0.00     0.000 C 
BRANCH   4   5
ATOM      5  C   UNL     1      13.485  16.519  64.079  1.00  0.00     0.000 C 
BRANCH   5   6
ATOM      6  C   UNL     1      14.527  15.422  63.818  1.00  0.00     0.000 C 
BRANCH   6   7
ATOM      7  C   UNL     1      14.029  14.441  62.747  1.00  0.00     0.000 C 
BRANCH   7   8
ATOM      8  C   UNL     1      15.031  14.254  61.594  1.00  0.00     0.000 C 
BRANCH   8   9
ATOM      9  C   UNL     1      15.376  15.539  60.814  1.00  0.00     0.000 C 
BRANCH   9  10
ATOM     10  C   UNL     1      16.816  16.051  61.002  1.00  0.00     0.006 C 
BRANCH  10  11
ATOM     11  C   UNL     1      17.774  15.549  59.913  1.00  0.00     0.053 C 
BRANCH  11  12
ATOM     12  C   UNL     1      17.837  16.523  58.779  1.00  0.00     0.041 C 
ATOM     13  O   UNL     1      17.514  17.727  58.962  1.00  0.00    -0.550 OA
ATOM     14  O   UNL     1      18.217  16.096  57.513  1.00  0.00    -0.550 OA
ENDBRANCH  11  12
ENDBRANCH  10  11
ENDBRANCH   9  10
ENDBRANCH   8   9
ENDBRANCH   7   8
ENDBRANCH   6   7
ENDBRANCH   5   6
ENDBRANCH   4   5
ENDBRANCH   3   4
ENDBRANCH   2   3
ENDBRANCH   1   2
BRANCH   1  15
ATOM     15  C   UNL     1       9.817  20.020  62.336  1.00  0.00     0.000 C 
BRANCH  15  16
ATOM     16  C   UNL     1       9.997  21.422  61.723  1.00  0.00     0.000 C 
BRANCH  16  17
ATOM     17  C   UNL     1       9.908  22.543  62.769  1.00  0.00     0.000 C 
BRANCH  17  18
ATOM     18  C   UNL     1       9.952  23.923  62.096  1.00  0.00    -0.000 C 
BRANCH  18  19
ATOM     19  C   UNL     1      10.232  23.847  60.583  1.00  0.00    -0.000 C 
BRANCH  19  20
ATOM     20  C   UNL     1      11.616  24.370  60.156  1.00  0.00    -0.000 C 
BRANCH  20  21
ATOM     21  C   UNL     1      12.140  25.493  61.069  1.00  0.00    -0.000 C 
BRANCH  21  22
ATOM     22  C   UNL     1      13.315  25.018  61.953  1.00  0.00    -0.000 C 
BRANCH  22  23
ATOM     23  C   UNL     1      13.929  23.684  61.493  1.00  0.00    -0.000 C 
BRANCH  23  24
ATOM     24  C   UNL     1      13.916  22.612  62.596  1.00  0.00    -0.000 C 
BRANCH  24  25
ATOM     25  C   UNL     1      13.630  21.206  62.047  1.00  0.00    -0.003 C 
ATOM     26  C   UNL     1      13.590  21.165  60.518  1.00  0.00     0.004 C 
ENDBRANCH  24  25
ENDBRANCH  23  24
ENDBRANCH  22  23
ENDBRANCH  21  22
ENDBRANCH  20  21
ENDBRANCH  19  20
ENDBRANCH  18  19
ENDBRANCH  17  18
ENDBRANCH  16  17
ENDBRANCH  15  16
ENDBRANCH   1  15
TORSDOF 22
ENDMDL
MODEL 6
REMARK VINA RESULT:    -4.587      2.112      7.256
REMARK INTER + INTRA:         -13.267
REMARK INTER:                 -10.871
REMARK INTRA:                  -2.396
REMARK UNBOUND:                -2.781
REMARK SMILES CCCCCCCCCCCCCCCCCCCCCCCC(=O)[O-]
REMARK SMILES IDX 13 1 14 2 15 3 16 4 17 5 18 6 19 7 20 8 21 9 22 10 23 11
REMARK SMILES IDX 24 12 25 13 26 14 12 15 11 16 10 17 9 18 8 19 7 20 6 21 5 22
REMARK SMILES IDX 4 23 3 24 2 25 1 26
REMARK H PARENT
REMARK Flexibility Score: inf
ROOT
ATOM      1  C   UNL     1      14.215  15.903  64.269  1.00  0.00     0.000 C 
ENDROOT
BRANCH   1   2
ATOM      2  C   UNL     1      13.201  16.785  63.512  1.00  0.00     0.000 C 
BRANCH   2   3
ATOM      3  C   UNL     1      11.728  16.363  63.656  1.00  0.00     0.000 C 
BRANCH   3   4
ATOM      4  C   UNL     1      10.789  17.551  63.924  1.00  0.00     0.000 C 
BRANCH   4   5
ATOM      5  C   UNL     1      11.420  18.899  63.540  1.00  0.00     0.000 C 
BRANCH   5   6
ATOM      6  C   UNL     1      10.388  20.031  63.427  1.00  0.00     0.000 C 
BRANCH   6   7
ATOM      7  C   UNL     1      10.187  20.441  61.962  1.00  0.00     0.000 C 
BRANCH   7   8
ATOM      8  C   UNL     1       9.710  21.896  61.808  1.00  0.00     0.000 C 
BRANCH   8   9
ATOM      9  C   UNL     1      10.793  22.894  61.353  1.00  0.00     0.000 C 
BRANCH   9  10
ATOM     10  C   UNL     1      12.173  22.706  62.010  1.00  0.00     0.006 C 
BRANCH  10  11
ATOM     11  C   UNL     1      13.305  22.554  60.986  1.00  0.00     0.053 C 
BRANCH  11  12
ATOM     12  C   UNL     1      13.755  21.130  60.906  1.00  0.00     0.041 C 
ATOM     13  O   UNL     1      13.769  20.533  59.797  1.00  0.00    -0.550 OA
ATOM     14  O   UNL     1      14.123  20.448  62.060  1.00  0.00    -0.550 OA
ENDBRANCH  11  12
ENDBRANCH  10  11
ENDBRANCH   9  10
ENDBRANCH   8   9
ENDBRANCH   7   8
ENDBRANCH   6   7
ENDBRANCH   5   6
ENDBRANCH   4   5
ENDBRANCH   3   4
ENDBRANCH   2   3
ENDBRANCH   1   2
BRANCH   1  15
ATOM     15  C   UNL     1      13.646  14.591  64.846  1.00  0.00     0.000 C 
BRANCH  15  16
ATOM     16  C   UNL     1      14.086  13.314  64.106  1.00  0.00     0.000 C 
BRANCH  16  17
ATOM     17  C   UNL     1      13.505  13.220  62.688  1.00  0.00     0.000 C 
BRANCH  17  18
ATOM     18  C   UNL     1      14.603  12.879  61.669  1.00  0.00    -0.000 C 
BRANCH  18  19
ATOM     19  C   UNL     1      15.505  14.081  61.330  1.00  0.00    -0.000 C 
BRANCH  19  20
ATOM     20  C   UNL     1      15.351  14.618  59.895  1.00  0.00    -0.000 C 
BRANCH  20  21
ATOM     21  C   UNL     1      15.138  16.142  59.845  1.00  0.00    -0.000 C 
BRANCH  21  22
ATOM     22  C   UNL     1      16.463  16.917  60.020  1.00  0.00    -0.000 C 
BRANCH  22  23
ATOM     23  C   UNL     1      17.630  16.329  59.208  1.00  0.00    -0.000 C 
BRANCH  23  24
ATOM     24  C   UNL     1      18.960  16.351  59.978  1.00  0.00    -0.000 C 
BRANCH  24  25
ATOM     25  C   UNL     1      18.760  16.369  61.502  1.00  0.00    -0.003 C 
ATOM     26  C   UNL     1      19.773  17.261  62.221  1.00  0.00     0.004 C 
ENDBRANCH  24  25
ENDBRANCH  23  24
ENDBRANCH  22  23
ENDBRANCH  21  22
ENDBRANCH  20  21
ENDBRANCH  19  20
ENDBRANCH  18  19
ENDBRANCH  17  18
ENDBRANCH  16  17
ENDBRANCH  15  16
ENDBRANCH   1  15
TORSDOF 22
ENDMDL
MODEL 7
REMARK VINA RESULT:    -4.516      1.868      2.821
REMARK INTER + INTRA:         -13.106
REMARK INTER:                 -10.574
REMARK INTRA:                  -2.533
REMARK UNBOUND:                -2.781
REMARK SMILES CCCCCCCCCCCCCCCCCCCCCCCC(=O)[O-]
REMARK SMILES IDX 13 1 14 2 15 3 16 4 17 5 18 6 19 7 20 8 21 9 22 10 23 11
REMARK SMILES IDX 24 12 25 13 26 14 12 15 11 16 10 17 9 18 8 19 7 20 6 21 5 22
REMARK SMILES IDX 4 23 3 24 2 25 1 26
REMARK H PARENT
REMARK Flexibility Score: inf
ROOT
ATOM      1  C   UNL     1      12.123  16.088  64.362  1.00  0.00     0.000 C 
ENDROOT
BRANCH   1   2
ATOM      2  C   UNL     1      12.910  16.675  63.172  1.00  0.00     0.000 C 
BRANCH   2   3
ATOM      3  C   UNL     1      14.237  17.365  63.539  1.00  0.00     0.000 C 
BRANCH   3   4
ATOM      4  C   UNL     1      15.425  16.859  62.703  1.00  0.00     0.000 C 
BRANCH   4   5
ATOM      5  C   UNL     1      14.995  16.341  61.321  1.00  0.00     0.000 C 
BRANCH   5   6
ATOM      6  C   UNL     1      15.376  14.872  61.088  1.00  0.00     0.000 C 
BRANCH   6   7
ATOM      7  C   UNL     1      15.770  14.636  59.623  1.00  0.00     0.000 C 
BRANCH   7   8
ATOM      8  C   UNL     1      17.292  14.662  59.402  1.00  0.00     0.000 C 
BRANCH   8   9
ATOM      9  C   UNL     1      17.831  15.933  58.714  1.00  0.00     0.000 C 
BRANCH   9  10
ATOM     10  C   UNL     1      18.447  16.978  59.662  1.00  0.00     0.006 C 
BRANCH  10  11
ATOM     11  C   UNL     1      18.748  16.414  61.057  1.00  0.00     0.053 C 
BRANCH  11  12
ATOM     12  C   UNL     1      19.688  17.313  61.795  1.00  0.00     0.041 C 
ATOM     13  O   UNL     1      20.923  17.275  61.550  1.00  0.00    -0.550 OA
ATOM     14  O   UNL     1      19.208  18.167  62.781  1.00  0.00    -0.550 OA
ENDBRANCH  11  12
ENDBRANCH  10  11
ENDBRANCH   9  10
ENDBRANCH   8   9
ENDBRANCH   7   8
ENDBRANCH   6   7
ENDBRANCH   5   6
ENDBRANCH   4   5
ENDBRANCH   3   4
ENDBRANCH   2   3
ENDBRANCH   1   2
BRANCH   1  15
ATOM     15  C   UNL     1      10.680  16.607  64.517  1.00  0.00     0.000 C 
BRANCH  15  16
ATOM     16  C   UNL     1      10.022  16.295  65.874  1.00  0.00     0.000 C 
BRANCH  16  17
ATOM     17  C   UNL     1       8.649  16.962  66.036  1.00  0.00     0.000 C 
BRANCH  17  18
ATOM     18  C   UNL     1       8.632  17.889  67.260  1.00  0.00    -0.000 C 
BRANCH  18  19
ATOM     19  C   UNL     1       8.368  19.362  66.896  1.00  0.00    -0.000 C 
BRANCH  19  20
ATOM     20  C   UNL     1       9.586  20.114  66.328  1.00  0.00    -0.000 C 
BRANCH  20  21
ATOM     21  C   UNL     1       9.324  20.713  64.934  1.00  0.00    -0.000 C 
BRANCH  21  22
ATOM     22  C   UNL     1      10.188  20.042  63.845  1.00  0.00    -0.000 C 
BRANCH  22  23
ATOM     23  C   UNL     1      11.685  20.382  63.953  1.00  0.00    -0.000 C 
BRANCH  23  24
ATOM     24  C   UNL     1      12.399  20.361  62.591  1.00  0.00    -0.000 C 
BRANCH  24  25
ATOM     25  C   UNL     1      13.371  21.538  62.417  1.00  0.00    -0.003 C 
ATOM     26  C   UNL     1      13.651  21.861  60.948  1.00  0.00     0.004 C 
ENDBRANCH  24  25
ENDBRANCH  23  24
ENDBRANCH  22  23
ENDBRANCH  21  22
ENDBRANCH  20  21
ENDBRANCH  19  20
ENDBRANCH  18  19
ENDBRANCH  17  18
ENDBRANCH  16  17
ENDBRANCH  15  16
ENDBRANCH   1  15
TORSDOF 22
ENDMDL
MODEL 8
REMARK VINA RESULT:    -4.499      1.768      3.087
REMARK INTER + INTRA:         -13.067
REMARK INTER:                 -10.057
REMARK INTRA:                  -3.010
REMARK UNBOUND:                -2.781
REMARK SMILES CCCCCCCCCCCCCCCCCCCCCCCC(=O)[O-]
REMARK SMILES IDX 13 1 14 2 15 3 16 4 17 5 18 6 19 7 20 8 21 9 22 10 23 11
REMARK SMILES IDX 24 12 25 13 26 14 12 15 11 16 10 17 9 18 8 19 7 20 6 21 5 22
REMARK SMILES IDX 4 23 3 24 2 25 1 26
REMARK H PARENT
REMARK Flexibility Score: inf
ROOT
ATOM      1  C   UNL     1      11.061  17.689  63.888  1.00  0.00     0.000 C 
ENDROOT
BRANCH   1   2
ATOM      2  C   UNL     1      11.887  16.432  63.542  1.00  0.00     0.000 C 
BRANCH   2   3
ATOM      3  C   UNL     1      13.380  16.683  63.263  1.00  0.00     0.000 C 
BRANCH   3   4
ATOM      4  C   UNL     1      14.305  15.865  64.178  1.00  0.00     0.000 C 
BRANCH   4   5
ATOM      5  C   UNL     1      13.678  14.529  64.608  1.00  0.00     0.000 C 
BRANCH   5   6
ATOM      6  C   UNL     1      14.328  13.317  63.925  1.00  0.00     0.000 C 
BRANCH   6   7
ATOM      7  C   UNL     1      13.769  13.125  62.508  1.00  0.00     0.000 C 
BRANCH   7   8
ATOM      8  C   UNL     1      14.860  12.795  61.474  1.00  0.00     0.000 C 
BRANCH   8   9
ATOM      9  C   UNL     1      15.251  13.960  60.542  1.00  0.00     0.000 C 
BRANCH   9  10
ATOM     10  C   UNL     1      16.725  14.398  60.626  1.00  0.00     0.006 C 
BRANCH  10  11
ATOM     11  C   UNL     1      16.891  15.844  61.109  1.00  0.00     0.053 C 
BRANCH  11  12
ATOM     12  C   UNL     1      16.392  16.804  60.076  1.00  0.00     0.041 C 
ATOM     13  O   UNL     1      16.984  16.904  58.969  1.00  0.00    -0.550 OA
ATOM     14  O   UNL     1      15.297  17.615  60.349  1.00  0.00    -0.550 OA
ENDBRANCH  11  12
ENDBRANCH  10  11
ENDBRANCH   9  10
ENDBRANCH   8   9
ENDBRANCH   7   8
ENDBRANCH   6   7
ENDBRANCH   5   6
ENDBRANCH   4   5
ENDBRANCH   3   4
ENDBRANCH   2   3
ENDBRANCH   1   2
BRANCH   1  15
ATOM     15  C   UNL     1      11.712  19.031  63.497  1.00  0.00     0.000 C 
BRANCH  15  16
ATOM     16  C   UNL     1      11.015  20.279  64.072  1.00  0.00     0.000 C 
BRANCH  16  17
ATOM     17  C   UNL     1       9.804  20.719  63.237  1.00  0.00     0.000 C 
BRANCH  17  18
ATOM     18  C   UNL     1      10.183  20.860  61.755  1.00  0.00    -0.000 C 
BRANCH  18  19
ATOM     19  C   UNL     1      10.020  22.297  61.226  1.00  0.00    -0.000 C 
BRANCH  19  20
ATOM     20  C   UNL     1      10.194  23.400  62.288  1.00  0.00    -0.000 C 
BRANCH  20  21
ATOM     21  C   UNL     1      11.357  24.357  61.972  1.00  0.00    -0.000 C 
BRANCH  21  22
ATOM     22  C   UNL     1      12.047  24.007  60.635  1.00  0.00    -0.000 C 
BRANCH  22  23
ATOM     23  C   UNL     1      13.551  23.716  60.779  1.00  0.00    -0.000 C 
BRANCH  23  24
ATOM     24  C   UNL     1      13.891  22.977  62.084  1.00  0.00    -0.000 C 
BRANCH  24  25
ATOM     25  C   UNL     1      13.826  21.450  61.931  1.00  0.00    -0.003 C 
ATOM     26  C   UNL     1      13.726  21.005  60.471  1.00  0.00     0.004 C 
ENDBRANCH  24  25
ENDBRANCH  23  24
ENDBRANCH  22  23
ENDBRANCH  21  22
ENDBRANCH  20  21
ENDBRANCH  19  20
ENDBRANCH  18  19
ENDBRANCH  17  18
ENDBRANCH  16  17
ENDBRANCH  15  16
ENDBRANCH   1  15
TORSDOF 22
ENDMDL
MODEL 9
REMARK VINA RESULT:    -4.451      1.981      3.938
REMARK INTER + INTRA:         -12.957
REMARK INTER:                 -10.199
REMARK INTRA:                  -2.758
REMARK UNBOUND:                -2.781
REMARK SMILES CCCCCCCCCCCCCCCCCCCCCCCC(=O)[O-]
REMARK SMILES IDX 13 1 14 2 15 3 16 4 17 5 18 6 19 7 20 8 21 9 22 10 23 11
REMARK SMILES IDX 24 12 25 13 26 14 12 15 11 16 10 17 9 18 8 19 7 20 6 21 5 22
REMARK SMILES IDX 4 23 3 24 2 25 1 26
REMARK H PARENT
REMARK Flexibility Score: inf
ROOT
ATOM      1  C   UNL     1      10.121  20.600  61.996  1.00  0.00     0.000 C 
ENDROOT
BRANCH   1   2
ATOM      2  C   UNL     1      10.303  19.948  63.383  1.00  0.00     0.000 C 
BRANCH   2   3
ATOM      3  C   UNL     1      11.478  18.959  63.494  1.00  0.00     0.000 C 
BRANCH   3   4
ATOM      4  C   UNL     1      11.025  17.526  63.817  1.00  0.00     0.000 C 
BRANCH   4   5
ATOM      5  C   UNL     1      12.202  16.542  63.907  1.00  0.00     0.000 C 
BRANCH   5   6
ATOM      6  C   UNL     1      13.536  17.163  63.468  1.00  0.00     0.000 C 
BRANCH   6   7
ATOM      7  C   UNL     1      14.504  16.081  62.972  1.00  0.00     0.000 C 
BRANCH   7   8
ATOM      8  C   UNL     1      15.737  16.663  62.257  1.00  0.00     0.000 C 
BRANCH   8   9
ATOM      9  C   UNL     1      15.856  16.303  60.763  1.00  0.00     0.000 C 
BRANCH   9  10
ATOM     10  C   UNL     1      17.290  16.038  60.267  1.00  0.00     0.006 C 
BRANCH  10  11
ATOM     11  C   UNL     1      18.302  15.905  61.412  1.00  0.00     0.053 C 
BRANCH  11  12
ATOM     12  C   UNL     1      19.311  17.008  61.352  1.00  0.00     0.041 C 
ATOM     13  O   UNL     1      20.273  17.029  62.165  1.00  0.00    -0.550 OA
ATOM     14  O   UNL     1      19.170  18.034  60.425  1.00  0.00    -0.550 OA
ENDBRANCH  11  12
ENDBRANCH  10  11
ENDBRANCH   9  10
ENDBRANCH   8   9
ENDBRANCH   7   8
ENDBRANCH   6   7
ENDBRANCH   5   6
ENDBRANCH   4   5
ENDBRANCH   3   4
ENDBRANCH   2   3
ENDBRANCH   1   2
BRANCH   1  15
ATOM     15  C   UNL     1       8.727  20.419  61.362  1.00  0.00     0.000 C 
BRANCH  15  16
ATOM     16  C   UNL     1       8.181  21.661  60.634  1.00  0.00     0.000 C 
BRANCH  16  17
ATOM     17  C   UNL     1       8.361  22.952  61.447  1.00  0.00     0.000 C 
BRANCH  17  18
ATOM     18  C   UNL     1       8.528  24.164  60.518  1.00  0.00    -0.000 C 
BRANCH  18  19
ATOM     19  C   UNL     1       9.871  24.892  60.714  1.00  0.00    -0.000 C 
BRANCH  19  20
ATOM     20  C   UNL     1      11.079  23.965  60.944  1.00  0.00    -0.000 C 
BRANCH  20  21
ATOM     21  C   UNL     1      11.938  24.388  62.150  1.00  0.00    -0.000 C 
BRANCH  21  22
ATOM     22  C   UNL     1      11.710  23.471  63.372  1.00  0.00    -0.000 C 
BRANCH  22  23
ATOM     23  C   UNL     1      12.964  22.683  63.790  1.00  0.00    -0.000 C 
BRANCH  23  24
ATOM     24  C   UNL     1      13.962  22.498  62.635  1.00  0.00    -0.000 C 
BRANCH  24  25
ATOM     25  C   UNL     1      13.860  21.110  61.984  1.00  0.00    -0.003 C 
ATOM     26  C   UNL     1      13.534  21.179  60.491  1.00  0.00     0.004 C 
ENDBRANCH  24  25
ENDBRANCH  23  24
ENDBRANCH  22  23
ENDBRANCH  21  22
ENDBRANCH  20  21
ENDBRANCH  19  20
ENDBRANCH  18  19
ENDBRANCH  17  18
ENDBRANCH  16  17
ENDBRANCH  15  16
ENDBRANCH   1  15
TORSDOF 22
ENDMDL
