MODEL 1
REMARK VINA RESULT:    -5.426      0.000      0.000
REMARK INTER + INTRA:         -17.807
REMARK INTER:                 -14.307
REMARK INTRA:                  -3.500
REMARK UNBOUND:                -3.500
REMARK SMILES CCCCCCCCCCCCCCCCCCCCCCCCCCCCCC(=O)[O-]
REMARK SMILES IDX 16 1 17 2 18 3 19 4 20 5 21 6 22 7 23 8 24 9 25 10 26 11
REMARK SMILES IDX 27 12 28 13 29 14 30 15 31 16 32 17 15 18 14 19 13 20 12 21
REMARK SMILES IDX 11 22 10 23 9 24 8 25 7 26 6 27 5 28 4 29 3 30 2 31 1 32
REMARK H PARENT
REMARK Flexibility Score: inf
ROOT
ATOM      1  C   UNL     1       9.511  20.433  -6.612  1.00  0.00     0.000 C 
ENDROOT
BRANCH   1   2
ATOM      2  C   UNL     1      10.268  20.407  -7.956  1.00  0.00     0.000 C 
BRANCH   2   3
ATOM      3  C   UNL     1      11.776  20.092  -7.859  1.00  0.00     0.000 C 
BRANCH   3   4
ATOM      4  C   UNL     1      12.703  21.320  -7.975  1.00  0.00     0.000 C 
BRANCH   4   5
ATOM      5  C   UNL     1      12.707  22.209  -6.718  1.00  0.00     0.000 C 
BRANCH   5   6
ATOM      6  C   UNL     1      14.092  22.836  -6.445  1.00  0.00     0.000 C 
BRANCH   6   7
ATOM      7  C   UNL     1      14.433  23.979  -7.419  1.00  0.00     0.000 C 
BRANCH   7   8
ATOM      8  C   UNL     1      15.788  24.660  -7.124  1.00  0.00     0.000 C 
BRANCH   8   9
ATOM      9  C   UNL     1      15.748  25.695  -5.983  1.00  0.00     0.000 C 
BRANCH   9  10
ATOM     10  C   UNL     1      16.666  25.318  -4.807  1.00  0.00     0.000 C 
BRANCH  10  11
ATOM     11  C   UNL     1      16.419  26.181  -3.556  1.00  0.00     0.000 C 
BRANCH  11  12
ATOM     12  C   UNL     1      14.943  26.304  -3.132  1.00  0.00     0.000 C 
BRANCH  12  13
ATOM     13  C   UNL     1      14.430  25.064  -2.379  1.00  0.00     0.006 C 
BRANCH  13  14
ATOM     14  C   UNL     1      14.508  25.238  -0.856  1.00  0.00     0.053 C 
BRANCH  14  15
ATOM     15  C   UNL     1      13.573  24.311  -0.141  1.00  0.00     0.041 C 
ATOM     16  O   UNL     1      13.270  23.198  -0.647  1.00  0.00    -0.550 OA
ATOM     17  O   UNL     1      13.018  24.688   1.076  1.00  0.00    -0.550 OA
ENDBRANCH  14  15
ENDBRANCH  13  14
ENDBRANCH  12  13
ENDBRANCH  11  12
ENDBRANCH  10  11
ENDBRANCH   9  10
ENDBRANCH   8   9
ENDBRANCH   7   8
ENDBRANCH   6   7
ENDBRANCH   5   6
ENDBRANCH   4   5
ENDBRANCH   3   4
ENDBRANCH   2   3
ENDBRANCH   1   2
BRANCH   1  18
ATOM     18  C   UNL     1       9.349  21.831  -5.984  1.00  0.00     0.000 C 
BRANCH  18  19
ATOM     19  C   UNL     1       7.930  22.149  -5.472  1.00  0.00     0.000 C 
BRANCH  19  20
ATOM     20  C   UNL     1       7.570  23.649  -5.429  1.00  0.00     0.000 C 
BRANCH  20  21
ATOM     21  C   UNL     1       6.201  24.006  -6.036  1.00  0.00     0.000 C 
BRANCH  21  22
ATOM     22  C   UNL     1       5.351  22.769  -6.361  1.00  0.00     0.000 C 
BRANCH  22  23
ATOM     23  C   UNL     1       4.052  23.166  -7.073  1.00  0.00     0.000 C 
BRANCH  23  24
ATOM     24  C   UNL     1       3.908  22.423  -8.407  1.00  0.00    -0.000 C 
BRANCH  24  25
ATOM     25  C   UNL     1       4.754  23.091  -9.503  1.00  0.00    -0.000 C 
BRANCH  25  26
ATOM     26  C   UNL     1       5.676  22.094 -10.221  1.00  0.00    -0.000 C 
BRANCH  26  27
ATOM     27  C   UNL     1       7.098  22.642 -10.419  1.00  0.00    -0.000 C 
BRANCH  27  28
ATOM     28  C   UNL     1       7.491  23.565  -9.255  1.00  0.00    -0.000 C 
BRANCH  28  29
ATOM     29  C   UNL     1       9.009  23.610  -9.017  1.00  0.00    -0.000 C 
BRANCH  29  30
ATOM     30  C   UNL     1       9.801  22.877 -10.115  1.00  0.00    -0.000 C 
BRANCH  30  31
ATOM     31  C   UNL     1      11.191  23.490 -10.344  1.00  0.00    -0.003 C 
ATOM     32  C   UNL     1      11.515  24.615  -9.362  1.00  0.00     0.004 C 
ENDBRANCH  30  31
ENDBRANCH  29  30
ENDBRANCH  28  29
ENDBRANCH  27  28
ENDBRANCH  26  27
ENDBRANCH  25  26
ENDBRANCH  24  25
ENDBRANCH  23  24
ENDBRANCH  22  23
ENDBRANCH  21  22
ENDBRANCH  20  21
ENDBRANCH  19  20
ENDBRANCH  18  19
ENDBRANCH   1  18
TORSDOF 28
ENDMDL
MODEL 2
REMARK VINA RESULT:    -5.408      2.016      4.695
REMARK INTER + INTRA:         -17.760
REMARK INTER:                 -14.726
REMARK INTRA:                  -3.034
REMARK UNBOUND:                -3.500
REMARK SMILES CCCCCCCCCCCCCCCCCCCCCCCCCCCCCC(=O)[O-]
REMARK SMILES IDX 16 1 17 2 18 3 19 4 20 5 21 6 22 7 23 8 24 9 25 10 26 11
REMARK SMILES IDX 27 12 28 13 29 14 30 15 31 16 32 17 15 18 14 19 13 20 12 21
REMARK SMILES IDX 11 22 10 23 9 24 8 25 7 26 6 27 5 28 4 29 3 30 2 31 1 32
REMARK H PARENT
REMARK Flexibility Score: inf
ROOT
ATOM      1  C   UNL     1       9.886  21.744  -5.943  1.00  0.00     0.000 C 
ENDROOT
BRANCH   1   2
ATOM      2  C   UNL     1      10.006  20.877  -7.213  1.00  0.00     0.000 C 
BRANCH   2   3
ATOM      3  C   UNL     1       9.639  21.587  -8.534  1.00  0.00     0.000 C 
BRANCH   3   4
ATOM      4  C   UNL     1      10.182  23.026  -8.668  1.00  0.00     0.000 C 
BRANCH   4   5
ATOM      5  C   UNL     1      11.240  23.183  -9.775  1.00  0.00     0.000 C 
BRANCH   5   6
ATOM      6  C   UNL     1      12.117  24.439  -9.577  1.00  0.00     0.000 C 
BRANCH   6   7
ATOM      7  C   UNL     1      12.845  24.452  -8.220  1.00  0.00     0.000 C 
BRANCH   7   8
ATOM      8  C   UNL     1      13.589  23.135  -7.903  1.00  0.00     0.000 C 
BRANCH   8   9
ATOM      9  C   UNL     1      14.240  23.090  -6.508  1.00  0.00     0.000 C 
BRANCH   9  10
ATOM     10  C   UNL     1      15.762  22.868  -6.570  1.00  0.00     0.000 C 
BRANCH  10  11
ATOM     11  C   UNL     1      16.523  23.639  -5.474  1.00  0.00     0.000 C 
BRANCH  11  12
ATOM     12  C   UNL     1      16.241  23.170  -4.034  1.00  0.00     0.000 C 
BRANCH  12  13
ATOM     13  C   UNL     1      15.983  24.336  -3.064  1.00  0.00     0.006 C 
BRANCH  13  14
ATOM     14  C   UNL     1      14.496  24.705  -2.986  1.00  0.00     0.053 C 
BRANCH  14  15
ATOM     15  C   UNL     1      13.793  23.958  -1.893  1.00  0.00     0.041 C 
ATOM     16  O   UNL     1      13.304  22.818  -2.114  1.00  0.00    -0.550 OA
ATOM     17  O   UNL     1      13.662  24.532  -0.634  1.00  0.00    -0.550 OA
ENDBRANCH  14  15
ENDBRANCH  13  14
ENDBRANCH  12  13
ENDBRANCH  11  12
ENDBRANCH  10  11
ENDBRANCH   9  10
ENDBRANCH   8   9
ENDBRANCH   7   8
ENDBRANCH   6   7
ENDBRANCH   5   6
ENDBRANCH   4   5
ENDBRANCH   3   4
ENDBRANCH   2   3
ENDBRANCH   1   2
BRANCH   1  18
ATOM     18  C   UNL     1       8.485  21.765  -5.299  1.00  0.00     0.000 C 
BRANCH  18  19
ATOM     19  C   UNL     1       7.782  23.136  -5.325  1.00  0.00     0.000 C 
BRANCH  19  20
ATOM     20  C   UNL     1       6.847  23.370  -6.530  1.00  0.00     0.000 C 
BRANCH  20  21
ATOM     21  C   UNL     1       6.876  24.798  -7.107  1.00  0.00     0.000 C 
BRANCH  21  22
ATOM     22  C   UNL     1       7.151  24.827  -8.617  1.00  0.00     0.000 C 
BRANCH  22  23
ATOM     23  C   UNL     1       6.752  23.501  -9.274  1.00  0.00     0.000 C 
BRANCH  23  24
ATOM     24  C   UNL     1       5.750  23.731 -10.413  1.00  0.00    -0.000 C 
BRANCH  24  25
ATOM     25  C   UNL     1       4.319  23.398  -9.962  1.00  0.00    -0.000 C 
BRANCH  25  26
ATOM     26  C   UNL     1       4.276  22.231  -8.963  1.00  0.00    -0.000 C 
BRANCH  26  27
ATOM     27  C   UNL     1       3.286  22.475  -7.814  1.00  0.00    -0.000 C 
BRANCH  27  28
ATOM     28  C   UNL     1       1.850  22.154  -8.256  1.00  0.00    -0.000 C 
BRANCH  28  29
ATOM     29  C   UNL     1       1.270  20.919  -7.547  1.00  0.00    -0.000 C 
BRANCH  29  30
ATOM     30  C   UNL     1       1.206  19.687  -8.467  1.00  0.00    -0.000 C 
BRANCH  30  31
ATOM     31  C   UNL     1      -0.236  19.222  -8.727  1.00  0.00    -0.003 C 
ATOM     32  C   UNL     1      -1.143  20.347  -9.223  1.00  0.00     0.004 C 
ENDBRANCH  30  31
ENDBRANCH  29  30
ENDBRANCH  28  29
ENDBRANCH  27  28
ENDBRANCH  26  27
ENDBRANCH  25  26
ENDBRANCH  24  25
ENDBRANCH  23  24
ENDBRANCH  22  23
ENDBRANCH  21  22
ENDBRANCH  20  21
ENDBRANCH  19  20
ENDBRANCH  18  19
ENDBRANCH   1  18
TORSDOF 28
ENDMDL
MODEL 3
REMARK VINA RESULT:    -5.353      3.013      6.160
REMARK INTER + INTRA:         -17.615
REMARK INTER:                 -14.891
REMARK INTRA:                  -2.724
REMARK UNBOUND:                -3.500
REMARK SMILES CCCCCCCCCCCCCCCCCCCCCCCCCCCCCC(=O)[O-]
REMARK SMILES IDX 16 1 17 2 18 3 19 4 20 5 21 6 22 7 23 8 24 9 25 10 26 11
REMARK SMILES IDX 27 12 28 13 29 14 30 15 31 16 32 17 15 18 14 19 13 20 12 21
REMARK SMILES IDX 11 22 10 23 9 24 8 25 7 26 6 27 5 28 4 29 3 30 2 31 1 32
REMARK H PARENT
REMARK Flexibility Score: inf
ROOT
ATOM      1  C   UNL     1       8.162  22.890  -5.476  1.00  0.00     0.000 C 
ENDROOT
BRANCH   1   2
ATOM      2  C   UNL     1       9.026  21.659  -5.821  1.00  0.00     0.000 C 
BRANCH   2   3
ATOM      3  C   UNL     1      10.227  21.935  -6.750  1.00  0.00     0.000 C 
BRANCH   3   4
ATOM      4  C   UNL     1      10.162  21.229  -8.121  1.00  0.00     0.000 C 
BRANCH   4   5
ATOM      5  C   UNL     1      10.648  22.107  -9.289  1.00  0.00     0.000 C 
BRANCH   5   6
ATOM      6  C   UNL     1      10.768  23.596  -8.895  1.00  0.00     0.000 C 
BRANCH   6   7
ATOM      7  C   UNL     1      12.047  24.257  -9.440  1.00  0.00     0.000 C 
BRANCH   7   8
ATOM      8  C   UNL     1      13.139  24.471  -8.368  1.00  0.00     0.000 C 
BRANCH   8   9
ATOM      9  C   UNL     1      13.355  23.270  -7.427  1.00  0.00     0.000 C 
BRANCH   9  10
ATOM     10  C   UNL     1      14.658  22.508  -7.727  1.00  0.00     0.000 C 
BRANCH  10  11
ATOM     11  C   UNL     1      15.790  22.848  -6.739  1.00  0.00     0.000 C 
BRANCH  11  12
ATOM     12  C   UNL     1      17.183  23.011  -7.376  1.00  0.00     0.000 C 
BRANCH  12  13
ATOM     13  C   UNL     1      17.430  24.428  -7.922  1.00  0.00     0.006 C 
BRANCH  13  14
ATOM     14  C   UNL     1      17.757  25.430  -6.806  1.00  0.00     0.053 C 
BRANCH  14  15
ATOM     15  C   UNL     1      16.550  25.759  -5.983  1.00  0.00     0.041 C 
ATOM     16  O   UNL     1      16.524  25.485  -4.753  1.00  0.00    -0.550 OA
ATOM     17  O   UNL     1      15.443  26.352  -6.579  1.00  0.00    -0.550 OA
ENDBRANCH  14  15
ENDBRANCH  13  14
ENDBRANCH  12  13
ENDBRANCH  11  12
ENDBRANCH  10  11
ENDBRANCH   9  10
ENDBRANCH   8   9
ENDBRANCH   7   8
ENDBRANCH   6   7
ENDBRANCH   5   6
ENDBRANCH   4   5
ENDBRANCH   3   4
ENDBRANCH   2   3
ENDBRANCH   1   2
BRANCH   1  18
ATOM     18  C   UNL     1       6.974  23.138  -6.426  1.00  0.00     0.000 C 
BRANCH  18  19
ATOM     19  C   UNL     1       6.971  24.520  -7.109  1.00  0.00     0.000 C 
BRANCH  19  20
ATOM     20  C   UNL     1       7.240  24.501  -8.628  1.00  0.00     0.000 C 
BRANCH  20  21
ATOM     21  C   UNL     1       7.283  23.097  -9.262  1.00  0.00     0.000 C 
BRANCH  21  22
ATOM     22  C   UNL     1       6.376  22.970 -10.494  1.00  0.00     0.000 C 
BRANCH  22  23
ATOM     23  C   UNL     1       5.081  22.226 -10.148  1.00  0.00     0.000 C 
BRANCH  23  24
ATOM     24  C   UNL     1       4.098  23.146  -9.413  1.00  0.00    -0.000 C 
BRANCH  24  25
ATOM     25  C   UNL     1       3.641  22.516  -8.088  1.00  0.00    -0.000 C 
BRANCH  25  26
ATOM     26  C   UNL     1       2.486  21.520  -8.279  1.00  0.00    -0.000 C 
BRANCH  26  27
ATOM     27  C   UNL     1       1.236  21.904  -7.473  1.00  0.00    -0.000 C 
BRANCH  27  28
ATOM     28  C   UNL     1      -0.027  21.793  -8.342  1.00  0.00    -0.000 C 
BRANCH  28  29
ATOM     29  C   UNL     1      -1.229  21.219  -7.575  1.00  0.00    -0.000 C 
BRANCH  29  30
ATOM     30  C   UNL     1      -1.678  19.852  -8.122  1.00  0.00    -0.000 C 
BRANCH  30  31
ATOM     31  C   UNL     1      -0.817  19.381  -9.305  1.00  0.00    -0.003 C 
ATOM     32  C   UNL     1      -1.618  19.225 -10.598  1.00  0.00     0.004 C 
ENDBRANCH  30  31
ENDBRANCH  29  30
ENDBRANCH  28  29
ENDBRANCH  27  28
ENDBRANCH  26  27
ENDBRANCH  25  26
ENDBRANCH  24  25
ENDBRANCH  23  24
ENDBRANCH  22  23
ENDBRANCH  21  22
ENDBRANCH  20  21
ENDBRANCH  19  20
ENDBRANCH  18  19
ENDBRANCH   1  18
TORSDOF 28
ENDMDL
MODEL 4
REMARK VINA RESULT:    -5.310      3.535      9.641
REMARK INTER + INTRA:         -17.503
REMARK INTER:                 -12.874
REMARK INTRA:                  -4.629
REMARK UNBOUND:                -3.500
REMARK SMILES CCCCCCCCCCCCCCCCCCCCCCCCCCCCCC(=O)[O-]
REMARK SMILES IDX 16 1 17 2 18 3 19 4 20 5 21 6 22 7 23 8 24 9 25 10 26 11
REMARK SMILES IDX 27 12 28 13 29 14 30 15 31 16 32 17 15 18 14 19 13 20 12 21
REMARK SMILES IDX 11 22 10 23 9 24 8 25 7 26 6 27 5 28 4 29 3 30 2 31 1 32
REMARK H PARENT
REMARK Flexibility Score: inf
ROOT
ATOM      1  C   UNL     1      13.443  24.491  -7.903  1.00  0.00     0.000 C 
ENDROOT
BRANCH   1   2
ATOM      2  C   UNL     1      12.683  24.446  -9.245  1.00  0.00     0.000 C 
BRANCH   2   3
ATOM      3  C   UNL     1      11.144  24.498  -9.134  1.00  0.00     0.000 C 
BRANCH   3   4
ATOM      4  C   UNL     1      10.405  23.337  -9.833  1.00  0.00     0.000 C 
BRANCH   4   5
ATOM      5  C   UNL     1      10.890  21.945  -9.392  1.00  0.00     0.000 C 
BRANCH   5   6
ATOM      6  C   UNL     1       9.805  21.161  -8.620  1.00  0.00     0.000 C 
BRANCH   6   7
ATOM      7  C   UNL     1      10.179  20.916  -7.147  1.00  0.00     0.000 C 
BRANCH   7   8
ATOM      8  C   UNL     1       9.792  22.080  -6.207  1.00  0.00     0.000 C 
BRANCH   8   9
ATOM      9  C   UNL     1       8.473  21.868  -5.439  1.00  0.00     0.000 C 
BRANCH   9  10
ATOM     10  C   UNL     1       7.686  23.175  -5.240  1.00  0.00     0.000 C 
BRANCH  10  11
ATOM     11  C   UNL     1       6.661  23.432  -6.360  1.00  0.00     0.000 C 
BRANCH  11  12
ATOM     12  C   UNL     1       6.853  24.754  -7.128  1.00  0.00     0.000 C 
BRANCH  12  13
ATOM     13  C   UNL     1       7.410  24.548  -8.547  1.00  0.00     0.006 C 
BRANCH  13  14
ATOM     14  C   UNL     1       6.798  23.322  -9.237  1.00  0.00     0.053 C 
BRANCH  14  15
ATOM     15  C   UNL     1       5.421  23.606  -9.758  1.00  0.00     0.041 C 
ATOM     16  O   UNL     1       4.431  22.960  -9.322  1.00  0.00    -0.550 OA
ATOM     17  O   UNL     1       5.236  24.571 -10.740  1.00  0.00    -0.550 OA
ENDBRANCH  14  15
ENDBRANCH  13  14
ENDBRANCH  12  13
ENDBRANCH  11  12
ENDBRANCH  10  11
ENDBRANCH   9  10
ENDBRANCH   8   9
ENDBRANCH   7   8
ENDBRANCH   6   7
ENDBRANCH   5   6
ENDBRANCH   4   5
ENDBRANCH   3   4
ENDBRANCH   2   3
ENDBRANCH   1   2
BRANCH   1  18
ATOM     18  C   UNL     1      13.327  23.215  -7.047  1.00  0.00     0.000 C 
BRANCH  18  19
ATOM     19  C   UNL     1      14.229  22.049  -7.500  1.00  0.00     0.000 C 
BRANCH  19  20
ATOM     20  C   UNL     1      15.666  22.448  -7.895  1.00  0.00     0.000 C 
BRANCH  20  21
ATOM     21  C   UNL     1      16.573  22.856  -6.719  1.00  0.00     0.000 C 
BRANCH  21  22
ATOM     22  C   UNL     1      17.766  23.717  -7.156  1.00  0.00     0.000 C 
BRANCH  22  23
ATOM     23  C   UNL     1      17.293  24.998  -7.852  1.00  0.00     0.000 C 
BRANCH  23  24
ATOM     24  C   UNL     1      16.671  25.974  -6.845  1.00  0.00    -0.000 C 
BRANCH  24  25
ATOM     25  C   UNL     1      17.757  26.788  -6.124  1.00  0.00    -0.000 C 
BRANCH  25  26
ATOM     26  C   UNL     1      17.717  26.598  -4.600  1.00  0.00    -0.000 C 
BRANCH  26  27
ATOM     27  C   UNL     1      16.553  25.705  -4.146  1.00  0.00    -0.000 C 
BRANCH  27  28
ATOM     28  C   UNL     1      17.044  24.624  -3.171  1.00  0.00    -0.000 C 
BRANCH  28  29
ATOM     29  C   UNL     1      16.131  23.388  -3.142  1.00  0.00    -0.000 C 
BRANCH  29  30
ATOM     30  C   UNL     1      14.715  23.689  -3.665  1.00  0.00    -0.000 C 
BRANCH  30  31
ATOM     31  C   UNL     1      13.726  24.007  -2.532  1.00  0.00    -0.003 C 
ATOM     32  C   UNL     1      12.893  22.796  -2.112  1.00  0.00     0.004 C 
ENDBRANCH  30  31
ENDBRANCH  29  30
ENDBRANCH  28  29
ENDBRANCH  27  28
ENDBRANCH  26  27
ENDBRANCH  25  26
ENDBRANCH  24  25
ENDBRANCH  23  24
ENDBRANCH  22  23
ENDBRANCH  21  22
ENDBRANCH  20  21
ENDBRANCH  19  20
ENDBRANCH  18  19
ENDBRANCH   1  18
TORSDOF 28
ENDMDL
MODEL 5
REMARK VINA RESULT:    -5.255      3.797     10.043
REMARK INTER + INTRA:         -17.356
REMARK INTER:                 -13.927
REMARK INTRA:                  -3.429
REMARK UNBOUND:                -3.500
REMARK SMILES CCCCCCCCCCCCCCCCCCCCCCCCCCCCCC(=O)[O-]
REMARK SMILES IDX 16 1 17 2 18 3 19 4 20 5 21 6 22 7 23 8 24 9 25 10 26 11
REMARK SMILES IDX 27 12 28 13 29 14 30 15 31 16 32 17 15 18 14 19 13 20 12 21
REMARK SMILES IDX 11 22 10 23 9 24 8 25 7 26 6 27 5 28 4 29 3 30 2 31 1 32
REMARK H PARENT
REMARK Flexibility Score: inf
ROOT
ATOM      1  C   UNL     1      11.952  24.398  -9.328  1.00  0.00     0.000 C 
ENDROOT
BRANCH   1   2
ATOM      2  C   UNL     1      11.522  23.097 -10.036  1.00  0.00     0.000 C 
BRANCH   2   3
ATOM      3  C   UNL     1       9.998  22.865 -10.122  1.00  0.00     0.000 C 
BRANCH   3   4
ATOM      4  C   UNL     1       9.361  22.264  -8.851  1.00  0.00     0.000 C 
BRANCH   4   5
ATOM      5  C   UNL     1      10.067  20.991  -8.352  1.00  0.00     0.000 C 
BRANCH   5   6
ATOM      6  C   UNL     1       9.877  20.768  -6.836  1.00  0.00     0.000 C 
BRANCH   6   7
ATOM      7  C   UNL     1       9.592  22.073  -6.071  1.00  0.00     0.000 C 
BRANCH   7   8
ATOM      8  C   UNL     1       8.263  22.052  -5.283  1.00  0.00     0.000 C 
BRANCH   8   9
ATOM      9  C   UNL     1       7.461  23.367  -5.349  1.00  0.00     0.000 C 
BRANCH   9  10
ATOM     10  C   UNL     1       6.612  23.481  -6.628  1.00  0.00     0.000 C 
BRANCH  10  11
ATOM     11  C   UNL     1       7.017  24.677  -7.509  1.00  0.00     0.000 C 
BRANCH  11  12
ATOM     12  C   UNL     1       6.831  24.463  -9.023  1.00  0.00     0.000 C 
BRANCH  12  13
ATOM     13  C   UNL     1       5.869  23.308  -9.351  1.00  0.00     0.006 C 
BRANCH  13  14
ATOM     14  C   UNL     1       5.817  23.008 -10.855  1.00  0.00     0.053 C 
BRANCH  14  15
ATOM     15  C   UNL     1       4.946  23.983 -11.588  1.00  0.00     0.041 C 
ATOM     16  O   UNL     1       4.182  24.757 -10.951  1.00  0.00    -0.550 OA
ATOM     17  O   UNL     1       4.963  24.021 -12.977  1.00  0.00    -0.550 OA
ENDBRANCH  14  15
ENDBRANCH  13  14
ENDBRANCH  12  13
ENDBRANCH  11  12
ENDBRANCH  10  11
ENDBRANCH   9  10
ENDBRANCH   8   9
ENDBRANCH   7   8
ENDBRANCH   6   7
ENDBRANCH   5   6
ENDBRANCH   4   5
ENDBRANCH   3   4
ENDBRANCH   2   3
ENDBRANCH   1   2
BRANCH   1  18
ATOM     18  C   UNL     1      13.108  24.239  -8.321  1.00  0.00     0.000 C 
BRANCH  18  19
ATOM     19  C   UNL     1      12.905  23.125  -7.274  1.00  0.00     0.000 C 
BRANCH  19  20
ATOM     20  C   UNL     1      14.198  22.427  -6.802  1.00  0.00     0.000 C 
BRANCH  20  21
ATOM     21  C   UNL     1      15.357  22.451  -7.817  1.00  0.00     0.000 C 
BRANCH  21  22
ATOM     22  C   UNL     1      16.682  22.919  -7.199  1.00  0.00     0.000 C 
BRANCH  22  23
ATOM     23  C   UNL     1      17.117  24.266  -7.786  1.00  0.00     0.000 C 
BRANCH  23  24
ATOM     24  C   UNL     1      16.684  25.426  -6.880  1.00  0.00    -0.000 C 
BRANCH  24  25
ATOM     25  C   UNL     1      16.891  25.074  -5.398  1.00  0.00    -0.000 C 
BRANCH  25  26
ATOM     26  C   UNL     1      15.643  25.358  -4.548  1.00  0.00    -0.000 C 
BRANCH  26  27
ATOM     27  C   UNL     1      15.791  24.869  -3.099  1.00  0.00    -0.000 C 
BRANCH  27  28
ATOM     28  C   UNL     1      16.012  26.053  -2.146  1.00  0.00    -0.000 C 
BRANCH  28  29
ATOM     29  C   UNL     1      15.047  26.043  -0.949  1.00  0.00    -0.000 C 
BRANCH  29  30
ATOM     30  C   UNL     1      13.767  25.237  -1.231  1.00  0.00    -0.000 C 
BRANCH  30  31
ATOM     31  C   UNL     1      13.533  24.126  -0.194  1.00  0.00    -0.003 C 
ATOM     32  C   UNL     1      13.048  24.661   1.153  1.00  0.00     0.004 C 
ENDBRANCH  30  31
ENDBRANCH  29  30
ENDBRANCH  28  29
ENDBRANCH  27  28
ENDBRANCH  26  27
ENDBRANCH  25  26
ENDBRANCH  24  25
ENDBRANCH  23  24
ENDBRANCH  22  23
ENDBRANCH  21  22
ENDBRANCH  20  21
ENDBRANCH  19  20
ENDBRANCH  18  19
ENDBRANCH   1  18
TORSDOF 28
ENDMDL
MODEL 6
REMARK VINA RESULT:    -5.236      4.097     10.131
REMARK INTER + INTRA:         -17.307
REMARK INTER:                 -14.101
REMARK INTRA:                  -3.206
REMARK UNBOUND:                -3.500
REMARK SMILES CCCCCCCCCCCCCCCCCCCCCCCCCCCCCC(=O)[O-]
REMARK SMILES IDX 16 1 17 2 18 3 19 4 20 5 21 6 22 7 23 8 24 9 25 10 26 11
REMARK SMILES IDX 27 12 28 13 29 14 30 15 31 16 32 17 15 18 14 19 13 20 12 21
REMARK SMILES IDX 11 22 10 23 9 24 8 25 7 26 6 27 5 28 4 29 3 30 2 31 1 32
REMARK H PARENT
REMARK Flexibility Score: inf
ROOT
ATOM      1  C   UNL     1       9.792  21.992  -6.787  1.00  0.00     0.000 C 
ENDROOT
BRANCH   1   2
ATOM      2  C   UNL     1       9.140  21.085  -5.722  1.00  0.00     0.000 C 
BRANCH   2   3
ATOM      3  C   UNL     1       8.016  21.743  -4.893  1.00  0.00     0.000 C 
BRANCH   3   4
ATOM      4  C   UNL     1       7.791  23.243  -5.183  1.00  0.00     0.000 C 
BRANCH   4   5
ATOM      5  C   UNL     1       6.632  23.513  -6.160  1.00  0.00     0.000 C 
BRANCH   5   6
ATOM      6  C   UNL     1       6.779  24.868  -6.886  1.00  0.00     0.000 C 
BRANCH   6   7
ATOM      7  C   UNL     1       7.259  24.717  -8.341  1.00  0.00     0.000 C 
BRANCH   7   8
ATOM      8  C   UNL     1       6.770  23.420  -9.024  1.00  0.00     0.000 C 
BRANCH   8   9
ATOM      9  C   UNL     1       5.938  23.645 -10.301  1.00  0.00     0.000 C 
BRANCH   9  10
ATOM     10  C   UNL     1       4.440  23.358 -10.092  1.00  0.00     0.000 C 
BRANCH  10  11
ATOM     11  C   UNL     1       4.186  22.199  -9.110  1.00  0.00     0.000 C 
BRANCH  11  12
ATOM     12  C   UNL     1       3.215  22.524  -7.959  1.00  0.00     0.000 C 
BRANCH  12  13
ATOM     13  C   UNL     1       2.034  21.542  -7.875  1.00  0.00     0.006 C 
BRANCH  13  14
ATOM     14  C   UNL     1       0.708  22.195  -8.285  1.00  0.00     0.053 C 
BRANCH  14  15
ATOM     15  C   UNL     1      -0.161  22.483  -7.098  1.00  0.00     0.041 C 
ATOM     16  O   UNL     1       0.226  22.181  -5.938  1.00  0.00    -0.550 OA
ATOM     17  O   UNL     1      -1.410  23.066  -7.278  1.00  0.00    -0.550 OA
ENDBRANCH  14  15
ENDBRANCH  13  14
ENDBRANCH  12  13
ENDBRANCH  11  12
ENDBRANCH  10  11
ENDBRANCH   9  10
ENDBRANCH   8   9
ENDBRANCH   7   8
ENDBRANCH   6   7
ENDBRANCH   5   6
ENDBRANCH   4   5
ENDBRANCH   3   4
ENDBRANCH   2   3
ENDBRANCH   1   2
BRANCH   1  18
ATOM     18  C   UNL     1      10.057  21.313  -8.145  1.00  0.00     0.000 C 
BRANCH  18  19
ATOM     19  C   UNL     1       9.990  22.256  -9.363  1.00  0.00     0.000 C 
BRANCH  19  20
ATOM     20  C   UNL     1      10.703  23.612  -9.182  1.00  0.00     0.000 C 
BRANCH  20  21
ATOM     21  C   UNL     1      12.242  23.540  -9.177  1.00  0.00     0.000 C 
BRANCH  21  22
ATOM     22  C   UNL     1      12.872  24.315  -8.011  1.00  0.00     0.000 C 
BRANCH  22  23
ATOM     23  C   UNL     1      14.339  23.917  -7.815  1.00  0.00     0.000 C 
BRANCH  23  24
ATOM     24  C   UNL     1      14.451  22.573  -7.085  1.00  0.00    -0.000 C 
BRANCH  24  25
ATOM     25  C   UNL     1      13.373  22.445  -5.998  1.00  0.00    -0.000 C 
BRANCH  25  26
ATOM     26  C   UNL     1      13.877  22.890  -4.616  1.00  0.00    -0.000 C 
BRANCH  26  27
ATOM     27  C   UNL     1      15.391  23.153  -4.596  1.00  0.00    -0.000 C 
BRANCH  27  28
ATOM     28  C   UNL     1      15.681  24.638  -4.333  1.00  0.00    -0.000 C 
BRANCH  28  29
ATOM     29  C   UNL     1      14.913  25.190  -3.122  1.00  0.00    -0.000 C 
BRANCH  29  30
ATOM     30  C   UNL     1      15.771  26.133  -2.259  1.00  0.00    -0.000 C 
BRANCH  30  31
ATOM     31  C   UNL     1      15.207  27.562  -2.213  1.00  0.00    -0.003 C 
ATOM     32  C   UNL     1      16.192  28.571  -1.622  1.00  0.00     0.004 C 
ENDBRANCH  30  31
ENDBRANCH  29  30
ENDBRANCH  28  29
ENDBRANCH  27  28
ENDBRANCH  26  27
ENDBRANCH  25  26
ENDBRANCH  24  25
ENDBRANCH  23  24
ENDBRANCH  22  23
ENDBRANCH  21  22
ENDBRANCH  20  21
ENDBRANCH  19  20
ENDBRANCH  18  19
ENDBRANCH   1  18
TORSDOF 28
ENDMDL
MODEL 7
REMARK VINA RESULT:    -5.213      2.227      3.417
REMARK INTER + INTRA:         -17.247
REMARK INTER:                 -14.551
REMARK INTRA:                  -2.695
REMARK UNBOUND:                -3.500
REMARK SMILES CCCCCCCCCCCCCCCCCCCCCCCCCCCCCC(=O)[O-]
REMARK SMILES IDX 16 1 17 2 18 3 19 4 20 5 21 6 22 7 23 8 24 9 25 10 26 11
REMARK SMILES IDX 27 12 28 13 29 14 30 15 31 16 32 17 15 18 14 19 13 20 12 21
REMARK SMILES IDX 11 22 10 23 9 24 8 25 7 26 6 27 5 28 4 29 3 30 2 31 1 32
REMARK H PARENT
REMARK Flexibility Score: inf
ROOT
ATOM      1  C   UNL     1       9.655  20.707  -7.073  1.00  0.00     0.000 C 
ENDROOT
BRANCH   1   2
ATOM      2  C   UNL     1      10.008  20.993  -8.547  1.00  0.00     0.000 C 
BRANCH   2   3
ATOM      3  C   UNL     1      10.064  22.486  -8.935  1.00  0.00     0.000 C 
BRANCH   3   4
ATOM      4  C   UNL     1      11.324  22.904  -9.723  1.00  0.00     0.000 C 
BRANCH   4   5
ATOM      5  C   UNL     1      11.807  24.329  -9.401  1.00  0.00     0.000 C 
BRANCH   5   6
ATOM      6  C   UNL     1      12.878  24.350  -8.288  1.00  0.00     0.000 C 
BRANCH   6   7
ATOM      7  C   UNL     1      13.421  22.948  -7.955  1.00  0.00     0.000 C 
BRANCH   7   8
ATOM      8  C   UNL     1      14.579  22.959  -6.933  1.00  0.00     0.000 C 
BRANCH   8   9
ATOM      9  C   UNL     1      15.330  24.301  -6.832  1.00  0.00     0.000 C 
BRANCH   9  10
ATOM     10  C   UNL     1      16.144  24.430  -5.533  1.00  0.00     0.000 C 
BRANCH  10  11
ATOM     11  C   UNL     1      15.685  25.609  -4.655  1.00  0.00     0.000 C 
BRANCH  11  12
ATOM     12  C   UNL     1      16.324  25.665  -3.254  1.00  0.00     0.000 C 
BRANCH  12  13
ATOM     13  C   UNL     1      15.440  25.029  -2.167  1.00  0.00     0.006 C 
BRANCH  13  14
ATOM     14  C   UNL     1      14.027  24.717  -2.678  1.00  0.00     0.053 C 
BRANCH  14  15
ATOM     15  C   UNL     1      13.441  23.518  -1.996  1.00  0.00     0.041 C 
ATOM     16  O   UNL     1      12.797  22.661  -2.659  1.00  0.00    -0.550 OA
ATOM     17  O   UNL     1      13.589  23.359  -0.624  1.00  0.00    -0.550 OA
ENDBRANCH  14  15
ENDBRANCH  13  14
ENDBRANCH  12  13
ENDBRANCH  11  12
ENDBRANCH  10  11
ENDBRANCH   9  10
ENDBRANCH   8   9
ENDBRANCH   7   8
ENDBRANCH   6   7
ENDBRANCH   5   6
ENDBRANCH   4   5
ENDBRANCH   3   4
ENDBRANCH   2   3
ENDBRANCH   1   2
BRANCH   1  18
ATOM     18  C   UNL     1       9.693  21.937  -6.145  1.00  0.00     0.000 C 
BRANCH  18  19
ATOM     19  C   UNL     1       8.847  21.806  -4.862  1.00  0.00     0.000 C 
BRANCH  19  20
ATOM     20  C   UNL     1       7.406  22.345  -4.971  1.00  0.00     0.000 C 
BRANCH  20  21
ATOM     21  C   UNL     1       7.288  23.773  -5.536  1.00  0.00     0.000 C 
BRANCH  21  22
ATOM     22  C   UNL     1       6.482  23.834  -6.841  1.00  0.00     0.000 C 
BRANCH  22  23
ATOM     23  C   UNL     1       7.371  24.253  -8.018  1.00  0.00     0.000 C 
BRANCH  23  24
ATOM     24  C   UNL     1       6.565  24.318  -9.321  1.00  0.00    -0.000 C 
BRANCH  24  25
ATOM     25  C   UNL     1       6.052  22.926  -9.721  1.00  0.00    -0.000 C 
BRANCH  25  26
ATOM     26  C   UNL     1       4.914  22.993 -10.752  1.00  0.00    -0.000 C 
BRANCH  26  27
ATOM     27  C   UNL     1       5.242  23.920 -11.932  1.00  0.00    -0.000 C 
BRANCH  27  28
ATOM     28  C   UNL     1       3.953  24.442 -12.587  1.00  0.00    -0.000 C 
BRANCH  28  29
ATOM     29  C   UNL     1       3.896  25.977 -12.649  1.00  0.00    -0.000 C 
BRANCH  29  30
ATOM     30  C   UNL     1       4.777  26.644 -11.577  1.00  0.00    -0.000 C 
BRANCH  30  31
ATOM     31  C   UNL     1       5.041  28.128 -11.874  1.00  0.00    -0.003 C 
ATOM     32  C   UNL     1       3.757  28.943 -12.022  1.00  0.00     0.004 C 
ENDBRANCH  30  31
ENDBRANCH  29  30
ENDBRANCH  28  29
ENDBRANCH  27  28
ENDBRANCH  26  27
ENDBRANCH  25  26
ENDBRANCH  24  25
ENDBRANCH  23  24
ENDBRANCH  22  23
ENDBRANCH  21  22
ENDBRANCH  20  21
ENDBRANCH  19  20
ENDBRANCH  18  19
ENDBRANCH   1  18
TORSDOF 28
ENDMDL
MODEL 8
REMARK VINA RESULT:    -5.152      2.403      5.460
REMARK INTER + INTRA:         -17.085
REMARK INTER:                 -14.001
REMARK INTRA:                  -3.083
REMARK UNBOUND:                -3.500
REMARK SMILES CCCCCCCCCCCCCCCCCCCCCCCCCCCCCC(=O)[O-]
REMARK SMILES IDX 16 1 17 2 18 3 19 4 20 5 21 6 22 7 23 8 24 9 25 10 26 11
REMARK SMILES IDX 27 12 28 13 29 14 30 15 31 16 32 17 15 18 14 19 13 20 12 21
REMARK SMILES IDX 11 22 10 23 9 24 8 25 7 26 6 27 5 28 4 29 3 30 2 31 1 32
REMARK H PARENT
REMARK Flexibility Score: inf
ROOT
ATOM      1  C   UNL     1       7.638  23.042  -5.260  1.00  0.00     0.000 C 
ENDROOT
BRANCH   1   2
ATOM      2  C   UNL     1       8.556  21.821  -5.472  1.00  0.00     0.000 C 
BRANCH   2   3
ATOM      3  C   UNL     1       9.763  22.056  -6.406  1.00  0.00     0.000 C 
BRANCH   3   4
ATOM      4  C   UNL     1       9.854  21.086  -7.603  1.00  0.00     0.000 C 
BRANCH   4   5
ATOM      5  C   UNL     1      10.453  21.726  -8.869  1.00  0.00     0.000 C 
BRANCH   5   6
ATOM      6  C   UNL     1      11.808  22.414  -8.595  1.00  0.00     0.000 C 
BRANCH   6   7
ATOM      7  C   UNL     1      12.867  21.447  -8.034  1.00  0.00     0.000 C 
BRANCH   7   8
ATOM      8  C   UNL     1      14.183  22.142  -7.619  1.00  0.00     0.000 C 
BRANCH   8   9
ATOM      9  C   UNL     1      14.076  23.672  -7.466  1.00  0.00     0.000 C 
BRANCH   9  10
ATOM     10  C   UNL     1      15.415  24.325  -7.081  1.00  0.00     0.000 C 
BRANCH  10  11
ATOM     11  C   UNL     1      16.449  23.308  -6.563  1.00  0.00     0.000 C 
BRANCH  11  12
ATOM     12  C   UNL     1      16.663  23.318  -5.037  1.00  0.00     0.000 C 
BRANCH  12  13
ATOM     13  C   UNL     1      15.717  24.285  -4.305  1.00  0.00     0.006 C 
BRANCH  13  14
ATOM     14  C   UNL     1      14.594  23.548  -3.564  1.00  0.00     0.053 C 
BRANCH  14  15
ATOM     15  C   UNL     1      14.041  24.364  -2.436  1.00  0.00     0.041 C 
ATOM     16  O   UNL     1      13.452  23.803  -1.474  1.00  0.00    -0.550 OA
ATOM     17  O   UNL     1      14.159  25.749  -2.459  1.00  0.00    -0.550 OA
ENDBRANCH  14  15
ENDBRANCH  13  14
ENDBRANCH  12  13
ENDBRANCH  11  12
ENDBRANCH  10  11
ENDBRANCH   9  10
ENDBRANCH   8   9
ENDBRANCH   7   8
ENDBRANCH   6   7
ENDBRANCH   5   6
ENDBRANCH   4   5
ENDBRANCH   3   4
ENDBRANCH   2   3
ENDBRANCH   1   2
BRANCH   1  18
ATOM     18  C   UNL     1       6.647  23.318  -6.407  1.00  0.00     0.000 C 
BRANCH  18  19
ATOM     19  C   UNL     1       6.923  24.608  -7.205  1.00  0.00     0.000 C 
BRANCH  19  20
ATOM     20  C   UNL     1       7.528  24.392  -8.608  1.00  0.00     0.000 C 
BRANCH  20  21
ATOM     21  C   UNL     1       7.262  23.006  -9.224  1.00  0.00     0.000 C 
BRANCH  21  22
ATOM     22  C   UNL     1       6.316  23.061 -10.432  1.00  0.00     0.000 C 
BRANCH  22  23
ATOM     23  C   UNL     1       5.022  22.287 -10.152  1.00  0.00     0.000 C 
BRANCH  23  24
ATOM     24  C   UNL     1       4.112  23.065  -9.193  1.00  0.00    -0.000 C 
BRANCH  24  25
ATOM     25  C   UNL     1       3.505  22.132  -8.133  1.00  0.00    -0.000 C 
BRANCH  25  26
ATOM     26  C   UNL     1       1.971  22.076  -8.211  1.00  0.00    -0.000 C 
BRANCH  26  27
ATOM     27  C   UNL     1       1.415  20.681  -7.887  1.00  0.00    -0.000 C 
BRANCH  27  28
ATOM     28  C   UNL     1       0.157  20.390  -8.721  1.00  0.00    -0.000 C 
BRANCH  28  29
ATOM     29  C   UNL     1      -0.923  21.472  -8.569  1.00  0.00    -0.000 C 
BRANCH  29  30
ATOM     30  C   UNL     1      -1.588  21.451  -7.181  1.00  0.00    -0.000 C 
BRANCH  30  31
ATOM     31  C   UNL     1      -1.306  22.729  -6.375  1.00  0.00    -0.003 C 
ATOM     32  C   UNL     1      -0.565  22.456  -5.066  1.00  0.00     0.004 C 
ENDBRANCH  30  31
ENDBRANCH  29  30
ENDBRANCH  28  29
ENDBRANCH  27  28
ENDBRANCH  26  27
ENDBRANCH  25  26
ENDBRANCH  24  25
ENDBRANCH  23  24
ENDBRANCH  22  23
ENDBRANCH  21  22
ENDBRANCH  20  21
ENDBRANCH  19  20
ENDBRANCH  18  19
ENDBRANCH   1  18
TORSDOF 28
ENDMDL
MODEL 9
REMARK VINA RESULT:    -5.140      4.213      7.921
REMARK INTER + INTRA:         -17.054
REMARK INTER:                 -15.118
REMARK INTRA:                  -1.936
REMARK UNBOUND:                -3.500
REMARK SMILES CCCCCCCCCCCCCCCCCCCCCCCCCCCCCC(=O)[O-]
REMARK SMILES IDX 16 1 17 2 18 3 19 4 20 5 21 6 22 7 23 8 24 9 25 10 26 11
REMARK SMILES IDX 27 12 28 13 29 14 30 15 31 16 32 17 15 18 14 19 13 20 12 21
REMARK SMILES IDX 11 22 10 23 9 24 8 25 7 26 6 27 5 28 4 29 3 30 2 31 1 32
REMARK H PARENT
REMARK Flexibility Score: inf
ROOT
ATOM      1  C   UNL     1      13.694  23.370  -2.656  1.00  0.00     0.000 C 
ENDROOT
BRANCH   1   2
ATOM      2  C   UNL     1      15.097  23.997  -2.800  1.00  0.00     0.000 C 
BRANCH   2   3
ATOM      3  C   UNL     1      15.141  25.538  -2.736  1.00  0.00     0.000 C 
BRANCH   3   4
ATOM      4  C   UNL     1      14.287  26.165  -1.612  1.00  0.00     0.000 C 
BRANCH   4   5
ATOM      5  C   UNL     1      14.597  25.597  -0.215  1.00  0.00     0.000 C 
BRANCH   5   6
ATOM      6  C   UNL     1      13.325  25.130   0.526  1.00  0.00     0.000 C 
BRANCH   6   7
ATOM      7  C   UNL     1      13.628  24.149   1.673  1.00  0.00     0.000 C 
BRANCH   7   8
ATOM      8  C   UNL     1      12.875  22.805   1.554  1.00  0.00     0.000 C 
BRANCH   8   9
ATOM      9  C   UNL     1      11.373  22.883   1.887  1.00  0.00     0.000 C 
BRANCH   9  10
ATOM     10  C   UNL     1      10.901  21.721   2.781  1.00  0.00     0.000 C 
BRANCH  10  11
ATOM     11  C   UNL     1       9.874  22.162   3.840  1.00  0.00     0.000 C 
BRANCH  11  12
ATOM     12  C   UNL     1       8.472  21.542   3.683  1.00  0.00     0.000 C 
BRANCH  12  13
ATOM     13  C   UNL     1       7.895  21.022   5.011  1.00  0.00     0.006 C 
BRANCH  13  14
ATOM     14  C   UNL     1       7.351  22.156   5.890  1.00  0.00     0.053 C 
BRANCH  14  15
ATOM     15  C   UNL     1       5.928  22.485   5.557  1.00  0.00     0.041 C 
ATOM     16  O   UNL     1       5.517  23.674   5.628  1.00  0.00    -0.550 OA
ATOM     17  O   UNL     1       5.050  21.474   5.188  1.00  0.00    -0.550 OA
ENDBRANCH  14  15
ENDBRANCH  13  14
ENDBRANCH  12  13
ENDBRANCH  11  12
ENDBRANCH  10  11
ENDBRANCH   9  10
ENDBRANCH   8   9
ENDBRANCH   7   8
ENDBRANCH   6   7
ENDBRANCH   5   6
ENDBRANCH   4   5
ENDBRANCH   3   4
ENDBRANCH   2   3
ENDBRANCH   1   2
BRANCH   1  18
ATOM     18  C   UNL     1      13.237  22.517  -3.855  1.00  0.00     0.000 C 
BRANCH  18  19
ATOM     19  C   UNL     1      13.982  22.803  -5.174  1.00  0.00     0.000 C 
BRANCH  19  20
ATOM     20  C   UNL     1      13.299  22.254  -6.444  1.00  0.00     0.000 C 
BRANCH  20  21
ATOM     21  C   UNL     1      13.809  22.855  -7.768  1.00  0.00     0.000 C 
BRANCH  21  22
ATOM     22  C   UNL     1      13.444  24.337  -7.930  1.00  0.00     0.000 C 
BRANCH  22  23
ATOM     23  C   UNL     1      12.247  24.508  -8.873  1.00  0.00     0.000 C 
BRANCH  23  24
ATOM     24  C   UNL     1      11.734  23.148  -9.363  1.00  0.00    -0.000 C 
BRANCH  24  25
ATOM     25  C   UNL     1      10.249  23.228  -9.751  1.00  0.00    -0.000 C 
BRANCH  25  26
ATOM     26  C   UNL     1       9.418  22.095  -9.129  1.00  0.00    -0.000 C 
BRANCH  26  27
ATOM     27  C   UNL     1      10.084  21.488  -7.885  1.00  0.00    -0.000 C 
BRANCH  27  28
ATOM     28  C   UNL     1       9.470  22.068  -6.602  1.00  0.00    -0.000 C 
BRANCH  28  29
ATOM     29  C   UNL     1       8.217  22.916  -6.871  1.00  0.00    -0.000 C 
BRANCH  29  30
ATOM     30  C   UNL     1       7.554  23.418  -5.576  1.00  0.00    -0.000 C 
BRANCH  30  31
ATOM     31  C   UNL     1       6.188  24.074  -5.831  1.00  0.00    -0.003 C 
ATOM     32  C   UNL     1       5.142  23.088  -6.351  1.00  0.00     0.004 C 
ENDBRANCH  30  31
ENDBRANCH  29  30
ENDBRANCH  28  29
ENDBRANCH  27  28
ENDBRANCH  26  27
ENDBRANCH  25  26
ENDBRANCH  24  25
ENDBRANCH  23  24
ENDBRANCH  22  23
ENDBRANCH  21  22
ENDBRANCH  20  21
ENDBRANCH  19  20
ENDBRANCH  18  19
ENDBRANCH   1  18
TORSDOF 28
ENDMDL
