MODEL 1
REMARK VINA RESULT:    -6.555      0.000      0.000
REMARK INTER + INTRA:         -10.780
REMARK INTER:                  -9.430
REMARK INTRA:                  -1.350
REMARK UNBOUND:                -1.350
REMARK SMILES O=c1c(O[C@@H]2O[C@H](CO)[C@@H](O)[C@@H](O)[C@@H]2O)c(-c2ccc(O)cc2)oc2cc(O)cc(O)c12
REMARK SMILES IDX 4 1 3 2 16 3 24 4 2 5 25 6 1 7 32 8 26 9 30 10 27 11 29 12
REMARK SMILES IDX 17 13 18 14 19 15 20 16 23 17 22 18 21 19 31 21 28 23 5 25
REMARK SMILES IDX 14 26 6 27 12 28 7 29 10 30 15 31 13 33 8 35 9 36 11 38
REMARK H PARENT 21 20 31 22 28 24 15 32 13 34 9 37 11 39
REMARK Flexibility Score: inf
ROOT
ATOM      1  O   UNL     1      17.538  -3.812 -13.841  1.00  0.00    -0.454 OA
ENDROOT
BRANCH   1   2
ATOM      2  C   UNL     1      16.379  -3.038 -13.716  1.00  0.00     0.214 A 
ATOM      3  C   UNL     1      16.372  -1.728 -14.221  1.00  0.00     0.180 A 
ATOM      4  O   UNL     1      15.310  -0.950 -14.032  1.00  0.00    -0.452 OA
ATOM      5  C   UNL     1      15.229  -3.535 -13.091  1.00  0.00     0.239 A 
ATOM      6  C   UNL     1      14.199  -1.372 -13.435  1.00  0.00     0.146 A 
ATOM      7  O   UNL     1      15.222  -4.719 -12.658  1.00  0.00    -0.285 OA
ATOM      8  C   UNL     1      14.096  -2.705 -12.966  1.00  0.00     0.111 A 
ATOM      9  C   UNL     1      13.127  -0.491 -13.289  1.00  0.00     0.094 A 
ATOM     10  C   UNL     1      12.871  -3.145 -12.412  1.00  0.00     0.134 A 
ATOM     11  C   UNL     1      11.915  -0.936 -12.768  1.00  0.00     0.123 A 
ATOM     12  C   UNL     1      11.787  -2.260 -12.339  1.00  0.00     0.093 A 
BRANCH   3  13
ATOM     13  C   UNL     1      17.531  -1.185 -14.956  1.00  0.00     0.021 A 
ATOM     14  C   UNL     1      18.522  -0.468 -14.268  1.00  0.00     0.016 A 
ATOM     15  C   UNL     1      19.592   0.103 -14.965  1.00  0.00     0.047 A 
ATOM     16  C   UNL     1      19.687  -0.047 -16.356  1.00  0.00     0.115 A 
ATOM     17  C   UNL     1      17.637  -1.338 -16.349  1.00  0.00     0.016 A 
ATOM     18  C   UNL     1      18.722  -0.788 -17.040  1.00  0.00     0.047 A 
BRANCH  16  19
ATOM     19  O   UNL     1      20.741   0.528 -17.063  1.00  0.00    -0.508 OA
ATOM     20  H   UNL     1      21.126   0.087 -17.891  1.00  0.00     0.293 HD
ENDBRANCH  16  19
ENDBRANCH   3  13
BRANCH  10  21
ATOM     21  O   UNL     1      12.718  -4.454 -11.957  1.00  0.00    -0.507 OA
ATOM     22  H   UNL     1      12.966  -5.251 -12.534  1.00  0.00     0.293 HD
ENDBRANCH  10  21
BRANCH  11  23
ATOM     23  O   UNL     1      10.838  -0.055 -12.698  1.00  0.00    -0.508 OA
ATOM     24  H   UNL     1      10.395   0.179 -11.815  1.00  0.00     0.293 HD
ENDBRANCH  11  23
ENDBRANCH   1   2
BRANCH   1  25
ATOM     25  C   UNL     1      17.816  -4.656 -14.961  1.00  0.00     0.339 C 
ATOM     26  C   UNL     1      18.431  -5.974 -14.416  1.00  0.00     0.214 C 
ATOM     27  O   UNL     1      16.613  -4.834 -15.716  1.00  0.00    -0.332 OA
ATOM     28  C   UNL     1      17.284  -6.932 -14.038  1.00  0.00     0.180 C 
ATOM     29  C   UNL     1      16.530  -6.105 -16.333  1.00  0.00     0.179 C 
ATOM     30  C   UNL     1      16.379  -7.220 -15.267  1.00  0.00     0.177 C 
BRANCH  26  31
ATOM     31  O   UNL     1      19.239  -5.703 -13.298  1.00  0.00    -0.384 OA
ATOM     32  H   UNL     1      19.351  -4.718 -13.252  1.00  0.00     0.211 HD
ENDBRANCH  26  31
BRANCH  28  33
ATOM     33  O   UNL     1      17.759  -8.120 -13.449  1.00  0.00    -0.387 OA
ATOM     34  H   UNL     1      18.185  -8.660 -14.163  1.00  0.00     0.211 HD
ENDBRANCH  28  33
BRANCH  29  35
ATOM     35  C   UNL     1      15.341  -6.112 -17.295  1.00  0.00     0.191 C 
BRANCH  35  36
ATOM     36  O   UNL     1      15.528  -7.101 -18.270  1.00  0.00    -0.394 OA
ATOM     37  H   UNL     1      16.505  -7.138 -18.447  1.00  0.00     0.210 HD
ENDBRANCH  35  36
ENDBRANCH  29  35
BRANCH  30  38
ATOM     38  O   UNL     1      16.718  -8.455 -15.855  1.00  0.00    -0.387 OA
ATOM     39  H   UNL     1      15.869  -8.892 -16.131  1.00  0.00     0.211 HD
ENDBRANCH  30  38
ENDBRANCH   1  25
TORSDOF 11
ENDMDL
MODEL 2
REMARK VINA RESULT:    -6.452      3.253      7.925
REMARK INTER + INTRA:         -10.632
REMARK INTER:                  -9.140
REMARK INTRA:                  -1.491
REMARK UNBOUND:                -1.350
REMARK SMILES O=c1c(O[C@@H]2O[C@H](CO)[C@@H](O)[C@@H](O)[C@@H]2O)c(-c2ccc(O)cc2)oc2cc(O)cc(O)c12
REMARK SMILES IDX 4 1 3 2 16 3 24 4 2 5 25 6 1 7 32 8 26 9 30 10 27 11 29 12
REMARK SMILES IDX 17 13 18 14 19 15 20 16 23 17 22 18 21 19 31 21 28 23 5 25
REMARK SMILES IDX 14 26 6 27 12 28 7 29 10 30 15 31 13 33 8 35 9 36 11 38
REMARK H PARENT 21 20 31 22 28 24 15 32 13 34 9 37 11 39
REMARK Flexibility Score: inf
ROOT
ATOM      1  O   UNL     1      16.769  -0.778 -12.979  1.00  0.00    -0.454 OA
ENDROOT
BRANCH   1   2
ATOM      2  C   UNL     1      17.126  -1.552 -14.088  1.00  0.00     0.214 A 
ATOM      3  C   UNL     1      16.728  -2.897 -14.142  1.00  0.00     0.180 A 
ATOM      4  O   UNL     1      17.134  -3.669 -15.146  1.00  0.00    -0.452 OA
ATOM      5  C   UNL     1      17.879  -1.020 -15.142  1.00  0.00     0.239 A 
ATOM      6  C   UNL     1      17.859  -3.214 -16.164  1.00  0.00     0.146 A 
ATOM      7  O   UNL     1      18.217   0.194 -15.110  1.00  0.00    -0.285 OA
ATOM      8  C   UNL     1      18.237  -1.849 -16.224  1.00  0.00     0.111 A 
ATOM      9  C   UNL     1      18.231  -4.092 -17.182  1.00  0.00     0.094 A 
ATOM     10  C   UNL     1      18.935  -1.380 -17.361  1.00  0.00     0.134 A 
ATOM     11  C   UNL     1      18.896  -3.620 -18.311  1.00  0.00     0.123 A 
ATOM     12  C   UNL     1      19.238  -2.269 -18.402  1.00  0.00     0.093 A 
BRANCH   3  13
ATOM     13  C   UNL     1      15.869  -3.484 -13.095  1.00  0.00     0.021 A 
ATOM     14  C   UNL     1      14.505  -3.154 -13.043  1.00  0.00     0.016 A 
ATOM     15  C   UNL     1      13.697  -3.656 -12.019  1.00  0.00     0.047 A 
ATOM     16  C   UNL     1      14.241  -4.502 -11.041  1.00  0.00     0.115 A 
ATOM     17  C   UNL     1      16.406  -4.338 -12.118  1.00  0.00     0.016 A 
ATOM     18  C   UNL     1      15.589  -4.860 -11.109  1.00  0.00     0.047 A 
BRANCH  16  19
ATOM     19  O   UNL     1      13.449  -4.999 -10.008  1.00  0.00    -0.508 OA
ATOM     20  H   UNL     1      12.684  -4.458  -9.621  1.00  0.00     0.293 HD
ENDBRANCH  16  19
ENDBRANCH   3  13
BRANCH  10  21
ATOM     21  O   UNL     1      19.308  -0.042 -17.474  1.00  0.00    -0.507 OA
ATOM     22  H   UNL     1      20.114   0.243 -18.020  1.00  0.00     0.293 HD
ENDBRANCH  10  21
BRANCH  11  23
ATOM     23  O   UNL     1      19.194  -4.505 -19.345  1.00  0.00    -0.508 OA
ATOM     24  H   UNL     1      18.873  -4.344 -20.295  1.00  0.00     0.293 HD
ENDBRANCH  11  23
ENDBRANCH   1   2
BRANCH   1  25
ATOM     25  C   UNL     1      17.630  -0.539 -11.863  1.00  0.00     0.339 C 
ATOM     26  C   UNL     1      17.504   0.962 -11.484  1.00  0.00     0.214 C 
ATOM     27  O   UNL     1      17.285  -1.444 -10.809  1.00  0.00    -0.332 OA
ATOM     28  C   UNL     1      16.302   1.129 -10.532  1.00  0.00     0.180 C 
ATOM     29  C   UNL     1      17.483  -0.895  -9.520  1.00  0.00     0.179 C 
ATOM     30  C   UNL     1      16.481   0.259  -9.260  1.00  0.00     0.177 C 
BRANCH  26  31
ATOM     31  O   UNL     1      17.331   1.739 -12.642  1.00  0.00    -0.384 OA
ATOM     32  H   UNL     1      16.985   1.134 -13.349  1.00  0.00     0.211 HD
ENDBRANCH  26  31
BRANCH  28  33
ATOM     33  O   UNL     1      16.063   2.480 -10.214  1.00  0.00    -0.387 OA
ATOM     34  H   UNL     1      16.727   2.749  -9.528  1.00  0.00     0.211 HD
ENDBRANCH  28  33
BRANCH  29  35
ATOM     35  C   UNL     1      17.314  -2.003  -8.479  1.00  0.00     0.191 C 
BRANCH  35  36
ATOM     36  O   UNL     1      17.964  -1.638  -7.292  1.00  0.00    -0.394 OA
ATOM     37  H   UNL     1      17.854  -0.655  -7.204  1.00  0.00     0.210 HD
ENDBRANCH  35  36
ENDBRANCH  29  35
BRANCH  30  38
ATOM     38  O   UNL     1      16.960   1.039  -8.188  1.00  0.00    -0.387 OA
ATOM     39  H   UNL     1      17.928   0.841  -8.090  1.00  0.00     0.211 HD
ENDBRANCH  30  38
ENDBRANCH   1  25
TORSDOF 11
ENDMDL
MODEL 3
REMARK VINA RESULT:    -6.414      1.476      1.853
REMARK INTER + INTRA:         -10.576
REMARK INTER:                  -9.567
REMARK INTRA:                  -1.009
REMARK UNBOUND:                -1.350
REMARK SMILES O=c1c(O[C@@H]2O[C@H](CO)[C@@H](O)[C@@H](O)[C@@H]2O)c(-c2ccc(O)cc2)oc2cc(O)cc(O)c12
REMARK SMILES IDX 4 1 3 2 16 3 24 4 2 5 25 6 1 7 32 8 26 9 30 10 27 11 29 12
REMARK SMILES IDX 17 13 18 14 19 15 20 16 23 17 22 18 21 19 31 21 28 23 5 25
REMARK SMILES IDX 14 26 6 27 12 28 7 29 10 30 15 31 13 33 8 35 9 36 11 38
REMARK H PARENT 21 20 31 22 28 24 15 32 13 34 9 37 11 39
REMARK Flexibility Score: inf
ROOT
ATOM      1  O   UNL     1      18.158  -3.359 -14.597  1.00  0.00    -0.454 OA
ENDROOT
BRANCH   1   2
ATOM      2  C   UNL     1      17.177  -2.362 -14.628  1.00  0.00     0.214 A 
ATOM      3  C   UNL     1      17.265  -1.342 -15.589  1.00  0.00     0.180 A 
ATOM      4  O   UNL     1      16.392  -0.340 -15.575  1.00  0.00    -0.452 OA
ATOM      5  C   UNL     1      16.114  -2.352 -13.718  1.00  0.00     0.239 A 
ATOM      6  C   UNL     1      15.372  -0.279 -14.724  1.00  0.00     0.146 A 
ATOM      7  O   UNL     1      16.016  -3.280 -12.869  1.00  0.00    -0.285 OA
ATOM      8  C   UNL     1      15.166  -1.310 -13.773  1.00  0.00     0.111 A 
ATOM      9  C   UNL     1      14.495   0.804 -14.787  1.00  0.00     0.094 A 
ATOM     10  C   UNL     1      14.024  -1.256 -12.939  1.00  0.00     0.134 A 
ATOM     11  C   UNL     1      13.358   0.838 -13.983  1.00  0.00     0.123 A 
ATOM     12  C   UNL     1      13.121  -0.192 -13.070  1.00  0.00     0.093 A 
BRANCH   3  13
ATOM     13  C   UNL     1      18.323  -1.351 -16.619  1.00  0.00     0.021 A 
ATOM     14  C   UNL     1      19.457  -0.538 -16.463  1.00  0.00     0.016 A 
ATOM     15  C   UNL     1      20.435  -0.494 -17.462  1.00  0.00     0.047 A 
ATOM     16  C   UNL     1      20.293  -1.269 -18.623  1.00  0.00     0.115 A 
ATOM     17  C   UNL     1      18.192  -2.131 -17.780  1.00  0.00     0.016 A 
ATOM     18  C   UNL     1      19.183  -2.104 -18.766  1.00  0.00     0.047 A 
BRANCH  16  19
ATOM     19  O   UNL     1      21.254  -1.223 -19.631  1.00  0.00    -0.508 OA
ATOM     20  H   UNL     1      21.909  -0.453 -19.703  1.00  0.00     0.293 HD
ENDBRANCH  16  19
ENDBRANCH   3  13
BRANCH  10  21
ATOM     21  O   UNL     1      13.770  -2.258 -12.004  1.00  0.00    -0.507 OA
ATOM     22  H   UNL     1      14.304  -2.334 -11.145  1.00  0.00     0.293 HD
ENDBRANCH  10  21
BRANCH  11  23
ATOM     23  O   UNL     1      12.461   1.896 -14.116  1.00  0.00    -0.508 OA
ATOM     24  H   UNL     1      11.899   2.221 -13.336  1.00  0.00     0.293 HD
ENDBRANCH  11  23
ENDBRANCH   1   2
BRANCH   1  25
ATOM     25  C   UNL     1      18.078  -4.580 -15.337  1.00  0.00     0.339 C 
ATOM     26  C   UNL     1      18.395  -5.744 -14.360  1.00  0.00     0.214 C 
ATOM     27  O   UNL     1      16.790  -4.662 -15.956  1.00  0.00    -0.332 OA
ATOM     28  C   UNL     1      17.092  -6.149 -13.641  1.00  0.00     0.180 C 
ATOM     29  C   UNL     1      16.313  -5.990 -16.067  1.00  0.00     0.179 C 
ATOM     30  C   UNL     1      16.007  -6.577 -14.665  1.00  0.00     0.177 C 
BRANCH  26  31
ATOM     31  O   UNL     1      19.369  -5.342 -13.430  1.00  0.00    -0.384 OA
ATOM     32  H   UNL     1      20.252  -5.597 -13.806  1.00  0.00     0.211 HD
ENDBRANCH  26  31
BRANCH  28  33
ATOM     33  O   UNL     1      17.312  -7.142 -12.667  1.00  0.00    -0.387 OA
ATOM     34  H   UNL     1      18.285  -7.162 -12.471  1.00  0.00     0.211 HD
ENDBRANCH  28  33
BRANCH  29  35
ATOM     35  C   UNL     1      15.059  -5.993 -16.941  1.00  0.00     0.191 C 
BRANCH  35  36
ATOM     36  O   UNL     1      15.378  -6.459 -18.224  1.00  0.00    -0.394 OA
ATOM     37  H   UNL     1      15.895  -7.298 -18.096  1.00  0.00     0.210 HD
ENDBRANCH  35  36
ENDBRANCH  29  35
BRANCH  30  38
ATOM     38  O   UNL     1      15.947  -7.981 -14.768  1.00  0.00    -0.387 OA
ATOM     39  H   UNL     1      16.026  -8.347 -13.848  1.00  0.00     0.211 HD
ENDBRANCH  30  38
ENDBRANCH   1  25
TORSDOF 11
ENDMDL
MODEL 4
REMARK VINA RESULT:    -6.380      3.317      7.729
REMARK INTER + INTRA:         -10.527
REMARK INTER:                  -8.963
REMARK INTRA:                  -1.564
REMARK UNBOUND:                -1.350
REMARK SMILES O=c1c(O[C@@H]2O[C@H](CO)[C@@H](O)[C@@H](O)[C@@H]2O)c(-c2ccc(O)cc2)oc2cc(O)cc(O)c12
REMARK SMILES IDX 4 1 3 2 16 3 24 4 2 5 25 6 1 7 32 8 26 9 30 10 27 11 29 12
REMARK SMILES IDX 17 13 18 14 19 15 20 16 23 17 22 18 21 19 31 21 28 23 5 25
REMARK SMILES IDX 14 26 6 27 12 28 7 29 10 30 15 31 13 33 8 35 9 36 11 38
REMARK H PARENT 21 20 31 22 28 24 15 32 13 34 9 37 11 39
REMARK Flexibility Score: inf
ROOT
ATOM      1  O   UNL     1      17.895  -0.352 -12.480  1.00  0.00    -0.454 OA
ENDROOT
BRANCH   1   2
ATOM      2  C   UNL     1      18.066  -0.664 -13.833  1.00  0.00     0.214 A 
ATOM      3  C   UNL     1      17.128  -1.493 -14.468  1.00  0.00     0.180 A 
ATOM      4  O   UNL     1      17.323  -1.871 -15.728  1.00  0.00    -0.452 OA
ATOM      5  C   UNL     1      19.153  -0.176 -14.566  1.00  0.00     0.239 A 
ATOM      6  C   UNL     1      18.346  -1.444 -16.463  1.00  0.00     0.146 A 
ATOM      7  O   UNL     1      19.984   0.590 -14.006  1.00  0.00    -0.285 OA
ATOM      8  C   UNL     1      19.295  -0.542 -15.920  1.00  0.00     0.111 A 
ATOM      9  C   UNL     1      18.467  -1.882 -17.782  1.00  0.00     0.094 A 
ATOM     10  C   UNL     1      20.323  -0.043 -16.754  1.00  0.00     0.134 A 
ATOM     11  C   UNL     1      19.464  -1.367 -18.607  1.00  0.00     0.123 A 
ATOM     12  C   UNL     1      20.382  -0.446 -18.096  1.00  0.00     0.093 A 
BRANCH   3  13
ATOM     13  C   UNL     1      15.923  -1.970 -13.760  1.00  0.00     0.021 A 
ATOM     14  C   UNL     1      15.843  -3.307 -13.339  1.00  0.00     0.016 A 
ATOM     15  C   UNL     1      14.682  -3.783 -12.722  1.00  0.00     0.047 A 
ATOM     16  C   UNL     1      13.593  -2.924 -12.511  1.00  0.00     0.115 A 
ATOM     17  C   UNL     1      14.832  -1.114 -13.538  1.00  0.00     0.016 A 
ATOM     18  C   UNL     1      13.682  -1.586 -12.898  1.00  0.00     0.047 A 
BRANCH  16  19
ATOM     19  O   UNL     1      12.426  -3.390 -11.909  1.00  0.00    -0.508 OA
ATOM     20  H   UNL     1      11.836  -4.079 -12.362  1.00  0.00     0.293 HD
ENDBRANCH  16  19
ENDBRANCH   3  13
BRANCH  10  21
ATOM     21  O   UNL     1      21.265   0.862 -16.269  1.00  0.00    -0.507 OA
ATOM     22  H   UNL     1      21.975   0.585 -15.600  1.00  0.00     0.293 HD
ENDBRANCH  10  21
BRANCH  11  23
ATOM     23  O   UNL     1      19.520  -1.767 -19.940  1.00  0.00    -0.508 OA
ATOM     24  H   UNL     1      20.214  -1.396 -20.581  1.00  0.00     0.293 HD
ENDBRANCH  11  23
ENDBRANCH   1   2
BRANCH   1  25
ATOM     25  C   UNL     1      18.625  -0.975 -11.419  1.00  0.00     0.339 C 
ATOM     26  C   UNL     1      19.088   0.144 -10.446  1.00  0.00     0.214 C 
ATOM     27  O   UNL     1      17.801  -1.978 -10.817  1.00  0.00    -0.332 OA
ATOM     28  C   UNL     1      17.952   0.419  -9.440  1.00  0.00     0.180 C 
ATOM     29  C   UNL     1      18.041  -2.132  -9.431  1.00  0.00     0.179 C 
ATOM     30  C   UNL     1      17.587  -0.869  -8.655  1.00  0.00     0.177 C 
BRANCH  26  31
ATOM     31  O   UNL     1      19.405   1.308 -11.166  1.00  0.00    -0.384 OA
ATOM     32  H   UNL     1      18.577   1.598 -11.631  1.00  0.00     0.211 HD
ENDBRANCH  26  31
BRANCH  28  33
ATOM     33  O   UNL     1      18.258   1.488  -8.576  1.00  0.00    -0.387 OA
ATOM     34  H   UNL     1      18.346   2.307  -9.130  1.00  0.00     0.211 HD
ENDBRANCH  28  33
BRANCH  29  35
ATOM     35  C   UNL     1      17.293  -3.370  -8.934  1.00  0.00     0.191 C 
BRANCH  35  36
ATOM     36  O   UNL     1      17.900  -3.851  -7.765  1.00  0.00    -0.394 OA
ATOM     37  H   UNL     1      17.348  -3.520  -7.008  1.00  0.00     0.210 HD
ENDBRANCH  35  36
ENDBRANCH  29  35
BRANCH  30  38
ATOM     38  O   UNL     1      18.203  -0.872  -7.388  1.00  0.00    -0.387 OA
ATOM     39  H   UNL     1      18.257  -1.817  -7.089  1.00  0.00     0.211 HD
ENDBRANCH  30  38
ENDBRANCH   1  25
TORSDOF 11
ENDMDL
MODEL 5
REMARK VINA RESULT:    -6.340      2.711      7.745
REMARK INTER + INTRA:         -10.471
REMARK INTER:                  -9.173
REMARK INTRA:                  -1.298
REMARK UNBOUND:                -1.350
REMARK SMILES O=c1c(O[C@@H]2O[C@H](CO)[C@@H](O)[C@@H](O)[C@@H]2O)c(-c2ccc(O)cc2)oc2cc(O)cc(O)c12
REMARK SMILES IDX 4 1 3 2 16 3 24 4 2 5 25 6 1 7 32 8 26 9 30 10 27 11 29 12
REMARK SMILES IDX 17 13 18 14 19 15 20 16 23 17 22 18 21 19 31 21 28 23 5 25
REMARK SMILES IDX 14 26 6 27 12 28 7 29 10 30 15 31 13 33 8 35 9 36 11 38
REMARK H PARENT 21 20 31 22 28 24 15 32 13 34 9 37 11 39
REMARK Flexibility Score: inf
ROOT
ATOM      1  O   UNL     1      16.879  -0.711 -13.128  1.00  0.00    -0.454 OA
ENDROOT
BRANCH   1   2
ATOM      2  C   UNL     1      17.236  -1.515 -14.216  1.00  0.00     0.214 A 
ATOM      3  C   UNL     1      16.873  -2.871 -14.214  1.00  0.00     0.180 A 
ATOM      4  O   UNL     1      17.280  -3.668 -15.198  1.00  0.00    -0.452 OA
ATOM      5  C   UNL     1      17.952  -1.001 -15.303  1.00  0.00     0.239 A 
ATOM      6  C   UNL     1      17.973  -3.230 -16.246  1.00  0.00     0.146 A 
ATOM      7  O   UNL     1      18.258   0.222 -15.321  1.00  0.00    -0.285 OA
ATOM      8  C   UNL     1      18.312  -1.859 -16.363  1.00  0.00     0.111 A 
ATOM      9  C   UNL     1      18.349  -4.134 -17.239  1.00  0.00     0.094 A 
ATOM     10  C   UNL     1      18.975  -1.413 -17.530  1.00  0.00     0.134 A 
ATOM     11  C   UNL     1      18.978  -3.686 -18.398  1.00  0.00     0.123 A 
ATOM     12  C   UNL     1      19.282  -2.331 -18.544  1.00  0.00     0.093 A 
BRANCH   3  13
ATOM     13  C   UNL     1      16.050  -3.442 -13.129  1.00  0.00     0.021 A 
ATOM     14  C   UNL     1      14.651  -3.365 -13.199  1.00  0.00     0.016 A 
ATOM     15  C   UNL     1      13.865  -3.849 -12.147  1.00  0.00     0.047 A 
ATOM     16  C   UNL     1      14.472  -4.423 -11.021  1.00  0.00     0.115 A 
ATOM     17  C   UNL     1      16.651  -4.026 -12.001  1.00  0.00     0.016 A 
ATOM     18  C   UNL     1      15.862  -4.532 -10.963  1.00  0.00     0.047 A 
BRANCH  16  19
ATOM     19  O   UNL     1      13.700  -4.897  -9.961  1.00  0.00    -0.508 OA
ATOM     20  H   UNL     1      12.883  -4.393  -9.635  1.00  0.00     0.293 HD
ENDBRANCH  16  19
ENDBRANCH   3  13
BRANCH  10  21
ATOM     21  O   UNL     1      19.309  -0.070 -17.697  1.00  0.00    -0.507 OA
ATOM     22  H   UNL     1      19.127   0.618 -16.974  1.00  0.00     0.293 HD
ENDBRANCH  10  21
BRANCH  11  23
ATOM     23  O   UNL     1      19.280  -4.599 -19.406  1.00  0.00    -0.508 OA
ATOM     24  H   UNL     1      18.749  -4.636 -20.270  1.00  0.00     0.293 HD
ENDBRANCH  11  23
ENDBRANCH   1   2
BRANCH   1  25
ATOM     25  C   UNL     1      15.691   0.084 -13.079  1.00  0.00     0.339 C 
ATOM     26  C   UNL     1      16.091   1.498 -12.577  1.00  0.00     0.214 C 
ATOM     27  O   UNL     1      15.070   0.068 -14.369  1.00  0.00    -0.332 OA
ATOM     28  C   UNL     1      16.546   2.338 -13.788  1.00  0.00     0.180 C 
ATOM     29  C   UNL     1      14.400   1.277 -14.675  1.00  0.00     0.179 C 
ATOM     30  C   UNL     1      15.416   2.435 -14.848  1.00  0.00     0.177 C 
BRANCH  26  31
ATOM     31  O   UNL     1      17.122   1.399 -11.627  1.00  0.00    -0.384 OA
ATOM     32  H   UNL     1      16.725   1.614 -10.743  1.00  0.00     0.211 HD
ENDBRANCH  26  31
BRANCH  28  33
ATOM     33  O   UNL     1      17.014   3.609 -13.404  1.00  0.00    -0.387 OA
ATOM     34  H   UNL     1      18.005   3.568 -13.372  1.00  0.00     0.211 HD
ENDBRANCH  28  33
BRANCH  29  35
ATOM     35  C   UNL     1      13.583   1.079 -15.952  1.00  0.00     0.191 C 
BRANCH  35  36
ATOM     36  O   UNL     1      14.088   1.902 -16.968  1.00  0.00    -0.394 OA
ATOM     37  H   UNL     1      13.798   1.495 -17.827  1.00  0.00     0.210 HD
ENDBRANCH  35  36
ENDBRANCH  29  35
BRANCH  30  38
ATOM     38  O   UNL     1      14.729   3.659 -14.731  1.00  0.00    -0.387 OA
ATOM     39  H   UNL     1      14.381   3.714 -13.803  1.00  0.00     0.211 HD
ENDBRANCH  30  38
ENDBRANCH   1  25
TORSDOF 11
ENDMDL
MODEL 6
REMARK VINA RESULT:    -6.211      5.070      7.425
REMARK INTER + INTRA:         -10.284
REMARK INTER:                  -8.736
REMARK INTRA:                  -1.548
REMARK UNBOUND:                -1.350
REMARK SMILES O=c1c(O[C@@H]2O[C@H](CO)[C@@H](O)[C@@H](O)[C@@H]2O)c(-c2ccc(O)cc2)oc2cc(O)cc(O)c12
REMARK SMILES IDX 4 1 3 2 16 3 24 4 2 5 25 6 1 7 32 8 26 9 30 10 27 11 29 12
REMARK SMILES IDX 17 13 18 14 19 15 20 16 23 17 22 18 21 19 31 21 28 23 5 25
REMARK SMILES IDX 14 26 6 27 12 28 7 29 10 30 15 31 13 33 8 35 9 36 11 38
REMARK H PARENT 21 20 31 22 28 24 15 32 13 34 9 37 11 39
REMARK Flexibility Score: inf
ROOT
ATOM      1  O   UNL     1      17.911  -0.193 -10.713  1.00  0.00    -0.454 OA
ENDROOT
BRANCH   1   2
ATOM      2  C   UNL     1      18.832  -0.697  -9.789  1.00  0.00     0.214 A 
ATOM      3  C   UNL     1      20.200  -0.440  -9.975  1.00  0.00     0.180 A 
ATOM      4  O   UNL     1      21.095  -0.986  -9.156  1.00  0.00    -0.452 OA
ATOM      5  C   UNL     1      18.425  -1.457  -8.687  1.00  0.00     0.239 A 
ATOM      6  C   UNL     1      20.758  -1.724  -8.103  1.00  0.00     0.146 A 
ATOM      7  O   UNL     1      17.195  -1.668  -8.501  1.00  0.00    -0.285 OA
ATOM      8  C   UNL     1      19.395  -1.965  -7.799  1.00  0.00     0.111 A 
ATOM      9  C   UNL     1      21.762  -2.248  -7.289  1.00  0.00     0.094 A 
ATOM     10  C   UNL     1      19.070  -2.685  -6.625  1.00  0.00     0.134 A 
ATOM     11  C   UNL     1      21.437  -2.932  -6.121  1.00  0.00     0.123 A 
ATOM     12  C   UNL     1      20.097  -3.141  -5.788  1.00  0.00     0.093 A 
BRANCH   3  13
ATOM     13  C   UNL     1      20.674   0.421 -11.077  1.00  0.00     0.021 A 
ATOM     14  C   UNL     1      20.546   1.815 -10.979  1.00  0.00     0.016 A 
ATOM     15  C   UNL     1      20.937   2.635 -12.043  1.00  0.00     0.047 A 
ATOM     16  C   UNL     1      21.469   2.069 -13.211  1.00  0.00     0.115 A 
ATOM     17  C   UNL     1      21.216  -0.139 -12.246  1.00  0.00     0.016 A 
ATOM     18  C   UNL     1      21.629   0.685 -13.299  1.00  0.00     0.047 A 
BRANCH  16  19
ATOM     19  O   UNL     1      21.849   2.874 -14.283  1.00  0.00    -0.508 OA
ATOM     20  H   UNL     1      22.764   2.789 -14.710  1.00  0.00     0.293 HD
ENDBRANCH  16  19
ENDBRANCH   3  13
BRANCH  10  21
ATOM     21  O   UNL     1      17.743  -2.926  -6.276  1.00  0.00    -0.507 OA
ATOM     22  H   UNL     1      17.496  -3.560  -5.523  1.00  0.00     0.293 HD
ENDBRANCH  10  21
BRANCH  11  23
ATOM     23  O   UNL     1      22.459  -3.384  -5.288  1.00  0.00    -0.508 OA
ATOM     24  H   UNL     1      22.473  -4.331  -4.924  1.00  0.00     0.293 HD
ENDBRANCH  11  23
ENDBRANCH   1   2
BRANCH   1  25
ATOM     25  C   UNL     1      17.318  -0.972 -11.755  1.00  0.00     0.339 C 
ATOM     26  C   UNL     1      15.790  -0.697 -11.739  1.00  0.00     0.214 C 
ATOM     27  O   UNL     1      17.962  -0.654 -12.994  1.00  0.00    -0.332 OA
ATOM     28  C   UNL     1      15.509   0.561 -12.584  1.00  0.00     0.180 C 
ATOM     29  C   UNL     1      17.093  -0.739 -14.107  1.00  0.00     0.179 C 
ATOM     30  C   UNL     1      16.012   0.371 -14.040  1.00  0.00     0.177 C 
BRANCH  26  31
ATOM     31  O   UNL     1      15.347  -0.516 -10.417  1.00  0.00    -0.384 OA
ATOM     32  H   UNL     1      14.770  -1.292 -10.194  1.00  0.00     0.211 HD
ENDBRANCH  26  31
BRANCH  28  33
ATOM     33  O   UNL     1      14.151   0.932 -12.545  1.00  0.00    -0.387 OA
ATOM     34  H   UNL     1      14.055   1.779 -13.052  1.00  0.00     0.211 HD
ENDBRANCH  28  33
BRANCH  29  35
ATOM     35  C   UNL     1      17.917  -0.615 -15.389  1.00  0.00     0.191 C 
BRANCH  35  36
ATOM     36  O   UNL     1      17.789   0.680 -15.910  1.00  0.00    -0.394 OA
ATOM     37  H   UNL     1      17.156   0.613 -16.673  1.00  0.00     0.210 HD
ENDBRANCH  35  36
ENDBRANCH  29  35
BRANCH  30  38
ATOM     38  O   UNL     1      14.948   0.016 -14.892  1.00  0.00    -0.387 OA
ATOM     39  H   UNL     1      14.824   0.763 -15.535  1.00  0.00     0.211 HD
ENDBRANCH  30  38
ENDBRANCH   1  25
TORSDOF 11
ENDMDL
MODEL 7
REMARK VINA RESULT:    -6.188      4.279      7.729
REMARK INTER + INTRA:         -10.251
REMARK INTER:                  -8.705
REMARK INTRA:                  -1.546
REMARK UNBOUND:                -1.350
REMARK SMILES O=c1c(O[C@@H]2O[C@H](CO)[C@@H](O)[C@@H](O)[C@@H]2O)c(-c2ccc(O)cc2)oc2cc(O)cc(O)c12
REMARK SMILES IDX 4 1 3 2 16 3 24 4 2 5 25 6 1 7 32 8 26 9 30 10 27 11 29 12
REMARK SMILES IDX 17 13 18 14 19 15 20 16 23 17 22 18 21 19 31 21 28 23 5 25
REMARK SMILES IDX 14 26 6 27 12 28 7 29 10 30 15 31 13 33 8 35 9 36 11 38
REMARK H PARENT 21 20 31 22 28 24 15 32 13 34 9 37 11 39
REMARK Flexibility Score: inf
ROOT
ATOM      1  O   UNL     1      16.586  -1.212 -11.882  1.00  0.00    -0.454 OA
ENDROOT
BRANCH   1   2
ATOM      2  C   UNL     1      17.287  -1.577 -10.727  1.00  0.00     0.214 A 
ATOM      3  C   UNL     1      17.117  -2.867 -10.200  1.00  0.00     0.180 A 
ATOM      4  O   UNL     1      17.706  -3.200  -9.055  1.00  0.00    -0.452 OA
ATOM      5  C   UNL     1      18.148  -0.684 -10.078  1.00  0.00     0.239 A 
ATOM      6  C   UNL     1      18.523  -2.383  -8.396  1.00  0.00     0.146 A 
ATOM      7  O   UNL     1      18.324   0.468 -10.562  1.00  0.00    -0.285 OA
ATOM      8  C   UNL     1      18.810  -1.090  -8.902  1.00  0.00     0.111 A 
ATOM      9  C   UNL     1      19.108  -2.818  -7.207  1.00  0.00     0.094 A 
ATOM     10  C   UNL     1      19.747  -0.279  -8.221  1.00  0.00     0.134 A 
ATOM     11  C   UNL     1      20.051  -2.027  -6.555  1.00  0.00     0.123 A 
ATOM     12  C   UNL     1      20.373  -0.767  -7.065  1.00  0.00     0.093 A 
BRANCH   3  13
ATOM     13  C   UNL     1      16.281  -3.871 -10.889  1.00  0.00     0.021 A 
ATOM     14  C   UNL     1      14.992  -4.154 -10.411  1.00  0.00     0.016 A 
ATOM     15  C   UNL     1      14.217  -5.146 -11.020  1.00  0.00     0.047 A 
ATOM     16  C   UNL     1      14.720  -5.859 -12.119  1.00  0.00     0.115 A 
ATOM     17  C   UNL     1      16.775  -4.582 -11.995  1.00  0.00     0.016 A 
ATOM     18  C   UNL     1      15.988  -5.556 -12.618  1.00  0.00     0.047 A 
BRANCH  16  19
ATOM     19  O   UNL     1      13.963  -6.859 -12.726  1.00  0.00    -0.508 OA
ATOM     20  H   UNL     1      14.326  -7.797 -12.847  1.00  0.00     0.293 HD
ENDBRANCH  16  19
ENDBRANCH   3  13
BRANCH  10  21
ATOM     21  O   UNL     1      20.076   0.990  -8.694  1.00  0.00    -0.507 OA
ATOM     22  H   UNL     1      20.903   1.481  -8.372  1.00  0.00     0.293 HD
ENDBRANCH  10  21
BRANCH  11  23
ATOM     23  O   UNL     1      20.673  -2.514  -5.408  1.00  0.00    -0.508 OA
ATOM     24  H   UNL     1      20.147  -2.961  -4.663  1.00  0.00     0.293 HD
ENDBRANCH  11  23
ENDBRANCH   1   2
BRANCH   1  25
ATOM     25  C   UNL     1      15.439  -0.359 -11.882  1.00  0.00     0.339 C 
ATOM     26  C   UNL     1      15.661   0.728 -12.970  1.00  0.00     0.214 C 
ATOM     27  O   UNL     1      14.268  -1.159 -12.078  1.00  0.00    -0.332 OA
ATOM     28  C   UNL     1      15.188   0.168 -14.327  1.00  0.00     0.180 C 
ATOM     29  C   UNL     1      13.252  -0.485 -12.796  1.00  0.00     0.179 C 
ATOM     30  C   UNL     1      13.692  -0.241 -14.263  1.00  0.00     0.177 C 
BRANCH  26  31
ATOM     31  O   UNL     1      17.020   1.082 -13.026  1.00  0.00    -0.384 OA
ATOM     32  H   UNL     1      17.104   1.809 -13.697  1.00  0.00     0.211 HD
ENDBRANCH  26  31
BRANCH  28  33
ATOM     33  O   UNL     1      15.441   1.063 -15.384  1.00  0.00    -0.387 OA
ATOM     34  H   UNL     1      14.596   1.177 -15.891  1.00  0.00     0.211 HD
ENDBRANCH  28  33
BRANCH  29  35
ATOM     35  C   UNL     1      11.974  -1.323 -12.748  1.00  0.00     0.191 C 
BRANCH  35  36
ATOM     36  O   UNL     1      11.367  -1.332 -14.012  1.00  0.00    -0.394 OA
ATOM     37  H   UNL     1      10.436  -1.649 -13.873  1.00  0.00     0.210 HD
ENDBRANCH  35  36
ENDBRANCH  29  35
BRANCH  30  38
ATOM     38  O   UNL     1      12.877   0.767 -14.816  1.00  0.00    -0.387 OA
ATOM     39  H   UNL     1      12.123   0.315 -15.277  1.00  0.00     0.211 HD
ENDBRANCH  30  38
ENDBRANCH   1  25
TORSDOF 11
ENDMDL
MODEL 8
REMARK VINA RESULT:    -6.133      2.743      6.668
REMARK INTER + INTRA:         -10.172
REMARK INTER:                  -8.713
REMARK INTRA:                  -1.459
REMARK UNBOUND:                -1.350
REMARK SMILES O=c1c(O[C@@H]2O[C@H](CO)[C@@H](O)[C@@H](O)[C@@H]2O)c(-c2ccc(O)cc2)oc2cc(O)cc(O)c12
REMARK SMILES IDX 4 1 3 2 16 3 24 4 2 5 25 6 1 7 32 8 26 9 30 10 27 11 29 12
REMARK SMILES IDX 17 13 18 14 19 15 20 16 23 17 22 18 21 19 31 21 28 23 5 25
REMARK SMILES IDX 14 26 6 27 12 28 7 29 10 30 15 31 13 33 8 35 9 36 11 38
REMARK H PARENT 21 20 31 22 28 24 15 32 13 34 9 37 11 39
REMARK Flexibility Score: inf
ROOT
ATOM      1  O   UNL     1      17.348  -2.304 -13.663  1.00  0.00    -0.454 OA
ENDROOT
BRANCH   1   2
ATOM      2  C   UNL     1      18.026  -1.970 -14.840  1.00  0.00     0.214 A 
ATOM      3  C   UNL     1      18.687  -0.734 -14.924  1.00  0.00     0.180 A 
ATOM      4  O   UNL     1      19.261  -0.365 -16.065  1.00  0.00    -0.452 OA
ATOM      5  C   UNL     1      18.056  -2.836 -15.939  1.00  0.00     0.239 A 
ATOM      6  C   UNL     1      19.305  -1.146 -17.140  1.00  0.00     0.146 A 
ATOM      7  O   UNL     1      17.486  -3.958 -15.859  1.00  0.00    -0.285 OA
ATOM      8  C   UNL     1      18.731  -2.441 -17.113  1.00  0.00     0.111 A 
ATOM      9  C   UNL     1      19.939  -0.683 -18.294  1.00  0.00     0.094 A 
ATOM     10  C   UNL     1      18.869  -3.278 -18.245  1.00  0.00     0.134 A 
ATOM     11  C   UNL     1      20.096  -1.520 -19.396  1.00  0.00     0.123 A 
ATOM     12  C   UNL     1      19.570  -2.814 -19.367  1.00  0.00     0.093 A 
BRANCH   3  13
ATOM     13  C   UNL     1      18.751   0.180 -13.766  1.00  0.00     0.021 A 
ATOM     14  C   UNL     1      19.730  -0.010 -12.779  1.00  0.00     0.016 A 
ATOM     15  C   UNL     1      19.760   0.813 -11.648  1.00  0.00     0.047 A 
ATOM     16  C   UNL     1      18.817   1.841 -11.499  1.00  0.00     0.115 A 
ATOM     17  C   UNL     1      17.815   1.217 -13.615  1.00  0.00     0.016 A 
ATOM     18  C   UNL     1      17.863   2.054 -12.495  1.00  0.00     0.047 A 
BRANCH  16  19
ATOM     19  O   UNL     1      18.829   2.658 -10.371  1.00  0.00    -0.508 OA
ATOM     20  H   UNL     1      18.966   2.277  -9.442  1.00  0.00     0.293 HD
ENDBRANCH  16  19
ENDBRANCH   3  13
BRANCH  10  21
ATOM     21  O   UNL     1      18.339  -4.567 -18.255  1.00  0.00    -0.507 OA
ATOM     22  H   UNL     1      18.807  -5.332 -18.728  1.00  0.00     0.293 HD
ENDBRANCH  10  21
BRANCH  11  23
ATOM     23  O   UNL     1      20.795  -1.057 -20.508  1.00  0.00    -0.508 OA
ATOM     24  H   UNL     1      21.364  -0.217 -20.471  1.00  0.00     0.293 HD
ENDBRANCH  11  23
ENDBRANCH   1   2
BRANCH   1  25
ATOM     25  C   UNL     1      15.924  -2.293 -13.532  1.00  0.00     0.339 C 
ATOM     26  C   UNL     1      15.589  -2.379 -12.018  1.00  0.00     0.214 C 
ATOM     27  O   UNL     1      15.408  -1.129 -14.186  1.00  0.00    -0.332 OA
ATOM     28  C   UNL     1      15.607  -0.953 -11.430  1.00  0.00     0.180 C 
ATOM     29  C   UNL     1      14.247  -0.614 -13.564  1.00  0.00     0.179 C 
ATOM     30  C   UNL     1      14.587  -0.042 -12.163  1.00  0.00     0.177 C 
BRANCH  26  31
ATOM     31  O   UNL     1      16.526  -3.197 -11.363  1.00  0.00    -0.384 OA
ATOM     32  H   UNL     1      17.382  -2.696 -11.337  1.00  0.00     0.211 HD
ENDBRANCH  26  31
BRANCH  28  33
ATOM     33  O   UNL     1      15.402  -0.953 -10.037  1.00  0.00    -0.387 OA
ATOM     34  H   UNL     1      16.293  -0.988  -9.602  1.00  0.00     0.211 HD
ENDBRANCH  28  33
BRANCH  29  35
ATOM     35  C   UNL     1      13.645   0.470 -14.459  1.00  0.00     0.191 C 
BRANCH  35  36
ATOM     36  O   UNL     1      12.262   0.548 -14.242  1.00  0.00    -0.394 OA
ATOM     37  H   UNL     1      12.057   1.508 -14.091  1.00  0.00     0.210 HD
ENDBRANCH  35  36
ENDBRANCH  29  35
BRANCH  30  38
ATOM     38  O   UNL     1      13.395   0.069 -11.420  1.00  0.00    -0.387 OA
ATOM     39  H   UNL     1      13.624   0.511 -10.560  1.00  0.00     0.211 HD
ENDBRANCH  30  38
ENDBRANCH   1  25
TORSDOF 11
ENDMDL
MODEL 9
REMARK VINA RESULT:    -6.109      2.063      7.260
REMARK INTER + INTRA:         -10.138
REMARK INTER:                  -9.360
REMARK INTRA:                  -0.778
REMARK UNBOUND:                -1.350
REMARK SMILES O=c1c(O[C@@H]2O[C@H](CO)[C@@H](O)[C@@H](O)[C@@H]2O)c(-c2ccc(O)cc2)oc2cc(O)cc(O)c12
REMARK SMILES IDX 4 1 3 2 16 3 24 4 2 5 25 6 1 7 32 8 26 9 30 10 27 11 29 12
REMARK SMILES IDX 17 13 18 14 19 15 20 16 23 17 22 18 21 19 31 21 28 23 5 25
REMARK SMILES IDX 14 26 6 27 12 28 7 29 10 30 15 31 13 33 8 35 9 36 11 38
REMARK H PARENT 21 20 31 22 28 24 15 32 13 34 9 37 11 39
REMARK Flexibility Score: inf
ROOT
ATOM      1  O   UNL     1      17.036  -3.266 -13.952  1.00  0.00    -0.454 OA
ENDROOT
BRANCH   1   2
ATOM      2  C   UNL     1      17.611  -3.152 -15.222  1.00  0.00     0.214 A 
ATOM      3  C   UNL     1      17.532  -4.236 -16.111  1.00  0.00     0.180 A 
ATOM      4  O   UNL     1      18.150  -4.176 -17.287  1.00  0.00    -0.452 OA
ATOM      5  C   UNL     1      18.272  -1.985 -15.626  1.00  0.00     0.239 A 
ATOM      6  C   UNL     1      18.799  -3.095 -17.711  1.00  0.00     0.146 A 
ATOM      7  O   UNL     1      18.323  -1.000 -14.841  1.00  0.00    -0.285 OA
ATOM      8  C   UNL     1      18.859  -1.930 -16.907  1.00  0.00     0.111 A 
ATOM      9  C   UNL     1      19.409  -3.115 -18.966  1.00  0.00     0.094 A 
ATOM     10  C   UNL     1      19.485  -0.771 -17.423  1.00  0.00     0.134 A 
ATOM     11  C   UNL     1      20.000  -1.964 -19.480  1.00  0.00     0.123 A 
ATOM     12  C   UNL     1      20.030  -0.796 -18.714  1.00  0.00     0.093 A 
BRANCH   3  13
ATOM     13  C   UNL     1      16.781  -5.458 -15.762  1.00  0.00     0.021 A 
ATOM     14  C   UNL     1      17.282  -6.331 -14.784  1.00  0.00     0.016 A 
ATOM     15  C   UNL     1      16.609  -7.522 -14.491  1.00  0.00     0.047 A 
ATOM     16  C   UNL     1      15.422  -7.846 -15.166  1.00  0.00     0.115 A 
ATOM     17  C   UNL     1      15.588  -5.785 -16.428  1.00  0.00     0.016 A 
ATOM     18  C   UNL     1      14.903  -6.963 -16.115  1.00  0.00     0.047 A 
BRANCH  16  19
ATOM     19  O   UNL     1      14.750  -9.035 -14.892  1.00  0.00    -0.508 OA
ATOM     20  H   UNL     1      15.145  -9.737 -14.276  1.00  0.00     0.293 HD
ENDBRANCH  16  19
ENDBRANCH   3  13
BRANCH  10  21
ATOM     21  O   UNL     1      19.548   0.403 -16.675  1.00  0.00    -0.507 OA
ATOM     22  H   UNL     1      18.834   1.121 -16.748  1.00  0.00     0.293 HD
ENDBRANCH  10  21
BRANCH  11  23
ATOM     23  O   UNL     1      20.540  -1.990 -20.764  1.00  0.00    -0.508 OA
ATOM     24  H   UNL     1      20.102  -2.512 -21.517  1.00  0.00     0.293 HD
ENDBRANCH  11  23
ENDBRANCH   1   2
BRANCH   1  25
ATOM     25  C   UNL     1      15.680  -2.922 -13.657  1.00  0.00     0.339 C 
ATOM     26  C   UNL     1      15.472  -3.098 -12.128  1.00  0.00     0.214 C 
ATOM     27  O   UNL     1      15.422  -1.600 -14.141  1.00  0.00    -0.332 OA
ATOM     28  C   UNL     1      15.905  -1.797 -11.422  1.00  0.00     0.180 C 
ATOM     29  C   UNL     1      14.491  -0.891 -13.344  1.00  0.00     0.179 C 
ATOM     30  C   UNL     1      15.090  -0.586 -11.947  1.00  0.00     0.177 C 
BRANCH  26  31
ATOM     31  O   UNL     1      16.223  -4.190 -11.662  1.00  0.00    -0.384 OA
ATOM     32  H   UNL     1      16.405  -4.773 -12.444  1.00  0.00     0.211 HD
ENDBRANCH  26  31
BRANCH  28  33
ATOM     33  O   UNL     1      15.833  -1.908 -10.020  1.00  0.00    -0.387 OA
ATOM     34  H   UNL     1      14.898  -2.144  -9.784  1.00  0.00     0.211 HD
ENDBRANCH  28  33
BRANCH  29  35
ATOM     35  C   UNL     1      14.108   0.402 -14.063  1.00  0.00     0.191 C 
BRANCH  35  36
ATOM     36  O   UNL     1      12.887   0.229 -14.730  1.00  0.00    -0.394 OA
ATOM     37  H   UNL     1      13.015  -0.534 -15.353  1.00  0.00     0.210 HD
ENDBRANCH  35  36
ENDBRANCH  29  35
BRANCH  30  38
ATOM     38  O   UNL     1      14.038  -0.274 -11.064  1.00  0.00    -0.387 OA
ATOM     39  H   UNL     1      13.555  -1.120 -10.871  1.00  0.00     0.211 HD
ENDBRANCH  30  38
ENDBRANCH   1  25
TORSDOF 11
ENDMDL
