MODEL 1
REMARK VINA RESULT:    -2.833      0.000      0.000
REMARK INTER + INTRA:         -11.182
REMARK INTER:                  -6.478
REMARK INTRA:                  -4.704
REMARK UNBOUND:                -4.704
REMARK SMILES CCCCCCCCCCCCCCCCCCCCCCCC(=O)[O-]
REMARK SMILES IDX 13 1 14 2 15 3 16 4 17 5 18 6 19 7 20 8 21 9 22 10 23 11
REMARK SMILES IDX 24 12 25 13 26 14 12 15 11 16 10 17 9 18 8 19 7 20 6 21 5 22
REMARK SMILES IDX 4 23 3 24 2 25 1 26
REMARK H PARENT
REMARK Flexibility Score: inf
ROOT
ATOM      1  C   UNL     1      -9.530  -6.608  -2.039  1.00  0.00     0.000 C 
ENDROOT
BRANCH   1   2
ATOM      2  C   UNL     1     -10.055  -6.532  -3.484  1.00  0.00     0.000 C 
BRANCH   2   3
ATOM      3  C   UNL     1      -9.282  -7.447  -4.449  1.00  0.00     0.000 C 
BRANCH   3   4
ATOM      4  C   UNL     1      -8.358  -8.438  -3.718  1.00  0.00     0.000 C 
BRANCH   4   5
ATOM      5  C   UNL     1      -6.988  -8.677  -4.385  1.00  0.00     0.000 C 
BRANCH   5   6
ATOM      6  C   UNL     1      -5.767  -8.248  -3.551  1.00  0.00     0.000 C 
BRANCH   6   7
ATOM      7  C   UNL     1      -5.121  -6.951  -4.065  1.00  0.00     0.000 C 
BRANCH   7   8
ATOM      8  C   UNL     1      -4.856  -5.939  -2.938  1.00  0.00     0.000 C 
BRANCH   8   9
ATOM      9  C   UNL     1      -6.128  -5.191  -2.500  1.00  0.00     0.000 C 
BRANCH   9  10
ATOM     10  C   UNL     1      -6.940  -4.637  -3.684  1.00  0.00     0.006 C 
BRANCH  10  11
ATOM     11  C   UNL     1      -7.168  -3.116  -3.626  1.00  0.00     0.053 C 
BRANCH  11  12
ATOM     12  C   UNL     1      -8.370  -2.741  -2.815  1.00  0.00     0.041 C 
ATOM     13  O   UNL     1      -9.529  -2.911  -3.279  1.00  0.00    -0.550 OA
ATOM     14  O   UNL     1      -8.211  -2.168  -1.559  1.00  0.00    -0.550 OA
ENDBRANCH  11  12
ENDBRANCH  10  11
ENDBRANCH   9  10
ENDBRANCH   8   9
ENDBRANCH   7   8
ENDBRANCH   6   7
ENDBRANCH   5   6
ENDBRANCH   4   5
ENDBRANCH   3   4
ENDBRANCH   2   3
ENDBRANCH   1   2
BRANCH   1  15
ATOM     15  C   UNL     1     -10.089  -5.540  -1.074  1.00  0.00     0.000 C 
BRANCH  15  16
ATOM     16  C   UNL     1      -9.152  -5.140   0.080  1.00  0.00     0.000 C 
BRANCH  16  17
ATOM     17  C   UNL     1      -9.824  -5.251   1.460  1.00  0.00     0.000 C 
BRANCH  17  18
ATOM     18  C   UNL     1      -8.808  -5.226   2.614  1.00  0.00    -0.000 C 
BRANCH  18  19
ATOM     19  C   UNL     1      -8.972  -6.411   3.577  1.00  0.00    -0.000 C 
BRANCH  19  20
ATOM     20  C   UNL     1      -9.463  -7.658   2.831  1.00  0.00    -0.000 C 
BRANCH  20  21
ATOM     21  C   UNL     1      -8.615  -8.886   3.197  1.00  0.00    -0.000 C 
BRANCH  21  22
ATOM     22  C   UNL     1      -7.792  -9.413   2.011  1.00  0.00    -0.000 C 
BRANCH  22  23
ATOM     23  C   UNL     1      -8.277  -8.861   0.661  1.00  0.00    -0.000 C 
BRANCH  23  24
ATOM     24  C   UNL     1      -7.119  -8.219  -0.117  1.00  0.00    -0.000 C 
BRANCH  24  25
ATOM     25  C   UNL     1      -6.248  -7.309   0.763  1.00  0.00    -0.003 C 
ATOM     26  C   UNL     1      -4.754  -7.462   0.475  1.00  0.00     0.004 C 
ENDBRANCH  24  25
ENDBRANCH  23  24
ENDBRANCH  22  23
ENDBRANCH  21  22
ENDBRANCH  20  21
ENDBRANCH  19  20
ENDBRANCH  18  19
ENDBRANCH  17  18
ENDBRANCH  16  17
ENDBRANCH  15  16
ENDBRANCH   1  15
TORSDOF 22
ENDMDL
MODEL 2
REMARK VINA RESULT:    -2.792      3.101      6.931
REMARK INTER + INTRA:         -11.086
REMARK INTER:                  -7.036
REMARK INTRA:                  -4.050
REMARK UNBOUND:                -4.704
REMARK SMILES CCCCCCCCCCCCCCCCCCCCCCCC(=O)[O-]
REMARK SMILES IDX 13 1 14 2 15 3 16 4 17 5 18 6 19 7 20 8 21 9 22 10 23 11
REMARK SMILES IDX 24 12 25 13 26 14 12 15 11 16 10 17 9 18 8 19 7 20 6 21 5 22
REMARK SMILES IDX 4 23 3 24 2 25 1 26
REMARK H PARENT
REMARK Flexibility Score: inf
ROOT
ATOM      1  C   UNL     1      -4.660  -5.668  -3.853  1.00  0.00     0.000 C 
ENDROOT
BRANCH   1   2
ATOM      2  C   UNL     1      -5.150  -7.116  -4.038  1.00  0.00     0.000 C 
BRANCH   2   3
ATOM      3  C   UNL     1      -5.827  -7.684  -2.779  1.00  0.00     0.000 C 
BRANCH   3   4
ATOM      4  C   UNL     1      -6.958  -8.677  -3.108  1.00  0.00     0.000 C 
BRANCH   4   5
ATOM      5  C   UNL     1      -7.200  -8.925  -4.611  1.00  0.00     0.000 C 
BRANCH   5   6
ATOM      6  C   UNL     1      -8.596  -8.529  -5.126  1.00  0.00     0.000 C 
BRANCH   6   7
ATOM      7  C   UNL     1      -9.420  -7.760  -4.080  1.00  0.00     0.000 C 
BRANCH   7   8
ATOM      8  C   UNL     1      -9.594  -6.276  -4.442  1.00  0.00     0.000 C 
BRANCH   8   9
ATOM      9  C   UNL     1      -9.758  -5.377  -3.203  1.00  0.00     0.000 C 
BRANCH   9  10
ATOM     10  C   UNL     1      -9.752  -6.166  -1.881  1.00  0.00     0.006 C 
BRANCH  10  11
ATOM     11  C   UNL     1      -8.574  -5.818  -0.953  1.00  0.00     0.053 C 
BRANCH  11  12
ATOM     12  C   UNL     1      -8.245  -6.921   0.004  1.00  0.00     0.041 C 
ATOM     13  O   UNL     1      -7.446  -6.720   0.957  1.00  0.00    -0.550 OA
ATOM     14  O   UNL     1      -8.791  -8.186  -0.178  1.00  0.00    -0.550 OA
ENDBRANCH  11  12
ENDBRANCH  10  11
ENDBRANCH   9  10
ENDBRANCH   8   9
ENDBRANCH   7   8
ENDBRANCH   6   7
ENDBRANCH   5   6
ENDBRANCH   4   5
ENDBRANCH   3   4
ENDBRANCH   2   3
ENDBRANCH   1   2
BRANCH   1  15
ATOM     15  C   UNL     1      -5.057  -5.001  -2.519  1.00  0.00     0.000 C 
BRANCH  15  16
ATOM     16  C   UNL     1      -5.978  -3.774  -2.644  1.00  0.00     0.000 C 
BRANCH  16  17
ATOM     17  C   UNL     1      -6.737  -3.731  -3.982  1.00  0.00     0.000 C 
BRANCH  17  18
ATOM     18  C   UNL     1      -7.181  -2.308  -4.362  1.00  0.00    -0.000 C 
BRANCH  18  19
ATOM     19  C   UNL     1      -6.004  -1.329  -4.483  1.00  0.00    -0.000 C 
BRANCH  19  20
ATOM     20  C   UNL     1      -5.240  -1.550  -5.795  1.00  0.00    -0.000 C 
BRANCH  20  21
ATOM     21  C   UNL     1      -3.768  -1.895  -5.523  1.00  0.00    -0.000 C 
BRANCH  21  22
ATOM     22  C   UNL     1      -3.292  -1.413  -4.144  1.00  0.00    -0.000 C 
BRANCH  22  23
ATOM     23  C   UNL     1      -2.474  -2.475  -3.395  1.00  0.00    -0.000 C 
BRANCH  23  24
ATOM     24  C   UNL     1      -1.732  -3.392  -4.379  1.00  0.00    -0.000 C 
BRANCH  24  25
ATOM     25  C   UNL     1      -0.232  -3.071  -4.470  1.00  0.00    -0.003 C 
ATOM     26  C   UNL     1       0.085  -2.022  -5.537  1.00  0.00     0.004 C 
ENDBRANCH  24  25
ENDBRANCH  23  24
ENDBRANCH  22  23
ENDBRANCH  21  22
ENDBRANCH  20  21
ENDBRANCH  19  20
ENDBRANCH  18  19
ENDBRANCH  17  18
ENDBRANCH  16  17
ENDBRANCH  15  16
ENDBRANCH   1  15
TORSDOF 22
ENDMDL
MODEL 3
REMARK VINA RESULT:    -2.744      3.406      6.297
REMARK INTER + INTRA:         -10.977
REMARK INTER:                  -7.006
REMARK INTRA:                  -3.971
REMARK UNBOUND:                -4.704
REMARK SMILES CCCCCCCCCCCCCCCCCCCCCCCC(=O)[O-]
REMARK SMILES IDX 13 1 14 2 15 3 16 4 17 5 18 6 19 7 20 8 21 9 22 10 23 11
REMARK SMILES IDX 24 12 25 13 26 14 12 15 11 16 10 17 9 18 8 19 7 20 6 21 5 22
REMARK SMILES IDX 4 23 3 24 2 25 1 26
REMARK H PARENT
REMARK Flexibility Score: inf
ROOT
ATOM      1  C   UNL     1      -4.622  -4.951  -3.625  1.00  0.00     0.000 C 
ENDROOT
BRANCH   1   2
ATOM      2  C   UNL     1      -5.226  -4.293  -2.371  1.00  0.00     0.000 C 
BRANCH   2   3
ATOM      3  C   UNL     1      -6.356  -3.303  -2.703  1.00  0.00     0.000 C 
BRANCH   3   4
ATOM      4  C   UNL     1      -6.668  -3.239  -4.209  1.00  0.00     0.000 C 
BRANCH   4   5
ATOM      5  C   UNL     1      -6.570  -1.836  -4.843  1.00  0.00     0.000 C 
BRANCH   5   6
ATOM      6  C   UNL     1      -5.325  -1.595  -5.716  1.00  0.00     0.000 C 
BRANCH   6   7
ATOM      7  C   UNL     1      -4.041  -1.425  -4.887  1.00  0.00     0.000 C 
BRANCH   7   8
ATOM      8  C   UNL     1      -2.896  -2.324  -5.384  1.00  0.00     0.000 C 
BRANCH   8   9
ATOM      9  C   UNL     1      -1.569  -2.055  -4.653  1.00  0.00     0.000 C 
BRANCH   9  10
ATOM     10  C   UNL     1      -0.855  -3.343  -4.204  1.00  0.00     0.006 C 
BRANCH  10  11
ATOM     11  C   UNL     1      -1.222  -3.795  -2.780  1.00  0.00     0.053 C 
BRANCH  11  12
ATOM     12  C   UNL     1      -0.789  -5.199  -2.488  1.00  0.00     0.041 C 
ATOM     13  O   UNL     1       0.129  -5.423  -1.654  1.00  0.00    -0.550 OA
ATOM     14  O   UNL     1      -1.373  -6.262  -3.167  1.00  0.00    -0.550 OA
ENDBRANCH  11  12
ENDBRANCH  10  11
ENDBRANCH   9  10
ENDBRANCH   8   9
ENDBRANCH   7   8
ENDBRANCH   6   7
ENDBRANCH   5   6
ENDBRANCH   4   5
ENDBRANCH   3   4
ENDBRANCH   2   3
ENDBRANCH   1   2
BRANCH   1  15
ATOM     15  C   UNL     1      -5.081  -6.399  -3.899  1.00  0.00     0.000 C 
BRANCH  15  16
ATOM     16  C   UNL     1      -4.870  -7.389  -2.739  1.00  0.00     0.000 C 
BRANCH  16  17
ATOM     17  C   UNL     1      -5.741  -8.651  -2.864  1.00  0.00     0.000 C 
BRANCH  17  18
ATOM     18  C   UNL     1      -6.596  -8.652  -4.142  1.00  0.00    -0.000 C 
BRANCH  18  19
ATOM     19  C   UNL     1      -8.077  -8.953  -3.866  1.00  0.00    -0.000 C 
BRANCH  19  20
ATOM     20  C   UNL     1      -8.978  -7.866  -4.466  1.00  0.00    -0.000 C 
BRANCH  20  21
ATOM     21  C   UNL     1      -8.834  -6.545  -3.694  1.00  0.00    -0.000 C 
BRANCH  21  22
ATOM     22  C   UNL     1      -9.993  -6.303  -2.715  1.00  0.00    -0.000 C 
BRANCH  22  23
ATOM     23  C   UNL     1      -9.509  -5.909  -1.311  1.00  0.00    -0.000 C 
BRANCH  23  24
ATOM     24  C   UNL     1      -8.039  -6.304  -1.106  1.00  0.00    -0.000 C 
BRANCH  24  25
ATOM     25  C   UNL     1      -7.845  -7.273   0.071  1.00  0.00    -0.003 C 
ATOM     26  C   UNL     1      -8.484  -8.640  -0.177  1.00  0.00     0.004 C 
ENDBRANCH  24  25
ENDBRANCH  23  24
ENDBRANCH  22  23
ENDBRANCH  21  22
ENDBRANCH  20  21
ENDBRANCH  19  20
ENDBRANCH  18  19
ENDBRANCH  17  18
ENDBRANCH  16  17
ENDBRANCH  15  16
ENDBRANCH   1  15
TORSDOF 22
ENDMDL
MODEL 4
REMARK VINA RESULT:    -2.713      3.567      6.040
REMARK INTER + INTRA:         -10.906
REMARK INTER:                  -6.671
REMARK INTRA:                  -4.235
REMARK UNBOUND:                -4.704
REMARK SMILES CCCCCCCCCCCCCCCCCCCCCCCC(=O)[O-]
REMARK SMILES IDX 13 1 14 2 15 3 16 4 17 5 18 6 19 7 20 8 21 9 22 10 23 11
REMARK SMILES IDX 24 12 25 13 26 14 12 15 11 16 10 17 9 18 8 19 7 20 6 21 5 22
REMARK SMILES IDX 4 23 3 24 2 25 1 26
REMARK H PARENT
REMARK Flexibility Score: inf
ROOT
ATOM      1  C   UNL     1      -8.125  -4.645  -1.413  1.00  0.00     0.000 C 
ENDROOT
BRANCH   1   2
ATOM      2  C   UNL     1      -6.812  -4.216  -2.094  1.00  0.00     0.000 C 
BRANCH   2   3
ATOM      3  C   UNL     1      -6.886  -4.283  -3.629  1.00  0.00     0.000 C 
BRANCH   3   4
ATOM      4  C   UNL     1      -8.194  -3.692  -4.188  1.00  0.00     0.000 C 
BRANCH   4   5
ATOM      5  C   UNL     1      -8.264  -2.152  -4.212  1.00  0.00     0.000 C 
BRANCH   5   6
ATOM      6  C   UNL     1      -7.723  -1.489  -5.492  1.00  0.00     0.000 C 
BRANCH   6   7
ATOM      7  C   UNL     1      -6.340  -0.846  -5.292  1.00  0.00     0.000 C 
BRANCH   7   8
ATOM      8  C   UNL     1      -5.206  -1.693  -5.893  1.00  0.00     0.000 C 
BRANCH   8   9
ATOM      9  C   UNL     1      -4.108  -2.029  -4.867  1.00  0.00     0.000 C 
BRANCH   9  10
ATOM     10  C   UNL     1      -2.692  -1.999  -5.469  1.00  0.00     0.006 C 
BRANCH  10  11
ATOM     11  C   UNL     1      -1.579  -1.764  -4.432  1.00  0.00     0.053 C 
BRANCH  11  12
ATOM     12  C   UNL     1      -0.310  -2.485  -4.770  1.00  0.00     0.041 C 
ATOM     13  O   UNL     1       0.098  -3.429  -4.042  1.00  0.00    -0.550 OA
ATOM     14  O   UNL     1       0.444  -2.090  -5.868  1.00  0.00    -0.550 OA
ENDBRANCH  11  12
ENDBRANCH  10  11
ENDBRANCH   9  10
ENDBRANCH   8   9
ENDBRANCH   7   8
ENDBRANCH   6   7
ENDBRANCH   5   6
ENDBRANCH   4   5
ENDBRANCH   3   4
ENDBRANCH   2   3
ENDBRANCH   1   2
BRANCH   1  15
ATOM     15  C   UNL     1      -8.061  -5.974  -0.631  1.00  0.00     0.000 C 
BRANCH  15  16
ATOM     16  C   UNL     1      -8.938  -7.109  -1.188  1.00  0.00     0.000 C 
BRANCH  16  17
ATOM     17  C   UNL     1      -9.656  -6.724  -2.493  1.00  0.00     0.000 C 
BRANCH  17  18
ATOM     18  C   UNL     1      -9.032  -7.392  -3.729  1.00  0.00    -0.000 C 
BRANCH  18  19
ATOM     19  C   UNL     1      -8.119  -8.575  -3.369  1.00  0.00    -0.000 C 
BRANCH  19  20
ATOM     20  C   UNL     1      -6.963  -8.698  -4.370  1.00  0.00    -0.000 C 
BRANCH  20  21
ATOM     21  C   UNL     1      -5.809  -7.757  -3.996  1.00  0.00    -0.000 C 
BRANCH  21  22
ATOM     22  C   UNL     1      -5.434  -7.840  -2.508  1.00  0.00    -0.000 C 
BRANCH  22  23
ATOM     23  C   UNL     1      -4.239  -6.946  -2.146  1.00  0.00    -0.000 C 
BRANCH  23  24
ATOM     24  C   UNL     1      -3.327  -6.731  -3.362  1.00  0.00    -0.000 C 
BRANCH  24  25
ATOM     25  C   UNL     1      -2.920  -5.260  -3.544  1.00  0.00    -0.003 C 
ATOM     26  C   UNL     1      -3.080  -4.440  -2.264  1.00  0.00     0.004 C 
ENDBRANCH  24  25
ENDBRANCH  23  24
ENDBRANCH  22  23
ENDBRANCH  21  22
ENDBRANCH  20  21
ENDBRANCH  19  20
ENDBRANCH  18  19
ENDBRANCH  17  18
ENDBRANCH  16  17
ENDBRANCH  15  16
ENDBRANCH   1  15
TORSDOF 22
ENDMDL
MODEL 5
REMARK VINA RESULT:    -2.691     14.120     17.101
REMARK INTER + INTRA:         -10.856
REMARK INTER:                  -8.875
REMARK INTRA:                  -1.981
REMARK UNBOUND:                -4.704
REMARK SMILES CCCCCCCCCCCCCCCCCCCCCCCC(=O)[O-]
REMARK SMILES IDX 13 1 14 2 15 3 16 4 17 5 18 6 19 7 20 8 21 9 22 10 23 11
REMARK SMILES IDX 24 12 25 13 26 14 12 15 11 16 10 17 9 18 8 19 7 20 6 21 5 22
REMARK SMILES IDX 4 23 3 24 2 25 1 26
REMARK H PARENT
REMARK Flexibility Score: inf
ROOT
ATOM      1  C   UNL     1       1.464   4.199   5.718  1.00  0.00     0.000 C 
ENDROOT
BRANCH   1   2
ATOM      2  C   UNL     1       2.407   3.551   6.749  1.00  0.00     0.000 C 
BRANCH   2   3
ATOM      3  C   UNL     1       1.712   2.474   7.600  1.00  0.00     0.000 C 
BRANCH   3   4
ATOM      4  C   UNL     1       0.187   2.446   7.395  1.00  0.00     0.000 C 
BRANCH   4   5
ATOM      5  C   UNL     1      -0.512   1.139   7.823  1.00  0.00     0.000 C 
BRANCH   5   6
ATOM      6  C   UNL     1      -2.050   1.166   7.763  1.00  0.00     0.000 C 
BRANCH   6   7
ATOM      7  C   UNL     1      -2.704   0.934   9.136  1.00  0.00     0.000 C 
BRANCH   7   8
ATOM      8  C   UNL     1      -4.189   0.553   9.024  1.00  0.00     0.000 C 
BRANCH   8   9
ATOM      9  C   UNL     1      -5.031   1.096  10.192  1.00  0.00     0.000 C 
BRANCH   9  10
ATOM     10  C   UNL     1      -6.390   0.386  10.337  1.00  0.00     0.006 C 
BRANCH  10  11
ATOM     11  C   UNL     1      -6.751  -0.517   9.144  1.00  0.00     0.053 C 
BRANCH  11  12
ATOM     12  C   UNL     1      -7.874   0.035   8.319  1.00  0.00     0.041 C 
ATOM     13  O   UNL     1      -8.961  -0.595   8.221  1.00  0.00    -0.550 OA
ATOM     14  O   UNL     1      -7.707   1.227   7.626  1.00  0.00    -0.550 OA
ENDBRANCH  11  12
ENDBRANCH  10  11
ENDBRANCH   9  10
ENDBRANCH   8   9
ENDBRANCH   7   8
ENDBRANCH   6   7
ENDBRANCH   5   6
ENDBRANCH   4   5
ENDBRANCH   3   4
ENDBRANCH   2   3
ENDBRANCH   1   2
BRANCH   1  15
ATOM     15  C   UNL     1       1.904   5.583   5.197  1.00  0.00     0.000 C 
BRANCH  15  16
ATOM     16  C   UNL     1       2.864   6.360   6.116  1.00  0.00     0.000 C 
BRANCH  16  17
ATOM     17  C   UNL     1       2.809   7.880   5.891  1.00  0.00     0.000 C 
BRANCH  17  18
ATOM     18  C   UNL     1       2.852   8.674   7.207  1.00  0.00    -0.000 C 
BRANCH  18  19
ATOM     19  C   UNL     1       2.014   9.960   7.154  1.00  0.00    -0.000 C 
BRANCH  19  20
ATOM     20  C   UNL     1       1.349  10.124   5.781  1.00  0.00    -0.000 C 
BRANCH  20  21
ATOM     21  C   UNL     1      -0.179  10.015   5.894  1.00  0.00    -0.000 C 
BRANCH  21  22
ATOM     22  C   UNL     1      -0.841   9.584   4.576  1.00  0.00    -0.000 C 
BRANCH  22  23
ATOM     23  C   UNL     1      -0.564   8.113   4.228  1.00  0.00    -0.000 C 
BRANCH  23  24
ATOM     24  C   UNL     1       0.130   7.994   2.863  1.00  0.00    -0.000 C 
BRANCH  24  25
ATOM     25  C   UNL     1       0.622   9.349   2.330  1.00  0.00    -0.003 C 
ATOM     26  C   UNL     1       2.095   9.323   1.919  1.00  0.00     0.004 C 
ENDBRANCH  24  25
ENDBRANCH  23  24
ENDBRANCH  22  23
ENDBRANCH  21  22
ENDBRANCH  20  21
ENDBRANCH  19  20
ENDBRANCH  18  19
ENDBRANCH  17  18
ENDBRANCH  16  17
ENDBRANCH  15  16
ENDBRANCH   1  15
TORSDOF 22
ENDMDL
MODEL 6
REMARK VINA RESULT:    -2.681      2.609      6.527
REMARK INTER + INTRA:         -10.834
REMARK INTER:                  -7.358
REMARK INTRA:                  -3.476
REMARK UNBOUND:                -4.704
REMARK SMILES CCCCCCCCCCCCCCCCCCCCCCCC(=O)[O-]
REMARK SMILES IDX 13 1 14 2 15 3 16 4 17 5 18 6 19 7 20 8 21 9 22 10 23 11
REMARK SMILES IDX 24 12 25 13 26 14 12 15 11 16 10 17 9 18 8 19 7 20 6 21 5 22
REMARK SMILES IDX 4 23 3 24 2 25 1 26
REMARK H PARENT
REMARK Flexibility Score: inf
ROOT
ATOM      1  C   UNL     1      -9.229  -5.526  -3.708  1.00  0.00     0.000 C 
ENDROOT
BRANCH   1   2
ATOM      2  C   UNL     1      -9.166  -4.854  -2.324  1.00  0.00     0.000 C 
BRANCH   2   3
ATOM      3  C   UNL     1     -10.066  -5.542  -1.284  1.00  0.00     0.000 C 
BRANCH   3   4
ATOM      4  C   UNL     1      -9.305  -5.934  -0.004  1.00  0.00     0.000 C 
BRANCH   4   5
ATOM      5  C   UNL     1      -7.787  -6.141  -0.178  1.00  0.00     0.000 C 
BRANCH   5   6
ATOM      6  C   UNL     1      -7.301  -7.595  -0.032  1.00  0.00     0.000 C 
BRANCH   6   7
ATOM      7  C   UNL     1      -8.445  -8.578   0.266  1.00  0.00     0.000 C 
BRANCH   7   8
ATOM      8  C   UNL     1      -8.177  -9.433   1.515  1.00  0.00     0.000 C 
BRANCH   8   9
ATOM      9  C   UNL     1      -9.017  -8.992   2.728  1.00  0.00     0.000 C 
BRANCH   9  10
ATOM     10  C   UNL     1      -8.526  -7.674   3.354  1.00  0.00     0.006 C 
BRANCH  10  11
ATOM     11  C   UNL     1      -9.647  -6.651   3.609  1.00  0.00     0.053 C 
BRANCH  11  12
ATOM     12  C   UNL     1      -9.365  -5.762   4.782  1.00  0.00     0.041 C 
ATOM     13  O   UNL     1      -9.071  -4.550   4.606  1.00  0.00    -0.550 OA
ATOM     14  O   UNL     1      -9.389  -6.283   6.070  1.00  0.00    -0.550 OA
ENDBRANCH  11  12
ENDBRANCH  10  11
ENDBRANCH   9  10
ENDBRANCH   8   9
ENDBRANCH   7   8
ENDBRANCH   6   7
ENDBRANCH   5   6
ENDBRANCH   4   5
ENDBRANCH   3   4
ENDBRANCH   2   3
ENDBRANCH   1   2
BRANCH   1  15
ATOM     15  C   UNL     1      -9.688  -7.000  -3.707  1.00  0.00     0.000 C 
BRANCH  15  16
ATOM     16  C   UNL     1      -9.405  -7.779  -5.005  1.00  0.00     0.000 C 
BRANCH  16  17
ATOM     17  C   UNL     1      -8.356  -8.888  -4.819  1.00  0.00     0.000 C 
BRANCH  17  18
ATOM     18  C   UNL     1      -7.710  -8.861  -3.424  1.00  0.00    -0.000 C 
BRANCH  18  19
ATOM     19  C   UNL     1      -6.180  -8.740  -3.480  1.00  0.00    -0.000 C 
BRANCH  19  20
ATOM     20  C   UNL     1      -5.759  -7.418  -4.135  1.00  0.00    -0.000 C 
BRANCH  20  21
ATOM     21  C   UNL     1      -5.477  -6.344  -3.074  1.00  0.00    -0.000 C 
BRANCH  21  22
ATOM     22  C   UNL     1      -5.750  -4.921  -3.585  1.00  0.00    -0.000 C 
BRANCH  22  23
ATOM     23  C   UNL     1      -4.717  -3.902  -3.082  1.00  0.00    -0.000 C 
BRANCH  23  24
ATOM     24  C   UNL     1      -3.369  -4.582  -2.798  1.00  0.00    -0.000 C 
BRANCH  24  25
ATOM     25  C   UNL     1      -2.339  -4.343  -3.913  1.00  0.00    -0.003 C 
ATOM     26  C   UNL     1      -0.910  -4.222  -3.381  1.00  0.00     0.004 C 
ENDBRANCH  24  25
ENDBRANCH  23  24
ENDBRANCH  22  23
ENDBRANCH  21  22
ENDBRANCH  20  21
ENDBRANCH  19  20
ENDBRANCH  18  19
ENDBRANCH  17  18
ENDBRANCH  16  17
ENDBRANCH  15  16
ENDBRANCH   1  15
TORSDOF 22
ENDMDL
MODEL 7
REMARK VINA RESULT:    -2.617      3.728      6.123
REMARK INTER + INTRA:         -10.688
REMARK INTER:                  -7.004
REMARK INTRA:                  -3.685
REMARK UNBOUND:                -4.704
REMARK SMILES CCCCCCCCCCCCCCCCCCCCCCCC(=O)[O-]
REMARK SMILES IDX 13 1 14 2 15 3 16 4 17 5 18 6 19 7 20 8 21 9 22 10 23 11
REMARK SMILES IDX 24 12 25 13 26 14 12 15 11 16 10 17 9 18 8 19 7 20 6 21 5 22
REMARK SMILES IDX 4 23 3 24 2 25 1 26
REMARK H PARENT
REMARK Flexibility Score: inf
ROOT
ATOM      1  C   UNL     1      -4.981  -7.114  -3.621  1.00  0.00     0.000 C 
ENDROOT
BRANCH   1   2
ATOM      2  C   UNL     1      -5.340  -5.627  -3.792  1.00  0.00     0.000 C 
BRANCH   2   3
ATOM      3  C   UNL     1      -4.977  -4.779  -2.560  1.00  0.00     0.000 C 
BRANCH   3   4
ATOM      4  C   UNL     1      -5.918  -3.576  -2.368  1.00  0.00     0.000 C 
BRANCH   4   5
ATOM      5  C   UNL     1      -6.655  -3.106  -3.639  1.00  0.00     0.000 C 
BRANCH   5   6
ATOM      6  C   UNL     1      -6.365  -1.657  -4.070  1.00  0.00     0.000 C 
BRANCH   6   7
ATOM      7  C   UNL     1      -4.862  -1.373  -4.230  1.00  0.00     0.000 C 
BRANCH   7   8
ATOM      8  C   UNL     1      -4.266  -2.045  -5.478  1.00  0.00     0.000 C 
BRANCH   8   9
ATOM      9  C   UNL     1      -3.041  -2.918  -5.155  1.00  0.00     0.000 C 
BRANCH   9  10
ATOM     10  C   UNL     1      -1.711  -2.147  -5.246  1.00  0.00     0.006 C 
BRANCH  10  11
ATOM     11  C   UNL     1      -0.892  -2.161  -3.943  1.00  0.00     0.053 C 
BRANCH  11  12
ATOM     12  C   UNL     1       0.295  -1.249  -3.995  1.00  0.00     0.041 C 
ATOM     13  O   UNL     1       0.422  -0.320  -3.154  1.00  0.00    -0.550 OA
ATOM     14  O   UNL     1       1.245  -1.401  -4.998  1.00  0.00    -0.550 OA
ENDBRANCH  11  12
ENDBRANCH  10  11
ENDBRANCH   9  10
ENDBRANCH   8   9
ENDBRANCH   7   8
ENDBRANCH   6   7
ENDBRANCH   5   6
ENDBRANCH   4   5
ENDBRANCH   3   4
ENDBRANCH   2   3
ENDBRANCH   1   2
BRANCH   1  15
ATOM     15  C   UNL     1      -4.000  -7.431  -2.473  1.00  0.00     0.000 C 
BRANCH  15  16
ATOM     16  C   UNL     1      -4.601  -8.207  -1.287  1.00  0.00     0.000 C 
BRANCH  16  17
ATOM     17  C   UNL     1      -6.134  -8.307  -1.354  1.00  0.00     0.000 C 
BRANCH  17  18
ATOM     18  C   UNL     1      -6.833  -7.256  -0.475  1.00  0.00    -0.000 C 
BRANCH  18  19
ATOM     19  C   UNL     1      -8.289  -7.624  -0.152  1.00  0.00    -0.000 C 
BRANCH  19  20
ATOM     20  C   UNL     1      -9.210  -6.408  -0.318  1.00  0.00    -0.000 C 
BRANCH  20  21
ATOM     21  C   UNL     1      -8.771  -5.543  -1.510  1.00  0.00    -0.000 C 
BRANCH  21  22
ATOM     22  C   UNL     1      -9.727  -5.657  -2.707  1.00  0.00    -0.000 C 
BRANCH  22  23
ATOM     23  C   UNL     1      -9.002  -6.024  -4.011  1.00  0.00    -0.000 C 
BRANCH  23  24
ATOM     24  C   UNL     1      -9.408  -7.427  -4.488  1.00  0.00    -0.000 C 
BRANCH  24  25
ATOM     25  C   UNL     1      -8.409  -8.511  -4.054  1.00  0.00    -0.003 C 
ATOM     26  C   UNL     1      -7.849  -9.305  -5.234  1.00  0.00     0.004 C 
ENDBRANCH  24  25
ENDBRANCH  23  24
ENDBRANCH  22  23
ENDBRANCH  21  22
ENDBRANCH  20  21
ENDBRANCH  19  20
ENDBRANCH  18  19
ENDBRANCH  17  18
ENDBRANCH  16  17
ENDBRANCH  15  16
ENDBRANCH   1  15
TORSDOF 22
ENDMDL
MODEL 8
REMARK VINA RESULT:    -2.603      2.740      6.502
REMARK INTER + INTRA:         -10.654
REMARK INTER:                  -6.933
REMARK INTRA:                  -3.722
REMARK UNBOUND:                -4.704
REMARK SMILES CCCCCCCCCCCCCCCCCCCCCCCC(=O)[O-]
REMARK SMILES IDX 13 1 14 2 15 3 16 4 17 5 18 6 19 7 20 8 21 9 22 10 23 11
REMARK SMILES IDX 24 12 25 13 26 14 12 15 11 16 10 17 9 18 8 19 7 20 6 21 5 22
REMARK SMILES IDX 4 23 3 24 2 25 1 26
REMARK H PARENT
REMARK Flexibility Score: inf
ROOT
ATOM      1  C   UNL     1      -7.213  -7.467   0.354  1.00  0.00     0.000 C 
ENDROOT
BRANCH   1   2
ATOM      2  C   UNL     1      -8.298  -8.558   0.387  1.00  0.00     0.000 C 
BRANCH   2   3
ATOM      3  C   UNL     1      -8.534  -9.125   1.798  1.00  0.00     0.000 C 
BRANCH   3   4
ATOM      4  C   UNL     1      -9.045  -8.062   2.788  1.00  0.00     0.000 C 
BRANCH   4   5
ATOM      5  C   UNL     1      -8.103  -7.756   3.970  1.00  0.00     0.000 C 
BRANCH   5   6
ATOM      6  C   UNL     1      -8.085  -6.287   4.433  1.00  0.00     0.000 C 
BRANCH   6   7
ATOM      7  C   UNL     1      -9.049  -5.398   3.629  1.00  0.00     0.000 C 
BRANCH   7   8
ATOM      8  C   UNL     1      -8.351  -4.167   3.027  1.00  0.00     0.000 C 
BRANCH   8   9
ATOM      9  C   UNL     1      -9.346  -3.096   2.546  1.00  0.00     0.000 C 
BRANCH   9  10
ATOM     10  C   UNL     1      -9.054  -1.699   3.124  1.00  0.00     0.006 C 
BRANCH  10  11
ATOM     11  C   UNL     1      -8.524  -1.721   4.568  1.00  0.00     0.053 C 
BRANCH  11  12
ATOM     12  C   UNL     1      -8.329  -0.348   5.135  1.00  0.00     0.041 C 
ATOM     13  O   UNL     1      -7.521   0.455   4.596  1.00  0.00    -0.550 OA
ATOM     14  O   UNL     1      -9.013   0.035   6.283  1.00  0.00    -0.550 OA
ENDBRANCH  11  12
ENDBRANCH  10  11
ENDBRANCH   9  10
ENDBRANCH   8   9
ENDBRANCH   7   8
ENDBRANCH   6   7
ENDBRANCH   5   6
ENDBRANCH   4   5
ENDBRANCH   3   4
ENDBRANCH   2   3
ENDBRANCH   1   2
BRANCH   1  15
ATOM     15  C   UNL     1      -7.673  -6.091  -0.172  1.00  0.00     0.000 C 
BRANCH  15  16
ATOM     16  C   UNL     1      -9.196  -5.916  -0.315  1.00  0.00     0.000 C 
BRANCH  16  17
ATOM     17  C   UNL     1      -9.640  -5.712  -1.774  1.00  0.00     0.000 C 
BRANCH  17  18
ATOM     18  C   UNL     1      -9.791  -7.040  -2.535  1.00  0.00    -0.000 C 
BRANCH  18  19
ATOM     19  C   UNL     1      -9.415  -6.920  -4.020  1.00  0.00    -0.000 C 
BRANCH  19  20
ATOM     20  C   UNL     1      -8.705  -8.189  -4.508  1.00  0.00    -0.000 C 
BRANCH  20  21
ATOM     21  C   UNL     1      -7.887  -8.832  -3.377  1.00  0.00    -0.000 C 
BRANCH  21  22
ATOM     22  C   UNL     1      -6.375  -8.806  -3.650  1.00  0.00    -0.000 C 
BRANCH  22  23
ATOM     23  C   UNL     1      -5.664  -7.647  -2.934  1.00  0.00    -0.000 C 
BRANCH  23  24
ATOM     24  C   UNL     1      -5.424  -6.473  -3.895  1.00  0.00    -0.000 C 
BRANCH  24  25
ATOM     25  C   UNL     1      -6.222  -5.218  -3.505  1.00  0.00    -0.003 C 
ATOM     26  C   UNL     1      -5.495  -4.351  -2.478  1.00  0.00     0.004 C 
ENDBRANCH  24  25
ENDBRANCH  23  24
ENDBRANCH  22  23
ENDBRANCH  21  22
ENDBRANCH  20  21
ENDBRANCH  19  20
ENDBRANCH  18  19
ENDBRANCH  17  18
ENDBRANCH  16  17
ENDBRANCH  15  16
ENDBRANCH   1  15
TORSDOF 22
ENDMDL
MODEL 9
REMARK VINA RESULT:    -2.601      3.054      6.996
REMARK INTER + INTRA:         -10.651
REMARK INTER:                  -6.727
REMARK INTRA:                  -3.924
REMARK UNBOUND:                -4.704
REMARK SMILES CCCCCCCCCCCCCCCCCCCCCCCC(=O)[O-]
REMARK SMILES IDX 13 1 14 2 15 3 16 4 17 5 18 6 19 7 20 8 21 9 22 10 23 11
REMARK SMILES IDX 24 12 25 13 26 14 12 15 11 16 10 17 9 18 8 19 7 20 6 21 5 22
REMARK SMILES IDX 4 23 3 24 2 25 1 26
REMARK H PARENT
REMARK Flexibility Score: inf
ROOT
ATOM      1  C   UNL     1      -2.935  -4.275  -4.570  1.00  0.00     0.000 C 
ENDROOT
BRANCH   1   2
ATOM      2  C   UNL     1      -2.737  -5.331  -3.467  1.00  0.00     0.000 C 
BRANCH   2   3
ATOM      3  C   UNL     1      -3.188  -6.737  -3.899  1.00  0.00     0.000 C 
BRANCH   3   4
ATOM      4  C   UNL     1      -4.668  -6.783  -4.323  1.00  0.00     0.000 C 
BRANCH   4   5
ATOM      5  C   UNL     1      -5.603  -7.555  -3.369  1.00  0.00     0.000 C 
BRANCH   5   6
ATOM      6  C   UNL     1      -6.458  -8.650  -4.031  1.00  0.00     0.000 C 
BRANCH   6   7
ATOM      7  C   UNL     1      -7.864  -8.761  -3.417  1.00  0.00     0.000 C 
BRANCH   7   8
ATOM      8  C   UNL     1      -8.731  -7.524  -3.704  1.00  0.00     0.000 C 
BRANCH   8   9
ATOM      9  C   UNL     1      -9.440  -6.990  -2.447  1.00  0.00     0.000 C 
BRANCH   9  10
ATOM     10  C   UNL     1      -8.461  -6.486  -1.371  1.00  0.00     0.006 C 
BRANCH  10  11
ATOM     11  C   UNL     1      -8.681  -7.115   0.016  1.00  0.00     0.053 C 
BRANCH  11  12
ATOM     12  C   UNL     1      -7.774  -8.279   0.276  1.00  0.00     0.041 C 
ATOM     13  O   UNL     1      -6.558  -8.223  -0.050  1.00  0.00    -0.550 OA
ATOM     14  O   UNL     1      -8.279  -9.442   0.845  1.00  0.00    -0.550 OA
ENDBRANCH  11  12
ENDBRANCH  10  11
ENDBRANCH   9  10
ENDBRANCH   8   9
ENDBRANCH   7   8
ENDBRANCH   6   7
ENDBRANCH   5   6
ENDBRANCH   4   5
ENDBRANCH   3   4
ENDBRANCH   2   3
ENDBRANCH   1   2
BRANCH   1  15
ATOM     15  C   UNL     1      -1.772  -3.276  -4.747  1.00  0.00     0.000 C 
BRANCH  15  16
ATOM     16  C   UNL     1      -2.170  -1.890  -5.287  1.00  0.00     0.000 C 
BRANCH  16  17
ATOM     17  C   UNL     1      -3.687  -1.746  -5.501  1.00  0.00     0.000 C 
BRANCH  17  18
ATOM     18  C   UNL     1      -4.289  -0.587  -4.688  1.00  0.00    -0.000 C 
BRANCH  18  19
ATOM     19  C   UNL     1      -4.336  -0.879  -3.181  1.00  0.00    -0.000 C 
BRANCH  19  20
ATOM     20  C   UNL     1      -5.754  -1.267  -2.742  1.00  0.00    -0.000 C 
BRANCH  20  21
ATOM     21  C   UNL     1      -5.730  -2.509  -1.839  1.00  0.00    -0.000 C 
BRANCH  21  22
ATOM     22  C   UNL     1      -6.009  -3.808  -2.610  1.00  0.00    -0.000 C 
BRANCH  22  23
ATOM     23  C   UNL     1      -6.625  -3.555  -3.994  1.00  0.00    -0.000 C 
BRANCH  23  24
ATOM     24  C   UNL     1      -8.106  -3.962  -4.019  1.00  0.00    -0.000 C 
BRANCH  24  25
ATOM     25  C   UNL     1      -9.041  -2.817  -3.598  1.00  0.00    -0.003 C 
ATOM     26  C   UNL     1      -9.841  -3.141  -2.336  1.00  0.00     0.004 C 
ENDBRANCH  24  25
ENDBRANCH  23  24
ENDBRANCH  22  23
ENDBRANCH  21  22
ENDBRANCH  20  21
ENDBRANCH  19  20
ENDBRANCH  18  19
ENDBRANCH  17  18
ENDBRANCH  16  17
ENDBRANCH  15  16
ENDBRANCH   1  15
TORSDOF 22
ENDMDL
