MODEL 1
REMARK VINA RESULT:    25.778      0.000      0.000
REMARK INTER + INTRA:          30.625
REMARK INTER:                  31.052
REMARK INTRA:                  -0.427
REMARK UNBOUND:                -0.427
REMARK SMILES O=c1c(O)c(-c2ccc(O)cc2O)oc2cc(O)cc(O)c12
REMARK SMILES IDX 5 1 3 2 2 3 1 4 22 5 20 6 19 7 17 8 16 9 15 10 14 11 6 12
REMARK SMILES IDX 8 13 7 14 9 15 11 16 12 17 10 18 13 20 4 22 21 24 18 26
REMARK H PARENT 10 19 13 21 4 23 21 25 18 27
REMARK Flexibility Score: inf
ROOT
ATOM      1  C   UNL     1      26.795  30.010   4.965  1.00  0.00     0.184 A 
ATOM      2  C   UNL     1      27.861  30.615   4.275  1.00  0.00     0.208 A 
ATOM      3  C   UNL     1      28.404  29.959   3.160  1.00  0.00     0.238 A 
ATOM      4  O   UNL     1      29.367  30.486   2.540  1.00  0.00    -0.285 OA
ATOM      5  C   UNL     1      27.862  28.726   2.745  1.00  0.00     0.111 A 
ATOM      6  C   UNL     1      28.349  28.001   1.630  1.00  0.00     0.134 A 
ATOM      7  C   UNL     1      27.749  26.784   1.275  1.00  0.00     0.093 A 
ATOM      8  C   UNL     1      26.672  26.278   2.012  1.00  0.00     0.123 A 
ATOM      9  C   UNL     1      26.189  26.988   3.112  1.00  0.00     0.094 A 
ATOM     10  C   UNL     1      26.774  28.202   3.484  1.00  0.00     0.146 A 
ATOM     11  O   UNL     1      26.297  28.854   4.538  1.00  0.00    -0.451 OA
ENDROOT
BRANCH   1  12
ATOM     12  C   UNL     1      26.184  30.641   6.153  1.00  0.00     0.063 A 
ATOM     13  C   UNL     1      24.731  32.357   7.078  1.00  0.00     0.047 A 
ATOM     14  C   UNL     1      25.330  31.741   5.977  1.00  0.00     0.020 A 
ATOM     15  C   UNL     1      24.966  31.874   8.369  1.00  0.00     0.119 A 
ATOM     16  C   UNL     1      25.797  30.763   8.554  1.00  0.00     0.093 A 
ATOM     17  C   UNL     1      26.398  30.134   7.452  1.00  0.00     0.130 A 
BRANCH  15  18
ATOM     18  O   UNL     1      24.364  32.502   9.457  1.00  0.00    -0.508 OA
ATOM     19  H   UNL     1      23.780  31.989  10.108  1.00  0.00     0.293 HD
ENDBRANCH  15  18
BRANCH  17  20
ATOM     20  O   UNL     1      27.186  28.999   7.646  1.00  0.00    -0.507 OA
ATOM     21  H   UNL     1      28.064  28.871   7.158  1.00  0.00     0.293 HD
ENDBRANCH  17  20
ENDBRANCH   1  12
BRANCH   2  22
ATOM     22  O   UNL     1      28.346  31.860   4.685  1.00  0.00    -0.502 OA
ATOM     23  H   UNL     1      29.013  32.388   4.136  1.00  0.00     0.293 HD
ENDBRANCH   2  22
BRANCH   6  24
ATOM     24  O   UNL     1      29.420  28.480   0.875  1.00  0.00    -0.507 OA
ATOM     25  H   UNL     1      29.278  29.021   0.030  1.00  0.00     0.293 HD
ENDBRANCH   6  24
BRANCH   8  26
ATOM     26  O   UNL     1      26.076  25.070   1.659  1.00  0.00    -0.508 OA
ATOM     27  H   UNL     1      25.950  24.324   2.332  1.00  0.00     0.293 HD
ENDBRANCH   8  26
TORSDOF 6
ENDMDL
MODEL 2
REMARK VINA RESULT:    27.060      3.970      6.764
REMARK INTER + INTRA:          32.169
REMARK INTER:                  28.916
REMARK INTRA:                   3.253
REMARK UNBOUND:                -0.427
REMARK SMILES O=c1c(O)c(-c2ccc(O)cc2O)oc2cc(O)cc(O)c12
REMARK SMILES IDX 5 1 3 2 2 3 1 4 22 5 20 6 19 7 17 8 16 9 15 10 14 11 6 12
REMARK SMILES IDX 8 13 7 14 9 15 11 16 12 17 10 18 13 20 4 22 21 24 18 26
REMARK H PARENT 10 19 13 21 4 23 21 25 18 27
REMARK Flexibility Score: inf
ROOT
ATOM      1  C   UNL     1      27.956  27.509   2.352  1.00  0.00     0.184 A 
ATOM      2  C   UNL     1      27.230  28.527   1.707  1.00  0.00     0.208 A 
ATOM      3  C   UNL     1      27.622  29.861   1.893  1.00  0.00     0.238 A 
ATOM      4  O   UNL     1      26.972  30.782   1.329  1.00  0.00    -0.285 OA
ATOM      5  C   UNL     1      28.739  30.152   2.703  1.00  0.00     0.111 A 
ATOM      6  C   UNL     1      29.201  31.469   2.940  1.00  0.00     0.134 A 
ATOM      7  C   UNL     1      30.327  31.676   3.750  1.00  0.00     0.093 A 
ATOM      8  C   UNL     1      30.999  30.592   4.327  1.00  0.00     0.123 A 
ATOM      9  C   UNL     1      30.547  29.292   4.097  1.00  0.00     0.094 A 
ATOM     10  C   UNL     1      29.425  29.064   3.294  1.00  0.00     0.146 A 
ATOM     11  O   UNL     1      29.014  27.817   3.096  1.00  0.00    -0.451 OA
ENDROOT
BRANCH   1  12
ATOM     12  C   UNL     1      27.591  26.085   2.208  1.00  0.00     0.063 A 
ATOM     13  C   UNL     1      28.047  23.759   2.748  1.00  0.00     0.047 A 
ATOM     14  C   UNL     1      28.367  25.114   2.860  1.00  0.00     0.020 A 
ATOM     15  C   UNL     1      26.939  23.357   1.997  1.00  0.00     0.119 A 
ATOM     16  C   UNL     1      26.144  24.319   1.362  1.00  0.00     0.093 A 
ATOM     17  C   UNL     1      26.456  25.683   1.473  1.00  0.00     0.130 A 
BRANCH  15  18
ATOM     18  O   UNL     1      26.635  22.002   1.892  1.00  0.00    -0.508 OA
ATOM     19  H   UNL     1      26.071  21.530   2.591  1.00  0.00     0.293 HD
ENDBRANCH  15  18
BRANCH  17  20
ATOM     20  O   UNL     1      25.629  26.634   0.875  1.00  0.00    -0.507 OA
ATOM     21  H   UNL     1      24.710  26.847   1.243  1.00  0.00     0.293 HD
ENDBRANCH  17  20
ENDBRANCH   1  12
BRANCH   2  22
ATOM     22  O   UNL     1      26.155  28.202   0.875  1.00  0.00    -0.502 OA
ATOM     23  H   UNL     1      25.603  28.907   0.402  1.00  0.00     0.293 HD
ENDBRANCH   2  22
BRANCH   6  24
ATOM     24  O   UNL     1      28.553  32.570   2.378  1.00  0.00    -0.507 OA
ATOM     25  H   UNL     1      27.544  32.654   2.383  1.00  0.00     0.293 HD
ENDBRANCH   6  24
BRANCH   8  26
ATOM     26  O   UNL     1      32.117  30.798   5.131  1.00  0.00    -0.508 OA
ATOM     27  H   UNL     1      32.600  31.688   5.152  1.00  0.00     0.293 HD
ENDBRANCH   8  26
TORSDOF 6
ENDMDL
MODEL 3
REMARK VINA RESULT:    27.724      3.905      5.186
REMARK INTER + INTRA:          32.969
REMARK INTER:                  33.206
REMARK INTRA:                  -0.237
REMARK UNBOUND:                -0.427
REMARK SMILES O=c1c(O)c(-c2ccc(O)cc2O)oc2cc(O)cc(O)c12
REMARK SMILES IDX 5 1 3 2 2 3 1 4 22 5 20 6 19 7 17 8 16 9 15 10 14 11 6 12
REMARK SMILES IDX 8 13 7 14 9 15 11 16 12 17 10 18 13 20 4 22 21 24 18 26
REMARK H PARENT 10 19 13 21 4 23 21 25 18 27
REMARK Flexibility Score: inf
ROOT
ATOM      1  C   UNL     1      29.044  28.440   2.859  1.00  0.00     0.184 A 
ATOM      2  C   UNL     1      27.915  29.155   2.421  1.00  0.00     0.208 A 
ATOM      3  C   UNL     1      26.819  28.443   1.909  1.00  0.00     0.238 A 
ATOM      4  O   UNL     1      25.806  29.074   1.503  1.00  0.00    -0.285 OA
ATOM      5  C   UNL     1      26.864  27.035   1.862  1.00  0.00     0.111 A 
ATOM      6  C   UNL     1      25.802  26.242   1.364  1.00  0.00     0.134 A 
ATOM      7  C   UNL     1      25.920  24.845   1.359  1.00  0.00     0.093 A 
ATOM      8  C   UNL     1      27.078  24.225   1.843  1.00  0.00     0.123 A 
ATOM      9  C   UNL     1      28.128  25.002   2.334  1.00  0.00     0.094 A 
ATOM     10  C   UNL     1      28.032  26.396   2.346  1.00  0.00     0.146 A 
ATOM     11  O   UNL     1      29.048  27.111   2.816  1.00  0.00    -0.451 OA
ENDROOT
BRANCH   1  12
ATOM     12  C   UNL     1      30.236  29.127   3.398  1.00  0.00     0.063 A 
ATOM     13  C   UNL     1      31.184  30.697   4.995  1.00  0.00     0.047 A 
ATOM     14  C   UNL     1      30.078  30.034   4.457  1.00  0.00     0.020 A 
ATOM     15  C   UNL     1      32.464  30.451   4.491  1.00  0.00     0.119 A 
ATOM     16  C   UNL     1      32.636  29.530   3.451  1.00  0.00     0.093 A 
ATOM     17  C   UNL     1      31.531  28.856   2.909  1.00  0.00     0.130 A 
BRANCH  15  18
ATOM     18  O   UNL     1      33.556  31.122   5.035  1.00  0.00    -0.508 OA
ATOM     19  H   UNL     1      33.931  30.874   5.944  1.00  0.00     0.293 HD
ENDBRANCH  15  18
BRANCH  17  20
ATOM     20  O   UNL     1      31.722  27.906   1.906  1.00  0.00    -0.507 OA
ATOM     21  H   UNL     1      31.947  26.942   2.121  1.00  0.00     0.293 HD
ENDBRANCH  17  20
ENDBRANCH   1  12
BRANCH   2  22
ATOM     22  O   UNL     1      27.884  30.549   2.523  1.00  0.00    -0.502 OA
ATOM     23  H   UNL     1      27.274  31.120   1.951  1.00  0.00     0.293 HD
ENDBRANCH   2  22
BRANCH   6  24
ATOM     24  O   UNL     1      24.635  26.831   0.876  1.00  0.00    -0.507 OA
ATOM     25  H   UNL     1      23.871  27.088   1.489  1.00  0.00     0.293 HD
ENDBRANCH   6  24
BRANCH   8  26
ATOM     26  O   UNL     1      27.194  22.837   1.839  1.00  0.00    -0.508 OA
ATOM     27  H   UNL     1      26.408  22.240   1.613  1.00  0.00     0.293 HD
ENDBRANCH   8  26
TORSDOF 6
ENDMDL
MODEL 4
REMARK VINA RESULT:    28.041      1.482      3.026
REMARK INTER + INTRA:          33.351
REMARK INTER:                  33.680
REMARK INTRA:                  -0.329
REMARK UNBOUND:                -0.427
REMARK SMILES O=c1c(O)c(-c2ccc(O)cc2O)oc2cc(O)cc(O)c12
REMARK SMILES IDX 5 1 3 2 2 3 1 4 22 5 20 6 19 7 17 8 16 9 15 10 14 11 6 12
REMARK SMILES IDX 8 13 7 14 9 15 11 16 12 17 10 18 13 20 4 22 21 24 18 26
REMARK H PARENT 10 19 13 21 4 23 21 25 18 27
REMARK Flexibility Score: inf
ROOT
ATOM      1  C   UNL     1      26.068  30.459   5.118  1.00  0.00     0.184 A 
ATOM      2  C   UNL     1      25.501  29.247   4.686  1.00  0.00     0.208 A 
ATOM      3  C   UNL     1      25.992  28.649   3.516  1.00  0.00     0.238 A 
ATOM      4  O   UNL     1      25.484  27.567   3.112  1.00  0.00    -0.285 OA
ATOM      5  C   UNL     1      27.049  29.261   2.811  1.00  0.00     0.111 A 
ATOM      6  C   UNL     1      27.604  28.722   1.625  1.00  0.00     0.134 A 
ATOM      7  C   UNL     1      28.662  29.387   0.988  1.00  0.00     0.093 A 
ATOM      8  C   UNL     1      29.175  30.578   1.513  1.00  0.00     0.123 A 
ATOM      9  C   UNL     1      28.631  31.113   2.682  1.00  0.00     0.094 A 
ATOM     10  C   UNL     1      27.575  30.468   3.332  1.00  0.00     0.146 A 
ATOM     11  O   UNL     1      27.074  31.002   4.440  1.00  0.00    -0.451 OA
ENDROOT
BRANCH   1  12
ATOM     12  C   UNL     1      25.591  31.148   6.335  1.00  0.00     0.063 A 
ATOM     13  C   UNL     1      24.270  32.929   7.332  1.00  0.00     0.047 A 
ATOM     14  C   UNL     1      24.743  32.258   6.202  1.00  0.00     0.020 A 
ATOM     15  C   UNL     1      24.626  32.490   8.611  1.00  0.00     0.119 A 
ATOM     16  C   UNL     1      25.452  31.369   8.756  1.00  0.00     0.093 A 
ATOM     17  C   UNL     1      25.927  30.686   7.625  1.00  0.00     0.130 A 
BRANCH  15  18
ATOM     18  O   UNL     1      24.149  33.172   9.727  1.00  0.00    -0.508 OA
ATOM     19  H   UNL     1      23.168  33.150   9.982  1.00  0.00     0.293 HD
ENDBRANCH  15  18
BRANCH  17  20
ATOM     20  O   UNL     1      26.709  29.542   7.784  1.00  0.00    -0.507 OA
ATOM     21  H   UNL     1      27.626  29.580   8.214  1.00  0.00     0.293 HD
ENDBRANCH  17  20
ENDBRANCH   1  12
BRANCH   2  22
ATOM     22  O   UNL     1      24.485  28.642   5.431  1.00  0.00    -0.502 OA
ATOM     23  H   UNL     1      24.676  28.077   6.249  1.00  0.00     0.293 HD
ENDBRANCH   2  22
BRANCH   6  24
ATOM     24  O   UNL     1      27.114  27.536   1.078  1.00  0.00    -0.507 OA
ATOM     25  H   UNL     1      26.166  27.223   1.245  1.00  0.00     0.293 HD
ENDBRANCH   6  24
BRANCH   8  26
ATOM     26  O   UNL     1      30.226  31.237   0.881  1.00  0.00    -0.508 OA
ATOM     27  H   UNL     1      30.209  31.432  -0.113  1.00  0.00     0.293 HD
ENDBRANCH   8  26
TORSDOF 6
ENDMDL
