MODEL 1
REMARK VINA RESULT:    -6.622      0.000      0.000
REMARK INTER + INTRA:          -8.353
REMARK INTER:                  -7.977
REMARK INTRA:                  -0.376
REMARK UNBOUND:                -0.376
REMARK SMILES O=c1c(O)c(-c2ccc(O)cc2O)oc2cc(O)cc(O)c12
REMARK SMILES IDX 5 1 3 2 2 3 1 4 22 5 20 6 19 7 17 8 16 9 15 10 14 11 6 12
REMARK SMILES IDX 8 13 7 14 9 15 11 16 12 17 10 18 13 20 4 22 21 24 18 26
REMARK H PARENT 10 19 13 21 4 23 21 25 18 27
REMARK Flexibility Score: inf
ROOT
ATOM      1  C   UNL     1     -96.469  83.115 207.930  1.00  0.00     0.184 A 
ATOM      2  C   UNL     1     -96.323  82.478 209.172  1.00  0.00     0.208 A 
ATOM      3  C   UNL     1     -96.471  81.084 209.241  1.00  0.00     0.238 A 
ATOM      4  O   UNL     1     -96.392  80.523 210.366  1.00  0.00    -0.285 OA
ATOM      5  C   UNL     1     -96.747  80.345 208.066  1.00  0.00     0.111 A 
ATOM      6  C   UNL     1     -96.877  78.925 208.012  1.00  0.00     0.134 A 
ATOM      7  C   UNL     1     -97.279  78.312 206.819  1.00  0.00     0.093 A 
ATOM      8  C   UNL     1     -97.493  79.063 205.660  1.00  0.00     0.123 A 
ATOM      9  C   UNL     1     -97.310  80.443 205.687  1.00  0.00     0.094 A 
ATOM     10  C   UNL     1     -96.945  81.087 206.871  1.00  0.00     0.146 A 
ATOM     11  O   UNL     1     -96.792  82.406 206.856  1.00  0.00    -0.451 OA
ENDROOT
BRANCH   1  12
ATOM     12  C   UNL     1     -96.309  84.578 207.784  1.00  0.00     0.063 A 
ATOM     13  C   UNL     1     -94.875  86.535 207.928  1.00  0.00     0.047 A 
ATOM     14  C   UNL     1     -95.059  85.156 208.052  1.00  0.00     0.020 A 
ATOM     15  C   UNL     1     -95.944  87.356 207.549  1.00  0.00     0.119 A 
ATOM     16  C   UNL     1     -97.199  86.791 207.304  1.00  0.00     0.093 A 
ATOM     17  C   UNL     1     -97.394  85.408 207.430  1.00  0.00     0.130 A 
BRANCH  15  18
ATOM     18  O   UNL     1     -95.772  88.732 207.420  1.00  0.00    -0.508 OA
ATOM     19  H   UNL     1     -95.938  89.362 208.197  1.00  0.00     0.293 HD
ENDBRANCH  15  18
BRANCH  17  20
ATOM     20  O   UNL     1     -98.662  84.863 207.229  1.00  0.00    -0.507 OA
ATOM     21  H   UNL     1     -98.789  83.890 206.980  1.00  0.00     0.293 HD
ENDBRANCH  17  20
ENDBRANCH   1  12
BRANCH   2  22
ATOM     22  O   UNL     1     -96.068  83.233 210.320  1.00  0.00    -0.502 OA
ATOM     23  H   UNL     1     -96.742  83.325 211.070  1.00  0.00     0.293 HD
ENDBRANCH   2  22
BRANCH   6  24
ATOM     24  O   UNL     1     -96.599  78.075 209.087  1.00  0.00    -0.507 OA
ATOM     25  H   UNL     1     -96.585  78.357 210.055  1.00  0.00     0.293 HD
ENDBRANCH   6  24
BRANCH   8  26
ATOM     26  O   UNL     1     -97.877  78.443 204.473  1.00  0.00    -0.508 OA
ATOM     27  H   UNL     1     -97.202  78.205 203.757  1.00  0.00     0.293 HD
ENDBRANCH   8  26
TORSDOF 6
ENDMDL
MODEL 2
REMARK VINA RESULT:    -6.577      1.961      3.269
REMARK INTER + INTRA:          -8.299
REMARK INTER:                  -7.895
REMARK INTRA:                  -0.404
REMARK UNBOUND:                -0.376
REMARK SMILES O=c1c(O)c(-c2ccc(O)cc2O)oc2cc(O)cc(O)c12
REMARK SMILES IDX 5 1 3 2 2 3 1 4 22 5 20 6 19 7 17 8 16 9 15 10 14 11 6 12
REMARK SMILES IDX 8 13 7 14 9 15 11 16 12 17 10 18 13 20 4 22 21 24 18 26
REMARK H PARENT 10 19 13 21 4 23 21 25 18 27
REMARK Flexibility Score: inf
ROOT
ATOM      1  C   UNL     1     -96.498  82.222 208.385  1.00  0.00     0.184 A 
ATOM      2  C   UNL     1     -95.956  81.535 207.288  1.00  0.00     0.208 A 
ATOM      3  C   UNL     1     -96.415  80.240 207.002  1.00  0.00     0.238 A 
ATOM      4  O   UNL     1     -95.888  79.609 206.049  1.00  0.00    -0.285 OA
ATOM      5  C   UNL     1     -97.421  79.655 207.809  1.00  0.00     0.111 A 
ATOM      6  C   UNL     1     -97.989  78.364 207.588  1.00  0.00     0.134 A 
ATOM      7  C   UNL     1     -98.884  77.834 208.525  1.00  0.00     0.093 A 
ATOM      8  C   UNL     1     -99.281  78.574 209.641  1.00  0.00     0.123 A 
ATOM      9  C   UNL     1     -98.778  79.859 209.834  1.00  0.00     0.094 A 
ATOM     10  C   UNL     1     -97.856  80.401 208.936  1.00  0.00     0.146 A 
ATOM     11  O   UNL     1     -97.392  81.624 209.164  1.00  0.00    -0.451 OA
ENDROOT
BRANCH   1  12
ATOM     12  C   UNL     1     -96.072  83.594 208.731  1.00  0.00     0.063 A 
ATOM     13  C   UNL     1     -96.002  85.954 208.155  1.00  0.00     0.047 A 
ATOM     14  C   UNL     1     -96.395  84.647 207.861  1.00  0.00     0.020 A 
ATOM     15  C   UNL     1     -95.269  86.225 209.318  1.00  0.00     0.119 A 
ATOM     16  C   UNL     1     -94.923  85.178 210.178  1.00  0.00     0.093 A 
ATOM     17  C   UNL     1     -95.308  83.861 209.887  1.00  0.00     0.130 A 
BRANCH  15  18
ATOM     18  O   UNL     1     -94.875  87.525 209.623  1.00  0.00    -0.508 OA
ATOM     19  H   UNL     1     -95.135  87.965 210.499  1.00  0.00     0.293 HD
ENDBRANCH  15  18
BRANCH  17  20
ATOM     20  O   UNL     1     -94.914  82.821 210.729  1.00  0.00    -0.507 OA
ATOM     21  H   UNL     1     -95.114  81.853 210.506  1.00  0.00     0.293 HD
ENDBRANCH  17  20
ENDBRANCH   1  12
BRANCH   2  22
ATOM     22  O   UNL     1     -94.952  82.129 206.518  1.00  0.00    -0.502 OA
ATOM     23  H   UNL     1     -93.968  81.965 206.690  1.00  0.00     0.293 HD
ENDBRANCH   2  22
BRANCH   6  24
ATOM     24  O   UNL     1     -97.731  77.581 206.459  1.00  0.00    -0.507 OA
ATOM     25  H   UNL     1     -98.429  77.067 205.944  1.00  0.00     0.293 HD
ENDBRANCH   6  24
BRANCH   8  26
ATOM     26  O   UNL     1    -100.185  78.045 210.560  1.00  0.00    -0.508 OA
ATOM     27  H   UNL     1    -101.146  78.361 210.600  1.00  0.00     0.293 HD
ENDBRANCH   8  26
TORSDOF 6
ENDMDL
MODEL 3
REMARK VINA RESULT:    -6.376      1.934      3.292
REMARK INTER + INTRA:          -8.057
REMARK INTER:                  -7.653
REMARK INTRA:                  -0.404
REMARK UNBOUND:                -0.376
REMARK SMILES O=c1c(O)c(-c2ccc(O)cc2O)oc2cc(O)cc(O)c12
REMARK SMILES IDX 5 1 3 2 2 3 1 4 22 5 20 6 19 7 17 8 16 9 15 10 14 11 6 12
REMARK SMILES IDX 8 13 7 14 9 15 11 16 12 17 10 18 13 20 4 22 21 24 18 26
REMARK H PARENT 10 19 13 21 4 23 21 25 18 27
REMARK Flexibility Score: inf
ROOT
ATOM      1  C   UNL     1     -96.395  86.035 208.451  1.00  0.00     0.184 A 
ATOM      2  C   UNL     1     -95.612  85.506 209.489  1.00  0.00     0.208 A 
ATOM      3  C   UNL     1     -95.536  84.112 209.639  1.00  0.00     0.238 A 
ATOM      4  O   UNL     1     -94.875  83.644 210.604  1.00  0.00    -0.285 OA
ATOM      5  C   UNL     1     -96.232  83.267 208.741  1.00  0.00     0.111 A 
ATOM      6  C   UNL     1     -96.194  81.841 208.775  1.00  0.00     0.134 A 
ATOM      7  C   UNL     1     -97.023  81.107 207.919  1.00  0.00     0.093 A 
ATOM      8  C   UNL     1     -97.842  81.747 206.985  1.00  0.00     0.123 A 
ATOM      9  C   UNL     1     -97.841  83.138 206.904  1.00  0.00     0.094 A 
ATOM     10  C   UNL     1     -97.051  83.898 207.768  1.00  0.00     0.146 A 
ATOM     11  O   UNL     1     -97.089  85.222 207.665  1.00  0.00    -0.451 OA
ENDROOT
BRANCH   1  12
ATOM     12  C   UNL     1     -96.505  87.492 208.227  1.00  0.00     0.063 A 
ATOM     13  C   UNL     1     -97.559  89.607 208.796  1.00  0.00     0.047 A 
ATOM     14  C   UNL     1     -97.426  88.230 208.987  1.00  0.00     0.020 A 
ATOM     15  C   UNL     1     -96.782  90.262 207.832  1.00  0.00     0.119 A 
ATOM     16  C   UNL     1     -95.880  89.531 207.054  1.00  0.00     0.093 A 
ATOM     17  C   UNL     1     -95.744  88.146 207.236  1.00  0.00     0.130 A 
BRANCH  15  18
ATOM     18  O   UNL     1     -96.904  91.636 207.635  1.00  0.00    -0.508 OA
ATOM     19  H   UNL     1     -97.750  92.043 207.253  1.00  0.00     0.293 HD
ENDBRANCH  15  18
BRANCH  17  20
ATOM     20  O   UNL     1     -94.876  87.421 206.419  1.00  0.00    -0.507 OA
ATOM     21  H   UNL     1     -93.904  87.686 206.310  1.00  0.00     0.293 HD
ENDBRANCH  17  20
ENDBRANCH   1  12
BRANCH   2  22
ATOM     22  O   UNL     1     -94.950  86.362 210.373  1.00  0.00    -0.502 OA
ATOM     23  H   UNL     1     -94.929  86.201 211.372  1.00  0.00     0.293 HD
ENDBRANCH   2  22
BRANCH   6  24
ATOM     24  O   UNL     1     -95.345  81.102 209.606  1.00  0.00    -0.507 OA
ATOM     25  H   UNL     1     -95.653  80.505 210.358  1.00  0.00     0.293 HD
ENDBRANCH   6  24
BRANCH   8  26
ATOM     26  O   UNL     1     -98.652  81.009 206.126  1.00  0.00    -0.508 OA
ATOM     27  H   UNL     1     -99.482  80.533 206.459  1.00  0.00     0.293 HD
ENDBRANCH   8  26
TORSDOF 6
ENDMDL
MODEL 4
REMARK VINA RESULT:    -6.291      1.925      2.784
REMARK INTER + INTRA:          -7.954
REMARK INTER:                  -7.549
REMARK INTRA:                  -0.405
REMARK UNBOUND:                -0.376
REMARK SMILES O=c1c(O)c(-c2ccc(O)cc2O)oc2cc(O)cc(O)c12
REMARK SMILES IDX 5 1 3 2 2 3 1 4 22 5 20 6 19 7 17 8 16 9 15 10 14 11 6 12
REMARK SMILES IDX 8 13 7 14 9 15 11 16 12 17 10 18 13 20 4 22 21 24 18 26
REMARK H PARENT 10 19 13 21 4 23 21 25 18 27
REMARK Flexibility Score: inf
ROOT
ATOM      1  C   UNL     1     -96.698  82.163 208.317  1.00  0.00     0.184 A 
ATOM      2  C   UNL     1     -95.903  81.425 207.427  1.00  0.00     0.208 A 
ATOM      3  C   UNL     1     -96.136  80.048 207.289  1.00  0.00     0.238 A 
ATOM      4  O   UNL     1     -95.385  79.381 206.530  1.00  0.00    -0.285 OA
ATOM      5  C   UNL     1     -97.172  79.431 208.032  1.00  0.00     0.111 A 
ATOM      6  C   UNL     1     -97.523  78.051 207.941  1.00  0.00     0.134 A 
ATOM      7  C   UNL     1     -98.479  77.522 208.817  1.00  0.00     0.093 A 
ATOM      8  C   UNL     1     -99.142  78.338 209.737  1.00  0.00     0.123 A 
ATOM      9  C   UNL     1     -98.849  79.698 209.792  1.00  0.00     0.094 A 
ATOM     10  C   UNL     1     -97.875  80.248 208.956  1.00  0.00     0.146 A 
ATOM     11  O   UNL     1     -97.618  81.548 209.049  1.00  0.00    -0.451 OA
ENDROOT
BRANCH   1  12
ATOM     12  C   UNL     1     -96.516  83.619 208.498  1.00  0.00     0.063 A 
ATOM     13  C   UNL     1     -95.416  85.446 209.664  1.00  0.00     0.047 A 
ATOM     14  C   UNL     1     -95.607  84.077 209.464  1.00  0.00     0.020 A 
ATOM     15  C   UNL     1     -96.141  86.376 208.908  1.00  0.00     0.119 A 
ATOM     16  C   UNL     1     -97.066  85.928 207.961  1.00  0.00     0.093 A 
ATOM     17  C   UNL     1     -97.269  84.555 207.757  1.00  0.00     0.130 A 
BRANCH  15  18
ATOM     18  O   UNL     1     -95.956  87.743 209.096  1.00  0.00    -0.508 OA
ATOM     19  H   UNL     1     -95.128  88.108 209.554  1.00  0.00     0.293 HD
ENDBRANCH  15  18
BRANCH  17  20
ATOM     20  O   UNL     1     -98.230  84.123 206.843  1.00  0.00    -0.507 OA
ATOM     21  H   UNL     1     -98.254  84.473 205.893  1.00  0.00     0.293 HD
ENDBRANCH  17  20
ENDBRANCH   1  12
BRANCH   2  22
ATOM     22  O   UNL     1     -94.875  82.055 206.720  1.00  0.00    -0.502 OA
ATOM     23  H   UNL     1     -93.935  82.141 207.088  1.00  0.00     0.293 HD
ENDBRANCH   2  22
BRANCH   6  24
ATOM     24  O   UNL     1     -96.987  77.170 206.997  1.00  0.00    -0.507 OA
ATOM     25  H   UNL     1     -96.769  76.200 207.174  1.00  0.00     0.293 HD
ENDBRANCH   6  24
BRANCH   8  26
ATOM     26  O   UNL     1    -100.104  77.806 210.594  1.00  0.00    -0.508 OA
ATOM     27  H   UNL     1     -99.947  77.745 211.593  1.00  0.00     0.293 HD
ENDBRANCH   8  26
TORSDOF 6
ENDMDL
MODEL 5
REMARK VINA RESULT:    -6.214      1.743      2.730
REMARK INTER + INTRA:          -7.862
REMARK INTER:                  -7.559
REMARK INTRA:                  -0.303
REMARK UNBOUND:                -0.376
REMARK SMILES O=c1c(O)c(-c2ccc(O)cc2O)oc2cc(O)cc(O)c12
REMARK SMILES IDX 5 1 3 2 2 3 1 4 22 5 20 6 19 7 17 8 16 9 15 10 14 11 6 12
REMARK SMILES IDX 8 13 7 14 9 15 11 16 12 17 10 18 13 20 4 22 21 24 18 26
REMARK H PARENT 10 19 13 21 4 23 21 25 18 27
REMARK Flexibility Score: inf
ROOT
ATOM      1  C   UNL     1     -96.310  85.532 208.230  1.00  0.00     0.184 A 
ATOM      2  C   UNL     1     -95.616  85.056 209.353  1.00  0.00     0.208 A 
ATOM      3  C   UNL     1     -95.644  83.682 209.638  1.00  0.00     0.238 A 
ATOM      4  O   UNL     1     -95.065  83.267 210.676  1.00  0.00    -0.285 OA
ATOM      5  C   UNL     1     -96.354  82.800 208.786  1.00  0.00     0.111 A 
ATOM      6  C   UNL     1     -96.417  81.385 208.956  1.00  0.00     0.134 A 
ATOM      7  C   UNL     1     -97.254  80.627 208.128  1.00  0.00     0.093 A 
ATOM      8  C   UNL     1     -97.980  81.225 207.095  1.00  0.00     0.123 A 
ATOM      9  C   UNL     1     -97.878  82.598 206.884  1.00  0.00     0.094 A 
ATOM     10  C   UNL     1     -97.080  83.386 207.715  1.00  0.00     0.146 A 
ATOM     11  O   UNL     1     -97.020  84.693 207.487  1.00  0.00    -0.451 OA
ENDROOT
BRANCH   1  12
ATOM     12  C   UNL     1     -96.307  86.964 207.864  1.00  0.00     0.063 A 
ATOM     13  C   UNL     1     -95.588  88.717 206.341  1.00  0.00     0.047 A 
ATOM     14  C   UNL     1     -95.616  87.371 206.712  1.00  0.00     0.020 A 
ATOM     15  C   UNL     1     -96.241  89.677 207.125  1.00  0.00     0.119 A 
ATOM     16  C   UNL     1     -96.911  89.283 208.287  1.00  0.00     0.093 A 
ATOM     17  C   UNL     1     -96.939  87.934 208.670  1.00  0.00     0.130 A 
BRANCH  15  18
ATOM     18  O   UNL     1     -96.223  91.021 206.763  1.00  0.00    -0.508 OA
ATOM     19  H   UNL     1     -95.956  91.744 207.423  1.00  0.00     0.293 HD
ENDBRANCH  15  18
BRANCH  17  20
ATOM     20  O   UNL     1     -97.571  87.562 209.857  1.00  0.00    -0.507 OA
ATOM     21  H   UNL     1     -97.885  86.612 210.016  1.00  0.00     0.293 HD
ENDBRANCH  17  20
ENDBRANCH   1  12
BRANCH   2  22
ATOM     22  O   UNL     1     -94.939  85.949 210.187  1.00  0.00    -0.502 OA
ATOM     23  H   UNL     1     -94.012  86.297 209.973  1.00  0.00     0.293 HD
ENDBRANCH   2  22
BRANCH   6  24
ATOM     24  O   UNL     1     -95.663  80.677 209.896  1.00  0.00    -0.507 OA
ATOM     25  H   UNL     1     -95.984  80.425 210.819  1.00  0.00     0.293 HD
ENDBRANCH   6  24
BRANCH   8  26
ATOM     26  O   UNL     1     -98.799  80.460 206.267  1.00  0.00    -0.508 OA
ATOM     27  H   UNL     1     -98.411  79.839 205.567  1.00  0.00     0.293 HD
ENDBRANCH   8  26
TORSDOF 6
ENDMDL
MODEL 6
REMARK VINA RESULT:    -6.177      3.343      6.051
REMARK INTER + INTRA:          -7.817
REMARK INTER:                  -7.398
REMARK INTRA:                  -0.419
REMARK UNBOUND:                -0.376
REMARK SMILES O=c1c(O)c(-c2ccc(O)cc2O)oc2cc(O)cc(O)c12
REMARK SMILES IDX 5 1 3 2 2 3 1 4 22 5 20 6 19 7 17 8 16 9 15 10 14 11 6 12
REMARK SMILES IDX 8 13 7 14 9 15 11 16 12 17 10 18 13 20 4 22 21 24 18 26
REMARK H PARENT 10 19 13 21 4 23 21 25 18 27
REMARK Flexibility Score: inf
ROOT
ATOM      1  C   UNL     1     -98.813  86.184 206.297  1.00  0.00     0.184 A 
ATOM      2  C   UNL     1     -98.517  87.279 207.123  1.00  0.00     0.208 A 
ATOM      3  C   UNL     1     -97.588  87.115 208.162  1.00  0.00     0.238 A 
ATOM      4  O   UNL     1     -97.365  88.085 208.933  1.00  0.00    -0.285 OA
ATOM      5  C   UNL     1     -96.956  85.862 208.351  1.00  0.00     0.111 A 
ATOM      6  C   UNL     1     -95.969  85.593 209.346  1.00  0.00     0.134 A 
ATOM      7  C   UNL     1     -95.507  84.283 209.525  1.00  0.00     0.093 A 
ATOM      8  C   UNL     1     -95.949  83.245 208.701  1.00  0.00     0.123 A 
ATOM      9  C   UNL     1     -96.866  83.509 207.687  1.00  0.00     0.094 A 
ATOM     10  C   UNL     1     -97.373  84.798 207.508  1.00  0.00     0.146 A 
ATOM     11  O   UNL     1     -98.256  85.004 206.537  1.00  0.00    -0.451 OA
ENDROOT
BRANCH   1  12
ATOM     12  C   UNL     1     -99.769  86.294 205.174  1.00  0.00     0.063 A 
ATOM     13  C   UNL     1    -100.280  87.150 202.958  1.00  0.00     0.047 A 
ATOM     14  C   UNL     1     -99.398  87.022 204.033  1.00  0.00     0.020 A 
ATOM     15  C   UNL     1    -101.549  86.562 203.014  1.00  0.00     0.119 A 
ATOM     16  C   UNL     1    -101.936  85.855 204.157  1.00  0.00     0.093 A 
ATOM     17  C   UNL     1    -101.058  85.726 205.244  1.00  0.00     0.130 A 
BRANCH  15  18
ATOM     18  O   UNL     1    -102.436  86.680 201.946  1.00  0.00    -0.508 OA
ATOM     19  H   UNL     1    -102.208  86.318 201.027  1.00  0.00     0.293 HD
ENDBRANCH  15  18
BRANCH  17  20
ATOM     20  O   UNL     1    -101.474  85.060 206.397  1.00  0.00    -0.507 OA
ATOM     21  H   UNL     1    -100.914  85.057 207.240  1.00  0.00     0.293 HD
ENDBRANCH  17  20
ENDBRANCH   1  12
BRANCH   2  22
ATOM     22  O   UNL     1     -99.168  88.500 206.927  1.00  0.00    -0.502 OA
ATOM     23  H   UNL     1     -98.752  89.260 206.401  1.00  0.00     0.293 HD
ENDBRANCH   2  22
BRANCH   6  24
ATOM     24  O   UNL     1     -95.395  86.573 210.161  1.00  0.00    -0.507 OA
ATOM     25  H   UNL     1     -95.909  87.300 210.636  1.00  0.00     0.293 HD
ENDBRANCH   6  24
BRANCH   8  26
ATOM     26  O   UNL     1     -95.471  81.948 208.875  1.00  0.00    -0.508 OA
ATOM     27  H   UNL     1     -95.980  81.266 209.425  1.00  0.00     0.293 HD
ENDBRANCH   8  26
TORSDOF 6
ENDMDL
MODEL 7
REMARK VINA RESULT:    -6.064      2.089      6.881
REMARK INTER + INTRA:          -7.680
REMARK INTER:                  -7.268
REMARK INTRA:                  -0.413
REMARK UNBOUND:                -0.376
REMARK SMILES O=c1c(O)c(-c2ccc(O)cc2O)oc2cc(O)cc(O)c12
REMARK SMILES IDX 5 1 3 2 2 3 1 4 22 5 20 6 19 7 17 8 16 9 15 10 14 11 6 12
REMARK SMILES IDX 8 13 7 14 9 15 11 16 12 17 10 18 13 20 4 22 21 24 18 26
REMARK H PARENT 10 19 13 21 4 23 21 25 18 27
REMARK Flexibility Score: inf
ROOT
ATOM      1  C   UNL     1     -97.201  82.890 207.753  1.00  0.00     0.184 A 
ATOM      2  C   UNL     1     -98.234  82.940 206.804  1.00  0.00     0.208 A 
ATOM      3  C   UNL     1     -98.753  84.189 206.429  1.00  0.00     0.238 A 
ATOM      4  O   UNL     1     -99.715  84.225 205.618  1.00  0.00    -0.285 OA
ATOM      5  C   UNL     1     -98.219  85.372 206.996  1.00  0.00     0.111 A 
ATOM      6  C   UNL     1     -98.641  86.694 206.659  1.00  0.00     0.134 A 
ATOM      7  C   UNL     1     -98.135  87.784 207.377  1.00  0.00     0.093 A 
ATOM      8  C   UNL     1     -97.173  87.606 208.375  1.00  0.00     0.123 A 
ATOM      9  C   UNL     1     -96.712  86.325 208.669  1.00  0.00     0.094 A 
ATOM     10  C   UNL     1     -97.224  85.215 207.996  1.00  0.00     0.146 A 
ATOM     11  O   UNL     1     -96.766  84.010 208.316  1.00  0.00    -0.451 OA
ENDROOT
BRANCH   1  12
ATOM     12  C   UNL     1     -96.599  81.610 208.180  1.00  0.00     0.063 A 
ATOM     13  C   UNL     1     -96.587  79.733 209.724  1.00  0.00     0.047 A 
ATOM     14  C   UNL     1     -97.136  80.942 209.291  1.00  0.00     0.020 A 
ATOM     15  C   UNL     1     -95.485  79.182 209.059  1.00  0.00     0.119 A 
ATOM     16  C   UNL     1     -94.929  79.852 207.965  1.00  0.00     0.093 A 
ATOM     17  C   UNL     1     -95.471  81.070 207.527  1.00  0.00     0.130 A 
BRANCH  15  18
ATOM     18  O   UNL     1     -94.932  77.974 209.480  1.00  0.00    -0.508 OA
ATOM     19  H   UNL     1     -94.071  77.945 210.014  1.00  0.00     0.293 HD
ENDBRANCH  15  18
BRANCH  17  20
ATOM     20  O   UNL     1     -94.876  81.752 206.465  1.00  0.00    -0.507 OA
ATOM     21  H   UNL     1     -94.939  81.411 205.513  1.00  0.00     0.293 HD
ENDBRANCH  17  20
ENDBRANCH   1  12
BRANCH   2  22
ATOM     22  O   UNL     1     -98.755  81.756 206.274  1.00  0.00    -0.502 OA
ATOM     23  H   UNL     1     -99.674  81.708 205.853  1.00  0.00     0.293 HD
ENDBRANCH   2  22
BRANCH   6  24
ATOM     24  O   UNL     1     -99.527  86.989 205.619  1.00  0.00    -0.507 OA
ATOM     25  H   UNL     1    -100.353  87.561 205.711  1.00  0.00     0.293 HD
ENDBRANCH   6  24
BRANCH   8  26
ATOM     26  O   UNL     1     -96.663  88.698 209.073  1.00  0.00    -0.508 OA
ATOM     27  H   UNL     1     -95.836  88.618 209.651  1.00  0.00     0.293 HD
ENDBRANCH   8  26
TORSDOF 6
ENDMDL
MODEL 8
REMARK VINA RESULT:    -5.913      2.504      4.302
REMARK INTER + INTRA:          -7.499
REMARK INTER:                  -7.116
REMARK INTRA:                  -0.383
REMARK UNBOUND:                -0.376
REMARK SMILES O=c1c(O)c(-c2ccc(O)cc2O)oc2cc(O)cc(O)c12
REMARK SMILES IDX 5 1 3 2 2 3 1 4 22 5 20 6 19 7 17 8 16 9 15 10 14 11 6 12
REMARK SMILES IDX 8 13 7 14 9 15 11 16 12 17 10 18 13 20 4 22 21 24 18 26
REMARK H PARENT 10 19 13 21 4 23 21 25 18 27
REMARK Flexibility Score: inf
ROOT
ATOM      1  C   UNL     1     -97.275  80.883 208.698  1.00  0.00     0.184 A 
ATOM      2  C   UNL     1     -97.271  79.914 207.682  1.00  0.00     0.208 A 
ATOM      3  C   UNL     1     -97.741  78.624 207.971  1.00  0.00     0.238 A 
ATOM      4  O   UNL     1     -97.686  77.745 207.071  1.00  0.00    -0.285 OA
ATOM      5  C   UNL     1     -98.223  78.324 209.269  1.00  0.00     0.111 A 
ATOM      6  C   UNL     1     -98.759  77.061 209.662  1.00  0.00     0.134 A 
ATOM      7  C   UNL     1     -99.085  76.838 211.005  1.00  0.00     0.093 A 
ATOM      8  C   UNL     1     -98.955  77.853 211.957  1.00  0.00     0.123 A 
ATOM      9  C   UNL     1     -98.489  79.107 211.570  1.00  0.00     0.094 A 
ATOM     10  C   UNL     1     -98.121  79.350 210.246  1.00  0.00     0.146 A 
ATOM     11  O   UNL     1     -97.670  80.556 209.922  1.00  0.00    -0.451 OA
ENDROOT
BRANCH   1  12
ATOM     12  C   UNL     1     -96.809  82.265 208.456  1.00  0.00     0.063 A 
ATOM     13  C   UNL     1     -97.107  84.385 207.304  1.00  0.00     0.047 A 
ATOM     14  C   UNL     1     -97.523  83.076 207.560  1.00  0.00     0.020 A 
ATOM     15  C   UNL     1     -95.964  84.895 207.931  1.00  0.00     0.119 A 
ATOM     16  C   UNL     1     -95.233  84.085 208.806  1.00  0.00     0.093 A 
ATOM     17  C   UNL     1     -95.641  82.768 209.065  1.00  0.00     0.130 A 
BRANCH  15  18
ATOM     18  O   UNL     1     -95.541  86.200 207.687  1.00  0.00    -0.508 OA
ATOM     19  H   UNL     1     -94.571  86.413 207.484  1.00  0.00     0.293 HD
ENDBRANCH  15  18
BRANCH  17  20
ATOM     20  O   UNL     1     -94.875  81.956 209.902  1.00  0.00    -0.507 OA
ATOM     21  H   UNL     1     -94.849  80.950 209.787  1.00  0.00     0.293 HD
ENDBRANCH  17  20
ENDBRANCH   1  12
BRANCH   2  22
ATOM     22  O   UNL     1     -96.774  80.232 206.415  1.00  0.00    -0.502 OA
ATOM     23  H   UNL     1     -96.219  81.061 206.241  1.00  0.00     0.293 HD
ENDBRANCH   2  22
BRANCH   6  24
ATOM     24  O   UNL     1     -99.015  76.011 208.776  1.00  0.00    -0.507 OA
ATOM     25  H   UNL     1     -98.502  75.143 208.749  1.00  0.00     0.293 HD
ENDBRANCH   6  24
BRANCH   8  26
ATOM     26  O   UNL     1     -99.297  77.627 213.288  1.00  0.00    -0.508 OA
ATOM     27  H   UNL     1     -98.718  77.060 213.895  1.00  0.00     0.293 HD
ENDBRANCH   8  26
TORSDOF 6
ENDMDL
