MODEL 1
REMARK VINA RESULT:    -3.314      0.000      0.000
REMARK INTER + INTRA:          -4.283
REMARK INTER:                  -3.992
REMARK INTRA:                  -0.291
REMARK UNBOUND:                -0.291
REMARK SMILES O=c1c(O)c(-c2ccc(O)c(O)c2)oc2cc(O)cc(O)c12
REMARK SMILES IDX 5 1 3 2 2 3 1 4 22 5 20 6 19 7 17 8 16 9 15 10 14 11 6 12
REMARK SMILES IDX 7 13 8 14 9 15 13 16 11 17 10 18 12 20 4 22 21 24 18 26
REMARK H PARENT 10 19 12 21 4 23 21 25 18 27
REMARK Flexibility Score: inf
ROOT
ATOM      1  C   UNL     1      -6.862  -1.518   4.091  1.00  0.00     0.180 A 
ATOM      2  C   UNL     1      -7.987  -2.292   4.423  1.00  0.00     0.208 A 
ATOM      3  C   UNL     1      -8.744  -1.943   5.553  1.00  0.00     0.238 A 
ATOM      4  O   UNL     1      -9.781  -2.606   5.813  1.00  0.00    -0.285 OA
ATOM      5  C   UNL     1      -8.358  -0.836   6.345  1.00  0.00     0.111 A 
ATOM      6  C   UNL     1      -9.029  -0.417   7.533  1.00  0.00     0.134 A 
ATOM      7  C   UNL     1      -8.638   0.772   8.164  1.00  0.00     0.093 A 
ATOM      8  C   UNL     1      -7.558   1.519   7.688  1.00  0.00     0.123 A 
ATOM      9  C   UNL     1      -6.860   1.086   6.563  1.00  0.00     0.094 A 
ATOM     10  C   UNL     1      -7.250  -0.074   5.890  1.00  0.00     0.146 A 
ATOM     11  O   UNL     1      -6.563  -0.446   4.816  1.00  0.00    -0.452 OA
ENDROOT
BRANCH   1  12
ATOM     12  C   UNL     1      -6.000  -1.839   2.931  1.00  0.00     0.025 A 
ATOM     13  C   UNL     1      -4.809  -2.554   3.132  1.00  0.00     0.016 A 
ATOM     14  C   UNL     1      -3.990  -2.886   2.049  1.00  0.00     0.051 A 
ATOM     15  C   UNL     1      -4.355  -2.522   0.750  1.00  0.00     0.157 A 
ATOM     16  C   UNL     1      -6.375  -1.491   1.621  1.00  0.00     0.062 A 
ATOM     17  C   UNL     1      -5.555  -1.825   0.532  1.00  0.00     0.158 A 
BRANCH  15  18
ATOM     18  O   UNL     1      -3.517  -2.863  -0.311  1.00  0.00    -0.504 OA
ATOM     19  H   UNL     1      -2.509  -2.894  -0.213  1.00  0.00     0.293 HD
ENDBRANCH  15  18
BRANCH  17  20
ATOM     20  O   UNL     1      -5.933  -1.470  -0.763  1.00  0.00    -0.504 OA
ATOM     21  H   UNL     1      -6.158  -0.513  -1.006  1.00  0.00     0.293 HD
ENDBRANCH  17  20
ENDBRANCH   1  12
BRANCH   2  22
ATOM     22  O   UNL     1      -8.363  -3.369   3.615  1.00  0.00    -0.502 OA
ATOM     23  H   UNL     1      -8.843  -3.244   2.732  1.00  0.00     0.293 HD
ENDBRANCH   2  22
BRANCH   6  24
ATOM     24  O   UNL     1     -10.057  -1.138   8.145  1.00  0.00    -0.507 OA
ATOM     25  H   UNL     1      -9.999  -1.557   9.062  1.00  0.00     0.293 HD
ENDBRANCH   6  24
BRANCH   8  26
ATOM     26  O   UNL     1      -7.166   2.691   8.330  1.00  0.00    -0.508 OA
ATOM     27  H   UNL     1      -7.750   3.132   9.032  1.00  0.00     0.293 HD
ENDBRANCH   8  26
TORSDOF 6
ENDMDL
MODEL 2
REMARK VINA RESULT:    -3.211      2.030      7.639
REMARK INTER + INTRA:          -4.158
REMARK INTER:                  -3.824
REMARK INTRA:                  -0.334
REMARK UNBOUND:                -0.291
REMARK SMILES O=c1c(O)c(-c2ccc(O)c(O)c2)oc2cc(O)cc(O)c12
REMARK SMILES IDX 5 1 3 2 2 3 1 4 22 5 20 6 19 7 17 8 16 9 15 10 14 11 6 12
REMARK SMILES IDX 7 13 8 14 9 15 13 16 11 17 10 18 12 20 4 22 21 24 18 26
REMARK H PARENT 10 19 12 21 4 23 21 25 18 27
REMARK Flexibility Score: inf
ROOT
ATOM      1  C   UNL     1      -6.372  -1.935   2.087  1.00  0.00     0.180 A 
ATOM      2  C   UNL     1      -5.040  -2.331   1.872  1.00  0.00     0.208 A 
ATOM      3  C   UNL     1      -4.613  -2.605   0.563  1.00  0.00     0.238 A 
ATOM      4  O   UNL     1      -3.407  -2.905   0.372  1.00  0.00    -0.285 OA
ATOM      5  C   UNL     1      -5.526  -2.494  -0.513  1.00  0.00     0.111 A 
ATOM      6  C   UNL     1      -5.212  -2.785  -1.874  1.00  0.00     0.134 A 
ATOM      7  C   UNL     1      -6.156  -2.515  -2.874  1.00  0.00     0.093 A 
ATOM      8  C   UNL     1      -7.425  -2.027  -2.553  1.00  0.00     0.123 A 
ATOM      9  C   UNL     1      -7.761  -1.796  -1.221  1.00  0.00     0.094 A 
ATOM     10  C   UNL     1      -6.828  -2.021  -0.206  1.00  0.00     0.146 A 
ATOM     11  O   UNL     1      -7.187  -1.777   1.049  1.00  0.00    -0.452 OA
ENDROOT
BRANCH   1  12
ATOM     12  C   UNL     1      -6.902  -1.655   3.440  1.00  0.00     0.025 A 
ATOM     13  C   UNL     1      -6.889  -0.339   3.929  1.00  0.00     0.016 A 
ATOM     14  C   UNL     1      -7.404  -0.048   5.195  1.00  0.00     0.051 A 
ATOM     15  C   UNL     1      -7.951  -1.063   5.986  1.00  0.00     0.157 A 
ATOM     16  C   UNL     1      -7.472  -2.671   4.228  1.00  0.00     0.062 A 
ATOM     17  C   UNL     1      -7.991  -2.381   5.499  1.00  0.00     0.158 A 
BRANCH  15  18
ATOM     18  O   UNL     1      -8.454  -0.744   7.246  1.00  0.00    -0.504 OA
ATOM     19  H   UNL     1      -7.933  -0.180   7.907  1.00  0.00     0.293 HD
ENDBRANCH  15  18
BRANCH  17  20
ATOM     20  O   UNL     1      -8.549  -3.396   6.277  1.00  0.00    -0.504 OA
ATOM     21  H   UNL     1      -9.121  -4.124   5.867  1.00  0.00     0.293 HD
ENDBRANCH  17  20
ENDBRANCH   1  12
BRANCH   2  22
ATOM     22  O   UNL     1      -4.150  -2.412   2.947  1.00  0.00    -0.502 OA
ATOM     23  H   UNL     1      -3.968  -1.630   3.563  1.00  0.00     0.293 HD
ENDBRANCH   2  22
BRANCH   6  24
ATOM     24  O   UNL     1      -4.009  -3.361  -2.293  1.00  0.00    -0.507 OA
ATOM     25  H   UNL     1      -3.308  -3.740  -1.674  1.00  0.00     0.293 HD
ENDBRANCH   6  24
BRANCH   8  26
ATOM     26  O   UNL     1      -8.363  -1.776  -3.551  1.00  0.00    -0.508 OA
ATOM     27  H   UNL     1      -9.055  -1.042  -3.457  1.00  0.00     0.293 HD
ENDBRANCH   8  26
TORSDOF 6
ENDMDL
MODEL 3
REMARK VINA RESULT:    -3.135      3.269      7.521
REMARK INTER + INTRA:          -4.067
REMARK INTER:                  -3.745
REMARK INTRA:                  -0.322
REMARK UNBOUND:                -0.291
REMARK SMILES O=c1c(O)c(-c2ccc(O)c(O)c2)oc2cc(O)cc(O)c12
REMARK SMILES IDX 5 1 3 2 2 3 1 4 22 5 20 6 19 7 17 8 16 9 15 10 14 11 6 12
REMARK SMILES IDX 7 13 8 14 9 15 13 16 11 17 10 18 12 20 4 22 21 24 18 26
REMARK H PARENT 10 19 12 21 4 23 21 25 18 27
REMARK Flexibility Score: inf
ROOT
ATOM      1  C   UNL     1      -7.002  -2.236   1.050  1.00  0.00     0.180 A 
ATOM      2  C   UNL     1      -6.093  -2.044  -0.004  1.00  0.00     0.208 A 
ATOM      3  C   UNL     1      -6.572  -2.034  -1.324  1.00  0.00     0.238 A 
ATOM      4  O   UNL     1      -5.762  -1.807  -2.259  1.00  0.00    -0.285 OA
ATOM      5  C   UNL     1      -7.951  -2.233  -1.574  1.00  0.00     0.111 A 
ATOM      6  C   UNL     1      -8.540  -2.281  -2.874  1.00  0.00     0.134 A 
ATOM      7  C   UNL     1      -9.933  -2.351  -2.998  1.00  0.00     0.093 A 
ATOM      8  C   UNL     1     -10.754  -2.441  -1.871  1.00  0.00     0.123 A 
ATOM      9  C   UNL     1     -10.184  -2.454  -0.600  1.00  0.00     0.094 A 
ATOM     10  C   UNL     1      -8.800  -2.348  -0.443  1.00  0.00     0.146 A 
ATOM     11  O   UNL     1      -8.299  -2.353   0.787  1.00  0.00    -0.452 OA
ENDROOT
BRANCH   1  12
ATOM     12  C   UNL     1      -6.570  -2.284   2.465  1.00  0.00     0.025 A 
ATOM     13  C   UNL     1      -6.715  -1.145   3.271  1.00  0.00     0.016 A 
ATOM     14  C   UNL     1      -6.333  -1.173   4.615  1.00  0.00     0.051 A 
ATOM     15  C   UNL     1      -5.814  -2.343   5.177  1.00  0.00     0.157 A 
ATOM     16  C   UNL     1      -6.066  -3.467   3.037  1.00  0.00     0.062 A 
ATOM     17  C   UNL     1      -5.684  -3.498   4.387  1.00  0.00     0.158 A 
BRANCH  15  18
ATOM     18  O   UNL     1      -5.438  -2.342   6.519  1.00  0.00    -0.504 OA
ATOM     19  H   UNL     1      -5.500  -1.511   7.096  1.00  0.00     0.293 HD
ENDBRANCH  15  18
BRANCH  17  20
ATOM     20  O   UNL     1      -5.180  -4.673   4.944  1.00  0.00    -0.504 OA
ATOM     21  H   UNL     1      -4.199  -4.771   5.177  1.00  0.00     0.293 HD
ENDBRANCH  17  20
ENDBRANCH   1  12
BRANCH   2  22
ATOM     22  O   UNL     1      -4.739  -1.828   0.266  1.00  0.00    -0.502 OA
ATOM     23  H   UNL     1      -4.421  -1.326   1.087  1.00  0.00     0.293 HD
ENDBRANCH   2  22
BRANCH   6  24
ATOM     24  O   UNL     1      -7.806  -2.292  -4.063  1.00  0.00    -0.507 OA
ATOM     25  H   UNL     1      -7.898  -2.987  -4.789  1.00  0.00     0.293 HD
ENDBRANCH   6  24
BRANCH   8  26
ATOM     26  O   UNL     1     -12.137  -2.526  -2.004  1.00  0.00    -0.508 OA
ATOM     27  H   UNL     1     -12.601  -3.413  -2.164  1.00  0.00     0.293 HD
ENDBRANCH   8  26
TORSDOF 6
ENDMDL
MODEL 4
REMARK VINA RESULT:    -3.116      1.777      7.225
REMARK INTER + INTRA:          -4.044
REMARK INTER:                  -3.722
REMARK INTRA:                  -0.322
REMARK UNBOUND:                -0.291
REMARK SMILES O=c1c(O)c(-c2ccc(O)c(O)c2)oc2cc(O)cc(O)c12
REMARK SMILES IDX 5 1 3 2 2 3 1 4 22 5 20 6 19 7 17 8 16 9 15 10 14 11 6 12
REMARK SMILES IDX 7 13 8 14 9 15 13 16 11 17 10 18 12 20 4 22 21 24 18 26
REMARK H PARENT 10 19 12 21 4 23 21 25 18 27
REMARK Flexibility Score: inf
ROOT
ATOM      1  C   UNL     1      -5.729  -1.997   3.309  1.00  0.00     0.180 A 
ATOM      2  C   UNL     1      -6.064  -1.802   1.958  1.00  0.00     0.208 A 
ATOM      3  C   UNL     1      -5.118  -2.115   0.969  1.00  0.00     0.238 A 
ATOM      4  O   UNL     1      -5.444  -1.990  -0.240  1.00  0.00    -0.285 OA
ATOM      5  C   UNL     1      -3.843  -2.604   1.344  1.00  0.00     0.111 A 
ATOM      6  C   UNL     1      -2.794  -2.915   0.427  1.00  0.00     0.134 A 
ATOM      7  C   UNL     1      -1.620  -3.516   0.900  1.00  0.00     0.093 A 
ATOM      8  C   UNL     1      -1.432  -3.755   2.263  1.00  0.00     0.123 A 
ATOM      9  C   UNL     1      -2.426  -3.400   3.172  1.00  0.00     0.094 A 
ATOM     10  C   UNL     1      -3.623  -2.833   2.727  1.00  0.00     0.146 A 
ATOM     11  O   UNL     1      -4.549  -2.519   3.625  1.00  0.00    -0.452 OA
ENDROOT
BRANCH   1  12
ATOM     12  C   UNL     1      -6.664  -1.666   4.408  1.00  0.00     0.025 A 
ATOM     13  C   UNL     1      -6.701  -0.357   4.913  1.00  0.00     0.016 A 
ATOM     14  C   UNL     1      -7.589  -0.017   5.936  1.00  0.00     0.051 A 
ATOM     15  C   UNL     1      -8.463  -0.973   6.461  1.00  0.00     0.157 A 
ATOM     16  C   UNL     1      -7.557  -2.623   4.923  1.00  0.00     0.062 A 
ATOM     17  C   UNL     1      -8.452  -2.282   5.949  1.00  0.00     0.158 A 
BRANCH  15  18
ATOM     18  O   UNL     1      -9.336  -0.606   7.483  1.00  0.00    -0.504 OA
ATOM     19  H   UNL     1     -10.172  -0.061   7.308  1.00  0.00     0.293 HD
ENDBRANCH  15  18
BRANCH  17  20
ATOM     20  O   UNL     1      -9.330  -3.239   6.458  1.00  0.00    -0.504 OA
ATOM     21  H   UNL     1     -10.330  -3.172   6.310  1.00  0.00     0.293 HD
ENDBRANCH  17  20
ENDBRANCH   1  12
BRANCH   2  22
ATOM     22  O   UNL     1      -7.337  -1.339   1.609  1.00  0.00    -0.502 OA
ATOM     23  H   UNL     1      -7.593  -1.119   0.655  1.00  0.00     0.293 HD
ENDBRANCH   2  22
BRANCH   6  24
ATOM     24  O   UNL     1      -2.843  -2.633  -0.941  1.00  0.00    -0.507 OA
ATOM     25  H   UNL     1      -2.597  -3.284  -1.671  1.00  0.00     0.293 HD
ENDBRANCH   6  24
BRANCH   8  26
ATOM     26  O   UNL     1      -0.255  -4.338   2.727  1.00  0.00    -0.508 OA
ATOM     27  H   UNL     1       0.339  -4.890   2.118  1.00  0.00     0.293 HD
ENDBRANCH   8  26
TORSDOF 6
ENDMDL
MODEL 5
REMARK VINA RESULT:    -3.090      9.194     10.466
REMARK INTER + INTRA:          -4.013
REMARK INTER:                  -3.693
REMARK INTRA:                  -0.321
REMARK UNBOUND:                -0.291
REMARK SMILES O=c1c(O)c(-c2ccc(O)c(O)c2)oc2cc(O)cc(O)c12
REMARK SMILES IDX 5 1 3 2 2 3 1 4 22 5 20 6 19 7 17 8 16 9 15 10 14 11 6 12
REMARK SMILES IDX 7 13 8 14 9 15 13 16 11 17 10 18 12 20 4 22 21 24 18 26
REMARK H PARENT 10 19 12 21 4 23 21 25 18 27
REMARK Flexibility Score: inf
ROOT
ATOM      1  C   UNL     1      -7.071   6.882  -1.564  1.00  0.00     0.180 A 
ATOM      2  C   UNL     1      -7.338   8.155  -1.030  1.00  0.00     0.208 A 
ATOM      3  C   UNL     1      -8.575   8.386  -0.407  1.00  0.00     0.238 A 
ATOM      4  O   UNL     1      -8.785   9.511   0.117  1.00  0.00    -0.285 OA
ATOM      5  C   UNL     1      -9.534   7.348  -0.339  1.00  0.00     0.111 A 
ATOM      6  C   UNL     1     -10.834   7.484   0.234  1.00  0.00     0.134 A 
ATOM      7  C   UNL     1     -11.652   6.354   0.365  1.00  0.00     0.093 A 
ATOM      8  C   UNL     1     -11.243   5.109  -0.117  1.00  0.00     0.123 A 
ATOM      9  C   UNL     1     -10.000   4.979  -0.731  1.00  0.00     0.094 A 
ATOM     10  C   UNL     1      -9.146   6.080  -0.842  1.00  0.00     0.146 A 
ATOM     11  O   UNL     1      -7.966   5.910  -1.426  1.00  0.00    -0.452 OA
ENDROOT
BRANCH   1  12
ATOM     12  C   UNL     1      -5.801   6.569  -2.258  1.00  0.00     0.025 A 
ATOM     13  C   UNL     1      -5.671   6.862  -3.625  1.00  0.00     0.016 A 
ATOM     14  C   UNL     1      -4.475   6.594  -4.296  1.00  0.00     0.051 A 
ATOM     15  C   UNL     1      -3.388   6.045  -3.611  1.00  0.00     0.157 A 
ATOM     16  C   UNL     1      -4.700   6.035  -1.565  1.00  0.00     0.062 A 
ATOM     17  C   UNL     1      -3.497   5.768  -2.237  1.00  0.00     0.158 A 
BRANCH  15  18
ATOM     18  O   UNL     1      -2.208   5.785  -4.306  1.00  0.00    -0.504 OA
ATOM     19  H   UNL     1      -1.494   6.492  -4.440  1.00  0.00     0.293 HD
ENDBRANCH  15  18
BRANCH  17  20
ATOM     20  O   UNL     1      -2.412   5.232  -1.544  1.00  0.00    -0.504 OA
ATOM     21  H   UNL     1      -1.496   5.663  -1.578  1.00  0.00     0.293 HD
ENDBRANCH  17  20
ENDBRANCH   1  12
BRANCH   2  22
ATOM     22  O   UNL     1      -6.367   9.159  -1.089  1.00  0.00    -0.502 OA
ATOM     23  H   UNL     1      -6.488  10.060  -0.642  1.00  0.00     0.293 HD
ENDBRANCH   2  22
BRANCH   6  24
ATOM     24  O   UNL     1     -11.376   8.699   0.662  1.00  0.00    -0.507 OA
ATOM     25  H   UNL     1     -12.341   8.972   0.544  1.00  0.00     0.293 HD
ENDBRANCH   6  24
BRANCH   8  26
ATOM     26  O   UNL     1     -12.069   3.994   0.003  1.00  0.00    -0.508 OA
ATOM     27  H   UNL     1     -11.913   3.156  -0.546  1.00  0.00     0.293 HD
ENDBRANCH   8  26
TORSDOF 6
ENDMDL
MODEL 6
REMARK VINA RESULT:    -3.070      2.392      3.468
REMARK INTER + INTRA:          -3.989
REMARK INTER:                  -3.683
REMARK INTRA:                  -0.306
REMARK UNBOUND:                -0.291
REMARK SMILES O=c1c(O)c(-c2ccc(O)c(O)c2)oc2cc(O)cc(O)c12
REMARK SMILES IDX 5 1 3 2 2 3 1 4 22 5 20 6 19 7 17 8 16 9 15 10 14 11 6 12
REMARK SMILES IDX 7 13 8 14 9 15 13 16 11 17 10 18 12 20 4 22 21 24 18 26
REMARK H PARENT 10 19 12 21 4 23 21 25 18 27
REMARK Flexibility Score: inf
ROOT
ATOM      1  C   UNL     1      -6.613  -2.269   1.928  1.00  0.00     0.180 A 
ATOM      2  C   UNL     1      -6.224  -3.440   2.601  1.00  0.00     0.208 A 
ATOM      3  C   UNL     1      -6.009  -3.389   3.988  1.00  0.00     0.238 A 
ATOM      4  O   UNL     1      -5.714  -4.453   4.592  1.00  0.00    -0.285 OA
ATOM      5  C   UNL     1      -6.170  -2.166   4.681  1.00  0.00     0.111 A 
ATOM      6  C   UNL     1      -5.939  -1.991   6.078  1.00  0.00     0.134 A 
ATOM      7  C   UNL     1      -6.257  -0.768   6.683  1.00  0.00     0.093 A 
ATOM      8  C   UNL     1      -6.733   0.307   5.928  1.00  0.00     0.123 A 
ATOM      9  C   UNL     1      -6.905   0.164   4.553  1.00  0.00     0.094 A 
ATOM     10  C   UNL     1      -6.632  -1.056   3.928  1.00  0.00     0.146 A 
ATOM     11  O   UNL     1      -6.820  -1.152   2.617  1.00  0.00    -0.452 OA
ENDROOT
BRANCH   1  12
ATOM     12  C   UNL     1      -6.833  -2.238   0.464  1.00  0.00     0.025 A 
ATOM     13  C   UNL     1      -8.144  -2.229  -0.038  1.00  0.00     0.016 A 
ATOM     14  C   UNL     1      -8.376  -2.179  -1.414  1.00  0.00     0.051 A 
ATOM     15  C   UNL     1      -7.304  -2.121  -2.310  1.00  0.00     0.157 A 
ATOM     16  C   UNL     1      -5.756  -2.159  -0.437  1.00  0.00     0.062 A 
ATOM     17  C   UNL     1      -5.987  -2.106  -1.820  1.00  0.00     0.158 A 
BRANCH  15  18
ATOM     18  O   UNL     1      -7.565  -2.075  -3.678  1.00  0.00    -0.504 OA
ATOM     19  H   UNL     1      -8.441  -1.725  -4.048  1.00  0.00     0.293 HD
ENDBRANCH  15  18
BRANCH  17  20
ATOM     20  O   UNL     1      -4.913  -2.035  -2.707  1.00  0.00    -0.504 OA
ATOM     21  H   UNL     1      -4.152  -1.380  -2.567  1.00  0.00     0.293 HD
ENDBRANCH  17  20
ENDBRANCH   1  12
BRANCH   2  22
ATOM     22  O   UNL     1      -6.092  -4.642   1.900  1.00  0.00    -0.502 OA
ATOM     23  H   UNL     1      -6.891  -5.187   1.599  1.00  0.00     0.293 HD
ENDBRANCH   2  22
BRANCH   6  24
ATOM     24  O   UNL     1      -5.380  -2.969   6.906  1.00  0.00    -0.507 OA
ATOM     25  H   UNL     1      -5.098  -2.818   7.863  1.00  0.00     0.293 HD
ENDBRANCH   6  24
BRANCH   8  26
ATOM     26  O   UNL     1      -7.031   1.525   6.534  1.00  0.00    -0.508 OA
ATOM     27  H   UNL     1      -7.935   1.968   6.417  1.00  0.00     0.293 HD
ENDBRANCH   8  26
TORSDOF 6
ENDMDL
MODEL 7
REMARK VINA RESULT:    -3.056      8.695      9.619
REMARK INTER + INTRA:          -3.972
REMARK INTER:                  -3.649
REMARK INTRA:                  -0.323
REMARK UNBOUND:                -0.291
REMARK SMILES O=c1c(O)c(-c2ccc(O)c(O)c2)oc2cc(O)cc(O)c12
REMARK SMILES IDX 5 1 3 2 2 3 1 4 22 5 20 6 19 7 17 8 16 9 15 10 14 11 6 12
REMARK SMILES IDX 7 13 8 14 9 15 13 16 11 17 10 18 12 20 4 22 21 24 18 26
REMARK H PARENT 10 19 12 21 4 23 21 25 18 27
REMARK Flexibility Score: inf
ROOT
ATOM      1  C   UNL     1      -1.723   5.021   1.666  1.00  0.00     0.180 A 
ATOM      2  C   UNL     1      -2.121   4.738   0.348  1.00  0.00     0.208 A 
ATOM      3  C   UNL     1      -3.312   5.300  -0.140  1.00  0.00     0.238 A 
ATOM      4  O   UNL     1      -3.634   5.087  -1.337  1.00  0.00    -0.285 OA
ATOM      5  C   UNL     1      -4.097   6.124   0.701  1.00  0.00     0.111 A 
ATOM      6  C   UNL     1      -5.341   6.713   0.324  1.00  0.00     0.134 A 
ATOM      7  C   UNL     1      -5.968   7.617   1.191  1.00  0.00     0.093 A 
ATOM      8  C   UNL     1      -5.429   7.902   2.448  1.00  0.00     0.123 A 
ATOM      9  C   UNL     1      -4.246   7.286   2.848  1.00  0.00     0.094 A 
ATOM     10  C   UNL     1      -3.578   6.408   1.991  1.00  0.00     0.146 A 
ATOM     11  O   UNL     1      -2.448   5.851   2.408  1.00  0.00    -0.452 OA
ENDROOT
BRANCH   1  12
ATOM     12  C   UNL     1      -0.494   4.446   2.259  1.00  0.00     0.025 A 
ATOM     13  C   UNL     1      -0.551   3.188   2.881  1.00  0.00     0.016 A 
ATOM     14  C   UNL     1       0.599   2.616   3.429  1.00  0.00     0.051 A 
ATOM     15  C   UNL     1       1.826   3.283   3.353  1.00  0.00     0.157 A 
ATOM     16  C   UNL     1       0.743   5.106   2.165  1.00  0.00     0.062 A 
ATOM     17  C   UNL     1       1.901   4.533   2.713  1.00  0.00     0.158 A 
BRANCH  15  18
ATOM     18  O   UNL     1       2.957   2.690   3.911  1.00  0.00    -0.504 OA
ATOM     19  H   UNL     1       3.732   2.369   3.344  1.00  0.00     0.293 HD
ENDBRANCH  15  18
BRANCH  17  20
ATOM     20  O   UNL     1       3.123   5.198   2.621  1.00  0.00    -0.504 OA
ATOM     21  H   UNL     1       3.472   5.545   1.736  1.00  0.00     0.293 HD
ENDBRANCH  17  20
ENDBRANCH   1  12
BRANCH   2  22
ATOM     22  O   UNL     1      -1.318   3.939  -0.472  1.00  0.00    -0.502 OA
ATOM     23  H   UNL     1      -1.579   3.700  -1.421  1.00  0.00     0.293 HD
ENDBRANCH   2  22
BRANCH   6  24
ATOM     24  O   UNL     1      -6.012   6.426  -0.868  1.00  0.00    -0.507 OA
ATOM     25  H   UNL     1      -6.360   7.119  -1.514  1.00  0.00     0.293 HD
ENDBRANCH   6  24
BRANCH   8  26
ATOM     26  O   UNL     1      -6.067   8.790   3.310  1.00  0.00    -0.508 OA
ATOM     27  H   UNL     1      -5.878   8.791   4.306  1.00  0.00     0.293 HD
ENDBRANCH   8  26
TORSDOF 6
ENDMDL
MODEL 8
REMARK VINA RESULT:    -3.017      9.393     12.614
REMARK INTER + INTRA:          -3.925
REMARK INTER:                  -3.593
REMARK INTRA:                  -0.332
REMARK UNBOUND:                -0.291
REMARK SMILES O=c1c(O)c(-c2ccc(O)c(O)c2)oc2cc(O)cc(O)c12
REMARK SMILES IDX 5 1 3 2 2 3 1 4 22 5 20 6 19 7 17 8 16 9 15 10 14 11 6 12
REMARK SMILES IDX 7 13 8 14 9 15 13 16 11 17 10 18 12 20 4 22 21 24 18 26
REMARK H PARENT 10 19 12 21 4 23 21 25 18 27
REMARK Flexibility Score: inf
ROOT
ATOM      1  C   UNL     1      -6.457   6.558  -2.320  1.00  0.00     0.180 A 
ATOM      2  C   UNL     1      -5.214   6.192  -1.775  1.00  0.00     0.208 A 
ATOM      3  C   UNL     1      -4.101   6.092  -2.625  1.00  0.00     0.238 A 
ATOM      4  O   UNL     1      -2.980   5.818  -2.123  1.00  0.00    -0.285 OA
ATOM      5  C   UNL     1      -4.248   6.343  -4.010  1.00  0.00     0.111 A 
ATOM      6  C   UNL     1      -3.196   6.232  -4.969  1.00  0.00     0.134 A 
ATOM      7  C   UNL     1      -3.423   6.631  -6.292  1.00  0.00     0.093 A 
ATOM      8  C   UNL     1      -4.682   7.074  -6.705  1.00  0.00     0.123 A 
ATOM      9  C   UNL     1      -5.730   7.130  -5.790  1.00  0.00     0.094 A 
ATOM     10  C   UNL     1      -5.525   6.774  -4.455  1.00  0.00     0.146 A 
ATOM     11  O   UNL     1      -6.549   6.851  -3.613  1.00  0.00    -0.452 OA
ENDROOT
BRANCH   1  12
ATOM     12  C   UNL     1      -7.681   6.659  -1.493  1.00  0.00     0.025 A 
ATOM     13  C   UNL     1      -8.075   7.910  -0.993  1.00  0.00     0.016 A 
ATOM     14  C   UNL     1      -9.237   8.033  -0.227  1.00  0.00     0.051 A 
ATOM     15  C   UNL     1     -10.031   6.913   0.038  1.00  0.00     0.157 A 
ATOM     16  C   UNL     1      -8.491   5.537  -1.243  1.00  0.00     0.062 A 
ATOM     17  C   UNL     1      -9.660   5.659  -0.476  1.00  0.00     0.158 A 
BRANCH  15  18
ATOM     18  O   UNL     1     -11.184   7.065   0.807  1.00  0.00    -0.504 OA
ATOM     19  H   UNL     1     -11.489   7.969   1.147  1.00  0.00     0.293 HD
ENDBRANCH  15  18
BRANCH  17  20
ATOM     20  O   UNL     1     -10.454   4.540  -0.228  1.00  0.00    -0.504 OA
ATOM     21  H   UNL     1     -11.456   4.617  -0.105  1.00  0.00     0.293 HD
ENDBRANCH  17  20
ENDBRANCH   1  12
BRANCH   2  22
ATOM     22  O   UNL     1      -5.087   5.970  -0.401  1.00  0.00    -0.502 OA
ATOM     23  H   UNL     1      -5.372   5.104   0.039  1.00  0.00     0.293 HD
ENDBRANCH   2  22
BRANCH   6  24
ATOM     24  O   UNL     1      -1.929   5.715  -4.683  1.00  0.00    -0.507 OA
ATOM     25  H   UNL     1      -1.107   5.862  -5.249  1.00  0.00     0.293 HD
ENDBRANCH   6  24
BRANCH   8  26
ATOM     26  O   UNL     1      -4.903   7.454  -8.027  1.00  0.00    -0.508 OA
ATOM     27  H   UNL     1      -5.806   7.794  -8.336  1.00  0.00     0.293 HD
ENDBRANCH   8  26
TORSDOF 6
ENDMDL
MODEL 9
REMARK VINA RESULT:    -3.006      2.225      6.754
REMARK INTER + INTRA:          -3.911
REMARK INTER:                  -3.593
REMARK INTRA:                  -0.319
REMARK UNBOUND:                -0.291
REMARK SMILES O=c1c(O)c(-c2ccc(O)c(O)c2)oc2cc(O)cc(O)c12
REMARK SMILES IDX 5 1 3 2 2 3 1 4 22 5 20 6 19 7 17 8 16 9 15 10 14 11 6 12
REMARK SMILES IDX 7 13 8 14 9 15 13 16 11 17 10 18 12 20 4 22 21 24 18 26
REMARK H PARENT 10 19 12 21 4 23 21 25 18 27
REMARK Flexibility Score: inf
ROOT
ATOM      1  C   UNL     1      -6.935  -1.814   3.183  1.00  0.00     0.180 A 
ATOM      2  C   UNL     1      -8.047  -2.673   3.143  1.00  0.00     0.208 A 
ATOM      3  C   UNL     1      -8.396  -3.281   1.926  1.00  0.00     0.238 A 
ATOM      4  O   UNL     1      -9.358  -4.091   1.911  1.00  0.00    -0.285 OA
ATOM      5  C   UNL     1      -7.639  -3.009   0.762  1.00  0.00     0.111 A 
ATOM      6  C   UNL     1      -7.927  -3.539  -0.532  1.00  0.00     0.134 A 
ATOM      7  C   UNL     1      -7.034  -3.309  -1.587  1.00  0.00     0.093 A 
ATOM      8  C   UNL     1      -5.900  -2.513  -1.410  1.00  0.00     0.123 A 
ATOM      9  C   UNL     1      -5.642  -1.944  -0.165  1.00  0.00     0.094 A 
ATOM     10  C   UNL     1      -6.494  -2.186   0.915  1.00  0.00     0.146 A 
ATOM     11  O   UNL     1      -6.206  -1.631   2.087  1.00  0.00    -0.452 OA
ENDROOT
BRANCH   1  12
ATOM     12  C   UNL     1      -6.521  -1.116   4.421  1.00  0.00     0.025 A 
ATOM     13  C   UNL     1      -7.030   0.163   4.697  1.00  0.00     0.016 A 
ATOM     14  C   UNL     1      -6.670   0.831   5.869  1.00  0.00     0.051 A 
ATOM     15  C   UNL     1      -5.808   0.228   6.791  1.00  0.00     0.157 A 
ATOM     16  C   UNL     1      -5.671  -1.730   5.358  1.00  0.00     0.062 A 
ATOM     17  C   UNL     1      -5.309  -1.061   6.538  1.00  0.00     0.158 A 
BRANCH  15  18
ATOM     18  O   UNL     1      -5.463   0.920   7.951  1.00  0.00    -0.504 OA
ATOM     19  H   UNL     1      -6.148   1.162   8.657  1.00  0.00     0.293 HD
ENDBRANCH  15  18
BRANCH  17  20
ATOM     20  O   UNL     1      -4.461  -1.675   7.458  1.00  0.00    -0.504 OA
ATOM     21  H   UNL     1      -3.552  -1.288   7.683  1.00  0.00     0.293 HD
ENDBRANCH  17  20
ENDBRANCH   1  12
BRANCH   2  22
ATOM     22  O   UNL     1      -8.767  -2.943   4.310  1.00  0.00    -0.502 OA
ATOM     23  H   UNL     1      -9.227  -2.217   4.847  1.00  0.00     0.293 HD
ENDBRANCH   2  22
BRANCH   6  24
ATOM     24  O   UNL     1      -9.079  -4.268  -0.839  1.00  0.00    -0.507 OA
ATOM     25  H   UNL     1      -9.619  -4.798  -0.171  1.00  0.00     0.293 HD
ENDBRANCH   6  24
BRANCH   8  26
ATOM     26  O   UNL     1      -5.025  -2.277  -2.467  1.00  0.00    -0.508 OA
ATOM     27  H   UNL     1      -5.357  -2.191  -3.421  1.00  0.00     0.293 HD
ENDBRANCH   8  26
TORSDOF 6
ENDMDL
