MODEL 1
REMARK VINA RESULT:    -3.012      0.000      0.000
REMARK INTER + INTRA:          -4.007
REMARK INTER:                  -3.716
REMARK INTRA:                  -0.291
REMARK UNBOUND:                -0.291
REMARK SMILES Oc1cc(O)c2cc(O)c(-c3cc(O)c(O)c(O)c3)[o+]c2c1
REMARK SMILES IDX 10 1 20 2 21 3 22 4 2 5 3 6 4 7 6 8 7 9 8 10 11 11 12 12
REMARK SMILES IDX 13 13 19 14 15 15 17 16 14 17 16 19 18 21 9 23 1 25 5 27
REMARK H PARENT 14 18 16 20 18 22 9 24 1 26 5 28
REMARK Flexibility Score: inf
ROOT
ATOM      1  C   UNL     1      12.269  35.044  13.630  1.00  0.00     0.402 A 
ATOM      2  O   UNL     1      13.003  36.141  13.467  1.00  0.00    -0.202 OA
ATOM      3  C   UNL     1      14.100  36.180  12.716  1.00  0.00     0.368 A 
ATOM      4  C   UNL     1      14.807  37.380  12.609  1.00  0.00     0.162 A 
ATOM      5  C   UNL     1      15.963  37.449  11.830  1.00  0.00     0.128 A 
ATOM      6  C   UNL     1      16.417  36.312  11.152  1.00  0.00     0.093 A 
ATOM      7  C   UNL     1      15.725  35.097  11.245  1.00  0.00     0.136 A 
ATOM      8  C   UNL     1      14.548  35.023  12.033  1.00  0.00     0.125 A 
ATOM      9  C   UNL     1      13.783  33.853  12.172  1.00  0.00     0.078 A 
ATOM     10  C   UNL     1      12.632  33.858  12.965  1.00  0.00     0.223 A 
ENDROOT
BRANCH   1  11
ATOM     11  C   UNL     1      11.073  35.124  14.500  1.00  0.00     0.091 A 
ATOM     12  C   UNL     1       9.775  35.095  13.965  1.00  0.00     0.068 A 
ATOM     13  C   UNL     1       8.652  35.147  14.798  1.00  0.00     0.162 A 
ATOM     14  C   UNL     1      11.234  35.170  15.891  1.00  0.00     0.068 A 
ATOM     15  C   UNL     1       8.824  35.222  16.202  1.00  0.00     0.200 A 
ATOM     16  C   UNL     1      10.124  35.226  16.738  1.00  0.00     0.162 A 
BRANCH  13  17
ATOM     17  O   UNL     1       7.394  35.116  14.192  1.00  0.00    -0.504 OA
ATOM     18  H   UNL     1       7.041  35.837  13.579  1.00  0.00     0.293 HD
ENDBRANCH  13  17
BRANCH  15  19
ATOM     19  O   UNL     1       7.741  35.289  17.082  1.00  0.00    -0.502 OA
ATOM     20  H   UNL     1       7.815  35.550  18.055  1.00  0.00     0.293 HD
ENDBRANCH  15  19
BRANCH  16  21
ATOM     21  O   UNL     1      10.335  35.288  18.115  1.00  0.00    -0.504 OA
ATOM     22  H   UNL     1       9.677  34.903  18.782  1.00  0.00     0.293 HD
ENDBRANCH  16  21
ENDBRANCH   1  11
BRANCH  10  23
ATOM     23  O   UNL     1      11.845  32.710  13.063  1.00  0.00    -0.500 OA
ATOM     24  H   UNL     1      11.950  32.057  13.830  1.00  0.00     0.294 HD
ENDBRANCH  10  23
BRANCH   5  25
ATOM     25  O   UNL     1      16.655  38.654  11.735  1.00  0.00    -0.507 OA
ATOM     26  H   UNL     1      17.611  38.692  11.401  1.00  0.00     0.293 HD
ENDBRANCH   5  25
BRANCH   7  27
ATOM     27  O   UNL     1      16.244  34.006  10.542  1.00  0.00    -0.507 OA
ATOM     28  H   UNL     1      15.716  33.180  10.298  1.00  0.00     0.293 HD
ENDBRANCH   7  27
TORSDOF 7
ENDMDL
MODEL 2
REMARK VINA RESULT:    -1.778      5.238      6.886
REMARK INTER + INTRA:          -2.484
REMARK INTER:                  -2.504
REMARK INTRA:                   0.020
REMARK UNBOUND:                -0.291
REMARK SMILES Oc1cc(O)c2cc(O)c(-c3cc(O)c(O)c(O)c3)[o+]c2c1
REMARK SMILES IDX 10 1 20 2 21 3 22 4 2 5 3 6 4 7 6 8 7 9 8 10 11 11 12 12
REMARK SMILES IDX 13 13 19 14 15 15 17 16 14 17 16 19 18 21 9 23 1 25 5 27
REMARK H PARENT 14 18 16 20 18 22 9 24 1 26 5 28
REMARK Flexibility Score: inf
ROOT
ATOM      1  C   UNL     1      16.164  36.727  11.962  1.00  0.00     0.402 A 
ATOM      2  O   UNL     1      16.368  36.280  13.198  1.00  0.00    -0.202 OA
ATOM      3  C   UNL     1      16.537  34.994  13.490  1.00  0.00     0.368 A 
ATOM      4  C   UNL     1      16.742  34.621  14.821  1.00  0.00     0.162 A 
ATOM      5  C   UNL     1      16.919  33.278  15.157  1.00  0.00     0.128 A 
ATOM      6  C   UNL     1      16.892  32.299  14.157  1.00  0.00     0.093 A 
ATOM      7  C   UNL     1      16.687  32.648  12.816  1.00  0.00     0.136 A 
ATOM      8  C   UNL     1      16.509  34.012  12.469  1.00  0.00     0.125 A 
ATOM      9  C   UNL     1      16.313  34.456  11.151  1.00  0.00     0.078 A 
ATOM     10  C   UNL     1      16.149  35.819  10.887  1.00  0.00     0.223 A 
ENDROOT
BRANCH   1  11
ATOM     11  C   UNL     1      15.980  38.184  11.765  1.00  0.00     0.091 A 
ATOM     12  C   UNL     1      16.636  38.871  10.731  1.00  0.00     0.068 A 
ATOM     13  C   UNL     1      16.436  40.243  10.538  1.00  0.00     0.162 A 
ATOM     14  C   UNL     1      15.089  38.883  12.588  1.00  0.00     0.068 A 
ATOM     15  C   UNL     1      15.555  40.948  11.393  1.00  0.00     0.200 A 
ATOM     16  C   UNL     1      14.880  40.254  12.413  1.00  0.00     0.162 A 
BRANCH  13  17
ATOM     17  O   UNL     1      17.125  40.857   9.490  1.00  0.00    -0.504 OA
ATOM     18  H   UNL     1      17.724  40.367   8.841  1.00  0.00     0.293 HD
ENDBRANCH  13  17
BRANCH  15  19
ATOM     19  O   UNL     1      15.325  42.320  11.257  1.00  0.00    -0.502 OA
ATOM     20  H   UNL     1      15.894  42.938  10.697  1.00  0.00     0.293 HD
ENDBRANCH  15  19
BRANCH  16  21
ATOM     21  O   UNL     1      13.996  40.911  13.268  1.00  0.00    -0.504 OA
ATOM     22  H   UNL     1      14.075  40.856  14.276  1.00  0.00     0.293 HD
ENDBRANCH  16  21
ENDBRANCH   1  11
BRANCH  10  23
ATOM     23  O   UNL     1      16.003  36.264   9.573  1.00  0.00    -0.500 OA
ATOM     24  H   UNL     1      16.793  36.597   9.033  1.00  0.00     0.294 HD
ENDBRANCH  10  23
BRANCH   5  25
ATOM     25  O   UNL     1      17.122  32.925  16.489  1.00  0.00    -0.507 OA
ATOM     26  H   UNL     1      17.973  32.466  16.792  1.00  0.00     0.293 HD
ENDBRANCH   5  25
BRANCH   7  27
ATOM     27  O   UNL     1      16.669  31.613  11.877  1.00  0.00    -0.507 OA
ATOM     28  H   UNL     1      16.418  30.658  12.086  1.00  0.00     0.293 HD
ENDBRANCH   7  27
TORSDOF 7
ENDMDL
MODEL 3
REMARK VINA RESULT:    -1.677      5.193      8.740
REMARK INTER + INTRA:          -2.360
REMARK INTER:                  -2.747
REMARK INTRA:                   0.387
REMARK UNBOUND:                -0.291
REMARK SMILES Oc1cc(O)c2cc(O)c(-c3cc(O)c(O)c(O)c3)[o+]c2c1
REMARK SMILES IDX 10 1 20 2 21 3 22 4 2 5 3 6 4 7 6 8 7 9 8 10 11 11 12 12
REMARK SMILES IDX 13 13 19 14 15 15 17 16 14 17 16 19 18 21 9 23 1 25 5 27
REMARK H PARENT 14 18 16 20 18 22 9 24 1 26 5 28
REMARK Flexibility Score: inf
ROOT
ATOM      1  C   UNL     1      16.615  39.754  11.446  1.00  0.00     0.402 A 
ATOM      2  O   UNL     1      16.259  38.802  10.587  1.00  0.00    -0.202 OA
ATOM      3  C   UNL     1      16.102  37.528  10.934  1.00  0.00     0.368 A 
ATOM      4  C   UNL     1      15.729  36.599   9.958  1.00  0.00     0.162 A 
ATOM      5  C   UNL     1      15.560  35.256  10.292  1.00  0.00     0.128 A 
ATOM      6  C   UNL     1      15.765  34.834  11.611  1.00  0.00     0.093 A 
ATOM      7  C   UNL     1      16.140  35.745  12.607  1.00  0.00     0.136 A 
ATOM      8  C   UNL     1      16.310  37.113  12.272  1.00  0.00     0.125 A 
ATOM      9  C   UNL     1      16.670  38.099  13.205  1.00  0.00     0.078 A 
ATOM     10  C   UNL     1      16.816  39.429  12.800  1.00  0.00     0.223 A 
ENDROOT
BRANCH   1  11
ATOM     11  C   UNL     1      16.767  41.136  10.936  1.00  0.00     0.091 A 
ATOM     12  C   UNL     1      16.885  41.400   9.562  1.00  0.00     0.068 A 
ATOM     13  C   UNL     1      17.003  42.712   9.089  1.00  0.00     0.162 A 
ATOM     14  C   UNL     1      16.734  42.210  11.835  1.00  0.00     0.068 A 
ATOM     15  C   UNL     1      16.997  43.790  10.007  1.00  0.00     0.200 A 
ATOM     16  C   UNL     1      16.855  43.526  11.381  1.00  0.00     0.162 A 
BRANCH  13  17
ATOM     17  O   UNL     1      17.118  42.895   7.710  1.00  0.00    -0.504 OA
ATOM     18  H   UNL     1      17.969  42.748   7.186  1.00  0.00     0.293 HD
ENDBRANCH  13  17
BRANCH  15  19
ATOM     19  O   UNL     1      17.125  45.119   9.595  1.00  0.00    -0.502 OA
ATOM     20  H   UNL     1      17.038  45.915  10.211  1.00  0.00     0.293 HD
ENDBRANCH  15  19
BRANCH  16  21
ATOM     21  O   UNL     1      16.834  44.561  12.315  1.00  0.00    -0.504 OA
ATOM     22  H   UNL     1      16.807  44.389  13.313  1.00  0.00     0.293 HD
ENDBRANCH  16  21
ENDBRANCH   1  11
BRANCH  10  23
ATOM     23  O   UNL     1      17.125  40.415  13.737  1.00  0.00    -0.500 OA
ATOM     24  H   UNL     1      16.405  40.892  14.265  1.00  0.00     0.294 HD
ENDBRANCH  10  23
BRANCH   5  25
ATOM     25  O   UNL     1      15.188  34.344   9.306  1.00  0.00    -0.507 OA
ATOM     26  H   UNL     1      15.832  34.059   8.578  1.00  0.00     0.293 HD
ENDBRANCH   5  25
BRANCH   7  27
ATOM     27  O   UNL     1      16.329  35.246  13.898  1.00  0.00    -0.507 OA
ATOM     28  H   UNL     1      15.637  34.722  14.415  1.00  0.00     0.293 HD
ENDBRANCH   7  27
TORSDOF 7
ENDMDL
MODEL 4
REMARK VINA RESULT:    -1.636      5.181      8.810
REMARK INTER + INTRA:          -2.310
REMARK INTER:                  -2.626
REMARK INTRA:                   0.316
REMARK UNBOUND:                -0.291
REMARK SMILES Oc1cc(O)c2cc(O)c(-c3cc(O)c(O)c(O)c3)[o+]c2c1
REMARK SMILES IDX 10 1 20 2 21 3 22 4 2 5 3 6 4 7 6 8 7 9 8 10 11 11 12 12
REMARK SMILES IDX 13 13 19 14 15 15 17 16 14 17 16 19 18 21 9 23 1 25 5 27
REMARK H PARENT 14 18 16 20 18 22 9 24 1 26 5 28
REMARK Flexibility Score: inf
ROOT
ATOM      1  C   UNL     1      16.514  39.705  11.483  1.00  0.00     0.402 A 
ATOM      2  O   UNL     1      16.126  38.758  10.633  1.00  0.00    -0.202 OA
ATOM      3  C   UNL     1      15.995  37.480  10.975  1.00  0.00     0.368 A 
ATOM      4  C   UNL     1      15.585  36.557  10.009  1.00  0.00     0.162 A 
ATOM      5  C   UNL     1      15.442  35.209  10.338  1.00  0.00     0.128 A 
ATOM      6  C   UNL     1      15.711  34.777  11.643  1.00  0.00     0.093 A 
ATOM      7  C   UNL     1      16.125  35.683  12.628  1.00  0.00     0.136 A 
ATOM      8  C   UNL     1      16.268  37.055  12.298  1.00  0.00     0.125 A 
ATOM      9  C   UNL     1      16.664  38.035  13.223  1.00  0.00     0.078 A 
ATOM     10  C   UNL     1      16.780  39.370  12.824  1.00  0.00     0.223 A 
ENDROOT
BRANCH   1  11
ATOM     11  C   UNL     1      16.632  41.093  10.980  1.00  0.00     0.091 A 
ATOM     12  C   UNL     1      16.624  42.191  11.854  1.00  0.00     0.068 A 
ATOM     13  C   UNL     1      16.760  43.498  11.371  1.00  0.00     0.162 A 
ATOM     14  C   UNL     1      16.814  41.316   9.609  1.00  0.00     0.068 A 
ATOM     15  C   UNL     1      16.916  43.717   9.980  1.00  0.00     0.200 A 
ATOM     16  C   UNL     1      16.948  42.614   9.107  1.00  0.00     0.162 A 
BRANCH  13  17
ATOM     17  O   UNL     1      16.741  44.538  12.301  1.00  0.00    -0.504 OA
ATOM     18  H   UNL     1      16.901  44.417  13.291  1.00  0.00     0.293 HD
ENDBRANCH  13  17
BRANCH  15  19
ATOM     19  O   UNL     1      17.044  44.998   9.438  1.00  0.00    -0.502 OA
ATOM     20  H   UNL     1      17.801  45.286   8.834  1.00  0.00     0.293 HD
ENDBRANCH  15  19
BRANCH  16  21
ATOM     21  O   UNL     1      17.111  42.787   7.733  1.00  0.00    -0.504 OA
ATOM     22  H   UNL     1      17.022  42.022   7.077  1.00  0.00     0.293 HD
ENDBRANCH  16  21
ENDBRANCH   1  11
BRANCH  10  23
ATOM     23  O   UNL     1      17.125  40.351  13.754  1.00  0.00    -0.500 OA
ATOM     24  H   UNL     1      18.080  40.475  14.068  1.00  0.00     0.294 HD
ENDBRANCH  10  23
BRANCH   5  25
ATOM     25  O   UNL     1      15.031  34.304   9.363  1.00  0.00    -0.507 OA
ATOM     26  H   UNL     1      15.061  34.537   8.377  1.00  0.00     0.293 HD
ENDBRANCH   5  25
BRANCH   7  27
ATOM     27  O   UNL     1      16.377  35.174  13.905  1.00  0.00    -0.507 OA
ATOM     28  H   UNL     1      17.070  35.543  14.540  1.00  0.00     0.293 HD
ENDBRANCH   7  27
TORSDOF 7
ENDMDL
MODEL 5
REMARK VINA RESULT:    -0.761      5.288      8.003
REMARK INTER + INTRA:          -1.229
REMARK INTER:                  -1.613
REMARK INTRA:                   0.383
REMARK UNBOUND:                -0.291
REMARK SMILES Oc1cc(O)c2cc(O)c(-c3cc(O)c(O)c(O)c3)[o+]c2c1
REMARK SMILES IDX 10 1 20 2 21 3 22 4 2 5 3 6 4 7 6 8 7 9 8 10 11 11 12 12
REMARK SMILES IDX 13 13 19 14 15 15 17 16 14 17 16 19 18 21 9 23 1 25 5 27
REMARK H PARENT 14 18 16 20 18 22 9 24 1 26 5 28
REMARK Flexibility Score: inf
ROOT
ATOM      1  C   UNL     1      16.541  39.460  11.636  1.00  0.00     0.402 A 
ATOM      2  O   UNL     1      16.366  40.105  10.486  1.00  0.00    -0.202 OA
ATOM      3  C   UNL     1      16.457  41.427  10.369  1.00  0.00     0.368 A 
ATOM      4  C   UNL     1      16.253  42.013   9.117  1.00  0.00     0.162 A 
ATOM      5  C   UNL     1      16.340  43.397   8.965  1.00  0.00     0.128 A 
ATOM      6  C   UNL     1      16.633  44.204  10.071  1.00  0.00     0.093 A 
ATOM      7  C   UNL     1      16.841  43.639  11.337  1.00  0.00     0.136 A 
ATOM      8  C   UNL     1      16.756  42.232  11.495  1.00  0.00     0.125 A 
ATOM      9  C   UNL     1      16.963  41.578  12.720  1.00  0.00     0.078 A 
ATOM     10  C   UNL     1      16.866  40.185  12.798  1.00  0.00     0.223 A 
ENDROOT
BRANCH   1  11
ATOM     11  C   UNL     1      16.403  37.986  11.641  1.00  0.00     0.091 A 
ATOM     12  C   UNL     1      16.530  37.243  12.826  1.00  0.00     0.068 A 
ATOM     13  C   UNL     1      16.374  35.852  12.823  1.00  0.00     0.162 A 
ATOM     14  C   UNL     1      16.081  37.320  10.451  1.00  0.00     0.068 A 
ATOM     15  C   UNL     1      16.076  35.183  11.611  1.00  0.00     0.200 A 
ATOM     16  C   UNL     1      15.925  35.931  10.430  1.00  0.00     0.162 A 
BRANCH  13  17
ATOM     17  O   UNL     1      16.517  35.182  14.040  1.00  0.00    -0.504 OA
ATOM     18  H   UNL     1      15.919  35.327  14.841  1.00  0.00     0.293 HD
ENDBRANCH  13  17
BRANCH  15  19
ATOM     19  O   UNL     1      15.921  33.796  11.545  1.00  0.00    -0.502 OA
ATOM     20  H   UNL     1      15.186  33.284  12.010  1.00  0.00     0.293 HD
ENDBRANCH  15  19
BRANCH  16  21
ATOM     21  O   UNL     1      15.621  35.310   9.219  1.00  0.00    -0.504 OA
ATOM     22  H   UNL     1      16.026  35.610   8.340  1.00  0.00     0.293 HD
ENDBRANCH  16  21
ENDBRANCH   1  11
BRANCH  10  23
ATOM     23  O   UNL     1      17.120  39.532  14.004  1.00  0.00    -0.500 OA
ATOM     24  H   UNL     1      17.521  38.602  14.032  1.00  0.00     0.294 HD
ENDBRANCH  10  23
BRANCH   5  25
ATOM     25  O   UNL     1      16.134  43.964   7.709  1.00  0.00    -0.507 OA
ATOM     26  H   UNL     1      15.484  44.730   7.573  1.00  0.00     0.293 HD
ENDBRANCH   5  25
BRANCH   7  27
ATOM     27  O   UNL     1      17.125  44.511  12.391  1.00  0.00    -0.507 OA
ATOM     28  H   UNL     1      17.751  45.301  12.326  1.00  0.00     0.293 HD
ENDBRANCH   7  27
TORSDOF 7
ENDMDL
MODEL 6
REMARK VINA RESULT:    -0.086      1.955      7.329
REMARK INTER + INTRA:          -0.397
REMARK INTER:                  -0.234
REMARK INTRA:                  -0.162
REMARK UNBOUND:                -0.291
REMARK SMILES Oc1cc(O)c2cc(O)c(-c3cc(O)c(O)c(O)c3)[o+]c2c1
REMARK SMILES IDX 10 1 20 2 21 3 22 4 2 5 3 6 4 7 6 8 7 9 8 10 11 11 12 12
REMARK SMILES IDX 13 13 19 14 15 15 17 16 14 17 16 19 18 21 9 23 1 25 5 27
REMARK H PARENT 14 18 16 20 18 22 9 24 1 26 5 28
REMARK Flexibility Score: inf
ROOT
ATOM      1  C   UNL     1      11.483  34.950  14.042  1.00  0.00     0.402 A 
ATOM      2  O   UNL     1      10.576  34.033  13.716  1.00  0.00    -0.202 OA
ATOM      3  C   UNL     1       9.340  34.023  14.204  1.00  0.00     0.368 A 
ATOM      4  C   UNL     1       8.459  33.015  13.803  1.00  0.00     0.162 A 
ATOM      5  C   UNL     1       7.156  32.978  14.301  1.00  0.00     0.128 A 
ATOM      6  C   UNL     1       6.728  33.956  15.207  1.00  0.00     0.093 A 
ATOM      7  C   UNL     1       7.592  34.976  15.625  1.00  0.00     0.136 A 
ATOM      8  C   UNL     1       8.917  35.019  15.118  1.00  0.00     0.125 A 
ATOM      9  C   UNL     1       9.847  36.011  15.469  1.00  0.00     0.078 A 
ATOM     10  C   UNL     1      11.135  35.989  14.925  1.00  0.00     0.223 A 
ENDROOT
BRANCH   1  11
ATOM     11  C   UNL     1      12.831  34.848  13.438  1.00  0.00     0.091 A 
ATOM     12  C   UNL     1      13.017  34.908  12.048  1.00  0.00     0.068 A 
ATOM     13  C   UNL     1      14.298  34.836  11.489  1.00  0.00     0.162 A 
ATOM     14  C   UNL     1      13.954  34.749  14.271  1.00  0.00     0.068 A 
ATOM     15  C   UNL     1      15.425  34.708  12.336  1.00  0.00     0.200 A 
ATOM     16  C   UNL     1      15.240  34.672  13.730  1.00  0.00     0.162 A 
BRANCH  13  17
ATOM     17  O   UNL     1      14.402  34.901  10.098  1.00  0.00    -0.504 OA
ATOM     18  H   UNL     1      13.870  34.324   9.461  1.00  0.00     0.293 HD
ENDBRANCH  13  17
BRANCH  15  19
ATOM     19  O   UNL     1      16.726  34.618  11.835  1.00  0.00    -0.502 OA
ATOM     20  H   UNL     1      17.526  34.330  12.381  1.00  0.00     0.293 HD
ENDBRANCH  15  19
BRANCH  16  21
ATOM     21  O   UNL     1      16.326  34.557  14.598  1.00  0.00    -0.504 OA
ATOM     22  H   UNL     1      17.183  35.080  14.464  1.00  0.00     0.293 HD
ENDBRANCH  16  21
ENDBRANCH   1  11
BRANCH  10  23
ATOM     23  O   UNL     1      12.042  37.002  15.235  1.00  0.00    -0.500 OA
ATOM     24  H   UNL     1      11.744  37.960  15.377  1.00  0.00     0.294 HD
ENDBRANCH  10  23
BRANCH   5  25
ATOM     25  O   UNL     1       6.293  31.965  13.890  1.00  0.00    -0.507 OA
ATOM     26  H   UNL     1       5.319  31.953  14.171  1.00  0.00     0.293 HD
ENDBRANCH   5  25
BRANCH   7  27
ATOM     27  O   UNL     1       7.091  35.912  16.533  1.00  0.00    -0.507 OA
ATOM     28  H   UNL     1       6.656  35.677  17.414  1.00  0.00     0.293 HD
ENDBRANCH   7  27
TORSDOF 7
ENDMDL
MODEL 7
REMARK VINA RESULT:    -0.051      4.762      8.106
REMARK INTER + INTRA:          -0.354
REMARK INTER:                  -0.693
REMARK INTRA:                   0.339
REMARK UNBOUND:                -0.291
REMARK SMILES Oc1cc(O)c2cc(O)c(-c3cc(O)c(O)c(O)c3)[o+]c2c1
REMARK SMILES IDX 10 1 20 2 21 3 22 4 2 5 3 6 4 7 6 8 7 9 8 10 11 11 12 12
REMARK SMILES IDX 13 13 19 14 15 15 17 16 14 17 16 19 18 21 9 23 1 25 5 27
REMARK H PARENT 14 18 16 20 18 22 9 24 1 26 5 28
REMARK Flexibility Score: inf
ROOT
ATOM      1  C   UNL     1      16.665  38.693  11.027  1.00  0.00     0.402 A 
ATOM      2  O   UNL     1      16.461  38.114  12.207  1.00  0.00    -0.202 OA
ATOM      3  C   UNL     1      16.317  36.801  12.361  1.00  0.00     0.368 A 
ATOM      4  C   UNL     1      16.102  36.286  13.642  1.00  0.00     0.162 A 
ATOM      5  C   UNL     1      15.945  34.913  13.832  1.00  0.00     0.128 A 
ATOM      6  C   UNL     1      16.002  34.046  12.735  1.00  0.00     0.093 A 
ATOM      7  C   UNL     1      16.215  34.538  11.441  1.00  0.00     0.136 A 
ATOM      8  C   UNL     1      16.378  35.933  11.243  1.00  0.00     0.125 A 
ATOM      9  C   UNL     1      16.610  36.514   9.985  1.00  0.00     0.078 A 
ATOM     10  C   UNL     1      16.765  37.899   9.870  1.00  0.00     0.223 A 
ENDROOT
BRANCH   1  11
ATOM     11  C   UNL     1      16.800  40.168  10.984  1.00  0.00     0.091 A 
ATOM     12  C   UNL     1      16.771  40.870   9.769  1.00  0.00     0.068 A 
ATOM     13  C   UNL     1      16.874  42.265   9.741  1.00  0.00     0.162 A 
ATOM     14  C   UNL     1      16.901  40.886  12.183  1.00  0.00     0.068 A 
ATOM     15  C   UNL     1      17.004  42.982  10.956  1.00  0.00     0.200 A 
ATOM     16  C   UNL     1      17.010  42.279  12.174  1.00  0.00     0.162 A 
BRANCH  13  17
ATOM     17  O   UNL     1      16.838  42.893   8.494  1.00  0.00    -0.504 OA
ATOM     18  H   UNL     1      17.137  43.843   8.329  1.00  0.00     0.293 HD
ENDBRANCH  13  17
BRANCH  15  19
ATOM     19  O   UNL     1      17.125  44.373  10.990  1.00  0.00    -0.502 OA
ATOM     20  H   UNL     1      17.627  44.883  11.703  1.00  0.00     0.293 HD
ENDBRANCH  15  19
BRANCH  16  21
ATOM     21  O   UNL     1      17.125  42.949  13.391  1.00  0.00    -0.504 OA
ATOM     22  H   UNL     1      17.959  42.894  13.963  1.00  0.00     0.293 HD
ENDBRANCH  16  21
ENDBRANCH   1  11
BRANCH  10  23
ATOM     23  O   UNL     1      17.044  38.470   8.629  1.00  0.00    -0.500 OA
ATOM     24  H   UNL     1      16.308  38.725   7.982  1.00  0.00     0.294 HD
ENDBRANCH  10  23
BRANCH   5  25
ATOM     25  O   UNL     1      15.732  34.418  15.117  1.00  0.00    -0.507 OA
ATOM     26  H   UNL     1      14.829  34.061  15.405  1.00  0.00     0.293 HD
ENDBRANCH   5  25
BRANCH   7  27
ATOM     27  O   UNL     1      16.255  33.609  10.398  1.00  0.00    -0.507 OA
ATOM     28  H   UNL     1      15.498  32.985  10.159  1.00  0.00     0.293 HD
ENDBRANCH   7  27
TORSDOF 7
ENDMDL
