MODEL 1
REMARK VINA RESULT:    -5.860      0.000      0.000
REMARK INTER + INTRA:          -7.191
REMARK INTER:                  -6.888
REMARK INTRA:                  -0.303
REMARK UNBOUND:                -0.303
REMARK SMILES O=c1cc(-c2ccc(O)c(O)c2)oc2cc(O)cc(O)c12
REMARK SMILES IDX 4 1 3 2 2 3 1 4 21 5 19 6 18 7 16 8 15 9 14 10 13 11 5 12
REMARK SMILES IDX 6 13 7 14 8 15 12 16 10 17 9 18 11 20 20 22 17 24
REMARK H PARENT 9 19 11 21 20 23 17 25
REMARK Flexibility Score: inf
ROOT
ATOM      1  C   UNL     1     174.589 170.589 170.658  1.00  0.00     0.138 A 
ATOM      2  C   UNL     1     173.603 169.703 171.111  1.00  0.00     0.100 A 
ATOM      3  C   UNL     1     172.570 169.323 170.253  1.00  0.00     0.197 A 
ATOM      4  O   UNL     1     171.735 168.477 170.667  1.00  0.00    -0.289 OA
ATOM      5  C   UNL     1     172.508 169.860 168.945  1.00  0.00     0.107 A 
ATOM      6  C   UNL     1     171.480 169.576 167.998  1.00  0.00     0.134 A 
ATOM      7  C   UNL     1     171.586 170.074 166.694  1.00  0.00     0.093 A 
ATOM      8  C   UNL     1     172.651 170.894 166.320  1.00  0.00     0.123 A 
ATOM      9  C   UNL     1     173.634 171.222 167.253  1.00  0.00     0.094 A 
ATOM     10  C   UNL     1     173.575 170.712 168.553  1.00  0.00     0.146 A 
ATOM     11  O   UNL     1     174.538 171.036 169.408  1.00  0.00    -0.456 OA
ENDROOT
BRANCH   1  12
ATOM     12  C   UNL     1     175.709 171.027 171.529  1.00  0.00     0.021 A 
ATOM     13  C   UNL     1     176.253 170.183 172.514  1.00  0.00     0.016 A 
ATOM     14  C   UNL     1     177.299 170.626 173.326  1.00  0.00     0.051 A 
ATOM     15  C   UNL     1     177.821 171.915 173.182  1.00  0.00     0.157 A 
ATOM     16  C   UNL     1     176.224 172.328 171.394  1.00  0.00     0.062 A 
ATOM     17  C   UNL     1     177.274 172.779 172.205  1.00  0.00     0.158 A 
BRANCH  15  18
ATOM     18  O   UNL     1     178.868 172.294 174.023  1.00  0.00    -0.504 OA
ATOM     19  H   UNL     1     179.263 171.700 174.738  1.00  0.00     0.293 HD
ENDBRANCH  15  18
BRANCH  17  20
ATOM     20  O   UNL     1     177.737 174.081 172.005  1.00  0.00    -0.504 OA
ATOM     21  H   UNL     1     177.292 174.903 172.386  1.00  0.00     0.293 HD
ENDBRANCH  17  20
ENDBRANCH   1  12
BRANCH   6  22
ATOM     22  O   UNL     1     170.330 168.837 168.291  1.00  0.00    -0.507 OA
ATOM     23  H   UNL     1     170.178 168.320 169.143  1.00  0.00     0.293 HD
ENDBRANCH   6  22
BRANCH   8  24
ATOM     24  O   UNL     1     172.716 171.384 165.018  1.00  0.00    -0.508 OA
ATOM     25  H   UNL     1     172.710 170.763 164.216  1.00  0.00     0.293 HD
ENDBRANCH   8  24
TORSDOF 5
ENDMDL
MODEL 2
REMARK VINA RESULT:    -5.857      3.964      4.365
REMARK INTER + INTRA:          -7.188
REMARK INTER:                  -6.892
REMARK INTRA:                  -0.296
REMARK UNBOUND:                -0.303
REMARK SMILES O=c1cc(-c2ccc(O)c(O)c2)oc2cc(O)cc(O)c12
REMARK SMILES IDX 4 1 3 2 2 3 1 4 21 5 19 6 18 7 16 8 15 9 14 10 13 11 5 12
REMARK SMILES IDX 6 13 7 14 8 15 12 16 10 17 9 18 11 20 20 22 17 24
REMARK H PARENT 9 19 11 21 20 23 17 25
REMARK Flexibility Score: inf
ROOT
ATOM      1  C   UNL     1     174.323 169.937 172.799  1.00  0.00     0.138 A 
ATOM      2  C   UNL     1     174.290 168.536 172.772  1.00  0.00     0.100 A 
ATOM      3  C   UNL     1     173.067 167.872 172.879  1.00  0.00     0.197 A 
ATOM      4  O   UNL     1     173.062 166.618 172.787  1.00  0.00    -0.289 OA
ATOM      5  C   UNL     1     171.875 168.617 173.047  1.00  0.00     0.107 A 
ATOM      6  C   UNL     1     170.577 168.048 173.207  1.00  0.00     0.134 A 
ATOM      7  C   UNL     1     169.456 168.886 173.249  1.00  0.00     0.093 A 
ATOM      8  C   UNL     1     169.590 170.273 173.196  1.00  0.00     0.123 A 
ATOM      9  C   UNL     1     170.860 170.843 173.094  1.00  0.00     0.094 A 
ATOM     10  C   UNL     1     171.995 170.033 173.015  1.00  0.00     0.146 A 
ATOM     11  O   UNL     1     173.185 170.613 172.903  1.00  0.00    -0.456 OA
ENDROOT
BRANCH   1  12
ATOM     12  C   UNL     1     175.597 170.693 172.690  1.00  0.00     0.021 A 
ATOM     13  C   UNL     1     176.616 170.299 171.805  1.00  0.00     0.016 A 
ATOM     14  C   UNL     1     177.808 171.024 171.732  1.00  0.00     0.051 A 
ATOM     15  C   UNL     1     178.014 172.147 172.539  1.00  0.00     0.157 A 
ATOM     16  C   UNL     1     175.810 171.813 173.512  1.00  0.00     0.062 A 
ATOM     17  C   UNL     1     177.003 172.545 173.443  1.00  0.00     0.158 A 
BRANCH  15  18
ATOM     18  O   UNL     1     179.226 172.827 172.414  1.00  0.00    -0.504 OA
ATOM     19  H   UNL     1     179.863 172.993 173.180  1.00  0.00     0.293 HD
ENDBRANCH  15  18
BRANCH  17  20
ATOM     20  O   UNL     1     177.136 173.651 174.285  1.00  0.00    -0.504 OA
ATOM     21  H   UNL     1     176.907 173.643 175.268  1.00  0.00     0.293 HD
ENDBRANCH  17  20
ENDBRANCH   1  12
BRANCH   6  22
ATOM     22  O   UNL     1     170.337 166.678 173.355  1.00  0.00    -0.507 OA
ATOM     23  H   UNL     1     170.143 166.218 174.231  1.00  0.00     0.293 HD
ENDBRANCH   6  22
BRANCH   8  24
ATOM     24  O   UNL     1     168.454 171.076 173.256  1.00  0.00    -0.508 OA
ATOM     25  H   UNL     1     168.348 171.889 172.660  1.00  0.00     0.293 HD
ENDBRANCH   8  24
TORSDOF 5
ENDMDL
MODEL 3
REMARK VINA RESULT:    -5.813      4.239      4.911
REMARK INTER + INTRA:          -7.136
REMARK INTER:                  -6.841
REMARK INTRA:                  -0.295
REMARK UNBOUND:                -0.303
REMARK SMILES O=c1cc(-c2ccc(O)c(O)c2)oc2cc(O)cc(O)c12
REMARK SMILES IDX 4 1 3 2 2 3 1 4 21 5 19 6 18 7 16 8 15 9 14 10 13 11 5 12
REMARK SMILES IDX 6 13 7 14 8 15 12 16 10 17 9 18 11 20 20 22 17 24
REMARK H PARENT 9 19 11 21 20 23 17 25
REMARK Flexibility Score: inf
ROOT
ATOM      1  C   UNL     1     176.292 168.812 170.480  1.00  0.00     0.138 A 
ATOM      2  C   UNL     1     175.122 168.660 169.724  1.00  0.00     0.100 A 
ATOM      3  C   UNL     1     174.986 167.560 168.876  1.00  0.00     0.197 A 
ATOM      4  O   UNL     1     173.899 167.417 168.259  1.00  0.00    -0.289 OA
ATOM      5  C   UNL     1     176.043 166.625 168.762  1.00  0.00     0.107 A 
ATOM      6  C   UNL     1     176.032 165.488 167.900  1.00  0.00     0.134 A 
ATOM      7  C   UNL     1     177.086 164.569 167.958  1.00  0.00     0.093 A 
ATOM      8  C   UNL     1     178.177 164.775 168.802  1.00  0.00     0.123 A 
ATOM      9  C   UNL     1     178.224 165.911 169.610  1.00  0.00     0.094 A 
ATOM     10  C   UNL     1     177.171 166.829 169.601  1.00  0.00     0.146 A 
ATOM     11  O   UNL     1     177.246 167.892 170.396  1.00  0.00    -0.456 OA
ENDROOT
BRANCH   1  12
ATOM     12  C   UNL     1     176.490 169.964 171.396  1.00  0.00     0.021 A 
ATOM     13  C   UNL     1     175.452 170.441 172.217  1.00  0.00     0.016 A 
ATOM     14  C   UNL     1     175.664 171.533 173.062  1.00  0.00     0.051 A 
ATOM     15  C   UNL     1     176.904 172.177 173.102  1.00  0.00     0.157 A 
ATOM     16  C   UNL     1     177.732 170.620 171.427  1.00  0.00     0.062 A 
ATOM     17  C   UNL     1     177.952 171.716 172.272  1.00  0.00     0.158 A 
BRANCH  15  18
ATOM     18  O   UNL     1     177.050 173.260 173.970  1.00  0.00    -0.504 OA
ATOM     19  H   UNL     1     176.290 173.674 174.491  1.00  0.00     0.293 HD
ENDBRANCH  15  18
BRANCH  17  20
ATOM     20  O   UNL     1     179.216 172.309 172.252  1.00  0.00    -0.504 OA
ATOM     21  H   UNL     1     179.819 172.326 171.443  1.00  0.00     0.293 HD
ENDBRANCH  17  20
ENDBRANCH   1  12
BRANCH   6  22
ATOM     22  O   UNL     1     175.031 165.231 166.959  1.00  0.00    -0.507 OA
ATOM     23  H   UNL     1     174.118 164.859 167.174  1.00  0.00     0.293 HD
ENDBRANCH   6  22
BRANCH   8  24
ATOM     24  O   UNL     1     179.215 163.846 168.822  1.00  0.00    -0.508 OA
ATOM     25  H   UNL     1     180.139 164.091 169.159  1.00  0.00     0.293 HD
ENDBRANCH   8  24
TORSDOF 5
ENDMDL
MODEL 4
REMARK VINA RESULT:    -5.719      3.554      6.968
REMARK INTER + INTRA:          -7.026
REMARK INTER:                  -6.716
REMARK INTRA:                  -0.310
REMARK UNBOUND:                -0.303
REMARK SMILES O=c1cc(-c2ccc(O)c(O)c2)oc2cc(O)cc(O)c12
REMARK SMILES IDX 4 1 3 2 2 3 1 4 21 5 19 6 18 7 16 8 15 9 14 10 13 11 5 12
REMARK SMILES IDX 6 13 7 14 8 15 12 16 10 17 9 18 11 20 20 22 17 24
REMARK H PARENT 9 19 11 21 20 23 17 25
REMARK Flexibility Score: inf
ROOT
ATOM      1  C   UNL     1     173.831 169.868 172.343  1.00  0.00     0.138 A 
ATOM      2  C   UNL     1     174.561 169.147 171.389  1.00  0.00     0.100 A 
ATOM      3  C   UNL     1     175.899 169.468 171.155  1.00  0.00     0.197 A 
ATOM      4  O   UNL     1     176.545 168.762 170.338  1.00  0.00    -0.289 OA
ATOM      5  C   UNL     1     176.499 170.538 171.861  1.00  0.00     0.107 A 
ATOM      6  C   UNL     1     177.843 170.980 171.677  1.00  0.00     0.134 A 
ATOM      7  C   UNL     1     178.363 171.974 172.515  1.00  0.00     0.093 A 
ATOM      8  C   UNL     1     177.571 172.582 173.489  1.00  0.00     0.123 A 
ATOM      9  C   UNL     1     176.240 172.195 173.642  1.00  0.00     0.094 A 
ATOM     10  C   UNL     1     175.702 171.182 172.845  1.00  0.00     0.146 A 
ATOM     11  O   UNL     1     174.434 170.832 173.031  1.00  0.00    -0.456 OA
ENDROOT
BRANCH   1  12
ATOM     12  C   UNL     1     172.405 169.569 172.630  1.00  0.00     0.021 A 
ATOM     13  C   UNL     1     171.846 168.307 172.360  1.00  0.00     0.016 A 
ATOM     14  C   UNL     1     170.499 168.058 172.630  1.00  0.00     0.051 A 
ATOM     15  C   UNL     1     169.680 169.057 173.165  1.00  0.00     0.157 A 
ATOM     16  C   UNL     1     171.578 170.577 173.155  1.00  0.00     0.062 A 
ATOM     17  C   UNL     1     170.226 170.335 173.428  1.00  0.00     0.158 A 
BRANCH  15  18
ATOM     18  O   UNL     1     168.343 168.742 173.414  1.00  0.00    -0.504 OA
ATOM     19  H   UNL     1     167.960 168.588 174.336  1.00  0.00     0.293 HD
ENDBRANCH  15  18
BRANCH  17  20
ATOM     20  O   UNL     1     169.471 171.383 173.957  1.00  0.00    -0.504 OA
ATOM     21  H   UNL     1     169.328 172.267 173.490  1.00  0.00     0.293 HD
ENDBRANCH  17  20
ENDBRANCH   1  12
BRANCH   6  22
ATOM     22  O   UNL     1     178.694 170.499 170.678  1.00  0.00    -0.507 OA
ATOM     23  H   UNL     1     179.267 169.673 170.757  1.00  0.00     0.293 HD
ENDBRANCH   6  22
BRANCH   8  24
ATOM     24  O   UNL     1     178.118 173.578 174.295  1.00  0.00    -0.508 OA
ATOM     25  H   UNL     1     178.327 173.414 175.273  1.00  0.00     0.293 HD
ENDBRANCH   8  24
TORSDOF 5
ENDMDL
MODEL 5
REMARK VINA RESULT:    -5.678      3.820      6.812
REMARK INTER + INTRA:          -6.977
REMARK INTER:                  -6.669
REMARK INTRA:                  -0.308
REMARK UNBOUND:                -0.303
REMARK SMILES O=c1cc(-c2ccc(O)c(O)c2)oc2cc(O)cc(O)c12
REMARK SMILES IDX 4 1 3 2 2 3 1 4 21 5 19 6 18 7 16 8 15 9 14 10 13 11 5 12
REMARK SMILES IDX 6 13 7 14 8 15 12 16 10 17 9 18 11 20 20 22 17 24
REMARK H PARENT 9 19 11 21 20 23 17 25
REMARK Flexibility Score: inf
ROOT
ATOM      1  C   UNL     1     175.963 168.598 170.743  1.00  0.00     0.138 A 
ATOM      2  C   UNL     1     174.778 168.811 171.460  1.00  0.00     0.100 A 
ATOM      3  C   UNL     1     174.693 169.881 172.351  1.00  0.00     0.197 A 
ATOM      4  O   UNL     1     173.595 170.084 172.933  1.00  0.00    -0.289 OA
ATOM      5  C   UNL     1     175.813 170.723 172.548  1.00  0.00     0.107 A 
ATOM      6  C   UNL     1     175.855 171.820 173.459  1.00  0.00     0.134 A 
ATOM      7  C   UNL     1     176.979 172.654 173.484  1.00  0.00     0.093 A 
ATOM      8  C   UNL     1     178.085 172.398 172.674  1.00  0.00     0.123 A 
ATOM      9  C   UNL     1     178.077 171.297 171.818  1.00  0.00     0.094 A 
ATOM     10  C   UNL     1     176.956 170.466 171.745  1.00  0.00     0.146 A 
ATOM     11  O   UNL     1     176.981 169.436 170.906  1.00  0.00    -0.456 OA
ENDROOT
BRANCH   1  12
ATOM     12  C   UNL     1     176.108 167.474 169.784  1.00  0.00     0.021 A 
ATOM     13  C   UNL     1     174.996 166.909 169.135  1.00  0.00     0.016 A 
ATOM     14  C   UNL     1     175.162 165.844 168.245  1.00  0.00     0.051 A 
ATOM     15  C   UNL     1     176.431 165.318 167.988  1.00  0.00     0.157 A 
ATOM     16  C   UNL     1     177.382 166.935 169.535  1.00  0.00     0.062 A 
ATOM     17  C   UNL     1     177.556 165.868 168.644  1.00  0.00     0.158 A 
BRANCH  15  18
ATOM     18  O   UNL     1     176.528 164.257 167.086  1.00  0.00    -0.504 OA
ATOM     19  H   UNL     1     176.670 164.370 166.093  1.00  0.00     0.293 HD
ENDBRANCH  15  18
BRANCH  17  20
ATOM     20  O   UNL     1     178.854 165.393 168.443  1.00  0.00    -0.504 OA
ATOM     21  H   UNL     1     179.620 165.558 169.080  1.00  0.00     0.293 HD
ENDBRANCH  17  20
ENDBRANCH   1  12
BRANCH   6  22
ATOM     22  O   UNL     1     174.839 172.116 174.373  1.00  0.00    -0.507 OA
ATOM     23  H   UNL     1     174.432 173.028 174.508  1.00  0.00     0.293 HD
ENDBRANCH   6  22
BRANCH   8  24
ATOM     24  O   UNL     1     179.192 173.241 172.736  1.00  0.00    -0.508 OA
ATOM     25  H   UNL     1     179.433 173.857 171.968  1.00  0.00     0.293 HD
ENDBRANCH   8  24
TORSDOF 5
ENDMDL
MODEL 6
REMARK VINA RESULT:    -5.664      3.431      5.153
REMARK INTER + INTRA:          -6.960
REMARK INTER:                  -6.698
REMARK INTRA:                  -0.263
REMARK UNBOUND:                -0.303
REMARK SMILES O=c1cc(-c2ccc(O)c(O)c2)oc2cc(O)cc(O)c12
REMARK SMILES IDX 4 1 3 2 2 3 1 4 21 5 19 6 18 7 16 8 15 9 14 10 13 11 5 12
REMARK SMILES IDX 6 13 7 14 8 15 12 16 10 17 9 18 11 20 20 22 17 24
REMARK H PARENT 9 19 11 21 20 23 17 25
REMARK Flexibility Score: inf
ROOT
ATOM      1  C   UNL     1     174.281 169.851 172.780  1.00  0.00     0.138 A 
ATOM      2  C   UNL     1     173.115 170.242 172.107  1.00  0.00     0.100 A 
ATOM      3  C   UNL     1     171.947 169.493 172.256  1.00  0.00     0.197 A 
ATOM      4  O   UNL     1     170.901 169.905 171.690  1.00  0.00    -0.289 OA
ATOM      5  C   UNL     1     171.957 168.327 173.058  1.00  0.00     0.107 A 
ATOM      6  C   UNL     1     170.838 167.464 173.251  1.00  0.00     0.134 A 
ATOM      7  C   UNL     1     170.933 166.403 174.160  1.00  0.00     0.093 A 
ATOM      8  C   UNL     1     172.123 166.140 174.839  1.00  0.00     0.123 A 
ATOM      9  C   UNL     1     173.240 166.945 174.617  1.00  0.00     0.094 A 
ATOM     10  C   UNL     1     173.167 168.032 173.743  1.00  0.00     0.146 A 
ATOM     11  O   UNL     1     174.249 168.784 173.570  1.00  0.00    -0.456 OA
ENDROOT
BRANCH   1  12
ATOM     12  C   UNL     1     175.550 170.611 172.656  1.00  0.00     0.021 A 
ATOM     13  C   UNL     1     176.558 170.224 171.754  1.00  0.00     0.016 A 
ATOM     14  C   UNL     1     177.746 170.953 171.667  1.00  0.00     0.051 A 
ATOM     15  C   UNL     1     177.960 172.073 172.475  1.00  0.00     0.157 A 
ATOM     16  C   UNL     1     175.772 171.730 173.478  1.00  0.00     0.062 A 
ATOM     17  C   UNL     1     176.961 172.465 173.396  1.00  0.00     0.158 A 
BRANCH  15  18
ATOM     18  O   UNL     1     179.169 172.758 172.336  1.00  0.00    -0.504 OA
ATOM     19  H   UNL     1     179.657 172.871 171.460  1.00  0.00     0.293 HD
ENDBRANCH  15  18
BRANCH  17  20
ATOM     20  O   UNL     1     177.103 173.568 174.240  1.00  0.00    -0.504 OA
ATOM     21  H   UNL     1     176.845 174.511 173.986  1.00  0.00     0.293 HD
ENDBRANCH  17  20
ENDBRANCH   1  12
BRANCH   6  22
ATOM     22  O   UNL     1     169.629 167.587 172.560  1.00  0.00    -0.507 OA
ATOM     23  H   UNL     1     169.330 168.411 172.062  1.00  0.00     0.293 HD
ENDBRANCH   6  22
BRANCH   8  24
ATOM     24  O   UNL     1     172.185 165.067 175.725  1.00  0.00    -0.508 OA
ATOM     25  H   UNL     1     171.595 164.250 175.611  1.00  0.00     0.293 HD
ENDBRANCH   8  24
TORSDOF 5
ENDMDL
MODEL 7
REMARK VINA RESULT:    -5.627      3.848      6.057
REMARK INTER + INTRA:          -6.917
REMARK INTER:                  -6.621
REMARK INTRA:                  -0.297
REMARK UNBOUND:                -0.303
REMARK SMILES O=c1cc(-c2ccc(O)c(O)c2)oc2cc(O)cc(O)c12
REMARK SMILES IDX 4 1 3 2 2 3 1 4 21 5 19 6 18 7 16 8 15 9 14 10 13 11 5 12
REMARK SMILES IDX 6 13 7 14 8 15 12 16 10 17 9 18 11 20 20 22 17 24
REMARK H PARENT 9 19 11 21 20 23 17 25
REMARK Flexibility Score: inf
ROOT
ATOM      1  C   UNL     1     175.750 168.670 172.459  1.00  0.00     0.138 A 
ATOM      2  C   UNL     1     175.469 167.985 171.270  1.00  0.00     0.100 A 
ATOM      3  C   UNL     1     174.978 166.679 171.325  1.00  0.00     0.197 A 
ATOM      4  O   UNL     1     174.676 166.113 170.243  1.00  0.00    -0.289 OA
ATOM      5  C   UNL     1     174.799 166.048 172.579  1.00  0.00     0.107 A 
ATOM      6  C   UNL     1     174.343 164.708 172.755  1.00  0.00     0.134 A 
ATOM      7  C   UNL     1     174.093 164.228 174.047  1.00  0.00     0.093 A 
ATOM      8  C   UNL     1     174.338 165.019 175.169  1.00  0.00     0.123 A 
ATOM      9  C   UNL     1     174.835 166.313 175.010  1.00  0.00     0.094 A 
ATOM     10  C   UNL     1     175.062 166.832 173.734  1.00  0.00     0.146 A 
ATOM     11  O   UNL     1     175.521 168.074 173.624  1.00  0.00    -0.456 OA
ENDROOT
BRANCH   1  12
ATOM     12  C   UNL     1     176.275 170.060 172.458  1.00  0.00     0.021 A 
ATOM     13  C   UNL     1     175.810 171.024 171.545  1.00  0.00     0.016 A 
ATOM     14  C   UNL     1     176.330 172.320 171.560  1.00  0.00     0.051 A 
ATOM     15  C   UNL     1     177.324 172.682 172.475  1.00  0.00     0.157 A 
ATOM     16  C   UNL     1     177.284 170.420 173.367  1.00  0.00     0.062 A 
ATOM     17  C   UNL     1     177.809 171.719 173.389  1.00  0.00     0.158 A 
BRANCH  15  18
ATOM     18  O   UNL     1     177.798 173.994 172.439  1.00  0.00    -0.504 OA
ATOM     19  H   UNL     1     178.470 174.371 173.092  1.00  0.00     0.293 HD
ENDBRANCH  15  18
BRANCH  17  20
ATOM     20  O   UNL     1     178.803 172.003 174.328  1.00  0.00    -0.504 OA
ATOM     21  H   UNL     1     179.793 171.912 174.147  1.00  0.00     0.293 HD
ENDBRANCH  17  20
ENDBRANCH   1  12
BRANCH   6  22
ATOM     22  O   UNL     1     174.147 163.804 171.706  1.00  0.00    -0.507 OA
ATOM     23  H   UNL     1     174.883 163.314 171.222  1.00  0.00     0.293 HD
ENDBRANCH   6  22
BRANCH   8  24
ATOM     24  O   UNL     1     174.092 164.504 176.440  1.00  0.00    -0.508 OA
ATOM     25  H   UNL     1     174.687 163.792 176.848  1.00  0.00     0.293 HD
ENDBRANCH   8  24
TORSDOF 5
ENDMDL
MODEL 8
REMARK VINA RESULT:    -5.626      2.924      3.057
REMARK INTER + INTRA:          -6.916
REMARK INTER:                  -6.654
REMARK INTRA:                  -0.262
REMARK UNBOUND:                -0.303
REMARK SMILES O=c1cc(-c2ccc(O)c(O)c2)oc2cc(O)cc(O)c12
REMARK SMILES IDX 4 1 3 2 2 3 1 4 21 5 19 6 18 7 16 8 15 9 14 10 13 11 5 12
REMARK SMILES IDX 6 13 7 14 8 15 12 16 10 17 9 18 11 20 20 22 17 24
REMARK H PARENT 9 19 11 21 20 23 17 25
REMARK Flexibility Score: inf
ROOT
ATOM      1  C   UNL     1     176.005 169.177 170.517  1.00  0.00     0.138 A 
ATOM      2  C   UNL     1     176.292 167.823 170.735  1.00  0.00     0.100 A 
ATOM      3  C   UNL     1     175.896 166.874 169.792  1.00  0.00     0.197 A 
ATOM      4  O   UNL     1     176.224 165.674 169.984  1.00  0.00    -0.289 OA
ATOM      5  C   UNL     1     175.181 167.281 168.640  1.00  0.00     0.107 A 
ATOM      6  C   UNL     1     174.693 166.398 167.632  1.00  0.00     0.134 A 
ATOM      7  C   UNL     1     174.100 166.927 166.479  1.00  0.00     0.093 A 
ATOM      8  C   UNL     1     173.924 168.302 166.325  1.00  0.00     0.123 A 
ATOM      9  C   UNL     1     174.350 169.172 167.329  1.00  0.00     0.094 A 
ATOM     10  C   UNL     1     174.976 168.678 168.475  1.00  0.00     0.146 A 
ATOM     11  O   UNL     1     175.380 169.540 169.402  1.00  0.00    -0.456 OA
ENDROOT
BRANCH   1  12
ATOM     12  C   UNL     1     176.401 170.228 171.488  1.00  0.00     0.021 A 
ATOM     13  C   UNL     1     175.498 170.733 172.441  1.00  0.00     0.016 A 
ATOM     14  C   UNL     1     175.896 171.730 173.335  1.00  0.00     0.051 A 
ATOM     15  C   UNL     1     177.194 172.248 173.297  1.00  0.00     0.157 A 
ATOM     16  C   UNL     1     177.701 170.761 171.441  1.00  0.00     0.062 A 
ATOM     17  C   UNL     1     178.108 171.760 172.335  1.00  0.00     0.158 A 
BRANCH  15  18
ATOM     18  O   UNL     1     177.528 173.241 174.220  1.00  0.00    -0.504 OA
ATOM     19  H   UNL     1     178.122 173.090 175.023  1.00  0.00     0.293 HD
ENDBRANCH  15  18
BRANCH  17  20
ATOM     20  O   UNL     1     179.418 172.231 172.231  1.00  0.00    -0.504 OA
ATOM     21  H   UNL     1     179.886 172.760 172.953  1.00  0.00     0.293 HD
ENDBRANCH  17  20
ENDBRANCH   1  12
BRANCH   6  22
ATOM     22  O   UNL     1     174.741 165.004 167.725  1.00  0.00    -0.507 OA
ATOM     23  H   UNL     1     175.546 164.438 167.501  1.00  0.00     0.293 HD
ENDBRANCH   6  22
BRANCH   8  24
ATOM     24  O   UNL     1     173.317 168.792 165.171  1.00  0.00    -0.508 OA
ATOM     25  H   UNL     1     172.563 169.467 165.215  1.00  0.00     0.293 HD
ENDBRANCH   8  24
TORSDOF 5
ENDMDL
MODEL 9
REMARK VINA RESULT:    -5.495      1.757      3.404
REMARK INTER + INTRA:          -6.762
REMARK INTER:                  -6.493
REMARK INTRA:                  -0.270
REMARK UNBOUND:                -0.303
REMARK SMILES O=c1cc(-c2ccc(O)c(O)c2)oc2cc(O)cc(O)c12
REMARK SMILES IDX 4 1 3 2 2 3 1 4 21 5 19 6 18 7 16 8 15 9 14 10 13 11 5 12
REMARK SMILES IDX 6 13 7 14 8 15 12 16 10 17 9 18 11 20 20 22 17 24
REMARK H PARENT 9 19 11 21 20 23 17 25
REMARK Flexibility Score: inf
ROOT
ATOM      1  C   UNL     1     174.356 170.645 171.373  1.00  0.00     0.138 A 
ATOM      2  C   UNL     1     174.133 170.633 169.989  1.00  0.00     0.100 A 
ATOM      3  C   UNL     1     172.913 170.177 169.489  1.00  0.00     0.197 A 
ATOM      4  O   UNL     1     172.720 170.238 168.248  1.00  0.00    -0.289 OA
ATOM      5  C   UNL     1     171.922 169.700 170.381  1.00  0.00     0.107 A 
ATOM      6  C   UNL     1     170.657 169.174 169.983  1.00  0.00     0.134 A 
ATOM      7  C   UNL     1     169.711 168.840 170.960  1.00  0.00     0.093 A 
ATOM      8  C   UNL     1     170.005 168.957 172.318  1.00  0.00     0.123 A 
ATOM      9  C   UNL     1     171.259 169.419 172.719  1.00  0.00     0.094 A 
ATOM     10  C   UNL     1     172.212 169.793 171.769  1.00  0.00     0.146 A 
ATOM     11  O   UNL     1     173.389 170.243 172.190  1.00  0.00    -0.456 OA
ENDROOT
BRANCH   1  12
ATOM     12  C   UNL     1     175.636 171.118 171.957  1.00  0.00     0.021 A 
ATOM     13  C   UNL     1     176.361 170.339 172.877  1.00  0.00     0.016 A 
ATOM     14  C   UNL     1     177.557 170.816 173.418  1.00  0.00     0.051 A 
ATOM     15  C   UNL     1     178.052 172.074 173.064  1.00  0.00     0.157 A 
ATOM     16  C   UNL     1     176.127 172.390 171.613  1.00  0.00     0.062 A 
ATOM     17  C   UNL     1     177.326 172.874 172.152  1.00  0.00     0.158 A 
BRANCH  15  18
ATOM     18  O   UNL     1     179.254 172.489 173.640  1.00  0.00    -0.504 OA
ATOM     19  H   UNL     1     180.000 171.862 173.906  1.00  0.00     0.293 HD
ENDBRANCH  15  18
BRANCH  17  20
ATOM     20  O   UNL     1     177.752 174.142 171.754  1.00  0.00    -0.504 OA
ATOM     21  H   UNL     1     177.197 174.775 171.196  1.00  0.00     0.293 HD
ENDBRANCH  17  20
ENDBRANCH   1  12
BRANCH   6  22
ATOM     22  O   UNL     1     170.292 168.938 168.654  1.00  0.00    -0.507 OA
ATOM     23  H   UNL     1     169.356 168.729 168.342  1.00  0.00     0.293 HD
ENDBRANCH   6  22
BRANCH   8  24
ATOM     24  O   UNL     1     169.044 168.601 173.262  1.00  0.00    -0.508 OA
ATOM     25  H   UNL     1     169.175 167.807 173.878  1.00  0.00     0.293 HD
ENDBRANCH   8  24
TORSDOF 5
ENDMDL
