MODEL 1
REMARK VINA RESULT:    -7.788      0.000      0.000
REMARK INTER + INTRA:          -9.471
REMARK INTER:                  -9.154
REMARK INTRA:                  -0.317
REMARK UNBOUND:                -0.317
REMARK SMILES O=c1cc(-c2ccc(O)c(O)c2)oc2cc(O)cc(O)c12
REMARK SMILES IDX 4 1 3 2 2 3 1 4 21 5 19 6 18 7 16 8 15 9 14 10 13 11 5 12
REMARK SMILES IDX 6 13 7 14 8 15 12 16 10 17 9 18 11 20 20 22 17 24
REMARK H PARENT 9 19 11 21 20 23 17 25
REMARK Flexibility Score: inf
ROOT
ATOM      1  C   UNL     1      23.716  62.773  30.779  1.00  0.00     0.138 A 
ATOM      2  C   UNL     1      24.441  61.583  30.925  1.00  0.00     0.100 A 
ATOM      3  C   UNL     1      24.704  61.085  32.202  1.00  0.00     0.197 A 
ATOM      4  O   UNL     1      25.309  59.986  32.297  1.00  0.00    -0.289 OA
ATOM      5  C   UNL     1      24.269  61.806  33.340  1.00  0.00     0.107 A 
ATOM      6  C   UNL     1      24.509  61.414  34.692  1.00  0.00     0.134 A 
ATOM      7  C   UNL     1      23.943  62.157  35.736  1.00  0.00     0.093 A 
ATOM      8  C   UNL     1      23.197  63.306  35.482  1.00  0.00     0.123 A 
ATOM      9  C   UNL     1      22.997  63.726  34.167  1.00  0.00     0.094 A 
ATOM     10  C   UNL     1      23.519  62.988  33.101  1.00  0.00     0.146 A 
ATOM     11  O   UNL     1      23.291  63.413  31.863  1.00  0.00    -0.456 OA
ENDROOT
BRANCH   1  12
ATOM     12  C   UNL     1      23.410  63.348  29.444  1.00  0.00     0.021 A 
ATOM     13  C   UNL     1      23.981  62.770  28.297  1.00  0.00     0.016 A 
ATOM     14  C   UNL     1      23.715  63.295  27.030  1.00  0.00     0.051 A 
ATOM     15  C   UNL     1      22.883  64.413  26.888  1.00  0.00     0.157 A 
ATOM     16  C   UNL     1      22.584  64.479  29.295  1.00  0.00     0.062 A 
ATOM     17  C   UNL     1      22.318  65.008  28.027  1.00  0.00     0.158 A 
BRANCH  15  18
ATOM     18  O   UNL     1      22.618  64.933  25.621  1.00  0.00    -0.504 OA
ATOM     19  H   UNL     1      22.779  65.909  25.405  1.00  0.00     0.293 HD
ENDBRANCH  15  18
BRANCH  17  20
ATOM     20  O   UNL     1      21.495  66.128  27.920  1.00  0.00    -0.504 OA
ATOM     21  H   UNL     1      21.498  66.723  27.101  1.00  0.00     0.293 HD
ENDBRANCH  17  20
ENDBRANCH   1  12
BRANCH   6  22
ATOM     22  O   UNL     1      25.307  60.328  35.064  1.00  0.00    -0.507 OA
ATOM     23  H   UNL     1      25.311  59.429  34.608  1.00  0.00     0.293 HD
ENDBRANCH   6  22
BRANCH   8  24
ATOM     24  O   UNL     1      22.662  64.028  36.547  1.00  0.00    -0.508 OA
ATOM     25  H   UNL     1      21.679  63.968  36.788  1.00  0.00     0.293 HD
ENDBRANCH   8  24
TORSDOF 5
ENDMDL
MODEL 2
REMARK VINA RESULT:    -7.786      2.135      3.304
REMARK INTER + INTRA:          -9.469
REMARK INTER:                  -9.181
REMARK INTRA:                  -0.288
REMARK UNBOUND:                -0.317
REMARK SMILES O=c1cc(-c2ccc(O)c(O)c2)oc2cc(O)cc(O)c12
REMARK SMILES IDX 4 1 3 2 2 3 1 4 21 5 19 6 18 7 16 8 15 9 14 10 13 11 5 12
REMARK SMILES IDX 6 13 7 14 8 15 12 16 10 17 9 18 11 20 20 22 17 24
REMARK H PARENT 9 19 11 21 20 23 17 25
REMARK Flexibility Score: inf
ROOT
ATOM      1  C   UNL     1      22.735  63.149  32.207  1.00  0.00     0.138 A 
ATOM      2  C   UNL     1      22.202  63.346  33.487  1.00  0.00     0.100 A 
ATOM      3  C   UNL     1      23.013  63.169  34.609  1.00  0.00     0.197 A 
ATOM      4  O   UNL     1      22.519  63.408  35.741  1.00  0.00    -0.289 OA
ATOM      5  C   UNL     1      24.357  62.757  34.445  1.00  0.00     0.107 A 
ATOM      6  C   UNL     1      25.269  62.512  35.517  1.00  0.00     0.134 A 
ATOM      7  C   UNL     1      26.604  62.203  35.229  1.00  0.00     0.093 A 
ATOM      8  C   UNL     1      27.047  62.074  33.914  1.00  0.00     0.123 A 
ATOM      9  C   UNL     1      26.153  62.262  32.860  1.00  0.00     0.094 A 
ATOM     10  C   UNL     1      24.823  62.606  33.112  1.00  0.00     0.146 A 
ATOM     11  O   UNL     1      24.009  62.793  32.080  1.00  0.00    -0.456 OA
ENDROOT
BRANCH   1  12
ATOM     12  C   UNL     1      21.916  63.321  30.979  1.00  0.00     0.021 A 
ATOM     13  C   UNL     1      22.232  62.578  29.829  1.00  0.00     0.016 A 
ATOM     14  C   UNL     1      21.483  62.725  28.659  1.00  0.00     0.051 A 
ATOM     15  C   UNL     1      20.411  63.625  28.615  1.00  0.00     0.157 A 
ATOM     16  C   UNL     1      20.844  64.234  30.924  1.00  0.00     0.062 A 
ATOM     17  C   UNL     1      20.094  64.385  29.753  1.00  0.00     0.158 A 
BRANCH  15  18
ATOM     18  O   UNL     1      19.664  63.768  27.446  1.00  0.00    -0.504 OA
ATOM     19  H   UNL     1      18.652  63.732  27.457  1.00  0.00     0.293 HD
ENDBRANCH  15  18
BRANCH  17  20
ATOM     20  O   UNL     1      19.039  65.297  29.737  1.00  0.00    -0.504 OA
ATOM     21  H   UNL     1      18.131  65.065  29.355  1.00  0.00     0.293 HD
ENDBRANCH  17  20
ENDBRANCH   1  12
BRANCH   6  22
ATOM     22  O   UNL     1      24.914  62.536  36.869  1.00  0.00    -0.507 OA
ATOM     23  H   UNL     1      25.162  63.264  37.520  1.00  0.00     0.293 HD
ENDBRANCH   6  22
BRANCH   8  24
ATOM     24  O   UNL     1      28.380  61.751  33.666  1.00  0.00    -0.508 OA
ATOM     25  H   UNL     1      28.751  61.718  32.723  1.00  0.00     0.293 HD
ENDBRANCH   8  24
TORSDOF 5
ENDMDL
MODEL 3
REMARK VINA RESULT:    -7.571      2.443      7.006
REMARK INTER + INTRA:          -9.217
REMARK INTER:                  -8.951
REMARK INTRA:                  -0.266
REMARK UNBOUND:                -0.317
REMARK SMILES O=c1cc(-c2ccc(O)c(O)c2)oc2cc(O)cc(O)c12
REMARK SMILES IDX 4 1 3 2 2 3 1 4 21 5 19 6 18 7 16 8 15 9 14 10 13 11 5 12
REMARK SMILES IDX 6 13 7 14 8 15 12 16 10 17 9 18 11 20 20 22 17 24
REMARK H PARENT 9 19 11 21 20 23 17 25
REMARK Flexibility Score: inf
ROOT
ATOM      1  C   UNL     1      22.939  62.897  31.475  1.00  0.00     0.138 A 
ATOM      2  C   UNL     1      23.388  63.873  30.576  1.00  0.00     0.100 A 
ATOM      3  C   UNL     1      22.904  63.884  29.268  1.00  0.00     0.197 A 
ATOM      4  O   UNL     1      23.284  64.806  28.502  1.00  0.00    -0.289 OA
ATOM      5  C   UNL     1      21.990  62.886  28.849  1.00  0.00     0.107 A 
ATOM      6  C   UNL     1      21.454  62.776  27.530  1.00  0.00     0.134 A 
ATOM      7  C   UNL     1      20.481  61.805  27.260  1.00  0.00     0.093 A 
ATOM      8  C   UNL     1      20.068  60.906  28.241  1.00  0.00     0.123 A 
ATOM      9  C   UNL     1      20.621  60.973  29.520  1.00  0.00     0.094 A 
ATOM     10  C   UNL     1      21.568  61.951  29.831  1.00  0.00     0.146 A 
ATOM     11  O   UNL     1      22.058  61.992  31.065  1.00  0.00    -0.456 OA
ENDROOT
BRANCH   1  12
ATOM     12  C   UNL     1      23.424  62.838  32.878  1.00  0.00     0.021 A 
ATOM     13  C   UNL     1      24.654  62.217  33.157  1.00  0.00     0.016 A 
ATOM     14  C   UNL     1      25.130  62.141  34.468  1.00  0.00     0.051 A 
ATOM     15  C   UNL     1      24.382  62.675  35.524  1.00  0.00     0.157 A 
ATOM     16  C   UNL     1      22.671  63.362  33.946  1.00  0.00     0.062 A 
ATOM     17  C   UNL     1      23.145  63.286  35.260  1.00  0.00     0.158 A 
BRANCH  15  18
ATOM     18  O   UNL     1      24.862  62.601  36.831  1.00  0.00    -0.504 OA
ATOM     19  H   UNL     1      24.998  63.431  37.394  1.00  0.00     0.293 HD
ENDBRANCH  15  18
BRANCH  17  20
ATOM     20  O   UNL     1      22.371  63.817  36.292  1.00  0.00    -0.504 OA
ATOM     21  H   UNL     1      21.892  63.231  36.963  1.00  0.00     0.293 HD
ENDBRANCH  17  20
ENDBRANCH   1  12
BRANCH   6  22
ATOM     22  O   UNL     1      21.854  63.572  26.452  1.00  0.00    -0.507 OA
ATOM     23  H   UNL     1      22.696  63.438  25.915  1.00  0.00     0.293 HD
ENDBRANCH   6  22
BRANCH   8  24
ATOM     24  O   UNL     1      19.108  59.944  27.932  1.00  0.00    -0.508 OA
ATOM     25  H   UNL     1      18.134  60.068  28.181  1.00  0.00     0.293 HD
ENDBRANCH   8  24
TORSDOF 5
ENDMDL
MODEL 4
REMARK VINA RESULT:    -7.533      2.006      7.078
REMARK INTER + INTRA:          -9.172
REMARK INTER:                  -8.854
REMARK INTRA:                  -0.318
REMARK UNBOUND:                -0.317
REMARK SMILES O=c1cc(-c2ccc(O)c(O)c2)oc2cc(O)cc(O)c12
REMARK SMILES IDX 4 1 3 2 2 3 1 4 21 5 19 6 18 7 16 8 15 9 14 10 13 11 5 12
REMARK SMILES IDX 6 13 7 14 8 15 12 16 10 17 9 18 11 20 20 22 17 24
REMARK H PARENT 9 19 11 21 20 23 17 25
REMARK Flexibility Score: inf
ROOT
ATOM      1  C   UNL     1      23.517  63.010  32.059  1.00  0.00     0.138 A 
ATOM      2  C   UNL     1      22.219  63.320  32.485  1.00  0.00     0.100 A 
ATOM      3  C   UNL     1      21.260  63.715  31.551  1.00  0.00     0.197 A 
ATOM      4  O   UNL     1      20.090  63.932  31.957  1.00  0.00    -0.289 OA
ATOM      5  C   UNL     1      21.617  63.835  30.185  1.00  0.00     0.107 A 
ATOM      6  C   UNL     1      20.733  64.261  29.148  1.00  0.00     0.134 A 
ATOM      7  C   UNL     1      21.173  64.246  27.818  1.00  0.00     0.093 A 
ATOM      8  C   UNL     1      22.477  63.875  27.494  1.00  0.00     0.123 A 
ATOM      9  C   UNL     1      23.364  63.505  28.505  1.00  0.00     0.094 A 
ATOM     10  C   UNL     1      22.947  63.476  29.838  1.00  0.00     0.146 A 
ATOM     11  O   UNL     1      23.817  63.100  30.768  1.00  0.00    -0.456 OA
ENDROOT
BRANCH   1  12
ATOM     12  C   UNL     1      24.576  62.588  33.010  1.00  0.00     0.021 A 
ATOM     13  C   UNL     1      24.279  62.506  34.382  1.00  0.00     0.016 A 
ATOM     14  C   UNL     1      25.258  62.118  35.299  1.00  0.00     0.051 A 
ATOM     15  C   UNL     1      26.554  61.815  34.865  1.00  0.00     0.157 A 
ATOM     16  C   UNL     1      25.885  62.294  32.581  1.00  0.00     0.062 A 
ATOM     17  C   UNL     1      26.868  61.907  33.499  1.00  0.00     0.158 A 
BRANCH  15  18
ATOM     18  O   UNL     1      27.529  61.425  35.783  1.00  0.00    -0.504 OA
ATOM     19  H   UNL     1      28.496  61.707  35.681  1.00  0.00     0.293 HD
ENDBRANCH  15  18
BRANCH  17  20
ATOM     20  O   UNL     1      28.153  61.623  33.036  1.00  0.00    -0.504 OA
ATOM     21  H   UNL     1      28.411  61.728  32.063  1.00  0.00     0.293 HD
ENDBRANCH  17  20
ENDBRANCH   1  12
BRANCH   6  22
ATOM     22  O   UNL     1      19.433  64.728  29.368  1.00  0.00    -0.507 OA
ATOM     23  H   UNL     1      18.925  65.339  28.749  1.00  0.00     0.293 HD
ENDBRANCH   6  22
BRANCH   8  24
ATOM     24  O   UNL     1      22.883  63.886  26.161  1.00  0.00    -0.508 OA
ATOM     25  H   UNL     1      23.207  64.735  25.712  1.00  0.00     0.293 HD
ENDBRANCH   8  24
TORSDOF 5
ENDMDL
MODEL 5
REMARK VINA RESULT:    -7.405      1.423      7.270
REMARK INTER + INTRA:          -9.021
REMARK INTER:                  -8.730
REMARK INTRA:                  -0.291
REMARK UNBOUND:                -0.317
REMARK SMILES O=c1cc(-c2ccc(O)c(O)c2)oc2cc(O)cc(O)c12
REMARK SMILES IDX 4 1 3 2 2 3 1 4 21 5 19 6 18 7 16 8 15 9 14 10 13 11 5 12
REMARK SMILES IDX 6 13 7 14 8 15 12 16 10 17 9 18 11 20 20 22 17 24
REMARK H PARENT 9 19 11 21 20 23 17 25
REMARK Flexibility Score: inf
ROOT
ATOM      1  C   UNL     1      23.625  63.006  31.160  1.00  0.00     0.138 A 
ATOM      2  C   UNL     1      22.665  64.003  31.379  1.00  0.00     0.100 A 
ATOM      3  C   UNL     1      22.184  64.748  30.302  1.00  0.00     0.197 A 
ATOM      4  O   UNL     1      21.282  65.597  30.524  1.00  0.00    -0.289 OA
ATOM      5  C   UNL     1      22.695  64.516  29.002  1.00  0.00     0.107 A 
ATOM      6  C   UNL     1      22.304  65.236  27.834  1.00  0.00     0.134 A 
ATOM      7  C   UNL     1      22.808  64.851  26.585  1.00  0.00     0.093 A 
ATOM      8  C   UNL     1      23.728  63.811  26.468  1.00  0.00     0.123 A 
ATOM      9  C   UNL     1      24.155  63.132  27.610  1.00  0.00     0.094 A 
ATOM     10  C   UNL     1      23.646  63.469  28.866  1.00  0.00     0.146 A 
ATOM     11  O   UNL     1      24.065  62.787  29.926  1.00  0.00    -0.456 OA
ENDROOT
BRANCH   1  12
ATOM     12  C   UNL     1      24.174  62.186  32.270  1.00  0.00     0.021 A 
ATOM     13  C   UNL     1      24.686  60.906  31.994  1.00  0.00     0.016 A 
ATOM     14  C   UNL     1      25.201  60.110  33.020  1.00  0.00     0.051 A 
ATOM     15  C   UNL     1      25.205  60.575  34.342  1.00  0.00     0.157 A 
ATOM     16  C   UNL     1      24.168  62.642  33.602  1.00  0.00     0.062 A 
ATOM     17  C   UNL     1      24.682  61.846  34.633  1.00  0.00     0.158 A 
BRANCH  15  18
ATOM     18  O   UNL     1      25.722  59.779  35.363  1.00  0.00    -0.504 OA
ATOM     19  H   UNL     1      26.508  60.083  35.925  1.00  0.00     0.293 HD
ENDBRANCH  15  18
BRANCH  17  20
ATOM     20  O   UNL     1      24.661  62.332  35.939  1.00  0.00    -0.504 OA
ATOM     21  H   UNL     1      24.854  63.302  36.157  1.00  0.00     0.293 HD
ENDBRANCH  17  20
ENDBRANCH   1  12
BRANCH   6  22
ATOM     22  O   UNL     1      21.451  66.344  27.844  1.00  0.00    -0.507 OA
ATOM     23  H   UNL     1      21.624  67.213  27.365  1.00  0.00     0.293 HD
ENDBRANCH   6  22
BRANCH   8  24
ATOM     24  O   UNL     1      24.219  63.464  25.211  1.00  0.00    -0.508 OA
ATOM     25  H   UNL     1      23.897  63.930  24.370  1.00  0.00     0.293 HD
ENDBRANCH   8  24
TORSDOF 5
ENDMDL
MODEL 6
REMARK VINA RESULT:    -7.267      2.290      4.109
REMARK INTER + INTRA:          -8.859
REMARK INTER:                  -8.569
REMARK INTRA:                  -0.290
REMARK UNBOUND:                -0.317
REMARK SMILES O=c1cc(-c2ccc(O)c(O)c2)oc2cc(O)cc(O)c12
REMARK SMILES IDX 4 1 3 2 2 3 1 4 21 5 19 6 18 7 16 8 15 9 14 10 13 11 5 12
REMARK SMILES IDX 6 13 7 14 8 15 12 16 10 17 9 18 11 20 20 22 17 24
REMARK H PARENT 9 19 11 21 20 23 17 25
REMARK Flexibility Score: inf
ROOT
ATOM      1  C   UNL     1      23.517  63.560  28.310  1.00  0.00     0.138 A 
ATOM      2  C   UNL     1      22.165  63.926  28.278  1.00  0.00     0.100 A 
ATOM      3  C   UNL     1      21.436  63.988  29.466  1.00  0.00     0.197 A 
ATOM      4  O   UNL     1      20.240  64.374  29.409  1.00  0.00    -0.289 OA
ATOM      5  C   UNL     1      22.059  63.647  30.691  1.00  0.00     0.107 A 
ATOM      6  C   UNL     1      21.408  63.641  31.961  1.00  0.00     0.134 A 
ATOM      7  C   UNL     1      22.153  63.380  33.118  1.00  0.00     0.093 A 
ATOM      8  C   UNL     1      23.510  63.070  33.046  1.00  0.00     0.123 A 
ATOM      9  C   UNL     1      24.146  63.024  31.806  1.00  0.00     0.094 A 
ATOM     10  C   UNL     1      23.439  63.313  30.636  1.00  0.00     0.146 A 
ATOM     11  O   UNL     1      24.086  63.276  29.477  1.00  0.00    -0.456 OA
ENDROOT
BRANCH   1  12
ATOM     12  C   UNL     1      24.338  63.476  27.076  1.00  0.00     0.021 A 
ATOM     13  C   UNL     1      25.458  62.627  27.049  1.00  0.00     0.016 A 
ATOM     14  C   UNL     1      26.252  62.533  25.903  1.00  0.00     0.051 A 
ATOM     15  C   UNL     1      25.947  63.294  24.767  1.00  0.00     0.157 A 
ATOM     16  C   UNL     1      24.044  64.247  25.935  1.00  0.00     0.062 A 
ATOM     17  C   UNL     1      24.838  64.157  24.786  1.00  0.00     0.158 A 
BRANCH  15  18
ATOM     18  O   UNL     1      26.739  63.196  23.625  1.00  0.00    -0.504 OA
ATOM     19  H   UNL     1      26.340  63.257  22.696  1.00  0.00     0.293 HD
ENDBRANCH  15  18
BRANCH  17  20
ATOM     20  O   UNL     1      24.515  64.935  23.675  1.00  0.00    -0.504 OA
ATOM     21  H   UNL     1      24.211  65.897  23.761  1.00  0.00     0.293 HD
ENDBRANCH  17  20
ENDBRANCH   1  12
BRANCH   6  22
ATOM     22  O   UNL     1      20.038  63.860  32.141  1.00  0.00    -0.507 OA
ATOM     23  H   UNL     1      19.375  63.163  32.441  1.00  0.00     0.293 HD
ENDBRANCH   6  22
BRANCH   8  24
ATOM     24  O   UNL     1      24.217  62.802  34.217  1.00  0.00    -0.508 OA
ATOM     25  H   UNL     1      25.167  63.127  34.349  1.00  0.00     0.293 HD
ENDBRANCH   8  24
TORSDOF 5
ENDMDL
MODEL 7
REMARK VINA RESULT:    -7.240      1.489      6.765
REMARK INTER + INTRA:          -8.827
REMARK INTER:                  -8.534
REMARK INTRA:                  -0.293
REMARK UNBOUND:                -0.317
REMARK SMILES O=c1cc(-c2ccc(O)c(O)c2)oc2cc(O)cc(O)c12
REMARK SMILES IDX 4 1 3 2 2 3 1 4 21 5 19 6 18 7 16 8 15 9 14 10 13 11 5 12
REMARK SMILES IDX 6 13 7 14 8 15 12 16 10 17 9 18 11 20 20 22 17 24
REMARK H PARENT 9 19 11 21 20 23 17 25
REMARK Flexibility Score: inf
ROOT
ATOM      1  C   UNL     1      23.546  62.670  31.388  1.00  0.00     0.138 A 
ATOM      2  C   UNL     1      23.752  61.536  30.592  1.00  0.00     0.100 A 
ATOM      3  C   UNL     1      23.467  61.588  29.227  1.00  0.00     0.197 A 
ATOM      4  O   UNL     1      23.715  60.571  28.530  1.00  0.00    -0.289 OA
ATOM      5  C   UNL     1      22.937  62.774  28.665  1.00  0.00     0.107 A 
ATOM      6  C   UNL     1      22.576  62.933  27.292  1.00  0.00     0.134 A 
ATOM      7  C   UNL     1      22.153  64.187  26.831  1.00  0.00     0.093 A 
ATOM      8  C   UNL     1      22.024  65.268  27.700  1.00  0.00     0.123 A 
ATOM      9  C   UNL     1      22.327  65.111  29.053  1.00  0.00     0.094 A 
ATOM     10  C   UNL     1      22.784  63.884  29.538  1.00  0.00     0.146 A 
ATOM     11  O   UNL     1      23.078  63.781  30.829  1.00  0.00    -0.456 OA
ENDROOT
BRANCH   1  12
ATOM     12  C   UNL     1      23.831  62.669  32.846  1.00  0.00     0.021 A 
ATOM     13  C   UNL     1      25.017  62.082  33.317  1.00  0.00     0.016 A 
ATOM     14  C   UNL     1      25.307  62.061  34.683  1.00  0.00     0.051 A 
ATOM     15  C   UNL     1      24.411  62.617  35.604  1.00  0.00     0.157 A 
ATOM     16  C   UNL     1      22.928  63.216  33.778  1.00  0.00     0.062 A 
ATOM     17  C   UNL     1      23.214  63.194  35.148  1.00  0.00     0.158 A 
BRANCH  15  18
ATOM     18  O   UNL     1      24.703  62.596  36.967  1.00  0.00    -0.504 OA
ATOM     19  H   UNL     1      25.533  63.043  37.338  1.00  0.00     0.293 HD
ENDBRANCH  15  18
BRANCH  17  20
ATOM     20  O   UNL     1      22.296  63.746  36.041  1.00  0.00    -0.504 OA
ATOM     21  H   UNL     1      22.296  64.731  36.274  1.00  0.00     0.293 HD
ENDBRANCH  17  20
ENDBRANCH   1  12
BRANCH   6  22
ATOM     22  O   UNL     1      22.591  61.898  26.352  1.00  0.00    -0.507 OA
ATOM     23  H   UNL     1      22.141  61.004  26.468  1.00  0.00     0.293 HD
ENDBRANCH   6  22
BRANCH   8  24
ATOM     24  O   UNL     1      21.587  66.497  27.208  1.00  0.00    -0.508 OA
ATOM     25  H   UNL     1      21.538  66.683  26.213  1.00  0.00     0.293 HD
ENDBRANCH   8  24
TORSDOF 5
ENDMDL
MODEL 8
REMARK VINA RESULT:    -7.225     10.462     12.286
REMARK INTER + INTRA:          -8.810
REMARK INTER:                  -8.492
REMARK INTRA:                  -0.317
REMARK UNBOUND:                -0.317
REMARK SMILES O=c1cc(-c2ccc(O)c(O)c2)oc2cc(O)cc(O)c12
REMARK SMILES IDX 4 1 3 2 2 3 1 4 21 5 19 6 18 7 16 8 15 9 14 10 13 11 5 12
REMARK SMILES IDX 6 13 7 14 8 15 12 16 10 17 9 18 11 20 20 22 17 24
REMARK H PARENT 9 19 11 21 20 23 17 25
REMARK Flexibility Score: inf
ROOT
ATOM      1  C   UNL     1      16.716  56.473  26.199  1.00  0.00     0.138 A 
ATOM      2  C   UNL     1      17.460  57.337  25.385  1.00  0.00     0.100 A 
ATOM      3  C   UNL     1      17.071  58.671  25.256  1.00  0.00     0.197 A 
ATOM      4  O   UNL     1      17.792  59.434  24.563  1.00  0.00    -0.289 OA
ATOM      5  C   UNL     1      15.907  59.131  25.918  1.00  0.00     0.107 A 
ATOM      6  C   UNL     1      15.395  60.461  25.833  1.00  0.00     0.134 A 
ATOM      7  C   UNL     1      14.290  60.826  26.613  1.00  0.00     0.093 A 
ATOM      8  C   UNL     1      13.645  59.898  27.428  1.00  0.00     0.123 A 
ATOM      9  C   UNL     1      14.107  58.582  27.481  1.00  0.00     0.094 A 
ATOM     10  C   UNL     1      15.228  58.195  26.743  1.00  0.00     0.146 A 
ATOM     11  O   UNL     1      15.646  56.938  26.835  1.00  0.00    -0.456 OA
ENDROOT
BRANCH   1  12
ATOM     12  C   UNL     1      17.083  55.044  26.370  1.00  0.00     0.021 A 
ATOM     13  C   UNL     1      18.273  54.564  25.796  1.00  0.00     0.016 A 
ATOM     14  C   UNL     1      18.639  53.223  25.935  1.00  0.00     0.051 A 
ATOM     15  C   UNL     1      17.818  52.336  26.641  1.00  0.00     0.157 A 
ATOM     16  C   UNL     1      16.255  54.143  27.068  1.00  0.00     0.062 A 
ATOM     17  C   UNL     1      16.618  52.799  27.207  1.00  0.00     0.158 A 
BRANCH  15  18
ATOM     18  O   UNL     1      18.187  50.998  26.781  1.00  0.00    -0.504 OA
ATOM     19  H   UNL     1      17.877  50.442  27.568  1.00  0.00     0.293 HD
ENDBRANCH  15  18
BRANCH  17  20
ATOM     20  O   UNL     1      15.773  51.937  27.906  1.00  0.00    -0.504 OA
ATOM     21  H   UNL     1      15.267  51.191  27.448  1.00  0.00     0.293 HD
ENDBRANCH  17  20
ENDBRANCH   1  12
BRANCH   6  22
ATOM     22  O   UNL     1      15.914  61.449  24.990  1.00  0.00    -0.507 OA
ATOM     23  H   UNL     1      16.213  61.300  24.039  1.00  0.00     0.293 HD
ENDBRANCH   6  22
BRANCH   8  24
ATOM     24  O   UNL     1      12.540  60.293  28.179  1.00  0.00    -0.508 OA
ATOM     25  H   UNL     1      11.629  60.422  27.753  1.00  0.00     0.293 HD
ENDBRANCH   8  24
TORSDOF 5
ENDMDL
MODEL 9
REMARK VINA RESULT:    -7.158      1.428      2.674
REMARK INTER + INTRA:          -8.730
REMARK INTER:                  -8.439
REMARK INTRA:                  -0.291
REMARK UNBOUND:                -0.317
REMARK SMILES O=c1cc(-c2ccc(O)c(O)c2)oc2cc(O)cc(O)c12
REMARK SMILES IDX 4 1 3 2 2 3 1 4 21 5 19 6 18 7 16 8 15 9 14 10 13 11 5 12
REMARK SMILES IDX 6 13 7 14 8 15 12 16 10 17 9 18 11 20 20 22 17 24
REMARK H PARENT 9 19 11 21 20 23 17 25
REMARK Flexibility Score: inf
ROOT
ATOM      1  C   UNL     1      23.644  62.925  30.683  1.00  0.00     0.138 A 
ATOM      2  C   UNL     1      22.417  63.308  31.239  1.00  0.00     0.100 A 
ATOM      3  C   UNL     1      22.261  63.321  32.626  1.00  0.00     0.197 A 
ATOM      4  O   UNL     1      21.165  63.723  33.096  1.00  0.00    -0.289 OA
ATOM      5  C   UNL     1      23.331  62.912  33.458  1.00  0.00     0.107 A 
ATOM      6  C   UNL     1      23.277  62.852  34.883  1.00  0.00     0.134 A 
ATOM      7  C   UNL     1      24.433  62.525  35.604  1.00  0.00     0.093 A 
ATOM      8  C   UNL     1      25.622  62.202  34.953  1.00  0.00     0.123 A 
ATOM      9  C   UNL     1      25.672  62.210  33.559  1.00  0.00     0.094 A 
ATOM     10  C   UNL     1      24.547  62.565  32.811  1.00  0.00     0.146 A 
ATOM     11  O   UNL     1      24.643  62.576  31.486  1.00  0.00    -0.456 OA
ENDROOT
BRANCH   1  12
ATOM     12  C   UNL     1      23.864  62.891  29.214  1.00  0.00     0.021 A 
ATOM     13  C   UNL     1      24.884  62.080  28.688  1.00  0.00     0.016 A 
ATOM     14  C   UNL     1      25.117  62.034  27.311  1.00  0.00     0.051 A 
ATOM     15  C   UNL     1      24.342  62.806  26.437  1.00  0.00     0.157 A 
ATOM     16  C   UNL     1      23.096  63.675  28.331  1.00  0.00     0.062 A 
ATOM     17  C   UNL     1      23.329  63.632  26.951  1.00  0.00     0.158 A 
BRANCH  15  18
ATOM     18  O   UNL     1      24.575  62.757  25.063  1.00  0.00    -0.504 OA
ATOM     19  H   UNL     1      24.018  63.294  24.411  1.00  0.00     0.293 HD
ENDBRANCH  15  18
BRANCH  17  20
ATOM     20  O   UNL     1      22.548  64.422  26.108  1.00  0.00    -0.504 OA
ATOM     21  H   UNL     1      21.858  64.024  25.484  1.00  0.00     0.293 HD
ENDBRANCH  17  20
ENDBRANCH   1  12
BRANCH   6  22
ATOM     22  O   UNL     1      22.119  63.078  35.634  1.00  0.00    -0.507 OA
ATOM     23  H   UNL     1      22.047  63.718  36.409  1.00  0.00     0.293 HD
ENDBRANCH   6  22
BRANCH   8  24
ATOM     24  O   UNL     1      26.748  61.868  35.703  1.00  0.00    -0.508 OA
ATOM     25  H   UNL     1      26.669  61.401  36.599  1.00  0.00     0.293 HD
ENDBRANCH   8  24
TORSDOF 5
ENDMDL
