MODEL 1
REMARK VINA RESULT:    -2.943      0.000      0.000
REMARK INTER + INTRA:          -2.943
REMARK INTER:                  -2.943
REMARK INTRA:                   0.000
REMARK UNBOUND:                 0.000
REMARK SMILES CC1(C)C(=O)[C@@]2(C)CC[C@@H]1C2
REMARK SMILES IDX 1 1 2 2 10 3 9 4 8 5 6 6 11 7 4 8 5 9 7 10 3 11
REMARK H PARENT
REMARK Flexibility Score: inf
ROOT
ATOM      1  C   UNL     1     132.413 147.285 139.566  1.00  0.00     0.020 C 
ATOM      2  C   UNL     1     131.697 145.949 139.279  1.00  0.00     0.027 C 
ATOM      3  C   UNL     1     130.676 145.584 140.416  1.00  0.00     0.003 C 
ATOM      4  C   UNL     1     130.099 144.159 140.214  1.00  0.00     0.005 C 
ATOM      5  C   UNL     1     129.231 144.311 138.943  1.00  0.00     0.015 C 
ATOM      6  C   UNL     1     129.339 145.819 138.641  1.00  0.00     0.027 C 
ATOM      7  C   UNL     1     129.444 146.403 140.036  1.00  0.00     0.019 C 
ATOM      8  C   UNL     1     130.731 146.082 138.137  1.00  0.00     0.144 C 
ATOM      9  O   UNL     1     131.037 146.296 136.973  1.00  0.00    -0.298 OA
ATOM     10  C   UNL     1     128.211 146.399 137.787  1.00  0.00     0.020 C 
ATOM     11  C   UNL     1     132.754 144.858 139.000  1.00  0.00     0.020 C 
ENDROOT
TORSDOF 0
ENDMDL
MODEL 2
REMARK VINA RESULT:    -2.830      1.520      2.488
REMARK INTER + INTRA:          -2.830
REMARK INTER:                  -2.830
REMARK INTRA:                   0.000
REMARK UNBOUND:                 0.000
REMARK SMILES CC1(C)C(=O)[C@@]2(C)CC[C@@H]1C2
REMARK SMILES IDX 1 1 2 2 10 3 9 4 8 5 6 6 11 7 4 8 5 9 7 10 3 11
REMARK H PARENT
REMARK Flexibility Score: inf
ROOT
ATOM      1  C   UNL     1     132.325 143.743 137.553  1.00  0.00     0.020 C 
ATOM      2  C   UNL     1     131.780 144.523 138.769  1.00  0.00     0.027 C 
ATOM      3  C   UNL     1     131.904 146.076 138.562  1.00  0.00     0.003 C 
ATOM      4  C   UNL     1     131.526 146.843 139.855  1.00  0.00     0.005 C 
ATOM      5  C   UNL     1     130.007 146.586 139.983  1.00  0.00     0.015 C 
ATOM      6  C   UNL     1     129.691 145.794 138.700  1.00  0.00     0.027 C 
ATOM      7  C   UNL     1     130.673 146.401 137.717  1.00  0.00     0.019 C 
ATOM      8  C   UNL     1     130.285 144.421 138.856  1.00  0.00     0.144 C 
ATOM      9  O   UNL     1     129.658 143.398 139.091  1.00  0.00    -0.298 OA
ATOM     10  C   UNL     1     128.230 145.829 138.250  1.00  0.00     0.020 C 
ATOM     11  C   UNL     1     132.458 143.997 140.053  1.00  0.00     0.020 C 
ENDROOT
TORSDOF 0
ENDMDL
MODEL 3
REMARK VINA RESULT:    -2.691     12.156     14.120
REMARK INTER + INTRA:          -2.691
REMARK INTER:                  -2.691
REMARK INTRA:                   0.000
REMARK UNBOUND:                 0.000
REMARK SMILES CC1(C)C(=O)[C@@]2(C)CC[C@@H]1C2
REMARK SMILES IDX 1 1 2 2 10 3 9 4 8 5 6 6 11 7 4 8 5 9 7 10 3 11
REMARK H PARENT
REMARK Flexibility Score: inf
ROOT
ATOM      1  C   UNL     1     143.842 146.788 137.794  1.00  0.00     0.020 C 
ATOM      2  C   UNL     1     143.699 145.980 139.101  1.00  0.00     0.027 C 
ATOM      3  C   UNL     1     145.016 145.195 139.444  1.00  0.00     0.003 C 
ATOM      4  C   UNL     1     144.804 144.248 140.653  1.00  0.00     0.005 C 
ATOM      5  C   UNL     1     144.613 145.227 141.834  1.00  0.00     0.015 C 
ATOM      6  C   UNL     1     144.841 146.600 141.173  1.00  0.00     0.027 C 
ATOM      7  C   UNL     1     145.876 146.263 140.118  1.00  0.00     0.019 C 
ATOM      8  C   UNL     1     143.652 146.886 140.298  1.00  0.00     0.144 C 
ATOM      9  O   UNL     1     142.754 147.673 140.555  1.00  0.00    -0.298 OA
ATOM     10  C   UNL     1     145.241 147.728 142.125  1.00  0.00     0.020 C 
ATOM     11  C   UNL     1     142.436 145.095 139.013  1.00  0.00     0.020 C 
ENDROOT
TORSDOF 0
ENDMDL
MODEL 4
REMARK VINA RESULT:    -2.690     11.326     12.862
REMARK INTER + INTRA:          -2.690
REMARK INTER:                  -2.690
REMARK INTRA:                   0.000
REMARK UNBOUND:                 0.000
REMARK SMILES CC1(C)C(=O)[C@@]2(C)CC[C@@H]1C2
REMARK SMILES IDX 1 1 2 2 10 3 9 4 8 5 6 6 11 7 4 8 5 9 7 10 3 11
REMARK H PARENT
REMARK Flexibility Score: inf
ROOT
ATOM      1  C   UNL     1     145.475 145.141 139.705  1.00  0.00     0.020 C 
ATOM      2  C   UNL     1     144.094 145.804 139.898  1.00  0.00     0.027 C 
ATOM      3  C   UNL     1     143.895 147.020 138.923  1.00  0.00     0.003 C 
ATOM      4  C   UNL     1     142.588 147.788 139.248  1.00  0.00     0.005 C 
ATOM      5  C   UNL     1     141.483 146.783 138.849  1.00  0.00     0.015 C 
ATOM      6  C   UNL     1     142.292 145.613 138.255  1.00  0.00     0.027 C 
ATOM      7  C   UNL     1     143.462 146.341 137.624  1.00  0.00     0.019 C 
ATOM      8  C   UNL     1     142.991 144.920 139.392  1.00  0.00     0.144 C 
ATOM      9  O   UNL     1     142.666 143.846 139.876  1.00  0.00    -0.298 OA
ATOM     10  C   UNL     1     141.519 144.698 137.304  1.00  0.00     0.020 C 
ATOM     11  C   UNL     1     143.903 146.148 141.391  1.00  0.00     0.020 C 
ENDROOT
TORSDOF 0
ENDMDL
MODEL 5
REMARK VINA RESULT:    -2.686      1.981      3.450
REMARK INTER + INTRA:          -2.686
REMARK INTER:                  -2.686
REMARK INTRA:                   0.000
REMARK UNBOUND:                 0.000
REMARK SMILES CC1(C)C(=O)[C@@]2(C)CC[C@@H]1C2
REMARK SMILES IDX 1 1 2 2 10 3 9 4 8 5 6 6 11 7 4 8 5 9 7 10 3 11
REMARK H PARENT
REMARK Flexibility Score: inf
ROOT
ATOM      1  C   UNL     1     131.044 146.318 137.825  1.00  0.00     0.020 C 
ATOM      2  C   UNL     1     131.831 145.927 139.095  1.00  0.00     0.027 C 
ATOM      3  C   UNL     1     132.934 146.991 139.442  1.00  0.00     0.003 C 
ATOM      4  C   UNL     1     133.835 146.503 140.604  1.00  0.00     0.005 C 
ATOM      5  C   UNL     1     132.880 146.520 141.819  1.00  0.00     0.015 C 
ATOM      6  C   UNL     1     131.587 147.111 141.221  1.00  0.00     0.027 C 
ATOM      7  C   UNL     1     132.141 148.066 140.183  1.00  0.00     0.019 C 
ATOM      8  C   UNL     1     130.982 146.065 140.325  1.00  0.00     0.144 C 
ATOM      9  O   UNL     1     130.002 145.385 140.589  1.00  0.00    -0.298 OA
ATOM     10  C   UNL     1     130.629 147.745 142.230  1.00  0.00     0.020 C 
ATOM     11  C   UNL     1     132.365 144.487 138.935  1.00  0.00     0.020 C 
ENDROOT
TORSDOF 0
ENDMDL
MODEL 6
REMARK VINA RESULT:    -2.671      1.674      2.751
REMARK INTER + INTRA:          -2.671
REMARK INTER:                  -2.671
REMARK INTRA:                   0.000
REMARK UNBOUND:                 0.000
REMARK SMILES CC1(C)C(=O)[C@@]2(C)CC[C@@H]1C2
REMARK SMILES IDX 1 1 2 2 10 3 9 4 8 5 6 6 11 7 4 8 5 9 7 10 3 11
REMARK H PARENT
REMARK Flexibility Score: inf
ROOT
ATOM      1  C   UNL     1     132.755 147.603 139.759  1.00  0.00     0.020 C 
ATOM      2  C   UNL     1     131.742 146.449 139.915  1.00  0.00     0.027 C 
ATOM      3  C   UNL     1     130.601 146.531 138.839  1.00  0.00     0.003 C 
ATOM      4  C   UNL     1     129.495 145.481 139.116  1.00  0.00     0.005 C 
ATOM      5  C   UNL     1     130.207 144.139 138.829  1.00  0.00     0.015 C 
ATOM      6  C   UNL     1     131.591 144.594 138.328  1.00  0.00     0.027 C 
ATOM      7  C   UNL     1     131.248 145.887 137.614  1.00  0.00     0.019 C 
ATOM      8  C   UNL     1     132.347 145.136 139.510  1.00  0.00     0.144 C 
ATOM      9  O   UNL     1     133.256 144.565 140.094  1.00  0.00    -0.298 OA
ATOM     10  C   UNL     1     132.349 143.574 137.477  1.00  0.00     0.020 C 
ATOM     11  C   UNL     1     131.239 146.413 141.375  1.00  0.00     0.020 C 
ENDROOT
TORSDOF 0
ENDMDL
MODEL 7
REMARK VINA RESULT:    -2.666      1.525      3.730
REMARK INTER + INTRA:          -2.666
REMARK INTER:                  -2.666
REMARK INTRA:                   0.000
REMARK UNBOUND:                 0.000
REMARK SMILES CC1(C)C(=O)[C@@]2(C)CC[C@@H]1C2
REMARK SMILES IDX 1 1 2 2 10 3 9 4 8 5 6 6 11 7 4 8 5 9 7 10 3 11
REMARK H PARENT
REMARK Flexibility Score: inf
ROOT
ATOM      1  C   UNL     1     129.912 144.590 139.062  1.00  0.00     0.020 C 
ATOM      2  C   UNL     1     131.015 145.652 138.866  1.00  0.00     0.027 C 
ATOM      3  C   UNL     1     131.122 146.610 140.106  1.00  0.00     0.003 C 
ATOM      4  C   UNL     1     132.101 147.779 139.825  1.00  0.00     0.005 C 
ATOM      5  C   UNL     1     133.475 147.076 139.755  1.00  0.00     0.015 C 
ATOM      6  C   UNL     1     133.124 145.616 140.104  1.00  0.00     0.027 C 
ATOM      7  C   UNL     1     131.979 145.803 141.080  1.00  0.00     0.019 C 
ATOM      8  C   UNL     1     132.382 145.035 138.932  1.00  0.00     0.144 C 
ATOM      9  O   UNL     1     132.843 144.246 138.120  1.00  0.00    -0.298 OA
ATOM     10  C   UNL     1     134.284 144.770 140.630  1.00  0.00     0.020 C 
ATOM     11  C   UNL     1     130.786 146.376 137.521  1.00  0.00     0.020 C 
ENDROOT
TORSDOF 0
ENDMDL
MODEL 8
REMARK VINA RESULT:    -2.655     11.558     13.405
REMARK INTER + INTRA:          -2.655
REMARK INTER:                  -2.655
REMARK INTRA:                   0.000
REMARK UNBOUND:                 0.000
REMARK SMILES CC1(C)C(=O)[C@@]2(C)CC[C@@H]1C2
REMARK SMILES IDX 1 1 2 2 10 3 9 4 8 5 6 6 11 7 4 8 5 9 7 10 3 11
REMARK H PARENT
REMARK Flexibility Score: inf
ROOT
ATOM      1  C   UNL     1     141.760 147.180 139.108  1.00  0.00     0.020 C 
ATOM      2  C   UNL     1     143.128 146.497 138.895  1.00  0.00     0.027 C 
ATOM      3  C   UNL     1     144.067 146.682 140.142  1.00  0.00     0.003 C 
ATOM      4  C   UNL     1     145.494 146.154 139.849  1.00  0.00     0.005 C 
ATOM      5  C   UNL     1     145.287 144.626 139.740  1.00  0.00     0.015 C 
ATOM      6  C   UNL     1     143.793 144.465 140.083  1.00  0.00     0.027 C 
ATOM      7  C   UNL     1     143.589 145.581 141.087  1.00  0.00     0.019 C 
ATOM      8  C   UNL     1     143.000 145.002 138.923  1.00  0.00     0.144 C 
ATOM      9  O   UNL     1     142.409 144.326 138.094  1.00  0.00    -0.298 OA
ATOM     10  C   UNL     1     143.379 143.077 140.574  1.00  0.00     0.020 C 
ATOM     11  C   UNL     1     143.737 146.987 137.563  1.00  0.00     0.020 C 
ENDROOT
TORSDOF 0
ENDMDL
MODEL 9
REMARK VINA RESULT:    -2.647      1.718      3.431
REMARK INTER + INTRA:          -2.647
REMARK INTER:                  -2.647
REMARK INTRA:                   0.000
REMARK UNBOUND:                 0.000
REMARK SMILES CC1(C)C(=O)[C@@]2(C)CC[C@@H]1C2
REMARK SMILES IDX 1 1 2 2 10 3 9 4 8 5 6 6 11 7 4 8 5 9 7 10 3 11
REMARK H PARENT
REMARK Flexibility Score: inf
ROOT
ATOM      1  C   UNL     1     128.854 144.828 139.163  1.00  0.00     0.020 C 
ATOM      2  C   UNL     1     130.341 144.591 139.504  1.00  0.00     0.027 C 
ATOM      3  C   UNL     1     131.255 144.729 138.234  1.00  0.00     0.003 C 
ATOM      4  C   UNL     1     132.715 144.311 138.548  1.00  0.00     0.005 C 
ATOM      5  C   UNL     1     133.200 145.427 139.502  1.00  0.00     0.015 C 
ATOM      6  C   UNL     1     131.998 146.391 139.531  1.00  0.00     0.027 C 
ATOM      7  C   UNL     1     131.452 146.240 138.125  1.00  0.00     0.019 C 
ATOM      8  C   UNL     1     130.900 145.724 140.315  1.00  0.00     0.144 C 
ATOM      9  O   UNL     1     130.569 146.009 141.456  1.00  0.00    -0.298 OA
ATOM     10  C   UNL     1     132.318 147.828 139.943  1.00  0.00     0.020 C 
ATOM     11  C   UNL     1     130.481 143.243 140.245  1.00  0.00     0.020 C 
ENDROOT
TORSDOF 0
ENDMDL
