MODEL 1
REMARK VINA RESULT:    -3.109      0.000      0.000
REMARK INTER + INTRA:         -11.294
REMARK INTER:                  -7.834
REMARK INTRA:                  -3.461
REMARK UNBOUND:                -3.461
REMARK SMILES CCCCCCCCCCCCCCCCCCCCCCCCCCCC(=O)[O-]
REMARK SMILES IDX 15 1 16 2 17 3 18 4 19 5 20 6 21 7 22 8 23 9 24 10 25 11
REMARK SMILES IDX 26 12 27 13 28 14 29 15 30 16 14 17 13 18 12 19 11 20 10 21
REMARK SMILES IDX 9 22 8 23 7 24 6 25 5 26 4 27 3 28 2 29 1 30
REMARK H PARENT
REMARK Flexibility Score: inf
ROOT
ATOM      1  C   UNL     1       0.088  25.149  49.798  1.00  0.00     0.000 C 
ENDROOT
BRANCH   1   2
ATOM      2  C   UNL     1       1.519  25.706  49.941  1.00  0.00     0.000 C 
BRANCH   2   3
ATOM      3  C   UNL     1       2.384  25.016  51.012  1.00  0.00     0.000 C 
BRANCH   3   4
ATOM      4  C   UNL     1       1.626  24.037  51.929  1.00  0.00     0.000 C 
BRANCH   4   5
ATOM      5  C   UNL     1       2.130  22.581  51.838  1.00  0.00     0.000 C 
BRANCH   5   6
ATOM      6  C   UNL     1       1.472  21.799  50.692  1.00  0.00     0.000 C 
BRANCH   6   7
ATOM      7  C   UNL     1       0.322  20.926  51.208  1.00  0.00     0.000 C 
BRANCH   7   8
ATOM      8  C   UNL     1      -0.963  21.751  51.374  1.00  0.00     0.000 C 
BRANCH   8   9
ATOM      9  C   UNL     1      -1.655  21.509  52.725  1.00  0.00     0.000 C 
BRANCH   9  10
ATOM     10  C   UNL     1      -0.716  20.874  53.762  1.00  0.00     0.000 C 
BRANCH  10  11
ATOM     11  C   UNL     1      -1.369  20.844  55.149  1.00  0.00     0.000 C 
BRANCH  11  12
ATOM     12  C   UNL     1      -1.414  19.413  55.706  1.00  0.00     0.006 C 
BRANCH  12  13
ATOM     13  C   UNL     1      -1.171  18.358  54.619  1.00  0.00     0.053 C 
BRANCH  13  14
ATOM     14  C   UNL     1      -0.656  17.074  55.193  1.00  0.00     0.041 C 
ATOM     15  O   UNL     1      -1.230  15.985  54.928  1.00  0.00    -0.550 OA
ATOM     16  O   UNL     1       0.476  17.077  56.000  1.00  0.00    -0.550 OA
ENDBRANCH  13  14
ENDBRANCH  12  13
ENDBRANCH  11  12
ENDBRANCH  10  11
ENDBRANCH   9  10
ENDBRANCH   8   9
ENDBRANCH   7   8
ENDBRANCH   6   7
ENDBRANCH   5   6
ENDBRANCH   4   5
ENDBRANCH   3   4
ENDBRANCH   2   3
ENDBRANCH   1   2
BRANCH   1  17
ATOM     17  C   UNL     1      -0.767  25.812  48.700  1.00  0.00     0.000 C 
BRANCH  17  18
ATOM     18  C   UNL     1      -0.406  25.402  47.260  1.00  0.00     0.000 C 
BRANCH  18  19
ATOM     19  C   UNL     1      -1.611  25.204  46.323  1.00  0.00     0.000 C 
BRANCH  19  20
ATOM     20  C   UNL     1      -1.221  24.750  44.897  1.00  0.00     0.000 C 
BRANCH  20  21
ATOM     21  C   UNL     1      -1.704  23.333  44.528  1.00  0.00     0.000 C 
BRANCH  21  22
ATOM     22  C   UNL     1      -1.998  22.404  45.724  1.00  0.00    -0.000 C 
BRANCH  22  23
ATOM     23  C   UNL     1      -0.795  21.586  46.231  1.00  0.00    -0.000 C 
BRANCH  23  24
ATOM     24  C   UNL     1      -1.001  21.045  47.656  1.00  0.00    -0.000 C 
BRANCH  24  25
ATOM     25  C   UNL     1      -0.084  19.850  47.975  1.00  0.00    -0.000 C 
BRANCH  25  26
ATOM     26  C   UNL     1       1.141  19.696  47.048  1.00  0.00    -0.000 C 
BRANCH  26  27
ATOM     27  C   UNL     1       2.489  19.427  47.751  1.00  0.00    -0.000 C 
BRANCH  27  28
ATOM     28  C   UNL     1       2.407  18.528  49.005  1.00  0.00    -0.000 C 
BRANCH  28  29
ATOM     29  C   UNL     1       3.570  18.716  49.995  1.00  0.00    -0.003 C 
ATOM     30  C   UNL     1       4.321  20.032  49.804  1.00  0.00     0.004 C 
ENDBRANCH  28  29
ENDBRANCH  27  28
ENDBRANCH  26  27
ENDBRANCH  25  26
ENDBRANCH  24  25
ENDBRANCH  23  24
ENDBRANCH  22  23
ENDBRANCH  21  22
ENDBRANCH  20  21
ENDBRANCH  19  20
ENDBRANCH  18  19
ENDBRANCH  17  18
ENDBRANCH   1  17
TORSDOF 26
ENDMDL
MODEL 2
REMARK VINA RESULT:    -2.858      0.862      4.357
REMARK INTER + INTRA:         -10.662
REMARK INTER:                  -8.280
REMARK INTRA:                  -2.382
REMARK UNBOUND:                -3.461
REMARK SMILES CCCCCCCCCCCCCCCCCCCCCCCCCCCC(=O)[O-]
REMARK SMILES IDX 15 1 16 2 17 3 18 4 19 5 20 6 21 7 22 8 23 9 24 10 25 11
REMARK SMILES IDX 26 12 27 13 28 14 29 15 30 16 14 17 13 18 12 19 11 20 10 21
REMARK SMILES IDX 9 22 8 23 7 24 6 25 5 26 4 27 3 28 2 29 1 30
REMARK H PARENT
REMARK Flexibility Score: inf
ROOT
ATOM      1  C   UNL     1       1.034  18.858  47.878  1.00  0.00     0.000 C 
ENDROOT
BRANCH   1   2
ATOM      2  C   UNL     1       2.546  19.093  48.072  1.00  0.00     0.000 C 
BRANCH   2   3
ATOM      3  C   UNL     1       3.063  18.863  49.504  1.00  0.00     0.000 C 
BRANCH   3   4
ATOM      4  C   UNL     1       3.914  20.012  50.080  1.00  0.00     0.000 C 
BRANCH   4   5
ATOM      5  C   UNL     1       3.083  21.211  50.585  1.00  0.00     0.000 C 
BRANCH   5   6
ATOM      6  C   UNL     1       1.681  20.799  51.059  1.00  0.00     0.000 C 
BRANCH   6   7
ATOM      7  C   UNL     1       1.052  21.888  51.936  1.00  0.00     0.000 C 
BRANCH   7   8
ATOM      8  C   UNL     1      -0.416  22.125  51.548  1.00  0.00     0.000 C 
BRANCH   8   9
ATOM      9  C   UNL     1      -1.370  21.097  52.177  1.00  0.00     0.000 C 
BRANCH   9  10
ATOM     10  C   UNL     1      -1.953  21.574  53.516  1.00  0.00     0.000 C 
BRANCH  10  11
ATOM     11  C   UNL     1      -1.352  20.789  54.688  1.00  0.00     0.000 C 
BRANCH  11  12
ATOM     12  C   UNL     1      -1.318  19.284  54.383  1.00  0.00     0.006 C 
BRANCH  12  13
ATOM     13  C   UNL     1      -0.660  18.476  55.508  1.00  0.00     0.053 C 
BRANCH  13  14
ATOM     14  C   UNL     1      -0.656  17.007  55.211  1.00  0.00     0.041 C 
ATOM     15  O   UNL     1       0.360  16.311  55.472  1.00  0.00    -0.550 OA
ATOM     16  O   UNL     1      -1.785  16.402  54.672  1.00  0.00    -0.550 OA
ENDBRANCH  13  14
ENDBRANCH  12  13
ENDBRANCH  11  12
ENDBRANCH  10  11
ENDBRANCH   9  10
ENDBRANCH   8   9
ENDBRANCH   7   8
ENDBRANCH   6   7
ENDBRANCH   5   6
ENDBRANCH   4   5
ENDBRANCH   3   4
ENDBRANCH   2   3
ENDBRANCH   1   2
BRANCH   1  17
ATOM     17  C   UNL     1       0.118  19.931  48.500  1.00  0.00     0.000 C 
BRANCH  17  18
ATOM     18  C   UNL     1      -0.380  21.009  47.518  1.00  0.00     0.000 C 
BRANCH  18  19
ATOM     19  C   UNL     1      -0.130  20.692  46.033  1.00  0.00     0.000 C 
BRANCH  19  20
ATOM     20  C   UNL     1      -0.790  21.702  45.064  1.00  0.00     0.000 C 
BRANCH  20  21
ATOM     21  C   UNL     1      -1.986  22.468  45.662  1.00  0.00     0.000 C 
BRANCH  21  22
ATOM     22  C   UNL     1      -2.419  23.727  44.883  1.00  0.00    -0.000 C 
BRANCH  22  23
ATOM     23  C   UNL     1      -1.319  24.787  44.683  1.00  0.00    -0.000 C 
BRANCH  23  24
ATOM     24  C   UNL     1      -0.881  25.445  46.002  1.00  0.00    -0.000 C 
BRANCH  24  25
ATOM     25  C   UNL     1      -2.027  25.545  47.024  1.00  0.00    -0.000 C 
BRANCH  25  26
ATOM     26  C   UNL     1      -1.587  25.775  48.486  1.00  0.00    -0.000 C 
BRANCH  26  27
ATOM     27  C   UNL     1      -0.091  26.097  48.698  1.00  0.00    -0.000 C 
BRANCH  27  28
ATOM     28  C   UNL     1       0.700  25.039  49.499  1.00  0.00    -0.000 C 
BRANCH  28  29
ATOM     29  C   UNL     1       1.793  25.623  50.411  1.00  0.00    -0.003 C 
ATOM     30  C   UNL     1       2.236  24.667  51.515  1.00  0.00     0.004 C 
ENDBRANCH  28  29
ENDBRANCH  27  28
ENDBRANCH  26  27
ENDBRANCH  25  26
ENDBRANCH  24  25
ENDBRANCH  23  24
ENDBRANCH  22  23
ENDBRANCH  21  22
ENDBRANCH  20  21
ENDBRANCH  19  20
ENDBRANCH  18  19
ENDBRANCH  17  18
ENDBRANCH   1  17
TORSDOF 26
ENDMDL
MODEL 3
REMARK VINA RESULT:    -2.760      2.722      7.717
REMARK INTER + INTRA:         -10.415
REMARK INTER:                  -7.556
REMARK INTRA:                  -2.859
REMARK UNBOUND:                -3.461
REMARK SMILES CCCCCCCCCCCCCCCCCCCCCCCCCCCC(=O)[O-]
REMARK SMILES IDX 15 1 16 2 17 3 18 4 19 5 20 6 21 7 22 8 23 9 24 10 25 11
REMARK SMILES IDX 26 12 27 13 28 14 29 15 30 16 14 17 13 18 12 19 11 20 10 21
REMARK SMILES IDX 9 22 8 23 7 24 6 25 5 26 4 27 3 28 2 29 1 30
REMARK H PARENT
REMARK Flexibility Score: inf
ROOT
ATOM      1  C   UNL     1       0.944  18.994  47.569  1.00  0.00     0.000 C 
ENDROOT
BRANCH   1   2
ATOM      2  C   UNL     1      -0.156  19.878  48.190  1.00  0.00     0.000 C 
BRANCH   2   3
ATOM      3  C   UNL     1      -0.627  21.048  47.308  1.00  0.00     0.000 C 
BRANCH   3   4
ATOM      4  C   UNL     1      -0.239  20.940  45.821  1.00  0.00     0.000 C 
BRANCH   4   5
ATOM      5  C   UNL     1      -0.948  21.969  44.915  1.00  0.00     0.000 C 
BRANCH   5   6
ATOM      6  C   UNL     1      -2.031  22.762  45.660  1.00  0.00     0.000 C 
BRANCH   6   7
ATOM      7  C   UNL     1      -2.295  24.111  44.980  1.00  0.00     0.000 C 
BRANCH   7   8
ATOM      8  C   UNL     1      -1.017  24.964  44.938  1.00  0.00     0.000 C 
BRANCH   8   9
ATOM      9  C   UNL     1      -0.782  25.744  46.241  1.00  0.00     0.000 C 
BRANCH   9  10
ATOM     10  C   UNL     1      -2.043  25.833  47.112  1.00  0.00     0.000 C 
BRANCH  10  11
ATOM     11  C   UNL     1      -1.721  25.523  48.579  1.00  0.00     0.000 C 
BRANCH  11  12
ATOM     12  C   UNL     1      -0.242  25.799  48.888  1.00  0.00     0.006 C 
BRANCH  12  13
ATOM     13  C   UNL     1       0.331  24.816  49.917  1.00  0.00     0.053 C 
BRANCH  13  14
ATOM     14  C   UNL     1       1.646  25.284  50.462  1.00  0.00     0.041 C 
ATOM     15  O   UNL     1       2.337  26.119  49.821  1.00  0.00    -0.550 OA
ATOM     16  O   UNL     1       2.095  24.819  51.692  1.00  0.00    -0.550 OA
ENDBRANCH  13  14
ENDBRANCH  12  13
ENDBRANCH  11  12
ENDBRANCH  10  11
ENDBRANCH   9  10
ENDBRANCH   8   9
ENDBRANCH   7   8
ENDBRANCH   6   7
ENDBRANCH   5   6
ENDBRANCH   4   5
ENDBRANCH   3   4
ENDBRANCH   2   3
ENDBRANCH   1   2
BRANCH   1  17
ATOM     17  C   UNL     1       2.387  19.360  47.973  1.00  0.00     0.000 C 
BRANCH  17  18
ATOM     18  C   UNL     1       2.940  18.583  49.182  1.00  0.00     0.000 C 
BRANCH  18  19
ATOM     19  C   UNL     1       3.885  19.390  50.090  1.00  0.00     0.000 C 
BRANCH  19  20
ATOM     20  C   UNL     1       3.497  20.882  50.219  1.00  0.00     0.000 C 
BRANCH  20  21
ATOM     21  C   UNL     1       2.413  21.167  51.277  1.00  0.00     0.000 C 
BRANCH  21  22
ATOM     22  C   UNL     1       1.008  21.472  50.715  1.00  0.00    -0.000 C 
BRANCH  22  23
ATOM     23  C   UNL     1      -0.164  20.891  51.529  1.00  0.00    -0.000 C 
BRANCH  23  24
ATOM     24  C   UNL     1      -1.129  21.974  52.040  1.00  0.00    -0.000 C 
BRANCH  24  25
ATOM     25  C   UNL     1      -1.892  21.541  53.304  1.00  0.00    -0.000 C 
BRANCH  25  26
ATOM     26  C   UNL     1      -1.018  21.316  54.556  1.00  0.00    -0.000 C 
BRANCH  26  27
ATOM     27  C   UNL     1      -1.399  20.107  55.439  1.00  0.00    -0.000 C 
BRANCH  27  28
ATOM     28  C   UNL     1      -1.332  18.734  54.733  1.00  0.00    -0.000 C 
BRANCH  28  29
ATOM     29  C   UNL     1      -0.521  17.672  55.495  1.00  0.00    -0.003 C 
ATOM     30  C   UNL     1      -0.683  16.264  54.928  1.00  0.00     0.004 C 
ENDBRANCH  28  29
ENDBRANCH  27  28
ENDBRANCH  26  27
ENDBRANCH  25  26
ENDBRANCH  24  25
ENDBRANCH  23  24
ENDBRANCH  22  23
ENDBRANCH  21  22
ENDBRANCH  20  21
ENDBRANCH  19  20
ENDBRANCH  18  19
ENDBRANCH  17  18
ENDBRANCH   1  17
TORSDOF 26
ENDMDL
MODEL 4
REMARK VINA RESULT:    -2.744      1.629      4.848
REMARK INTER + INTRA:         -10.377
REMARK INTER:                  -7.447
REMARK INTRA:                  -2.930
REMARK UNBOUND:                -3.461
REMARK SMILES CCCCCCCCCCCCCCCCCCCCCCCCCCCC(=O)[O-]
REMARK SMILES IDX 15 1 16 2 17 3 18 4 19 5 20 6 21 7 22 8 23 9 24 10 25 11
REMARK SMILES IDX 26 12 27 13 28 14 29 15 30 16 14 17 13 18 12 19 11 20 10 21
REMARK SMILES IDX 9 22 8 23 7 24 6 25 5 26 4 27 3 28 2 29 1 30
REMARK H PARENT
REMARK Flexibility Score: inf
ROOT
ATOM      1  C   UNL     1      -1.316  24.184  44.149  1.00  0.00     0.000 C 
ENDROOT
BRANCH   1   2
ATOM      2  C   UNL     1      -2.504  23.481  44.836  1.00  0.00     0.000 C 
BRANCH   2   3
ATOM      3  C   UNL     1      -2.120  22.333  45.788  1.00  0.00     0.000 C 
BRANCH   3   4
ATOM      4  C   UNL     1      -0.616  21.996  45.827  1.00  0.00     0.000 C 
BRANCH   4   5
ATOM      5  C   UNL     1      -0.310  20.492  45.664  1.00  0.00     0.000 C 
BRANCH   5   6
ATOM      6  C   UNL     1       1.167  20.160  45.921  1.00  0.00     0.000 C 
BRANCH   6   7
ATOM      7  C   UNL     1       1.352  19.485  47.285  1.00  0.00     0.000 C 
BRANCH   7   8
ATOM      8  C   UNL     1       0.016  19.391  48.038  1.00  0.00     0.000 C 
BRANCH   8   9
ATOM      9  C   UNL     1       0.028  20.159  49.369  1.00  0.00     0.000 C 
BRANCH   9  10
ATOM     10  C   UNL     1      -0.483  21.600  49.223  1.00  0.00     0.000 C 
BRANCH  10  11
ATOM     11  C   UNL     1      -0.793  22.215  50.593  1.00  0.00     0.000 C 
BRANCH  11  12
ATOM     12  C   UNL     1      -1.012  21.121  51.650  1.00  0.00     0.006 C 
BRANCH  12  13
ATOM     13  C   UNL     1      -1.675  21.665  52.921  1.00  0.00     0.053 C 
BRANCH  13  14
ATOM     14  C   UNL     1      -1.105  21.040  54.158  1.00  0.00     0.041 C 
ATOM     15  O   UNL     1      -1.307  19.822  54.403  1.00  0.00    -0.550 OA
ATOM     16  O   UNL     1      -0.328  21.797  55.027  1.00  0.00    -0.550 OA
ENDBRANCH  13  14
ENDBRANCH  12  13
ENDBRANCH  11  12
ENDBRANCH  10  11
ENDBRANCH   9  10
ENDBRANCH   8   9
ENDBRANCH   7   8
ENDBRANCH   6   7
ENDBRANCH   5   6
ENDBRANCH   4   5
ENDBRANCH   3   4
ENDBRANCH   2   3
ENDBRANCH   1   2
BRANCH   1  17
ATOM     17  C   UNL     1      -1.029  25.618  44.640  1.00  0.00     0.000 C 
BRANCH  17  18
ATOM     18  C   UNL     1      -0.604  25.725  46.117  1.00  0.00     0.000 C 
BRANCH  18  19
ATOM     19  C   UNL     1      -1.769  25.804  47.119  1.00  0.00     0.000 C 
BRANCH  19  20
ATOM     20  C   UNL     1      -1.381  25.384  48.556  1.00  0.00     0.000 C 
BRANCH  20  21
ATOM     21  C   UNL     1       0.123  25.508  48.870  1.00  0.00     0.000 C 
BRANCH  21  22
ATOM     22  C   UNL     1       0.531  25.127  50.308  1.00  0.00    -0.000 C 
BRANCH  22  23
ATOM     23  C   UNL     1       1.969  25.511  50.706  1.00  0.00    -0.000 C 
BRANCH  23  24
ATOM     24  C   UNL     1       2.785  24.312  51.219  1.00  0.00    -0.000 C 
BRANCH  24  25
ATOM     25  C   UNL     1       1.947  23.349  52.079  1.00  0.00    -0.000 C 
BRANCH  25  26
ATOM     26  C   UNL     1       2.140  21.850  51.765  1.00  0.00    -0.000 C 
BRANCH  26  27
ATOM     27  C   UNL     1       2.830  21.524  50.423  1.00  0.00    -0.000 C 
BRANCH  27  28
ATOM     28  C   UNL     1       3.934  20.446  50.498  1.00  0.00    -0.000 C 
BRANCH  28  29
ATOM     29  C   UNL     1       3.855  19.382  49.390  1.00  0.00    -0.003 C 
ATOM     30  C   UNL     1       3.382  18.019  49.891  1.00  0.00     0.004 C 
ENDBRANCH  28  29
ENDBRANCH  27  28
ENDBRANCH  26  27
ENDBRANCH  25  26
ENDBRANCH  24  25
ENDBRANCH  23  24
ENDBRANCH  22  23
ENDBRANCH  21  22
ENDBRANCH  20  21
ENDBRANCH  19  20
ENDBRANCH  18  19
ENDBRANCH  17  18
ENDBRANCH   1  17
TORSDOF 26
ENDMDL
MODEL 5
REMARK VINA RESULT:    -2.635      2.140      6.594
REMARK INTER + INTRA:         -10.102
REMARK INTER:                  -7.183
REMARK INTRA:                  -2.919
REMARK UNBOUND:                -3.461
REMARK SMILES CCCCCCCCCCCCCCCCCCCCCCCCCCCC(=O)[O-]
REMARK SMILES IDX 15 1 16 2 17 3 18 4 19 5 20 6 21 7 22 8 23 9 24 10 25 11
REMARK SMILES IDX 26 12 27 13 28 14 29 15 30 16 14 17 13 18 12 19 11 20 10 21
REMARK SMILES IDX 9 22 8 23 7 24 6 25 5 26 4 27 3 28 2 29 1 30
REMARK H PARENT
REMARK Flexibility Score: inf
ROOT
ATOM      1  C   UNL     1       0.183  26.106  48.724  1.00  0.00     0.000 C 
ENDROOT
BRANCH   1   2
ATOM      2  C   UNL     1      -1.022  25.174  48.487  1.00  0.00     0.000 C 
BRANCH   2   3
ATOM      3  C   UNL     1      -1.802  25.434  47.185  1.00  0.00     0.000 C 
BRANCH   3   4
ATOM      4  C   UNL     1      -0.940  25.472  45.908  1.00  0.00     0.000 C 
BRANCH   4   5
ATOM      5  C   UNL     1      -1.347  24.422  44.851  1.00  0.00     0.000 C 
BRANCH   5   6
ATOM      6  C   UNL     1      -2.507  23.532  45.321  1.00  0.00     0.000 C 
BRANCH   6   7
ATOM      7  C   UNL     1      -2.074  22.064  45.415  1.00  0.00     0.000 C 
BRANCH   7   8
ATOM      8  C   UNL     1      -0.798  21.920  46.260  1.00  0.00     0.000 C 
BRANCH   8   9
ATOM      9  C   UNL     1       0.182  20.887  45.685  1.00  0.00     0.000 C 
BRANCH   9  10
ATOM     10  C   UNL     1       0.139  19.549  46.439  1.00  0.00     0.000 C 
BRANCH  10  11
ATOM     11  C   UNL     1       0.125  19.773  47.956  1.00  0.00     0.000 C 
BRANCH  11  12
ATOM     12  C   UNL     1       1.295  19.041  48.632  1.00  0.00     0.006 C 
BRANCH  12  13
ATOM     13  C   UNL     1       2.346  20.011  49.186  1.00  0.00     0.053 C 
BRANCH  13  14
ATOM     14  C   UNL     1       3.574  19.292  49.656  1.00  0.00     0.041 C 
ATOM     15  O   UNL     1       3.564  18.040  49.786  1.00  0.00    -0.550 OA
ATOM     16  O   UNL     1       4.737  20.003  49.925  1.00  0.00    -0.550 OA
ENDBRANCH  13  14
ENDBRANCH  12  13
ENDBRANCH  11  12
ENDBRANCH  10  11
ENDBRANCH   9  10
ENDBRANCH   8   9
ENDBRANCH   7   8
ENDBRANCH   6   7
ENDBRANCH   5   6
ENDBRANCH   4   5
ENDBRANCH   3   4
ENDBRANCH   2   3
ENDBRANCH   1   2
BRANCH   1  17
ATOM     17  C   UNL     1       0.732  26.115  50.166  1.00  0.00     0.000 C 
BRANCH  17  18
ATOM     18  C   UNL     1       2.248  25.872  50.284  1.00  0.00     0.000 C 
BRANCH  18  19
ATOM     19  C   UNL     1       2.639  24.603  51.064  1.00  0.00     0.000 C 
BRANCH  19  20
ATOM     20  C   UNL     1       1.454  23.943  51.808  1.00  0.00     0.000 C 
BRANCH  20  21
ATOM     21  C   UNL     1       1.185  22.480  51.402  1.00  0.00     0.000 C 
BRANCH  21  22
ATOM     22  C   UNL     1      -0.277  22.158  51.028  1.00  0.00    -0.000 C 
BRANCH  22  23
ATOM     23  C   UNL     1      -0.980  21.142  51.948  1.00  0.00    -0.000 C 
BRANCH  23  24
ATOM     24  C   UNL     1      -1.727  21.813  53.113  1.00  0.00    -0.000 C 
BRANCH  24  25
ATOM     25  C   UNL     1      -1.752  20.942  54.381  1.00  0.00    -0.000 C 
BRANCH  25  26
ATOM     26  C   UNL     1      -0.817  19.714  54.354  1.00  0.00    -0.000 C 
BRANCH  26  27
ATOM     27  C   UNL     1      -1.159  18.582  55.349  1.00  0.00    -0.000 C 
BRANCH  27  28
ATOM     28  C   UNL     1      -1.315  17.181  54.718  1.00  0.00    -0.000 C 
BRANCH  28  29
ATOM     29  C   UNL     1      -0.283  16.150  55.207  1.00  0.00    -0.003 C 
ATOM     30  C   UNL     1       0.875  16.772  55.983  1.00  0.00     0.004 C 
ENDBRANCH  28  29
ENDBRANCH  27  28
ENDBRANCH  26  27
ENDBRANCH  25  26
ENDBRANCH  24  25
ENDBRANCH  23  24
ENDBRANCH  22  23
ENDBRANCH  21  22
ENDBRANCH  20  21
ENDBRANCH  19  20
ENDBRANCH  18  19
ENDBRANCH  17  18
ENDBRANCH   1  17
TORSDOF 26
ENDMDL
MODEL 6
REMARK VINA RESULT:    -2.491      2.401      5.605
REMARK INTER + INTRA:          -9.737
REMARK INTER:                  -7.051
REMARK INTRA:                  -2.686
REMARK UNBOUND:                -3.461
REMARK SMILES CCCCCCCCCCCCCCCCCCCCCCCCCCCC(=O)[O-]
REMARK SMILES IDX 15 1 16 2 17 3 18 4 19 5 20 6 21 7 22 8 23 9 24 10 25 11
REMARK SMILES IDX 26 12 27 13 28 14 29 15 30 16 14 17 13 18 12 19 11 20 10 21
REMARK SMILES IDX 9 22 8 23 7 24 6 25 5 26 4 27 3 28 2 29 1 30
REMARK H PARENT
REMARK Flexibility Score: inf
ROOT
ATOM      1  C   UNL     1      -1.480  23.909  44.256  1.00  0.00     0.000 C 
ENDROOT
BRANCH   1   2
ATOM      2  C   UNL     1      -1.171  25.374  44.627  1.00  0.00     0.000 C 
BRANCH   2   3
ATOM      3  C   UNL     1      -0.759  25.603  46.092  1.00  0.00     0.000 C 
BRANCH   3   4
ATOM      4  C   UNL     1      -1.931  25.784  47.076  1.00  0.00     0.000 C 
BRANCH   4   5
ATOM      5  C   UNL     1      -1.534  25.605  48.558  1.00  0.00     0.000 C 
BRANCH   5   6
ATOM      6  C   UNL     1      -0.094  25.098  48.725  1.00  0.00     0.000 C 
BRANCH   6   7
ATOM      7  C   UNL     1       0.368  25.217  50.182  1.00  0.00     0.000 C 
BRANCH   7   8
ATOM      8  C   UNL     1       1.879  25.488  50.258  1.00  0.00     0.000 C 
BRANCH   8   9
ATOM      9  C   UNL     1       2.601  24.553  51.242  1.00  0.00     0.000 C 
BRANCH   9  10
ATOM     10  C   UNL     1       1.627  23.696  52.064  1.00  0.00     0.000 C 
BRANCH  10  11
ATOM     11  C   UNL     1       2.109  22.243  52.147  1.00  0.00     0.000 C 
BRANCH  11  12
ATOM     12  C   UNL     1       2.699  21.782  50.805  1.00  0.00     0.006 C 
BRANCH  12  13
ATOM     13  C   UNL     1       2.675  20.256  50.652  1.00  0.00     0.053 C 
BRANCH  13  14
ATOM     14  C   UNL     1       3.841  19.757  49.854  1.00  0.00     0.041 C 
ATOM     15  O   UNL     1       3.746  18.688  49.195  1.00  0.00    -0.550 OA
ATOM     16  O   UNL     1       5.022  20.487  49.815  1.00  0.00    -0.550 OA
ENDBRANCH  13  14
ENDBRANCH  12  13
ENDBRANCH  11  12
ENDBRANCH  10  11
ENDBRANCH   9  10
ENDBRANCH   8   9
ENDBRANCH   7   8
ENDBRANCH   6   7
ENDBRANCH   5   6
ENDBRANCH   4   5
ENDBRANCH   3   4
ENDBRANCH   2   3
ENDBRANCH   1   2
BRANCH   1  17
ATOM     17  C   UNL     1      -1.965  23.026  45.423  1.00  0.00     0.000 C 
BRANCH  17  18
ATOM     18  C   UNL     1      -0.854  22.250  46.155  1.00  0.00     0.000 C 
BRANCH  18  19
ATOM     19  C   UNL     1      -0.604  20.827  45.623  1.00  0.00     0.000 C 
BRANCH  19  20
ATOM     20  C   UNL     1       0.891  20.510  45.379  1.00  0.00     0.000 C 
BRANCH  20  21
ATOM     21  C   UNL     1       1.587  19.788  46.550  1.00  0.00     0.000 C 
BRANCH  21  22
ATOM     22  C   UNL     1       0.662  18.929  47.439  1.00  0.00    -0.000 C 
BRANCH  22  23
ATOM     23  C   UNL     1       0.398  19.493  48.848  1.00  0.00    -0.000 C 
BRANCH  23  24
ATOM     24  C   UNL     1      -0.766  20.498  48.878  1.00  0.00    -0.000 C 
BRANCH  24  25
ATOM     25  C   UNL     1      -0.589  21.577  49.961  1.00  0.00    -0.000 C 
BRANCH  25  26
ATOM     26  C   UNL     1      -0.910  21.123  51.401  1.00  0.00    -0.000 C 
BRANCH  26  27
ATOM     27  C   UNL     1      -1.637  22.157  52.289  1.00  0.00    -0.000 C 
BRANCH  27  28
ATOM     28  C   UNL     1      -2.130  21.619  53.651  1.00  0.00    -0.000 C 
BRANCH  28  29
ATOM     29  C   UNL     1      -1.053  20.881  54.465  1.00  0.00    -0.003 C 
ATOM     30  C   UNL     1      -0.036  21.816  55.113  1.00  0.00     0.004 C 
ENDBRANCH  28  29
ENDBRANCH  27  28
ENDBRANCH  26  27
ENDBRANCH  25  26
ENDBRANCH  24  25
ENDBRANCH  23  24
ENDBRANCH  22  23
ENDBRANCH  21  22
ENDBRANCH  20  21
ENDBRANCH  19  20
ENDBRANCH  18  19
ENDBRANCH  17  18
ENDBRANCH   1  17
TORSDOF 26
ENDMDL
MODEL 7
REMARK VINA RESULT:    -2.459      0.836      5.842
REMARK INTER + INTRA:          -9.657
REMARK INTER:                  -6.967
REMARK INTRA:                  -2.690
REMARK UNBOUND:                -3.461
REMARK SMILES CCCCCCCCCCCCCCCCCCCCCCCCCCCC(=O)[O-]
REMARK SMILES IDX 15 1 16 2 17 3 18 4 19 5 20 6 21 7 22 8 23 9 24 10 25 11
REMARK SMILES IDX 26 12 27 13 28 14 29 15 30 16 14 17 13 18 12 19 11 20 10 21
REMARK SMILES IDX 9 22 8 23 7 24 6 25 5 26 4 27 3 28 2 29 1 30
REMARK H PARENT
REMARK Flexibility Score: inf
ROOT
ATOM      1  C   UNL     1       2.196  18.628  48.844  1.00  0.00     0.000 C 
ENDROOT
BRANCH   1   2
ATOM      2  C   UNL     1       2.223  19.395  47.507  1.00  0.00     0.000 C 
BRANCH   2   3
ATOM      3  C   UNL     1       0.966  19.229  46.634  1.00  0.00     0.000 C 
BRANCH   3   4
ATOM      4  C   UNL     1       0.057  20.472  46.559  1.00  0.00     0.000 C 
BRANCH   4   5
ATOM      5  C   UNL     1      -0.874  20.637  47.780  1.00  0.00     0.000 C 
BRANCH   5   6
ATOM      6  C   UNL     1      -0.258  21.520  48.875  1.00  0.00     0.000 C 
BRANCH   6   7
ATOM      7  C   UNL     1      -0.335  20.835  50.245  1.00  0.00     0.000 C 
BRANCH   7   8
ATOM      8  C   UNL     1      -0.772  21.830  51.332  1.00  0.00     0.000 C 
BRANCH   8   9
ATOM      9  C   UNL     1      -1.521  21.152  52.490  1.00  0.00     0.000 C 
BRANCH   9  10
ATOM     10  C   UNL     1      -0.943  21.523  53.864  1.00  0.00     0.000 C 
BRANCH  10  11
ATOM     11  C   UNL     1      -1.443  20.562  54.949  1.00  0.00     0.000 C 
BRANCH  11  12
ATOM     12  C   UNL     1      -1.309  19.101  54.494  1.00  0.00     0.006 C 
BRANCH  12  13
ATOM     13  C   UNL     1      -0.703  18.206  55.582  1.00  0.00     0.053 C 
BRANCH  13  14
ATOM     14  C   UNL     1      -0.777  16.755  55.216  1.00  0.00     0.041 C 
ATOM     15  O   UNL     1      -1.849  16.269  54.767  1.00  0.00    -0.550 OA
ATOM     16  O   UNL     1       0.345  15.945  55.345  1.00  0.00    -0.550 OA
ENDBRANCH  13  14
ENDBRANCH  12  13
ENDBRANCH  11  12
ENDBRANCH  10  11
ENDBRANCH   9  10
ENDBRANCH   8   9
ENDBRANCH   7   8
ENDBRANCH   6   7
ENDBRANCH   5   6
ENDBRANCH   4   5
ENDBRANCH   3   4
ENDBRANCH   2   3
ENDBRANCH   1   2
BRANCH   1  17
ATOM     17  C   UNL     1       3.491  18.714  49.677  1.00  0.00     0.000 C 
BRANCH  17  18
ATOM     18  C   UNL     1       3.880  20.135  50.126  1.00  0.00     0.000 C 
BRANCH  18  19
ATOM     19  C   UNL     1       2.819  20.856  50.976  1.00  0.00     0.000 C 
BRANCH  19  20
ATOM     20  C   UNL     1       2.955  22.397  50.963  1.00  0.00     0.000 C 
BRANCH  20  21
ATOM     21  C   UNL     1       1.893  23.136  51.801  1.00  0.00     0.000 C 
BRANCH  21  22
ATOM     22  C   UNL     1       1.955  24.677  51.733  1.00  0.00    -0.000 C 
BRANCH  22  23
ATOM     23  C   UNL     1       1.642  25.286  50.353  1.00  0.00    -0.000 C 
BRANCH  23  24
ATOM     24  C   UNL     1       0.274  24.846  49.805  1.00  0.00    -0.000 C 
BRANCH  24  25
ATOM     25  C   UNL     1      -0.203  25.718  48.630  1.00  0.00    -0.000 C 
BRANCH  25  26
ATOM     26  C   UNL     1      -1.727  25.718  48.386  1.00  0.00    -0.000 C 
BRANCH  26  27
ATOM     27  C   UNL     1      -2.175  25.584  46.914  1.00  0.00    -0.000 C 
BRANCH  27  28
ATOM     28  C   UNL     1      -1.034  25.340  45.901  1.00  0.00    -0.000 C 
BRANCH  28  29
ATOM     29  C   UNL     1      -1.411  24.407  44.738  1.00  0.00    -0.003 C 
ATOM     30  C   UNL     1      -1.987  23.070  45.196  1.00  0.00     0.004 C 
ENDBRANCH  28  29
ENDBRANCH  27  28
ENDBRANCH  26  27
ENDBRANCH  25  26
ENDBRANCH  24  25
ENDBRANCH  23  24
ENDBRANCH  22  23
ENDBRANCH  21  22
ENDBRANCH  20  21
ENDBRANCH  19  20
ENDBRANCH  18  19
ENDBRANCH  17  18
ENDBRANCH   1  17
TORSDOF 26
ENDMDL
MODEL 8
REMARK VINA RESULT:    -2.240      1.554      6.344
REMARK INTER + INTRA:          -9.107
REMARK INTER:                  -6.912
REMARK INTRA:                  -2.195
REMARK UNBOUND:                -3.461
REMARK SMILES CCCCCCCCCCCCCCCCCCCCCCCCCCCC(=O)[O-]
REMARK SMILES IDX 15 1 16 2 17 3 18 4 19 5 20 6 21 7 22 8 23 9 24 10 25 11
REMARK SMILES IDX 26 12 27 13 28 14 29 15 30 16 14 17 13 18 12 19 11 20 10 21
REMARK SMILES IDX 9 22 8 23 7 24 6 25 5 26 4 27 3 28 2 29 1 30
REMARK H PARENT
REMARK Flexibility Score: inf
ROOT
ATOM      1  C   UNL     1       4.113  18.939  50.196  1.00  0.00     0.000 C 
ENDROOT
BRANCH   1   2
ATOM      2  C   UNL     1       3.122  18.155  49.312  1.00  0.00     0.000 C 
BRANCH   2   3
ATOM      3  C   UNL     1       1.948  18.982  48.757  1.00  0.00     0.000 C 
BRANCH   3   4
ATOM      4  C   UNL     1       2.011  19.268  47.244  1.00  0.00     0.000 C 
BRANCH   4   5
ATOM      5  C   UNL     1       0.635  19.237  46.546  1.00  0.00     0.000 C 
BRANCH   5   6
ATOM      6  C   UNL     1       0.341  20.525  45.764  1.00  0.00     0.000 C 
BRANCH   6   7
ATOM      7  C   UNL     1      -0.667  21.407  46.510  1.00  0.00     0.000 C 
BRANCH   7   8
ATOM      8  C   UNL     1      -0.969  20.837  47.905  1.00  0.00     0.000 C 
BRANCH   8   9
ATOM      9  C   UNL     1      -0.343  21.670  49.034  1.00  0.00     0.000 C 
BRANCH   9  10
ATOM     10  C   UNL     1      -0.262  20.900  50.361  1.00  0.00     0.000 C 
BRANCH  10  11
ATOM     11  C   UNL     1      -0.683  21.786  51.538  1.00  0.00     0.000 C 
BRANCH  11  12
ATOM     12  C   UNL     1      -1.992  21.282  52.167  1.00  0.00     0.006 C 
BRANCH  12  13
ATOM     13  C   UNL     1      -2.135  21.708  53.633  1.00  0.00     0.053 C 
BRANCH  13  14
ATOM     14  C   UNL     1      -1.165  20.989  54.520  1.00  0.00     0.041 C 
ATOM     15  O   UNL     1      -0.398  21.638  55.279  1.00  0.00    -0.550 OA
ATOM     16  O   UNL     1      -1.127  19.600  54.529  1.00  0.00    -0.550 OA
ENDBRANCH  13  14
ENDBRANCH  12  13
ENDBRANCH  11  12
ENDBRANCH  10  11
ENDBRANCH   9  10
ENDBRANCH   8   9
ENDBRANCH   7   8
ENDBRANCH   6   7
ENDBRANCH   5   6
ENDBRANCH   4   5
ENDBRANCH   3   4
ENDBRANCH   2   3
ENDBRANCH   1   2
BRANCH   1  17
ATOM     17  C   UNL     1       4.050  20.473  50.052  1.00  0.00     0.000 C 
BRANCH  17  18
ATOM     18  C   UNL     1       2.820  21.136  50.700  1.00  0.00     0.000 C 
BRANCH  18  19
ATOM     19  C   UNL     1       2.950  22.653  50.928  1.00  0.00     0.000 C 
BRANCH  19  20
ATOM     20  C   UNL     1       2.061  23.186  52.076  1.00  0.00     0.000 C 
BRANCH  20  21
ATOM     21  C   UNL     1       1.540  24.621  51.862  1.00  0.00     0.000 C 
BRANCH  21  22
ATOM     22  C   UNL     1       2.052  25.326  50.588  1.00  0.00    -0.000 C 
BRANCH  22  23
ATOM     23  C   UNL     1       0.964  25.995  49.727  1.00  0.00    -0.000 C 
BRANCH  23  24
ATOM     24  C   UNL     1       0.166  24.986  48.885  1.00  0.00    -0.000 C 
BRANCH  24  25
ATOM     25  C   UNL     1      -1.353  25.221  48.959  1.00  0.00    -0.000 C 
BRANCH  25  26
ATOM     26  C   UNL     1      -1.960  25.979  47.760  1.00  0.00    -0.000 C 
BRANCH  26  27
ATOM     27  C   UNL     1      -1.220  25.819  46.414  1.00  0.00    -0.000 C 
BRANCH  27  28
ATOM     28  C   UNL     1      -1.636  24.587  45.580  1.00  0.00    -0.000 C 
BRANCH  28  29
ATOM     29  C   UNL     1      -1.394  24.737  44.068  1.00  0.00    -0.003 C 
ATOM     30  C   UNL     1      -0.610  25.994  43.701  1.00  0.00     0.004 C 
ENDBRANCH  28  29
ENDBRANCH  27  28
ENDBRANCH  26  27
ENDBRANCH  25  26
ENDBRANCH  24  25
ENDBRANCH  23  24
ENDBRANCH  22  23
ENDBRANCH  21  22
ENDBRANCH  20  21
ENDBRANCH  19  20
ENDBRANCH  18  19
ENDBRANCH  17  18
ENDBRANCH   1  17
TORSDOF 26
ENDMDL
MODEL 9
REMARK VINA RESULT:    -2.139      3.110      7.336
REMARK INTER + INTRA:          -8.852
REMARK INTER:                  -7.032
REMARK INTRA:                  -1.820
REMARK UNBOUND:                -3.461
REMARK SMILES CCCCCCCCCCCCCCCCCCCCCCCCCCCC(=O)[O-]
REMARK SMILES IDX 15 1 16 2 17 3 18 4 19 5 20 6 21 7 22 8 23 9 24 10 25 11
REMARK SMILES IDX 26 12 27 13 28 14 29 15 30 16 14 17 13 18 12 19 11 20 10 21
REMARK SMILES IDX 9 22 8 23 7 24 6 25 5 26 4 27 3 28 2 29 1 30
REMARK H PARENT
REMARK Flexibility Score: inf
ROOT
ATOM      1  C   UNL     1       3.848  19.930  50.059  1.00  0.00     0.000 C 
ENDROOT
BRANCH   1   2
ATOM      2  C   UNL     1       2.645  20.699  50.641  1.00  0.00     0.000 C 
BRANCH   2   3
ATOM      3  C   UNL     1       2.998  22.007  51.371  1.00  0.00     0.000 C 
BRANCH   3   4
ATOM      4  C   UNL     1       1.789  22.877  51.767  1.00  0.00     0.000 C 
BRANCH   4   5
ATOM      5  C   UNL     1       2.027  24.392  51.590  1.00  0.00     0.000 C 
BRANCH   5   6
ATOM      6  C   UNL     1       0.924  25.068  50.763  1.00  0.00     0.000 C 
BRANCH   6   7
ATOM      7  C   UNL     1       1.522  25.965  49.672  1.00  0.00     0.000 C 
BRANCH   7   8
ATOM      8  C   UNL     1       0.627  25.983  48.423  1.00  0.00     0.000 C 
BRANCH   8   9
ATOM      9  C   UNL     1      -0.871  26.009  48.766  1.00  0.00     0.000 C 
BRANCH   9  10
ATOM     10  C   UNL     1      -1.755  25.592  47.581  1.00  0.00     0.000 C 
BRANCH  10  11
ATOM     11  C   UNL     1      -0.985  24.688  46.612  1.00  0.00     0.000 C 
BRANCH  11  12
ATOM     12  C   UNL     1      -1.295  25.055  45.152  1.00  0.00     0.006 C 
BRANCH  12  13
ATOM     13  C   UNL     1      -2.015  23.923  44.408  1.00  0.00     0.053 C 
BRANCH  13  14
ATOM     14  C   UNL     1      -2.035  22.656  45.207  1.00  0.00     0.041 C 
ATOM     15  O   UNL     1      -3.080  22.308  45.817  1.00  0.00    -0.550 OA
ATOM     16  O   UNL     1      -0.908  21.844  45.255  1.00  0.00    -0.550 OA
ENDBRANCH  13  14
ENDBRANCH  12  13
ENDBRANCH  11  12
ENDBRANCH  10  11
ENDBRANCH   9  10
ENDBRANCH   8   9
ENDBRANCH   7   8
ENDBRANCH   6   7
ENDBRANCH   5   6
ENDBRANCH   4   5
ENDBRANCH   3   4
ENDBRANCH   2   3
ENDBRANCH   1   2
BRANCH   1  17
ATOM     17  C   UNL     1       3.488  18.755  49.127  1.00  0.00     0.000 C 
BRANCH  17  18
ATOM     18  C   UNL     1       1.992  18.634  48.783  1.00  0.00     0.000 C 
BRANCH  18  19
ATOM     19  C   UNL     1       1.601  19.184  47.400  1.00  0.00     0.000 C 
BRANCH  19  20
ATOM     20  C   UNL     1       0.715  20.451  47.463  1.00  0.00     0.000 C 
BRANCH  20  21
ATOM     21  C   UNL     1      -0.518  20.319  48.379  1.00  0.00     0.000 C 
BRANCH  21  22
ATOM     22  C   UNL     1      -0.608  21.357  49.517  1.00  0.00    -0.000 C 
BRANCH  22  23
ATOM     23  C   UNL     1      -1.139  20.815  50.858  1.00  0.00    -0.000 C 
BRANCH  23  24
ATOM     24  C   UNL     1      -0.654  21.636  52.065  1.00  0.00    -0.000 C 
BRANCH  24  25
ATOM     25  C   UNL     1      -1.695  21.697  53.197  1.00  0.00    -0.000 C 
BRANCH  25  26
ATOM     26  C   UNL     1      -1.350  20.869  54.453  1.00  0.00    -0.000 C 
BRANCH  26  27
ATOM     27  C   UNL     1      -1.382  19.334  54.280  1.00  0.00    -0.000 C 
BRANCH  27  28
ATOM     28  C   UNL     1      -0.750  18.531  55.439  1.00  0.00    -0.000 C 
BRANCH  28  29
ATOM     29  C   UNL     1      -0.649  17.018  55.178  1.00  0.00    -0.003 C 
ATOM     30  C   UNL     1       0.608  16.384  55.767  1.00  0.00     0.004 C 
ENDBRANCH  28  29
ENDBRANCH  27  28
ENDBRANCH  26  27
ENDBRANCH  25  26
ENDBRANCH  24  25
ENDBRANCH  23  24
ENDBRANCH  22  23
ENDBRANCH  21  22
ENDBRANCH  20  21
ENDBRANCH  19  20
ENDBRANCH  18  19
ENDBRANCH  17  18
ENDBRANCH   1  17
TORSDOF 26
ENDMDL
