MODEL 1
REMARK VINA RESULT:    -5.335      0.000      0.000
REMARK INTER + INTRA:         -10.102
REMARK INTER:                  -9.077
REMARK INTRA:                  -1.025
REMARK UNBOUND:                -1.025
REMARK SMILES CCCCCCCCCCCCCC(=O)[O-]
REMARK SMILES IDX 8 1 9 2 10 3 11 4 12 5 13 6 14 7 15 8 16 9 7 10 6 11 5 12
REMARK SMILES IDX 4 13 3 14 2 15 1 16
REMARK H PARENT
REMARK Flexibility Score: inf
ROOT
ATOM      1  C   UNL     1      47.937 -46.406 164.507  1.00  0.00     0.000 C 
ENDROOT
BRANCH   1   2
ATOM      2  C   UNL     1      49.080 -47.358 164.896  1.00  0.00     0.000 C 
BRANCH   2   3
ATOM      3  C   UNL     1      50.418 -46.625 165.102  1.00  0.00     0.000 C 
BRANCH   3   4
ATOM      4  C   UNL     1      51.521 -47.553 165.637  1.00  0.00     0.000 C 
BRANCH   4   5
ATOM      5  C   UNL     1      52.849 -46.815 165.875  1.00  0.00     0.006 C 
BRANCH   5   6
ATOM      6  C   UNL     1      52.762 -45.331 165.500  1.00  0.00     0.053 C 
BRANCH   6   7
ATOM      7  C   UNL     1      54.120 -44.703 165.404  1.00  0.00     0.041 C 
ATOM      8  O   UNL     1      54.372 -43.874 164.490  1.00  0.00    -0.550 OA
ATOM      9  O   UNL     1      55.094 -45.008 166.345  1.00  0.00    -0.550 OA
ENDBRANCH   6   7
ENDBRANCH   5   6
ENDBRANCH   4   5
ENDBRANCH   3   4
ENDBRANCH   2   3
ENDBRANCH   1   2
BRANCH   1  10
ATOM     10  C   UNL     1      47.279 -45.743 165.729  1.00  0.00     0.000 C 
BRANCH  10  11
ATOM     11  C   UNL     1      45.751 -45.646 165.596  1.00  0.00    -0.000 C 
BRANCH  11  12
ATOM     12  C   UNL     1      45.193 -46.574 164.501  1.00  0.00    -0.000 C 
BRANCH  12  13
ATOM     13  C   UNL     1      44.465 -47.797 165.081  1.00  0.00    -0.000 C 
BRANCH  13  14
ATOM     14  C   UNL     1      44.994 -49.127 164.515  1.00  0.00    -0.000 C 
BRANCH  14  15
ATOM     15  C   UNL     1      45.486 -48.995 163.065  1.00  0.00    -0.003 C 
ATOM     16  C   UNL     1      46.907 -49.525 162.875  1.00  0.00     0.004 C 
ENDBRANCH  14  15
ENDBRANCH  13  14
ENDBRANCH  12  13
ENDBRANCH  11  12
ENDBRANCH  10  11
ENDBRANCH   1  10
TORSDOF 12
ENDMDL
MODEL 2
REMARK VINA RESULT:    -5.309      6.612      8.976
REMARK INTER + INTRA:         -10.057
REMARK INTER:                  -9.189
REMARK INTRA:                  -0.869
REMARK UNBOUND:                -1.025
REMARK SMILES CCCCCCCCCCCCCC(=O)[O-]
REMARK SMILES IDX 8 1 9 2 10 3 11 4 12 5 13 6 14 7 15 8 16 9 7 10 6 11 5 12
REMARK SMILES IDX 4 13 3 14 2 15 1 16
REMARK H PARENT
REMARK Flexibility Score: inf
ROOT
ATOM      1  C   UNL     1      40.764 -49.787 163.646  1.00  0.00     0.000 C 
ENDROOT
BRANCH   1   2
ATOM      2  C   UNL     1      41.947 -48.805 163.641  1.00  0.00     0.000 C 
BRANCH   2   3
ATOM      3  C   UNL     1      42.281 -48.270 165.046  1.00  0.00     0.000 C 
BRANCH   3   4
ATOM      4  C   UNL     1      43.723 -48.592 165.471  1.00  0.00     0.000 C 
BRANCH   4   5
ATOM      5  C   UNL     1      44.509 -49.335 164.378  1.00  0.00     0.006 C 
BRANCH   5   6
ATOM      6  C   UNL     1      45.735 -48.542 163.907  1.00  0.00     0.053 C 
BRANCH   6   7
ATOM      7  C   UNL     1      45.344 -47.369 163.060  1.00  0.00     0.041 C 
ATOM      8  O   UNL     1      44.964 -47.543 161.872  1.00  0.00    -0.550 OA
ATOM      9  O   UNL     1      45.365 -46.087 163.596  1.00  0.00    -0.550 OA
ENDBRANCH   6   7
ENDBRANCH   5   6
ENDBRANCH   4   5
ENDBRANCH   3   4
ENDBRANCH   2   3
ENDBRANCH   1   2
BRANCH   1  10
ATOM     10  C   UNL     1      39.543 -49.243 162.885  1.00  0.00     0.000 C 
BRANCH  10  11
ATOM     11  C   UNL     1      39.874 -47.990 162.057  1.00  0.00    -0.000 C 
BRANCH  11  12
ATOM     12  C   UNL     1      38.675 -47.495 161.229  1.00  0.00    -0.000 C 
BRANCH  12  13
ATOM     13  C   UNL     1      37.514 -48.502 161.215  1.00  0.00    -0.000 C 
BRANCH  13  14
ATOM     14  C   UNL     1      36.275 -47.970 160.473  1.00  0.00    -0.000 C 
BRANCH  14  15
ATOM     15  C   UNL     1      36.463 -46.530 159.969  1.00  0.00    -0.003 C 
ATOM     16  C   UNL     1      35.297 -45.616 160.346  1.00  0.00     0.004 C 
ENDBRANCH  14  15
ENDBRANCH  13  14
ENDBRANCH  12  13
ENDBRANCH  11  12
ENDBRANCH  10  11
ENDBRANCH   1  10
TORSDOF 12
ENDMDL
MODEL 3
REMARK VINA RESULT:    -5.281      2.241      2.888
REMARK INTER + INTRA:         -10.011
REMARK INTER:                  -9.020
REMARK INTRA:                  -0.990
REMARK UNBOUND:                -1.025
REMARK SMILES CCCCCCCCCCCCCC(=O)[O-]
REMARK SMILES IDX 8 1 9 2 10 3 11 4 12 5 13 6 14 7 15 8 16 9 7 10 6 11 5 12
REMARK SMILES IDX 4 13 3 14 2 15 1 16
REMARK H PARENT
REMARK Flexibility Score: inf
ROOT
ATOM      1  C   UNL     1      48.722 -47.637 165.097  1.00  0.00     0.000 C 
ENDROOT
BRANCH   1   2
ATOM      2  C   UNL     1      50.258 -47.713 165.091  1.00  0.00     0.000 C 
BRANCH   2   3
ATOM      3  C   UNL     1      50.920 -46.352 165.372  1.00  0.00     0.000 C 
BRANCH   3   4
ATOM      4  C   UNL     1      52.386 -46.491 165.812  1.00  0.00     0.000 C 
BRANCH   4   5
ATOM      5  C   UNL     1      52.847 -47.956 165.877  1.00  0.00     0.006 C 
BRANCH   5   6
ATOM      6  C   UNL     1      54.239 -48.098 166.506  1.00  0.00     0.053 C 
BRANCH   6   7
ATOM      7  C   UNL     1      54.242 -49.096 167.624  1.00  0.00     0.041 C 
ATOM      8  O   UNL     1      54.596 -48.750 168.782  1.00  0.00    -0.550 OA
ATOM      9  O   UNL     1      53.821 -50.400 167.394  1.00  0.00    -0.550 OA
ENDBRANCH   6   7
ENDBRANCH   5   6
ENDBRANCH   4   5
ENDBRANCH   3   4
ENDBRANCH   2   3
ENDBRANCH   1   2
BRANCH   1  10
ATOM     10  C   UNL     1      48.199 -46.236 164.739  1.00  0.00     0.000 C 
BRANCH  10  11
ATOM     11  C   UNL     1      46.915 -45.873 165.502  1.00  0.00    -0.000 C 
BRANCH  11  12
ATOM     12  C   UNL     1      45.682 -46.632 164.979  1.00  0.00    -0.000 C 
BRANCH  12  13
ATOM     13  C   UNL     1      45.276 -46.191 163.564  1.00  0.00    -0.000 C 
BRANCH  13  14
ATOM     14  C   UNL     1      45.213 -47.364 162.570  1.00  0.00    -0.000 C 
BRANCH  14  15
ATOM     15  C   UNL     1      45.341 -48.730 163.263  1.00  0.00    -0.003 C 
ATOM     16  C   UNL     1      46.599 -49.489 162.842  1.00  0.00     0.004 C 
ENDBRANCH  14  15
ENDBRANCH  13  14
ENDBRANCH  12  13
ENDBRANCH  11  12
ENDBRANCH  10  11
ENDBRANCH   1  10
TORSDOF 12
ENDMDL
MODEL 4
REMARK VINA RESULT:    -5.276      3.116      4.263
REMARK INTER + INTRA:         -10.001
REMARK INTER:                  -9.319
REMARK INTRA:                  -0.682
REMARK UNBOUND:                -1.025
REMARK SMILES CCCCCCCCCCCCCC(=O)[O-]
REMARK SMILES IDX 8 1 9 2 10 3 11 4 12 5 13 6 14 7 15 8 16 9 7 10 6 11 5 12
REMARK SMILES IDX 4 13 3 14 2 15 1 16
REMARK H PARENT
REMARK Flexibility Score: inf
ROOT
ATOM      1  C   UNL     1      50.477 -46.540 165.097  1.00  0.00     0.000 C 
ENDROOT
BRANCH   1   2
ATOM      2  C   UNL     1      51.916 -46.520 165.637  1.00  0.00     0.000 C 
BRANCH   2   3
ATOM      3  C   UNL     1      52.480 -47.932 165.875  1.00  0.00     0.000 C 
BRANCH   3   4
ATOM      4  C   UNL     1      54.006 -47.994 165.697  1.00  0.00     0.000 C 
BRANCH   4   5
ATOM      5  C   UNL     1      54.681 -48.935 166.710  1.00  0.00     0.006 C 
BRANCH   5   6
ATOM      6  C   UNL     1      53.661 -49.784 167.479  1.00  0.00     0.053 C 
BRANCH   6   7
ATOM      7  C   UNL     1      54.113 -51.208 167.610  1.00  0.00     0.041 C 
ATOM      8  O   UNL     1      54.733 -51.765 166.666  1.00  0.00    -0.550 OA
ATOM      9  O   UNL     1      53.879 -51.905 168.788  1.00  0.00    -0.550 OA
ENDBRANCH   6   7
ENDBRANCH   5   6
ENDBRANCH   4   5
ENDBRANCH   3   4
ENDBRANCH   2   3
ENDBRANCH   1   2
BRANCH   1  10
ATOM     10  C   UNL     1      49.821 -47.926 165.218  1.00  0.00     0.000 C 
BRANCH  10  11
ATOM     11  C   UNL     1      48.417 -47.971 164.593  1.00  0.00    -0.000 C 
BRANCH  11  12
ATOM     12  C   UNL     1      47.543 -46.777 165.016  1.00  0.00    -0.000 C 
BRANCH  12  13
ATOM     13  C   UNL     1      46.339 -46.569 164.083  1.00  0.00    -0.000 C 
BRANCH  13  14
ATOM     14  C   UNL     1      45.001 -46.516 164.842  1.00  0.00    -0.000 C 
BRANCH  14  15
ATOM     15  C   UNL     1      44.031 -47.625 164.403  1.00  0.00    -0.003 C 
ATOM     16  C   UNL     1      44.511 -49.020 164.802  1.00  0.00     0.004 C 
ENDBRANCH  14  15
ENDBRANCH  13  14
ENDBRANCH  12  13
ENDBRANCH  11  12
ENDBRANCH  10  11
ENDBRANCH   1  10
TORSDOF 12
ENDMDL
MODEL 5
REMARK VINA RESULT:    -5.271      1.184      2.873
REMARK INTER + INTRA:          -9.994
REMARK INTER:                  -8.824
REMARK INTRA:                  -1.170
REMARK UNBOUND:                -1.025
REMARK SMILES CCCCCCCCCCCCCC(=O)[O-]
REMARK SMILES IDX 8 1 9 2 10 3 11 4 12 5 13 6 14 7 15 8 16 9 7 10 6 11 5 12
REMARK SMILES IDX 4 13 3 14 2 15 1 16
REMARK H PARENT
REMARK Flexibility Score: inf
ROOT
ATOM      1  C   UNL     1      48.005 -48.488 163.756  1.00  0.00     0.000 C 
ENDROOT
BRANCH   1   2
ATOM      2  C   UNL     1      48.750 -49.127 164.939  1.00  0.00     0.000 C 
BRANCH   2   3
ATOM      3  C   UNL     1      49.857 -48.219 165.503  1.00  0.00     0.000 C 
BRANCH   3   4
ATOM      4  C   UNL     1      49.836 -46.811 164.885  1.00  0.00     0.000 C 
BRANCH   4   5
ATOM      5  C   UNL     1      51.134 -46.030 165.149  1.00  0.00     0.006 C 
BRANCH   5   6
ATOM      6  C   UNL     1      52.187 -46.885 165.866  1.00  0.00     0.053 C 
BRANCH   6   7
ATOM      7  C   UNL     1      53.398 -46.079 166.232  1.00  0.00     0.041 C 
ATOM      8  O   UNL     1      54.253 -46.546 167.029  1.00  0.00    -0.550 OA
ATOM      9  O   UNL     1      53.598 -44.828 165.663  1.00  0.00    -0.550 OA
ENDBRANCH   6   7
ENDBRANCH   5   6
ENDBRANCH   4   5
ENDBRANCH   3   4
ENDBRANCH   2   3
ENDBRANCH   1   2
BRANCH   1  10
ATOM     10  C   UNL     1      47.233 -49.521 162.917  1.00  0.00     0.000 C 
BRANCH  10  11
ATOM     11  C   UNL     1      45.727 -49.526 163.228  1.00  0.00    -0.000 C 
BRANCH  11  12
ATOM     12  C   UNL     1      44.985 -48.345 162.579  1.00  0.00    -0.000 C 
BRANCH  12  13
ATOM     13  C   UNL     1      43.871 -47.783 163.478  1.00  0.00    -0.000 C 
BRANCH  13  14
ATOM     14  C   UNL     1      44.396 -47.298 164.840  1.00  0.00    -0.000 C 
BRANCH  14  15
ATOM     15  C   UNL     1      45.110 -45.940 164.747  1.00  0.00    -0.003 C 
ATOM     16  C   UNL     1      46.312 -45.841 165.686  1.00  0.00     0.004 C 
ENDBRANCH  14  15
ENDBRANCH  13  14
ENDBRANCH  12  13
ENDBRANCH  11  12
ENDBRANCH  10  11
ENDBRANCH   1  10
TORSDOF 12
ENDMDL
MODEL 6
REMARK VINA RESULT:    -5.266      4.208      8.218
REMARK INTER + INTRA:          -9.985
REMARK INTER:                  -9.100
REMARK INTRA:                  -0.885
REMARK UNBOUND:                -1.025
REMARK SMILES CCCCCCCCCCCCCC(=O)[O-]
REMARK SMILES IDX 8 1 9 2 10 3 11 4 12 5 13 6 14 7 15 8 16 9 7 10 6 11 5 12
REMARK SMILES IDX 4 13 3 14 2 15 1 16
REMARK H PARENT
REMARK Flexibility Score: inf
ROOT
ATOM      1  C   UNL     1      49.594 -46.254 164.759  1.00  0.00     0.000 C 
ENDROOT
BRANCH   1   2
ATOM      2  C   UNL     1      49.120 -47.716 164.805  1.00  0.00     0.000 C 
BRANCH   2   3
ATOM      3  C   UNL     1      47.623 -47.865 164.479  1.00  0.00     0.000 C 
BRANCH   3   4
ATOM      4  C   UNL     1      46.888 -46.515 164.459  1.00  0.00     0.000 C 
BRANCH   4   5
ATOM      5  C   UNL     1      45.365 -46.670 164.607  1.00  0.00     0.006 C 
BRANCH   5   6
ATOM      6  C   UNL     1      44.626 -46.397 163.291  1.00  0.00     0.053 C 
BRANCH   6   7
ATOM      7  C   UNL     1      44.142 -47.665 162.654  1.00  0.00     0.041 C 
ATOM      8  O   UNL     1      42.959 -48.056 162.838  1.00  0.00    -0.550 OA
ATOM      9  O   UNL     1      44.988 -48.395 161.829  1.00  0.00    -0.550 OA
ENDBRANCH   6   7
ENDBRANCH   5   6
ENDBRANCH   4   5
ENDBRANCH   3   4
ENDBRANCH   2   3
ENDBRANCH   1   2
BRANCH   1  10
ATOM     10  C   UNL     1      51.078 -46.102 165.136  1.00  0.00     0.000 C 
BRANCH  10  11
ATOM     11  C   UNL     1      51.719 -47.435 165.556  1.00  0.00    -0.000 C 
BRANCH  11  12
ATOM     12  C   UNL     1      53.132 -47.254 166.138  1.00  0.00    -0.000 C 
BRANCH  12  13
ATOM     13  C   UNL     1      53.415 -45.802 166.555  1.00  0.00    -0.000 C 
BRANCH  13  14
ATOM     14  C   UNL     1      54.735 -45.264 165.975  1.00  0.00    -0.000 C 
BRANCH  14  15
ATOM     15  C   UNL     1      54.515 -44.361 164.750  1.00  0.00    -0.003 C 
ATOM     16  C   UNL     1      53.595 -43.178 165.048  1.00  0.00     0.004 C 
ENDBRANCH  14  15
ENDBRANCH  13  14
ENDBRANCH  12  13
ENDBRANCH  11  12
ENDBRANCH  10  11
ENDBRANCH   1  10
TORSDOF 12
ENDMDL
MODEL 7
REMARK VINA RESULT:    -5.233      1.690      2.937
REMARK INTER + INTRA:          -9.930
REMARK INTER:                  -9.161
REMARK INTRA:                  -0.769
REMARK UNBOUND:                -1.025
REMARK SMILES CCCCCCCCCCCCCC(=O)[O-]
REMARK SMILES IDX 8 1 9 2 10 3 11 4 12 5 13 6 14 7 15 8 16 9 7 10 6 11 5 12
REMARK SMILES IDX 4 13 3 14 2 15 1 16
REMARK H PARENT
REMARK Flexibility Score: inf
ROOT
ATOM      1  C   UNL     1      50.811 -47.917 165.503  1.00  0.00     0.000 C 
ENDROOT
BRANCH   1   2
ATOM      2  C   UNL     1      52.277 -47.555 165.791  1.00  0.00     0.000 C 
BRANCH   2   3
ATOM      3  C   UNL     1      52.506 -46.035 165.877  1.00  0.00     0.000 C 
BRANCH   3   4
ATOM      4  C   UNL     1      53.594 -45.661 166.897  1.00  0.00     0.000 C 
BRANCH   4   5
ATOM      5  C   UNL     1      54.552 -44.580 166.369  1.00  0.00     0.006 C 
BRANCH   5   6
ATOM      6  C   UNL     1      54.178 -44.115 164.956  1.00  0.00     0.053 C 
BRANCH   6   7
ATOM      7  C   UNL     1      54.002 -42.628 164.891  1.00  0.00     0.041 C 
ATOM      8  O   UNL     1      53.762 -41.972 165.938  1.00  0.00    -0.550 OA
ATOM      9  O   UNL     1      54.138 -41.965 163.678  1.00  0.00    -0.550 OA
ENDBRANCH   6   7
ENDBRANCH   5   6
ENDBRANCH   4   5
ENDBRANCH   3   4
ENDBRANCH   2   3
ENDBRANCH   1   2
BRANCH   1  10
ATOM     10  C   UNL     1      49.991 -46.712 165.012  1.00  0.00     0.000 C 
BRANCH  10  11
ATOM     11  C   UNL     1      48.572 -47.105 164.569  1.00  0.00    -0.000 C 
BRANCH  11  12
ATOM     12  C   UNL     1      48.339 -48.625 164.610  1.00  0.00    -0.000 C 
BRANCH  12  13
ATOM     13  C   UNL     1      47.564 -49.136 163.385  1.00  0.00    -0.000 C 
BRANCH  13  14
ATOM     14  C   UNL     1      46.044 -49.175 163.617  1.00  0.00    -0.000 C 
BRANCH  14  15
ATOM     15  C   UNL     1      45.269 -48.344 162.582  1.00  0.00    -0.003 C 
ATOM     16  C   UNL     1      45.269 -46.851 162.905  1.00  0.00     0.004 C 
ENDBRANCH  14  15
ENDBRANCH  13  14
ENDBRANCH  12  13
ENDBRANCH  11  12
ENDBRANCH  10  11
ENDBRANCH   1  10
TORSDOF 12
ENDMDL
MODEL 8
REMARK VINA RESULT:    -5.233      2.423      3.786
REMARK INTER + INTRA:          -9.929
REMARK INTER:                  -9.019
REMARK INTRA:                  -0.910
REMARK UNBOUND:                -1.025
REMARK SMILES CCCCCCCCCCCCCC(=O)[O-]
REMARK SMILES IDX 8 1 9 2 10 3 11 4 12 5 13 6 14 7 15 8 16 9 7 10 6 11 5 12
REMARK SMILES IDX 4 13 3 14 2 15 1 16
REMARK H PARENT
REMARK Flexibility Score: inf
ROOT
ATOM      1  C   UNL     1      48.794 -47.214 164.956  1.00  0.00     0.000 C 
ENDROOT
BRANCH   1   2
ATOM      2  C   UNL     1      50.256 -46.746 164.873  1.00  0.00     0.000 C 
BRANCH   2   3
ATOM      3  C   UNL     1      51.230 -47.713 165.570  1.00  0.00     0.000 C 
BRANCH   3   4
ATOM      4  C   UNL     1      52.562 -47.043 165.940  1.00  0.00     0.000 C 
BRANCH   4   5
ATOM      5  C   UNL     1      53.672 -48.062 166.244  1.00  0.00     0.006 C 
BRANCH   5   6
ATOM      6  C   UNL     1      53.141 -49.288 166.998  1.00  0.00     0.053 C 
BRANCH   6   7
ATOM      7  C   UNL     1      54.025 -49.654 168.152  1.00  0.00     0.041 C 
ATOM      8  O   UNL     1      54.737 -48.777 168.708  1.00  0.00    -0.550 OA
ATOM      9  O   UNL     1      54.034 -50.957 168.635  1.00  0.00    -0.550 OA
ENDBRANCH   6   7
ENDBRANCH   5   6
ENDBRANCH   4   5
ENDBRANCH   3   4
ENDBRANCH   2   3
ENDBRANCH   1   2
BRANCH   1  10
ATOM     10  C   UNL     1      48.648 -48.732 164.751  1.00  0.00     0.000 C 
BRANCH  10  11
ATOM     11  C   UNL     1      47.805 -49.082 163.514  1.00  0.00    -0.000 C 
BRANCH  11  12
ATOM     12  C   UNL     1      46.293 -48.995 163.786  1.00  0.00    -0.000 C 
BRANCH  12  13
ATOM     13  C   UNL     1      45.558 -48.127 162.752  1.00  0.00    -0.000 C 
BRANCH  13  14
ATOM     14  C   UNL     1      45.321 -46.688 163.246  1.00  0.00    -0.000 C 
BRANCH  14  15
ATOM     15  C   UNL     1      44.817 -46.639 164.697  1.00  0.00    -0.003 C 
ATOM     16  C   UNL     1      45.641 -45.697 165.574  1.00  0.00     0.004 C 
ENDBRANCH  14  15
ENDBRANCH  13  14
ENDBRANCH  12  13
ENDBRANCH  11  12
ENDBRANCH  10  11
ENDBRANCH   1  10
TORSDOF 12
ENDMDL
MODEL 9
REMARK VINA RESULT:    -5.209      6.812      9.203
REMARK INTER + INTRA:          -9.888
REMARK INTER:                  -9.026
REMARK INTRA:                  -0.862
REMARK UNBOUND:                -1.025
REMARK SMILES CCCCCCCCCCCCCC(=O)[O-]
REMARK SMILES IDX 8 1 9 2 10 3 11 4 12 5 13 6 14 7 15 8 16 9 7 10 6 11 5 12
REMARK SMILES IDX 4 13 3 14 2 15 1 16
REMARK H PARENT
REMARK Flexibility Score: inf
ROOT
ATOM      1  C   UNL     1      40.489 -49.443 163.302  1.00  0.00     0.000 C 
ENDROOT
BRANCH   1   2
ATOM      2  C   UNL     1      41.231 -48.348 162.519  1.00  0.00     0.000 C 
BRANCH   2   3
ATOM      3  C   UNL     1      42.567 -47.953 163.172  1.00  0.00     0.000 C 
BRANCH   3   4
ATOM      4  C   UNL     1      42.677 -48.437 164.627  1.00  0.00     0.000 C 
BRANCH   4   5
ATOM      5  C   UNL     1      44.132 -48.503 165.119  1.00  0.00     0.006 C 
BRANCH   5   6
ATOM      6  C   UNL     1      44.978 -49.480 164.294  1.00  0.00     0.053 C 
BRANCH   6   7
ATOM      7  C   UNL     1      46.195 -48.815 163.725  1.00  0.00     0.041 C 
ATOM      8  O   UNL     1      46.494 -47.640 164.067  1.00  0.00    -0.550 OA
ATOM      9  O   UNL     1      47.018 -49.506 162.845  1.00  0.00    -0.550 OA
ENDBRANCH   6   7
ENDBRANCH   5   6
ENDBRANCH   4   5
ENDBRANCH   3   4
ENDBRANCH   2   3
ENDBRANCH   1   2
BRANCH   1  10
ATOM     10  C   UNL     1      39.014 -49.570 162.885  1.00  0.00     0.000 C 
BRANCH  10  11
ATOM     11  C   UNL     1      38.616 -48.552 161.803  1.00  0.00    -0.000 C 
BRANCH  11  12
ATOM     12  C   UNL     1      37.162 -48.729 161.331  1.00  0.00    -0.000 C 
BRANCH  12  13
ATOM     13  C   UNL     1      36.180 -48.903 162.500  1.00  0.00    -0.000 C 
BRANCH  13  14
ATOM     14  C   UNL     1      35.214 -50.083 162.294  1.00  0.00    -0.000 C 
BRANCH  14  15
ATOM     15  C   UNL     1      35.813 -51.421 162.754  1.00  0.00    -0.003 C 
ATOM     16  C   UNL     1      35.670 -52.522 161.703  1.00  0.00     0.004 C 
ENDBRANCH  14  15
ENDBRANCH  13  14
ENDBRANCH  12  13
ENDBRANCH  11  12
ENDBRANCH  10  11
ENDBRANCH   1  10
TORSDOF 12
ENDMDL
