MODEL 1
REMARK VINA RESULT:    -6.374      0.000      0.000
REMARK INTER + INTRA:         -11.068
REMARK INTER:                  -9.355
REMARK INTRA:                  -1.713
REMARK UNBOUND:                -1.713
REMARK SMILES O=c1c(O[C@@H]2O[C@H](CO)[C@H](O)[C@@H](O)[C@@H]2O)c(-c2ccc(O)c(O)c2)oc2cc(O)cc(O)c12
REMARK SMILES IDX 4 1 3 2 16 3 25 4 2 5 26 6 1 7 33 8 27 9 31 10 28 11 30 12
REMARK SMILES IDX 17 13 18 14 19 15 20 16 24 17 22 18 21 19 23 21 32 23 29 25
REMARK SMILES IDX 5 27 14 28 6 29 12 30 7 31 10 32 15 33 13 35 8 37 9 38 11 40
REMARK H PARENT 21 20 23 22 32 24 29 26 15 34 13 36 9 39 11 41
REMARK Flexibility Score: inf
ROOT
ATOM      1  O   UNL     1     -14.068  -2.727  13.102  1.00  0.00    -0.454 OA
ENDROOT
BRANCH   1   2
ATOM      2  C   UNL     1     -14.685  -3.994  13.210  1.00  0.00     0.214 A 
ATOM      3  C   UNL     1     -14.019  -5.110  12.669  1.00  0.00     0.180 A 
ATOM      4  O   UNL     1     -14.506  -6.334  12.843  1.00  0.00    -0.452 OA
ATOM      5  C   UNL     1     -15.924  -4.208  13.856  1.00  0.00     0.239 A 
ATOM      6  C   UNL     1     -15.639  -6.581  13.486  1.00  0.00     0.146 A 
ATOM      7  O   UNL     1     -16.603  -3.231  14.268  1.00  0.00    -0.285 OA
ATOM      8  C   UNL     1     -16.410  -5.523  14.017  1.00  0.00     0.111 A 
ATOM      9  C   UNL     1     -16.066  -7.905  13.623  1.00  0.00     0.094 A 
ATOM     10  C   UNL     1     -17.623  -5.825  14.686  1.00  0.00     0.134 A 
ATOM     11  C   UNL     1     -17.259  -8.197  14.285  1.00  0.00     0.123 A 
ATOM     12  C   UNL     1     -18.035  -7.159  14.814  1.00  0.00     0.093 A 
BRANCH   3  13
ATOM     13  C   UNL     1     -12.757  -4.970  11.916  1.00  0.00     0.025 A 
ATOM     14  C   UNL     1     -11.556  -4.760  12.605  1.00  0.00     0.016 A 
ATOM     15  C   UNL     1     -10.351  -4.664  11.906  1.00  0.00     0.051 A 
ATOM     16  C   UNL     1     -10.321  -4.798  10.513  1.00  0.00     0.157 A 
ATOM     17  C   UNL     1     -12.732  -5.121  10.521  1.00  0.00     0.062 A 
ATOM     18  C   UNL     1     -11.527  -5.038   9.812  1.00  0.00     0.158 A 
BRANCH  16  19
ATOM     19  O   UNL     1      -9.083  -4.689   9.874  1.00  0.00    -0.504 OA
ATOM     20  H   UNL     1      -8.951  -4.804   8.880  1.00  0.00     0.293 HD
ENDBRANCH  16  19
BRANCH  18  21
ATOM     21  O   UNL     1     -11.573  -5.200   8.426  1.00  0.00    -0.504 OA
ATOM     22  H   UNL     1     -12.402  -5.053   7.868  1.00  0.00     0.293 HD
ENDBRANCH  18  21
ENDBRANCH   3  13
BRANCH  10  23
ATOM     23  O   UNL     1     -18.417  -4.812  15.227  1.00  0.00    -0.507 OA
ATOM     24  H   UNL     1     -19.363  -4.987  15.544  1.00  0.00     0.293 HD
ENDBRANCH  10  23
BRANCH  11  25
ATOM     25  O   UNL     1     -17.667  -9.524  14.413  1.00  0.00    -0.508 OA
ATOM     26  H   UNL     1     -17.819 -10.112  13.603  1.00  0.00     0.293 HD
ENDBRANCH  11  25
ENDBRANCH   1   2
BRANCH   1  27
ATOM     27  C   UNL     1     -13.405  -2.002  14.148  1.00  0.00     0.339 C 
ATOM     28  C   UNL     1     -12.046  -1.402  13.680  1.00  0.00     0.214 C 
ATOM     29  O   UNL     1     -14.308  -1.061  14.724  1.00  0.00    -0.332 OA
ATOM     30  C   UNL     1     -11.767  -0.062  14.371  1.00  0.00     0.180 C 
ATOM     31  C   UNL     1     -14.319   0.215  14.098  1.00  0.00     0.179 C 
ATOM     32  C   UNL     1     -12.929   0.927  14.142  1.00  0.00     0.177 C 
BRANCH  28  33
ATOM     33  O   UNL     1     -12.040  -1.223  12.284  1.00  0.00    -0.384 OA
ATOM     34  H   UNL     1     -11.185  -0.775  12.051  1.00  0.00     0.211 HD
ENDBRANCH  28  33
BRANCH  30  35
ATOM     35  O   UNL     1     -11.501  -0.250  15.742  1.00  0.00    -0.387 OA
ATOM     36  H   UNL     1     -11.666  -1.201  15.967  1.00  0.00     0.211 HD
ENDBRANCH  30  35
BRANCH  31  37
ATOM     37  C   UNL     1     -15.005   0.169  12.714  1.00  0.00     0.191 C 
BRANCH  37  38
ATOM     38  O   UNL     1     -16.167  -0.613  12.777  1.00  0.00    -0.394 OA
ATOM     39  H   UNL     1     -16.369  -0.750  13.739  1.00  0.00     0.210 HD
ENDBRANCH  37  38
ENDBRANCH  31  37
BRANCH  32  40
ATOM     40  O   UNL     1     -12.689   1.657  12.963  1.00  0.00    -0.387 OA
ATOM     41  H   UNL     1     -13.574   1.831  12.547  1.00  0.00     0.211 HD
ENDBRANCH  32  40
ENDBRANCH   1  27
TORSDOF 12
ENDMDL
MODEL 2
REMARK VINA RESULT:    -6.360      4.109      6.437
REMARK INTER + INTRA:         -11.047
REMARK INTER:                  -9.376
REMARK INTRA:                  -1.672
REMARK UNBOUND:                -1.713
REMARK SMILES O=c1c(O[C@@H]2O[C@H](CO)[C@H](O)[C@@H](O)[C@@H]2O)c(-c2ccc(O)c(O)c2)oc2cc(O)cc(O)c12
REMARK SMILES IDX 4 1 3 2 16 3 25 4 2 5 26 6 1 7 33 8 27 9 31 10 28 11 30 12
REMARK SMILES IDX 17 13 18 14 19 15 20 16 24 17 22 18 21 19 23 21 32 23 29 25
REMARK SMILES IDX 5 27 14 28 6 29 12 30 7 31 10 32 15 33 13 35 8 37 9 38 11 40
REMARK H PARENT 21 20 23 22 32 24 29 26 15 34 13 36 9 39 11 41
REMARK Flexibility Score: inf
ROOT
ATOM      1  O   UNL     1     -18.777  -1.723  13.718  1.00  0.00    -0.454 OA
ENDROOT
BRANCH   1   2
ATOM      2  C   UNL     1     -18.980  -2.215  15.027  1.00  0.00     0.214 A 
ATOM      3  C   UNL     1     -17.959  -2.984  15.617  1.00  0.00     0.180 A 
ATOM      4  O   UNL     1     -18.058  -3.375  16.884  1.00  0.00    -0.452 OA
ATOM      5  C   UNL     1     -20.142  -1.955  15.789  1.00  0.00     0.239 A 
ATOM      6  C   UNL     1     -19.109  -3.109  17.647  1.00  0.00     0.146 A 
ATOM      7  O   UNL     1     -21.121  -1.356  15.271  1.00  0.00    -0.285 OA
ATOM      8  C   UNL     1     -20.210  -2.390  17.129  1.00  0.00     0.111 A 
ATOM      9  C   UNL     1     -19.117  -3.557  18.971  1.00  0.00     0.094 A 
ATOM     10  C   UNL     1     -21.322  -2.137  17.971  1.00  0.00     0.134 A 
ATOM     11  C   UNL     1     -20.212  -3.303  19.796  1.00  0.00     0.123 A 
ATOM     12  C   UNL     1     -21.311  -2.595  19.297  1.00  0.00     0.093 A 
BRANCH   3  13
ATOM     13  C   UNL     1     -16.744  -3.365  14.871  1.00  0.00     0.025 A 
ATOM     14  C   UNL     1     -16.752  -4.515  14.071  1.00  0.00     0.016 A 
ATOM     15  C   UNL     1     -15.622  -4.865  13.330  1.00  0.00     0.051 A 
ATOM     16  C   UNL     1     -14.474  -4.064  13.357  1.00  0.00     0.157 A 
ATOM     17  C   UNL     1     -15.603  -2.549  14.890  1.00  0.00     0.062 A 
ATOM     18  C   UNL     1     -14.468  -2.885  14.140  1.00  0.00     0.158 A 
BRANCH  16  19
ATOM     19  O   UNL     1     -13.377  -4.471  12.594  1.00  0.00    -0.504 OA
ATOM     20  H   UNL     1     -13.026  -3.962  11.796  1.00  0.00     0.293 HD
ENDBRANCH  16  19
BRANCH  18  21
ATOM     21  O   UNL     1     -13.368  -2.028  14.203  1.00  0.00    -0.504 OA
ATOM     22  H   UNL     1     -13.211  -1.263  13.562  1.00  0.00     0.293 HD
ENDBRANCH  18  21
ENDBRANCH   3  13
BRANCH  10  23
ATOM     23  O   UNL     1     -22.432  -1.431  17.503  1.00  0.00    -0.507 OA
ATOM     24  H   UNL     1     -22.387  -0.856  16.671  1.00  0.00     0.293 HD
ENDBRANCH  10  23
BRANCH  11  25
ATOM     25  O   UNL     1     -20.201  -3.757  21.114  1.00  0.00    -0.508 OA
ATOM     26  H   UNL     1     -19.814  -3.197  21.864  1.00  0.00     0.293 HD
ENDBRANCH  11  25
ENDBRANCH   1   2
BRANCH   1  27
ATOM     27  C   UNL     1     -19.430  -2.170  12.521  1.00  0.00     0.339 C 
ATOM     28  C   UNL     1     -20.061  -0.995  11.718  1.00  0.00     0.214 C 
ATOM     29  O   UNL     1     -18.543  -2.998  11.772  1.00  0.00    -0.332 OA
ATOM     30  C   UNL     1     -19.993  -1.258  10.208  1.00  0.00     0.180 C 
ATOM     31  C   UNL     1     -17.720  -2.303  10.845  1.00  0.00     0.179 C 
ATOM     32  C   UNL     1     -18.541  -1.530   9.763  1.00  0.00     0.177 C 
BRANCH  28  33
ATOM     33  O   UNL     1     -19.406   0.214  12.015  1.00  0.00    -0.384 OA
ATOM     34  H   UNL     1     -19.960   0.688  12.690  1.00  0.00     0.211 HD
ENDBRANCH  28  33
BRANCH  30  35
ATOM     35  O   UNL     1     -20.859  -2.307   9.842  1.00  0.00    -0.387 OA
ATOM     36  H   UNL     1     -21.452  -2.508  10.610  1.00  0.00     0.211 HD
ENDBRANCH  30  35
BRANCH  31  37
ATOM     37  C   UNL     1     -16.614  -1.490  11.555  1.00  0.00     0.191 C 
BRANCH  37  38
ATOM     38  O   UNL     1     -15.421  -1.553  10.820  1.00  0.00    -0.394 OA
ATOM     39  H   UNL     1     -15.465  -2.381  10.273  1.00  0.00     0.210 HD
ENDBRANCH  37  38
ENDBRANCH  31  37
BRANCH  32  40
ATOM     40  O   UNL     1     -17.924  -0.311   9.426  1.00  0.00    -0.387 OA
ATOM     41  H   UNL     1     -18.506   0.131   8.754  1.00  0.00     0.211 HD
ENDBRANCH  32  40
ENDBRANCH   1  27
TORSDOF 12
ENDMDL
MODEL 3
REMARK VINA RESULT:    -6.287      2.294      5.897
REMARK INTER + INTRA:         -10.941
REMARK INTER:                  -9.453
REMARK INTRA:                  -1.488
REMARK UNBOUND:                -1.713
REMARK SMILES O=c1c(O[C@@H]2O[C@H](CO)[C@H](O)[C@@H](O)[C@@H]2O)c(-c2ccc(O)c(O)c2)oc2cc(O)cc(O)c12
REMARK SMILES IDX 4 1 3 2 16 3 25 4 2 5 26 6 1 7 33 8 27 9 31 10 28 11 30 12
REMARK SMILES IDX 17 13 18 14 19 15 20 16 24 17 22 18 21 19 23 21 32 23 29 25
REMARK SMILES IDX 5 27 14 28 6 29 12 30 7 31 10 32 15 33 13 35 8 37 9 38 11 40
REMARK H PARENT 21 20 23 22 32 24 29 26 15 34 13 36 9 39 11 41
REMARK Flexibility Score: inf
ROOT
ATOM      1  O   UNL     1     -13.087  -2.717  12.827  1.00  0.00    -0.454 OA
ENDROOT
BRANCH   1   2
ATOM      2  C   UNL     1     -12.630  -3.692  11.913  1.00  0.00     0.214 A 
ATOM      3  C   UNL     1     -13.581  -4.372  11.128  1.00  0.00     0.180 A 
ATOM      4  O   UNL     1     -13.191  -5.216  10.179  1.00  0.00    -0.452 OA
ATOM      5  C   UNL     1     -11.264  -4.005  11.721  1.00  0.00     0.239 A 
ATOM      6  C   UNL     1     -11.919  -5.499   9.935  1.00  0.00     0.146 A 
ATOM      7  O   UNL     1     -10.385  -3.496  12.465  1.00  0.00    -0.285 OA
ATOM      8  C   UNL     1     -10.891  -4.910  10.705  1.00  0.00     0.111 A 
ATOM      9  C   UNL     1     -11.609  -6.396   8.909  1.00  0.00     0.094 A 
ATOM     10  C   UNL     1      -9.543  -5.247  10.424  1.00  0.00     0.134 A 
ATOM     11  C   UNL     1     -10.280  -6.722   8.634  1.00  0.00     0.123 A 
ATOM     12  C   UNL     1      -9.252  -6.149   9.390  1.00  0.00     0.093 A 
BRANCH   3  13
ATOM     13  C   UNL     1     -15.030  -4.161  11.312  1.00  0.00     0.025 A 
ATOM     14  C   UNL     1     -15.662  -4.641  12.466  1.00  0.00     0.016 A 
ATOM     15  C   UNL     1     -17.024  -4.416  12.670  1.00  0.00     0.051 A 
ATOM     16  C   UNL     1     -17.774  -3.690  11.738  1.00  0.00     0.157 A 
ATOM     17  C   UNL     1     -15.773  -3.419  10.381  1.00  0.00     0.062 A 
ATOM     18  C   UNL     1     -17.138  -3.177  10.582  1.00  0.00     0.158 A 
BRANCH  16  19
ATOM     19  O   UNL     1     -19.133  -3.501  11.999  1.00  0.00    -0.504 OA
ATOM     20  H   UNL     1     -19.494  -2.788  12.618  1.00  0.00     0.293 HD
ENDBRANCH  16  19
BRANCH  18  21
ATOM     21  O   UNL     1     -17.816  -2.429   9.618  1.00  0.00    -0.504 OA
ATOM     22  H   UNL     1     -17.395  -2.097   8.762  1.00  0.00     0.293 HD
ENDBRANCH  18  21
ENDBRANCH   3  13
BRANCH  10  23
ATOM     23  O   UNL     1      -8.495  -4.690  11.158  1.00  0.00    -0.507 OA
ATOM     24  H   UNL     1      -8.630  -4.335  12.097  1.00  0.00     0.293 HD
ENDBRANCH  10  23
BRANCH  11  25
ATOM     25  O   UNL     1      -9.991  -7.617   7.606  1.00  0.00    -0.508 OA
ATOM     26  H   UNL     1      -9.547  -7.313   6.748  1.00  0.00     0.293 HD
ENDBRANCH  11  25
ENDBRANCH   1   2
BRANCH   1  27
ATOM     27  C   UNL     1     -12.960  -1.293  12.701  1.00  0.00     0.339 C 
ATOM     28  C   UNL     1     -14.343  -0.581  12.634  1.00  0.00     0.214 C 
ATOM     29  O   UNL     1     -12.081  -0.799  13.709  1.00  0.00    -0.332 OA
ATOM     30  C   UNL     1     -14.289   0.795  13.310  1.00  0.00     0.180 C 
ATOM     31  C   UNL     1     -12.714  -0.450  14.933  1.00  0.00     0.179 C 
ATOM     32  C   UNL     1     -13.787   0.674  14.763  1.00  0.00     0.177 C 
BRANCH  28  33
ATOM     33  O   UNL     1     -15.335  -1.368  13.247  1.00  0.00    -0.384 OA
ATOM     34  H   UNL     1     -15.626  -0.887  14.066  1.00  0.00     0.211 HD
ENDBRANCH  28  33
BRANCH  30  35
ATOM     35  O   UNL     1     -13.506   1.694  12.558  1.00  0.00    -0.387 OA
ATOM     36  H   UNL     1     -12.725   1.965  13.105  1.00  0.00     0.211 HD
ENDBRANCH  30  35
BRANCH  31  37
ATOM     37  C   UNL     1     -13.170  -1.699  15.721  1.00  0.00     0.191 C 
BRANCH  37  38
ATOM     38  O   UNL     1     -12.904  -1.531  17.087  1.00  0.00    -0.394 OA
ATOM     39  H   UNL     1     -11.923  -1.628  17.203  1.00  0.00     0.210 HD
ENDBRANCH  37  38
ENDBRANCH  31  37
BRANCH  32  40
ATOM     40  O   UNL     1     -14.886   0.464  15.617  1.00  0.00    -0.387 OA
ATOM     41  H   UNL     1     -14.525   0.376  16.537  1.00  0.00     0.211 HD
ENDBRANCH  32  40
ENDBRANCH   1  27
TORSDOF 12
ENDMDL
MODEL 4
REMARK VINA RESULT:    -6.239      3.555      5.658
REMARK INTER + INTRA:         -10.870
REMARK INTER:                  -9.171
REMARK INTRA:                  -1.699
REMARK UNBOUND:                -1.713
REMARK SMILES O=c1c(O[C@@H]2O[C@H](CO)[C@H](O)[C@@H](O)[C@@H]2O)c(-c2ccc(O)c(O)c2)oc2cc(O)cc(O)c12
REMARK SMILES IDX 4 1 3 2 16 3 25 4 2 5 26 6 1 7 33 8 27 9 31 10 28 11 30 12
REMARK SMILES IDX 17 13 18 14 19 15 20 16 24 17 22 18 21 19 23 21 32 23 29 25
REMARK SMILES IDX 5 27 14 28 6 29 12 30 7 31 10 32 15 33 13 35 8 37 9 38 11 40
REMARK H PARENT 21 20 23 22 32 24 29 26 15 34 13 36 9 39 11 41
REMARK Flexibility Score: inf
ROOT
ATOM      1  O   UNL     1     -17.572  -1.654  12.868  1.00  0.00    -0.454 OA
ENDROOT
BRANCH   1   2
ATOM      2  C   UNL     1     -17.959  -2.185  14.119  1.00  0.00     0.214 A 
ATOM      3  C   UNL     1     -17.044  -3.000  14.811  1.00  0.00     0.180 A 
ATOM      4  O   UNL     1     -17.321  -3.431  16.037  1.00  0.00    -0.452 OA
ATOM      5  C   UNL     1     -19.208  -1.920  14.728  1.00  0.00     0.239 A 
ATOM      6  C   UNL     1     -18.458  -3.163  16.663  1.00  0.00     0.146 A 
ATOM      7  O   UNL     1     -20.094  -1.278  14.107  1.00  0.00    -0.285 OA
ATOM      8  C   UNL     1     -19.464  -2.398  16.030  1.00  0.00     0.111 A 
ATOM      9  C   UNL     1     -18.653  -3.656  17.956  1.00  0.00     0.094 A 
ATOM     10  C   UNL     1     -20.673  -2.145  16.725  1.00  0.00     0.134 A 
ATOM     11  C   UNL     1     -19.844  -3.401  18.638  1.00  0.00     0.123 A 
ATOM     12  C   UNL     1     -20.850  -2.648  18.023  1.00  0.00     0.093 A 
BRANCH   3  13
ATOM     13  C   UNL     1     -15.749  -3.387  14.219  1.00  0.00     0.025 A 
ATOM     14  C   UNL     1     -15.689  -4.455  13.315  1.00  0.00     0.016 A 
ATOM     15  C   UNL     1     -14.477  -4.808  12.719  1.00  0.00     0.051 A 
ATOM     16  C   UNL     1     -13.309  -4.088  12.998  1.00  0.00     0.157 A 
ATOM     17  C   UNL     1     -14.585  -2.652  14.492  1.00  0.00     0.062 A 
ATOM     18  C   UNL     1     -13.366  -2.990  13.890  1.00  0.00     0.158 A 
BRANCH  16  19
ATOM     19  O   UNL     1     -12.128  -4.492  12.371  1.00  0.00    -0.504 OA
ATOM     20  H   UNL     1     -12.098  -5.105  11.568  1.00  0.00     0.293 HD
ENDBRANCH  16  19
BRANCH  18  21
ATOM     21  O   UNL     1     -12.248  -2.215  14.203  1.00  0.00    -0.504 OA
ATOM     22  H   UNL     1     -12.183  -1.619  15.016  1.00  0.00     0.293 HD
ENDBRANCH  18  21
ENDBRANCH   3  13
BRANCH  10  23
ATOM     23  O   UNL     1     -21.695  -1.394  16.141  1.00  0.00    -0.507 OA
ATOM     24  H   UNL     1     -21.499  -0.625  15.510  1.00  0.00     0.293 HD
ENDBRANCH  10  23
BRANCH  11  25
ATOM     25  O   UNL     1     -20.019  -3.900  19.927  1.00  0.00    -0.508 OA
ATOM     26  H   UNL     1     -20.144  -3.284  20.721  1.00  0.00     0.293 HD
ENDBRANCH  11  25
ENDBRANCH   1   2
BRANCH   1  27
ATOM     27  C   UNL     1     -17.997  -2.106  11.574  1.00  0.00     0.339 C 
ATOM     28  C   UNL     1     -19.130  -1.218  10.981  1.00  0.00     0.214 C 
ATOM     29  O   UNL     1     -16.862  -2.271  10.727  1.00  0.00    -0.332 OA
ATOM     30  C   UNL     1     -19.013  -1.119   9.455  1.00  0.00     0.180 C 
ATOM     31  C   UNL     1     -16.490  -1.110   9.997  1.00  0.00     0.179 C 
ATOM     32  C   UNL     1     -17.619  -0.603   9.043  1.00  0.00     0.177 C 
BRANCH  28  33
ATOM     33  O   UNL     1     -19.091   0.072  11.541  1.00  0.00    -0.384 OA
ATOM     34  H   UNL     1     -19.803   0.605  11.099  1.00  0.00     0.211 HD
ENDBRANCH  28  33
BRANCH  30  35
ATOM     35  O   UNL     1     -19.317  -2.354   8.847  1.00  0.00    -0.387 OA
ATOM     36  H   UNL     1     -19.248  -2.246   7.864  1.00  0.00     0.211 HD
ENDBRANCH  30  35
BRANCH  31  37
ATOM     37  C   UNL     1     -15.851  -0.038  10.908  1.00  0.00     0.191 C 
BRANCH  37  38
ATOM     38  O   UNL     1     -14.836  -0.610  11.688  1.00  0.00    -0.394 OA
ATOM     39  H   UNL     1     -13.981  -0.452  11.208  1.00  0.00     0.210 HD
ENDBRANCH  37  38
ENDBRANCH  31  37
BRANCH  32  40
ATOM     40  O   UNL     1     -17.645   0.802   8.982  1.00  0.00    -0.387 OA
ATOM     41  H   UNL     1     -18.082   1.046   8.124  1.00  0.00     0.211 HD
ENDBRANCH  32  40
ENDBRANCH   1  27
TORSDOF 12
ENDMDL
MODEL 5
REMARK VINA RESULT:    -6.129      3.448      5.263
REMARK INTER + INTRA:         -10.708
REMARK INTER:                  -8.805
REMARK INTRA:                  -1.904
REMARK UNBOUND:                -1.713
REMARK SMILES O=c1c(O[C@@H]2O[C@H](CO)[C@H](O)[C@@H](O)[C@@H]2O)c(-c2ccc(O)c(O)c2)oc2cc(O)cc(O)c12
REMARK SMILES IDX 4 1 3 2 16 3 25 4 2 5 26 6 1 7 33 8 27 9 31 10 28 11 30 12
REMARK SMILES IDX 17 13 18 14 19 15 20 16 24 17 22 18 21 19 23 21 32 23 29 25
REMARK SMILES IDX 5 27 14 28 6 29 12 30 7 31 10 32 15 33 13 35 8 37 9 38 11 40
REMARK H PARENT 21 20 23 22 32 24 29 26 15 34 13 36 9 39 11 41
REMARK Flexibility Score: inf
ROOT
ATOM      1  O   UNL     1     -17.705  -2.192  12.543  1.00  0.00    -0.454 OA
ENDROOT
BRANCH   1   2
ATOM      2  C   UNL     1     -18.030  -2.567  13.866  1.00  0.00     0.214 A 
ATOM      3  C   UNL     1     -17.082  -3.298  14.607  1.00  0.00     0.180 A 
ATOM      4  O   UNL     1     -17.299  -3.577  15.888  1.00  0.00    -0.452 OA
ATOM      5  C   UNL     1     -19.248  -2.224  14.499  1.00  0.00     0.239 A 
ATOM      6  C   UNL     1     -18.405  -3.231  16.531  1.00  0.00     0.146 A 
ATOM      7  O   UNL     1     -20.164  -1.657  13.849  1.00  0.00    -0.285 OA
ATOM      8  C   UNL     1     -19.440  -2.542  15.860  1.00  0.00     0.111 A 
ATOM      9  C   UNL     1     -18.537  -3.564  17.882  1.00  0.00     0.094 A 
ATOM     10  C   UNL     1     -20.615  -2.200  16.577  1.00  0.00     0.134 A 
ATOM     11  C   UNL     1     -19.693  -3.222  18.584  1.00  0.00     0.123 A 
ATOM     12  C   UNL     1     -20.728  -2.543  17.932  1.00  0.00     0.093 A 
BRANCH   3  13
ATOM     13  C   UNL     1     -15.817  -3.761  14.004  1.00  0.00     0.025 A 
ATOM     14  C   UNL     1     -15.781  -4.978  13.312  1.00  0.00     0.016 A 
ATOM     15  C   UNL     1     -14.600  -5.409  12.705  1.00  0.00     0.051 A 
ATOM     16  C   UNL     1     -13.442  -4.623  12.759  1.00  0.00     0.157 A 
ATOM     17  C   UNL     1     -14.665  -2.961  14.049  1.00  0.00     0.062 A 
ATOM     18  C   UNL     1     -13.478  -3.379  13.433  1.00  0.00     0.158 A 
BRANCH  16  19
ATOM     19  O   UNL     1     -12.293  -5.112  12.133  1.00  0.00    -0.504 OA
ATOM     20  H   UNL     1     -12.238  -6.013  11.680  1.00  0.00     0.293 HD
ENDBRANCH  16  19
BRANCH  18  21
ATOM     21  O   UNL     1     -12.369  -2.534  13.513  1.00  0.00    -0.504 OA
ATOM     22  H   UNL     1     -12.381  -1.560  13.244  1.00  0.00     0.293 HD
ENDBRANCH  18  21
ENDBRANCH   3  13
BRANCH  10  23
ATOM     23  O   UNL     1     -21.664  -1.520  15.956  1.00  0.00    -0.507 OA
ATOM     24  H   UNL     1     -22.188  -0.796  16.434  1.00  0.00     0.293 HD
ENDBRANCH  10  23
BRANCH  11  25
ATOM     25  O   UNL     1     -19.805  -3.562  19.931  1.00  0.00    -0.508 OA
ATOM     26  H   UNL     1     -20.415  -4.309  20.240  1.00  0.00     0.293 HD
ENDBRANCH  11  25
ENDBRANCH   1   2
BRANCH   1  27
ATOM     27  C   UNL     1     -17.303  -0.890  12.093  1.00  0.00     0.339 C 
ATOM     28  C   UNL     1     -16.077  -0.949  11.134  1.00  0.00     0.214 C 
ATOM     29  O   UNL     1     -18.434  -0.193  11.575  1.00  0.00    -0.332 OA
ATOM     30  C   UNL     1     -16.156   0.150  10.068  1.00  0.00     0.180 C 
ATOM     31  C   UNL     1     -18.676  -0.396  10.190  1.00  0.00     0.179 C 
ATOM     32  C   UNL     1     -17.485   0.066   9.289  1.00  0.00     0.177 C 
BRANCH  28  33
ATOM     33  O   UNL     1     -15.999  -2.207  10.510  1.00  0.00    -0.384 OA
ATOM     34  H   UNL     1     -16.824  -2.317   9.968  1.00  0.00     0.211 HD
ENDBRANCH  28  33
BRANCH  30  35
ATOM     35  O   UNL     1     -15.966   1.422  10.643  1.00  0.00    -0.387 OA
ATOM     36  H   UNL     1     -15.755   2.067   9.920  1.00  0.00     0.211 HD
ENDBRANCH  30  35
BRANCH  31  37
ATOM     37  C   UNL     1     -19.222  -1.814   9.904  1.00  0.00     0.191 C 
BRANCH  37  38
ATOM     38  O   UNL     1     -20.165  -2.173  10.878  1.00  0.00    -0.394 OA
ATOM     39  H   UNL     1     -20.227  -1.412  11.512  1.00  0.00     0.210 HD
ENDBRANCH  37  38
ENDBRANCH  31  37
BRANCH  32  40
ATOM     40  O   UNL     1     -17.319  -0.787   8.183  1.00  0.00    -0.387 OA
ATOM     41  H   UNL     1     -16.543  -0.445   7.667  1.00  0.00     0.211 HD
ENDBRANCH  32  40
ENDBRANCH   1  27
TORSDOF 12
ENDMDL
MODEL 6
REMARK VINA RESULT:    -6.128      5.705      8.971
REMARK INTER + INTRA:         -10.707
REMARK INTER:                  -9.145
REMARK INTRA:                  -1.562
REMARK UNBOUND:                -1.713
REMARK SMILES O=c1c(O[C@@H]2O[C@H](CO)[C@H](O)[C@@H](O)[C@@H]2O)c(-c2ccc(O)c(O)c2)oc2cc(O)cc(O)c12
REMARK SMILES IDX 4 1 3 2 16 3 25 4 2 5 26 6 1 7 33 8 27 9 31 10 28 11 30 12
REMARK SMILES IDX 17 13 18 14 19 15 20 16 24 17 22 18 21 19 23 21 32 23 29 25
REMARK SMILES IDX 5 27 14 28 6 29 12 30 7 31 10 32 15 33 13 35 8 37 9 38 11 40
REMARK H PARENT 21 20 23 22 32 24 29 26 15 34 13 36 9 39 11 41
REMARK Flexibility Score: inf
ROOT
ATOM      1  O   UNL     1     -19.703  -2.416  14.485  1.00  0.00    -0.454 OA
ENDROOT
BRANCH   1   2
ATOM      2  C   UNL     1     -20.160  -2.282  15.816  1.00  0.00     0.214 A 
ATOM      3  C   UNL     1     -21.397  -1.649  16.037  1.00  0.00     0.180 A 
ATOM      4  O   UNL     1     -21.918  -1.598  17.259  1.00  0.00    -0.452 OA
ATOM      5  C   UNL     1     -19.453  -2.772  16.938  1.00  0.00     0.239 A 
ATOM      6  C   UNL     1     -21.311  -2.090  18.329  1.00  0.00     0.146 A 
ATOM      7  O   UNL     1     -18.300  -3.257  16.801  1.00  0.00    -0.285 OA
ATOM      8  C   UNL     1     -20.039  -2.695  18.219  1.00  0.00     0.111 A 
ATOM      9  C   UNL     1     -21.944  -1.993  19.572  1.00  0.00     0.094 A 
ATOM     10  C   UNL     1     -19.414  -3.197  19.389  1.00  0.00     0.134 A 
ATOM     11  C   UNL     1     -21.326  -2.492  20.719  1.00  0.00     0.123 A 
ATOM     12  C   UNL     1     -20.065  -3.092  20.627  1.00  0.00     0.093 A 
BRANCH   3  13
ATOM     13  C   UNL     1     -22.167  -1.044  14.932  1.00  0.00     0.025 A 
ATOM     14  C   UNL     1     -23.231  -1.751  14.357  1.00  0.00     0.016 A 
ATOM     15  C   UNL     1     -23.991  -1.175  13.338  1.00  0.00     0.051 A 
ATOM     16  C   UNL     1     -23.717   0.123  12.890  1.00  0.00     0.157 A 
ATOM     17  C   UNL     1     -21.898   0.263  14.500  1.00  0.00     0.062 A 
ATOM     18  C   UNL     1     -22.663   0.855  13.486  1.00  0.00     0.158 A 
BRANCH  16  19
ATOM     19  O   UNL     1     -24.514   0.641  11.866  1.00  0.00    -0.504 OA
ATOM     20  H   UNL     1     -24.224   0.695  10.900  1.00  0.00     0.293 HD
ENDBRANCH  16  19
BRANCH  18  21
ATOM     21  O   UNL     1     -22.343   2.160  13.105  1.00  0.00    -0.504 OA
ATOM     22  H   UNL     1     -22.061   2.423  12.172  1.00  0.00     0.293 HD
ENDBRANCH  18  21
ENDBRANCH   3  13
BRANCH  10  23
ATOM     23  O   UNL     1     -18.158  -3.804  19.329  1.00  0.00    -0.507 OA
ATOM     24  H   UNL     1     -17.308  -3.290  19.525  1.00  0.00     0.293 HD
ENDBRANCH  10  23
BRANCH  11  25
ATOM     25  O   UNL     1     -21.973  -2.388  21.949  1.00  0.00    -0.508 OA
ATOM     26  H   UNL     1     -21.549  -1.907  22.733  1.00  0.00     0.293 HD
ENDBRANCH  11  25
ENDBRANCH   1   2
BRANCH   1  27
ATOM     27  C   UNL     1     -18.586  -1.742  13.888  1.00  0.00     0.339 C 
ATOM     28  C   UNL     1     -17.517  -2.737  13.347  1.00  0.00     0.214 C 
ATOM     29  O   UNL     1     -19.054  -0.791  12.935  1.00  0.00    -0.332 OA
ATOM     30  C   UNL     1     -16.840  -2.187  12.085  1.00  0.00     0.180 C 
ATOM     31  C   UNL     1     -19.218  -1.298  11.617  1.00  0.00     0.179 C 
ATOM     32  C   UNL     1     -17.886  -1.843  11.005  1.00  0.00     0.177 C 
BRANCH  28  33
ATOM     33  O   UNL     1     -18.101  -3.984  13.063  1.00  0.00    -0.384 OA
ATOM     34  H   UNL     1     -17.417  -4.528  12.593  1.00  0.00     0.211 HD
ENDBRANCH  28  33
BRANCH  30  35
ATOM     35  O   UNL     1     -16.022  -1.082  12.394  1.00  0.00    -0.387 OA
ATOM     36  H   UNL     1     -15.228  -1.102  11.801  1.00  0.00     0.211 HD
ENDBRANCH  30  35
BRANCH  31  37
ATOM     37  C   UNL     1     -20.439  -2.240  11.512  1.00  0.00     0.191 C 
BRANCH  37  38
ATOM     38  O   UNL     1     -20.875  -2.317  10.181  1.00  0.00    -0.394 OA
ATOM     39  H   UNL     1     -20.909  -1.387   9.836  1.00  0.00     0.210 HD
ENDBRANCH  37  38
ENDBRANCH  31  37
BRANCH  32  40
ATOM     40  O   UNL     1     -18.118  -2.978  10.206  1.00  0.00    -0.387 OA
ATOM     41  H   UNL     1     -18.403  -3.708  10.816  1.00  0.00     0.211 HD
ENDBRANCH  32  40
ENDBRANCH   1  27
TORSDOF 12
ENDMDL
MODEL 7
REMARK VINA RESULT:    -6.055      2.409      6.615
REMARK INTER + INTRA:         -10.599
REMARK INTER:                  -8.635
REMARK INTRA:                  -1.964
REMARK UNBOUND:                -1.713
REMARK SMILES O=c1c(O[C@@H]2O[C@H](CO)[C@H](O)[C@@H](O)[C@@H]2O)c(-c2ccc(O)c(O)c2)oc2cc(O)cc(O)c12
REMARK SMILES IDX 4 1 3 2 16 3 25 4 2 5 26 6 1 7 33 8 27 9 31 10 28 11 30 12
REMARK SMILES IDX 17 13 18 14 19 15 20 16 24 17 22 18 21 19 23 21 32 23 29 25
REMARK SMILES IDX 5 27 14 28 6 29 12 30 7 31 10 32 15 33 13 35 8 37 9 38 11 40
REMARK H PARENT 21 20 23 22 32 24 29 26 15 34 13 36 9 39 11 41
REMARK Flexibility Score: inf
ROOT
ATOM      1  O   UNL     1     -15.551  -5.259  13.614  1.00  0.00    -0.454 OA
ENDROOT
BRANCH   1   2
ATOM      2  C   UNL     1     -14.709  -6.173  12.941  1.00  0.00     0.214 A 
ATOM      3  C   UNL     1     -14.944  -7.550  13.113  1.00  0.00     0.180 A 
ATOM      4  O   UNL     1     -14.250  -8.444  12.416  1.00  0.00    -0.452 OA
ATOM      5  C   UNL     1     -13.658  -5.780  12.081  1.00  0.00     0.239 A 
ATOM      6  C   UNL     1     -13.290  -8.115  11.563  1.00  0.00     0.146 A 
ATOM      7  O   UNL     1     -13.347  -4.566  11.970  1.00  0.00    -0.285 OA
ATOM      8  C   UNL     1     -12.942  -6.760  11.361  1.00  0.00     0.111 A 
ATOM      9  C   UNL     1     -12.621  -9.128  10.871  1.00  0.00     0.094 A 
ATOM     10  C   UNL     1     -11.901  -6.448  10.451  1.00  0.00     0.134 A 
ATOM     11  C   UNL     1     -11.599  -8.815   9.973  1.00  0.00     0.123 A 
ATOM     12  C   UNL     1     -11.241  -7.478   9.765  1.00  0.00     0.093 A 
BRANCH   3  13
ATOM     13  C   UNL     1     -15.972  -8.051  14.047  1.00  0.00     0.025 A 
ATOM     14  C   UNL     1     -15.663  -8.200  15.405  1.00  0.00     0.016 A 
ATOM     15  C   UNL     1     -16.637  -8.636  16.305  1.00  0.00     0.051 A 
ATOM     16  C   UNL     1     -17.939  -8.910  15.870  1.00  0.00     0.157 A 
ATOM     17  C   UNL     1     -17.279  -8.308  13.607  1.00  0.00     0.062 A 
ATOM     18  C   UNL     1     -18.267  -8.735  14.505  1.00  0.00     0.158 A 
BRANCH  16  19
ATOM     19  O   UNL     1     -18.866  -9.344  16.820  1.00  0.00    -0.504 OA
ATOM     20  H   UNL     1     -18.680 -10.070  17.498  1.00  0.00     0.293 HD
ENDBRANCH  16  19
BRANCH  18  21
ATOM     21  O   UNL     1     -19.547  -8.970  14.001  1.00  0.00    -0.504 OA
ATOM     22  H   UNL     1     -19.795  -9.773  13.440  1.00  0.00     0.293 HD
ENDBRANCH  18  21
ENDBRANCH   3  13
BRANCH  10  23
ATOM     23  O   UNL     1     -11.522  -5.124  10.219  1.00  0.00    -0.507 OA
ATOM     24  H   UNL     1     -10.670  -4.737  10.606  1.00  0.00     0.293 HD
ENDBRANCH  10  23
BRANCH  11  25
ATOM     25  O   UNL     1     -10.945  -9.839   9.292  1.00  0.00    -0.508 OA
ATOM     26  H   UNL     1     -10.183  -9.648   8.652  1.00  0.00     0.293 HD
ENDBRANCH  11  25
ENDBRANCH   1   2
BRANCH   1  27
ATOM     27  C   UNL     1     -16.677  -4.562  13.062  1.00  0.00     0.339 C 
ATOM     28  C   UNL     1     -17.930  -4.642  13.984  1.00  0.00     0.214 C 
ATOM     29  O   UNL     1     -16.288  -3.240  12.694  1.00  0.00    -0.332 OA
ATOM     30  C   UNL     1     -18.761  -3.355  13.898  1.00  0.00     0.180 C 
ATOM     31  C   UNL     1     -16.425  -2.271  13.725  1.00  0.00     0.179 C 
ATOM     32  C   UNL     1     -17.897  -2.120  14.227  1.00  0.00     0.177 C 
BRANCH  28  33
ATOM     33  O   UNL     1     -17.548  -4.869  15.318  1.00  0.00    -0.384 OA
ATOM     34  H   UNL     1     -16.718  -4.348  15.477  1.00  0.00     0.211 HD
ENDBRANCH  28  33
BRANCH  30  35
ATOM     35  O   UNL     1     -19.381  -3.241  12.638  1.00  0.00    -0.387 OA
ATOM     36  H   UNL     1     -18.902  -2.550  12.113  1.00  0.00     0.211 HD
ENDBRANCH  30  35
BRANCH  31  37
ATOM     37  C   UNL     1     -15.355  -2.447  14.826  1.00  0.00     0.191 C 
BRANCH  37  38
ATOM     38  O   UNL     1     -14.108  -2.720  14.247  1.00  0.00    -0.394 OA
ATOM     39  H   UNL     1     -13.429  -2.611  14.962  1.00  0.00     0.210 HD
ENDBRANCH  37  38
ENDBRANCH  31  37
BRANCH  32  40
ATOM     40  O   UNL     1     -17.943  -1.880  15.613  1.00  0.00    -0.387 OA
ATOM     41  H   UNL     1     -17.034  -1.587  15.886  1.00  0.00     0.211 HD
ENDBRANCH  32  40
ENDBRANCH   1  27
TORSDOF 12
ENDMDL
MODEL 8
REMARK VINA RESULT:    -6.026      2.277      5.452
REMARK INTER + INTRA:         -10.557
REMARK INTER:                  -8.861
REMARK INTRA:                  -1.696
REMARK UNBOUND:                -1.713
REMARK SMILES O=c1c(O[C@@H]2O[C@H](CO)[C@H](O)[C@@H](O)[C@@H]2O)c(-c2ccc(O)c(O)c2)oc2cc(O)cc(O)c12
REMARK SMILES IDX 4 1 3 2 16 3 25 4 2 5 26 6 1 7 33 8 27 9 31 10 28 11 30 12
REMARK SMILES IDX 17 13 18 14 19 15 20 16 24 17 22 18 21 19 23 21 32 23 29 25
REMARK SMILES IDX 5 27 14 28 6 29 12 30 7 31 10 32 15 33 13 35 8 37 9 38 11 40
REMARK H PARENT 21 20 23 22 32 24 29 26 15 34 13 36 9 39 11 41
REMARK Flexibility Score: inf
ROOT
ATOM      1  O   UNL     1     -13.039  -2.523  12.493  1.00  0.00    -0.454 OA
ENDROOT
BRANCH   1   2
ATOM      2  C   UNL     1     -12.583  -3.737  11.932  1.00  0.00     0.214 A 
ATOM      3  C   UNL     1     -13.534  -4.626  11.397  1.00  0.00     0.180 A 
ATOM      4  O   UNL     1     -13.145  -5.726  10.762  1.00  0.00    -0.452 OA
ATOM      5  C   UNL     1     -11.218  -4.098  11.854  1.00  0.00     0.239 A 
ATOM      6  C   UNL     1     -11.873  -6.075  10.624  1.00  0.00     0.146 A 
ATOM      7  O   UNL     1     -10.339  -3.384  12.403  1.00  0.00    -0.285 OA
ATOM      8  C   UNL     1     -10.845  -5.277  11.174  1.00  0.00     0.111 A 
ATOM      9  C   UNL     1     -11.564  -7.250   9.933  1.00  0.00     0.094 A 
ATOM     10  C   UNL     1      -9.498  -5.689  11.019  1.00  0.00     0.134 A 
ATOM     11  C   UNL     1     -10.236  -7.650   9.779  1.00  0.00     0.123 A 
ATOM     12  C   UNL     1      -9.207  -6.871  10.321  1.00  0.00     0.093 A 
BRANCH   3  13
ATOM     13  C   UNL     1     -14.983  -4.364  11.500  1.00  0.00     0.025 A 
ATOM     14  C   UNL     1     -15.690  -4.801  12.628  1.00  0.00     0.016 A 
ATOM     15  C   UNL     1     -17.053  -4.527  12.754  1.00  0.00     0.051 A 
ATOM     16  C   UNL     1     -17.728  -3.795  11.771  1.00  0.00     0.157 A 
ATOM     17  C   UNL     1     -15.650  -3.617  10.518  1.00  0.00     0.062 A 
ATOM     18  C   UNL     1     -17.015  -3.326  10.642  1.00  0.00     0.158 A 
BRANCH  16  19
ATOM     19  O   UNL     1     -19.092  -3.556  11.956  1.00  0.00    -0.504 OA
ATOM     20  H   UNL     1     -19.824  -4.081  11.498  1.00  0.00     0.293 HD
ENDBRANCH  16  19
BRANCH  18  21
ATOM     21  O   UNL     1     -17.616  -2.575   9.629  1.00  0.00    -0.504 OA
ATOM     22  H   UNL     1     -18.040  -1.670   9.773  1.00  0.00     0.293 HD
ENDBRANCH  18  21
ENDBRANCH   3  13
BRANCH  10  23
ATOM     23  O   UNL     1      -8.449  -4.933  11.545  1.00  0.00    -0.507 OA
ATOM     24  H   UNL     1      -7.603  -5.365  11.897  1.00  0.00     0.293 HD
ENDBRANCH  10  23
BRANCH  11  25
ATOM     25  O   UNL     1      -9.947  -8.823   9.085  1.00  0.00    -0.508 OA
ATOM     26  H   UNL     1     -10.619  -9.245   8.455  1.00  0.00     0.293 HD
ENDBRANCH  11  25
ENDBRANCH   1   2
BRANCH   1  27
ATOM     27  C   UNL     1     -13.523  -2.322  13.829  1.00  0.00     0.339 C 
ATOM     28  C   UNL     1     -12.436  -1.715  14.765  1.00  0.00     0.214 C 
ATOM     29  O   UNL     1     -14.750  -1.597  13.790  1.00  0.00    -0.332 OA
ATOM     30  C   UNL     1     -13.063  -0.778  15.804  1.00  0.00     0.180 C 
ATOM     31  C   UNL     1     -14.609  -0.183  13.824  1.00  0.00     0.179 C 
ATOM     32  C   UNL     1     -13.895   0.325  15.118  1.00  0.00     0.177 C 
BRANCH  28  33
ATOM     33  O   UNL     1     -11.474  -1.013  14.016  1.00  0.00    -0.384 OA
ATOM     34  H   UNL     1     -11.630  -0.046  14.174  1.00  0.00     0.211 HD
ENDBRANCH  28  33
BRANCH  30  35
ATOM     35  O   UNL     1     -13.826  -1.504  16.740  1.00  0.00    -0.387 OA
ATOM     36  H   UNL     1     -13.858  -2.452  16.453  1.00  0.00     0.211 HD
ENDBRANCH  30  35
BRANCH  31  37
ATOM     37  C   UNL     1     -14.057   0.372  12.491  1.00  0.00     0.191 C 
BRANCH  37  38
ATOM     38  O   UNL     1     -14.714  -0.231  11.409  1.00  0.00    -0.394 OA
ATOM     39  H   UNL     1     -14.013  -0.494  10.758  1.00  0.00     0.210 HD
ENDBRANCH  37  38
ENDBRANCH  31  37
BRANCH  32  40
ATOM     40  O   UNL     1     -13.064   1.428  14.844  1.00  0.00    -0.387 OA
ATOM     41  H   UNL     1     -13.652   2.227  14.792  1.00  0.00     0.211 HD
ENDBRANCH  32  40
ENDBRANCH   1  27
TORSDOF 12
ENDMDL
MODEL 9
REMARK VINA RESULT:    -6.007      4.488      6.764
REMARK INTER + INTRA:         -10.529
REMARK INTER:                  -8.561
REMARK INTRA:                  -1.968
REMARK UNBOUND:                -1.713
REMARK SMILES O=c1c(O[C@@H]2O[C@H](CO)[C@H](O)[C@@H](O)[C@@H]2O)c(-c2ccc(O)c(O)c2)oc2cc(O)cc(O)c12
REMARK SMILES IDX 4 1 3 2 16 3 25 4 2 5 26 6 1 7 33 8 27 9 31 10 28 11 30 12
REMARK SMILES IDX 17 13 18 14 19 15 20 16 24 17 22 18 21 19 23 21 32 23 29 25
REMARK SMILES IDX 5 27 14 28 6 29 12 30 7 31 10 32 15 33 13 35 8 37 9 38 11 40
REMARK H PARENT 21 20 23 22 32 24 29 26 15 34 13 36 9 39 11 41
REMARK Flexibility Score: inf
ROOT
ATOM      1  O   UNL     1     -19.623  -1.836  14.134  1.00  0.00    -0.454 OA
ENDROOT
BRANCH   1   2
ATOM      2  C   UNL     1     -19.739  -2.279  15.471  1.00  0.00     0.214 A 
ATOM      3  C   UNL     1     -18.732  -3.116  15.987  1.00  0.00     0.180 A 
ATOM      4  O   UNL     1     -18.740  -3.469  17.268  1.00  0.00    -0.452 OA
ATOM      5  C   UNL     1     -20.798  -1.906  16.330  1.00  0.00     0.239 A 
ATOM      6  C   UNL     1     -19.688  -3.099  18.118  1.00  0.00     0.146 A 
ATOM      7  O   UNL     1     -21.771  -1.240  15.888  1.00  0.00    -0.285 OA
ATOM      8  C   UNL     1     -20.772  -2.304  17.684  1.00  0.00     0.111 A 
ATOM      9  C   UNL     1     -19.605  -3.515  19.449  1.00  0.00     0.094 A 
ATOM     10  C   UNL     1     -21.774  -1.940  18.618  1.00  0.00     0.134 A 
ATOM     11  C   UNL     1     -20.592  -3.152  20.366  1.00  0.00     0.123 A 
ATOM     12  C   UNL     1     -21.674  -2.367  19.950  1.00  0.00     0.093 A 
BRANCH   3  13
ATOM     13  C   UNL     1     -17.628  -3.613  15.142  1.00  0.00     0.025 A 
ATOM     14  C   UNL     1     -17.805  -4.776  14.380  1.00  0.00     0.016 A 
ATOM     15  C   UNL     1     -16.783  -5.236  13.548  1.00  0.00     0.051 A 
ATOM     16  C   UNL     1     -15.577  -4.533  13.444  1.00  0.00     0.157 A 
ATOM     17  C   UNL     1     -16.428  -2.895  15.030  1.00  0.00     0.062 A 
ATOM     18  C   UNL     1     -15.401  -3.342  14.188  1.00  0.00     0.158 A 
BRANCH  16  19
ATOM     19  O   UNL     1     -14.594  -5.046  12.595  1.00  0.00    -0.504 OA
ATOM     20  H   UNL     1     -14.235  -5.989  12.654  1.00  0.00     0.293 HD
ENDBRANCH  16  19
BRANCH  18  21
ATOM     21  O   UNL     1     -14.234  -2.578  14.123  1.00  0.00    -0.504 OA
ATOM     22  H   UNL     1     -14.144  -1.649  14.510  1.00  0.00     0.293 HD
ENDBRANCH  18  21
ENDBRANCH   3  13
BRANCH  10  23
ATOM     23  O   UNL     1     -22.864  -1.156  18.234  1.00  0.00    -0.507 OA
ATOM     24  H   UNL     1     -22.761  -0.174  18.006  1.00  0.00     0.293 HD
ENDBRANCH  10  23
BRANCH  11  25
ATOM     25  O   UNL     1     -20.491  -3.575  21.690  1.00  0.00    -0.508 OA
ATOM     26  H   UNL     1     -19.764  -4.214  21.988  1.00  0.00     0.293 HD
ENDBRANCH  11  25
ENDBRANCH   1   2
BRANCH   1  27
ATOM     27  C   UNL     1     -19.072  -0.588  13.687  1.00  0.00     0.339 C 
ATOM     28  C   UNL     1     -18.045  -0.778  12.532  1.00  0.00     0.214 C 
ATOM     29  O   UNL     1     -20.127   0.328  13.405  1.00  0.00    -0.332 OA
ATOM     30  C   UNL     1     -18.094   0.400  11.551  1.00  0.00     0.180 C 
ATOM     31  C   UNL     1     -20.619   0.278  12.073  1.00  0.00     0.179 C 
ATOM     32  C   UNL     1     -19.523   0.602  11.006  1.00  0.00     0.177 C 
BRANCH  28  33
ATOM     33  O   UNL     1     -18.294  -1.978  11.841  1.00  0.00    -0.384 OA
ATOM     34  H   UNL     1     -19.279  -2.075  11.770  1.00  0.00     0.211 HD
ENDBRANCH  28  33
BRANCH  30  35
ATOM     35  O   UNL     1     -17.589   1.572  12.147  1.00  0.00    -0.387 OA
ATOM     36  H   UNL     1     -18.155   2.336  11.868  1.00  0.00     0.211 HD
ENDBRANCH  30  35
BRANCH  31  37
ATOM     37  C   UNL     1     -21.449  -1.000  11.814  1.00  0.00     0.191 C 
BRANCH  37  38
ATOM     38  O   UNL     1     -22.298  -1.251  12.901  1.00  0.00    -0.394 OA
ATOM     39  H   UNL     1     -22.274  -2.230  13.064  1.00  0.00     0.210 HD
ENDBRANCH  37  38
ENDBRANCH  31  37
BRANCH  32  40
ATOM     40  O   UNL     1     -19.691  -0.177   9.847  1.00  0.00    -0.387 OA
ATOM     41  H   UNL     1     -20.579  -0.615   9.919  1.00  0.00     0.211 HD
ENDBRANCH  32  40
ENDBRANCH   1  27
TORSDOF 12
ENDMDL
