MODEL 1
REMARK VINA RESULT:    -2.614      0.000      0.000
REMARK INTER + INTRA:          -2.614
REMARK INTER:                  -2.614
REMARK INTRA:                   0.000
REMARK UNBOUND:                 0.000
REMARK SMILES CC1(C)O[C@]2(C)CC[C@H]1CC2
REMARK SMILES IDX 1 1 2 2 9 3 10 4 11 5 5 6 4 7 7 8 8 9 6 10 3 11
REMARK H PARENT
REMARK Flexibility Score: inf
ROOT
ATOM      1  C   UNL     1     130.278 144.353 138.932  1.00  0.00     0.042 C 
ATOM      2  C   UNL     1     130.946 145.745 138.956  1.00  0.00     0.066 C 
ATOM      3  C   UNL     1     132.422 145.645 139.507  1.00  0.00     0.021 C 
ATOM      4  C   UNL     1     133.023 147.070 139.558  1.00  0.00     0.009 C 
ATOM      5  C   UNL     1     132.053 148.004 140.321  1.00  0.00     0.035 C 
ATOM      6  C   UNL     1     130.846 147.183 140.861  1.00  0.00     0.066 C 
ATOM      7  O   UNL     1     130.136 146.614 139.761  1.00  0.00    -0.369 OA
ATOM      8  C   UNL     1     131.379 146.039 141.770  1.00  0.00     0.035 C 
ATOM      9  C   UNL     1     132.365 145.151 140.972  1.00  0.00     0.009 C 
ATOM     10  C   UNL     1     129.895 148.089 141.649  1.00  0.00     0.042 C 
ATOM     11  C   UNL     1     130.939 146.283 137.509  1.00  0.00     0.042 C 
ENDROOT
TORSDOF 0
ENDMDL
MODEL 2
REMARK VINA RESULT:    -2.559     11.186     12.712
REMARK INTER + INTRA:          -2.559
REMARK INTER:                  -2.559
REMARK INTRA:                   0.000
REMARK UNBOUND:                 0.000
REMARK SMILES CC1(C)O[C@]2(C)CC[C@H]1CC2
REMARK SMILES IDX 1 1 2 2 9 3 10 4 11 5 5 6 4 7 7 8 8 9 6 10 3 11
REMARK H PARENT
REMARK Flexibility Score: inf
ROOT
ATOM      1  C   UNL     1     143.793 146.920 137.499  1.00  0.00     0.042 C 
ATOM      2  C   UNL     1     143.201 146.517 138.867  1.00  0.00     0.066 C 
ATOM      3  C   UNL     1     144.163 146.951 140.041  1.00  0.00     0.021 C 
ATOM      4  C   UNL     1     143.547 146.478 141.379  1.00  0.00     0.009 C 
ATOM      5  C   UNL     1     143.205 144.972 141.277  1.00  0.00     0.035 C 
ATOM      6  C   UNL     1     143.677 144.416 139.902  1.00  0.00     0.066 C 
ATOM      7  O   UNL     1     142.982 145.098 138.857  1.00  0.00    -0.369 OA
ATOM      8  C   UNL     1     145.204 144.672 139.750  1.00  0.00     0.035 C 
ATOM      9  C   UNL     1     145.499 146.185 139.888  1.00  0.00     0.009 C 
ATOM     10  C   UNL     1     143.375 142.918 139.801  1.00  0.00     0.042 C 
ATOM     11  C   UNL     1     141.830 147.215 138.998  1.00  0.00     0.042 C 
ENDROOT
TORSDOF 0
ENDMDL
MODEL 3
REMARK VINA RESULT:    -2.556      1.236      3.079
REMARK INTER + INTRA:          -2.556
REMARK INTER:                  -2.556
REMARK INTRA:                   0.000
REMARK UNBOUND:                 0.000
REMARK SMILES CC1(C)O[C@]2(C)CC[C@H]1CC2
REMARK SMILES IDX 1 1 2 2 9 3 10 4 11 5 5 6 4 7 7 8 8 9 6 10 3 11
REMARK H PARENT
REMARK Flexibility Score: inf
ROOT
ATOM      1  C   UNL     1     130.894 146.307 137.503  1.00  0.00     0.042 C 
ATOM      2  C   UNL     1     131.091 145.636 138.879  1.00  0.00     0.066 C 
ATOM      3  C   UNL     1     130.956 146.695 140.041  1.00  0.00     0.021 C 
ATOM      4  C   UNL     1     131.214 145.979 141.389  1.00  0.00     0.009 C 
ATOM      5  C   UNL     1     132.549 145.201 141.304  1.00  0.00     0.035 C 
ATOM      6  C   UNL     1     133.231 145.471 139.932  1.00  0.00     0.066 C 
ATOM      7  O   UNL     1     132.379 145.002 138.885  1.00  0.00    -0.369 OA
ATOM      8  C   UNL     1     133.445 147.003 139.765  1.00  0.00     0.035 C 
ATOM      9  C   UNL     1     132.088 147.739 139.887  1.00  0.00     0.009 C 
ATOM     10  C   UNL     1     134.570 144.734 139.847  1.00  0.00     0.042 C 
ATOM     11  C   UNL     1     130.014 144.538 139.013  1.00  0.00     0.042 C 
ENDROOT
TORSDOF 0
ENDMDL
MODEL 4
REMARK VINA RESULT:    -2.551      1.634      2.734
REMARK INTER + INTRA:          -2.551
REMARK INTER:                  -2.551
REMARK INTRA:                   0.000
REMARK UNBOUND:                 0.000
REMARK SMILES CC1(C)O[C@]2(C)CC[C@H]1CC2
REMARK SMILES IDX 1 1 2 2 9 3 10 4 11 5 5 6 4 7 7 8 8 9 6 10 3 11
REMARK H PARENT
REMARK Flexibility Score: inf
ROOT
ATOM      1  C   UNL     1     133.473 144.734 139.383  1.00  0.00     0.042 C 
ATOM      2  C   UNL     1     132.058 144.799 138.767  1.00  0.00     0.066 C 
ATOM      3  C   UNL     1     131.691 146.281 138.368  1.00  0.00     0.021 C 
ATOM      4  C   UNL     1     130.248 146.294 137.808  1.00  0.00     0.009 C 
ATOM      5  C   UNL     1     129.307 145.586 138.811  1.00  0.00     0.035 C 
ATOM      6  C   UNL     1     130.102 145.181 140.086  1.00  0.00     0.066 C 
ATOM      7  O   UNL     1     131.132 144.260 139.722  1.00  0.00    -0.369 OA
ATOM      8  C   UNL     1     130.751 146.453 140.703  1.00  0.00     0.035 C 
ATOM      9  C   UNL     1     131.659 147.141 139.655  1.00  0.00     0.009 C 
ATOM     10  C   UNL     1     129.174 144.509 141.102  1.00  0.00     0.042 C 
ATOM     11  C   UNL     1     132.055 143.882 137.525  1.00  0.00     0.042 C 
ENDROOT
TORSDOF 0
ENDMDL
MODEL 5
REMARK VINA RESULT:    -2.540     10.679     11.834
REMARK INTER + INTRA:          -2.540
REMARK INTER:                  -2.540
REMARK INTRA:                   0.000
REMARK UNBOUND:                 0.000
REMARK SMILES CC1(C)O[C@]2(C)CC[C@H]1CC2
REMARK SMILES IDX 1 1 2 2 9 3 10 4 11 5 5 6 4 7 7 8 8 9 6 10 3 11
REMARK H PARENT
REMARK Flexibility Score: inf
ROOT
ATOM      1  C   UNL     1     143.044 143.875 139.743  1.00  0.00     0.042 C 
ATOM      2  C   UNL     1     142.747 145.192 138.995  1.00  0.00     0.066 C 
ATOM      3  C   UNL     1     144.087 145.880 138.524  1.00  0.00     0.021 C 
ATOM      4  C   UNL     1     143.733 147.217 137.829  1.00  0.00     0.009 C 
ATOM      5  C   UNL     1     142.810 148.043 138.757  1.00  0.00     0.035 C 
ATOM      6  C   UNL     1     142.622 147.301 140.111  1.00  0.00     0.066 C 
ATOM      7  O   UNL     1     141.992 146.042 139.871  1.00  0.00    -0.369 OA
ATOM      8  C   UNL     1     144.017 147.059 140.754  1.00  0.00     0.035 C 
ATOM      9  C   UNL     1     144.912 146.255 139.779  1.00  0.00     0.009 C 
ATOM     10  C   UNL     1     141.738 148.125 141.052  1.00  0.00     0.042 C 
ATOM     11  C   UNL     1     141.858 144.841 137.782  1.00  0.00     0.042 C 
ENDROOT
TORSDOF 0
ENDMDL
MODEL 6
REMARK VINA RESULT:    -2.527     10.526     12.078
REMARK INTER + INTRA:          -2.527
REMARK INTER:                  -2.527
REMARK INTRA:                   0.000
REMARK UNBOUND:                 0.000
REMARK SMILES CC1(C)O[C@]2(C)CC[C@H]1CC2
REMARK SMILES IDX 1 1 2 2 9 3 10 4 11 5 5 6 4 7 7 8 8 9 6 10 3 11
REMARK H PARENT
REMARK Flexibility Score: inf
ROOT
ATOM      1  C   UNL     1     145.473 145.907 139.797  1.00  0.00     0.042 C 
ATOM      2  C   UNL     1     143.989 145.529 139.601  1.00  0.00     0.066 C 
ATOM      3  C   UNL     1     143.528 145.825 138.121  1.00  0.00     0.021 C 
ATOM      4  C   UNL     1     142.025 145.478 137.997  1.00  0.00     0.009 C 
ATOM      5  C   UNL     1     141.244 146.190 139.128  1.00  0.00     0.035 C 
ATOM      6  C   UNL     1     142.212 147.088 139.952  1.00  0.00     0.066 C 
ATOM      7  O   UNL     1     143.212 146.267 140.557  1.00  0.00    -0.369 OA
ATOM      8  C   UNL     1     142.897 148.105 138.996  1.00  0.00     0.035 C 
ATOM      9  C   UNL     1     143.639 147.347 137.868  1.00  0.00     0.009 C 
ATOM     10  C   UNL     1     141.445 147.826 141.054  1.00  0.00     0.042 C 
ATOM     11  C   UNL     1     143.850 144.026 139.927  1.00  0.00     0.042 C 
ENDROOT
TORSDOF 0
ENDMDL
MODEL 7
REMARK VINA RESULT:    -2.513      1.485      3.253
REMARK INTER + INTRA:          -2.513
REMARK INTER:                  -2.513
REMARK INTRA:                   0.000
REMARK UNBOUND:                 0.000
REMARK SMILES CC1(C)O[C@]2(C)CC[C@H]1CC2
REMARK SMILES IDX 1 1 2 2 9 3 10 4 11 5 5 6 4 7 7 8 8 9 6 10 3 11
REMARK H PARENT
REMARK Flexibility Score: inf
ROOT
ATOM      1  C   UNL     1     128.976 145.261 139.453  1.00  0.00     0.042 C 
ATOM      2  C   UNL     1     130.376 145.694 139.936  1.00  0.00     0.066 C 
ATOM      3  C   UNL     1     131.057 146.654 138.885  1.00  0.00     0.021 C 
ATOM      4  C   UNL     1     132.474 147.012 139.395  1.00  0.00     0.009 C 
ATOM      5  C   UNL     1     133.232 145.710 139.746  1.00  0.00     0.035 C 
ATOM      6  C   UNL     1     132.357 144.476 139.385  1.00  0.00     0.066 C 
ATOM      7  O   UNL     1     131.157 144.509 140.158  1.00  0.00    -0.369 OA
ATOM      8  C   UNL     1     131.991 144.540 137.874  1.00  0.00     0.035 C 
ATOM      9  C   UNL     1     131.262 145.871 137.567  1.00  0.00     0.009 C 
ATOM     10  C   UNL     1     133.109 143.178 139.696  1.00  0.00     0.042 C 
ATOM     11  C   UNL     1     130.194 146.410 141.292  1.00  0.00     0.042 C 
ENDROOT
TORSDOF 0
ENDMDL
MODEL 8
REMARK VINA RESULT:    -2.486      1.514      3.291
REMARK INTER + INTRA:          -2.486
REMARK INTER:                  -2.486
REMARK INTRA:                   0.000
REMARK UNBOUND:                 0.000
REMARK SMILES CC1(C)O[C@]2(C)CC[C@H]1CC2
REMARK SMILES IDX 1 1 2 2 9 3 10 4 11 5 5 6 4 7 7 8 8 9 6 10 3 11
REMARK H PARENT
REMARK Flexibility Score: inf
ROOT
ATOM      1  C   UNL     1     132.525 147.439 139.750  1.00  0.00     0.042 C 
ATOM      2  C   UNL     1     132.062 145.966 139.735  1.00  0.00     0.066 C 
ATOM      3  C   UNL     1     131.981 145.422 138.256  1.00  0.00     0.021 C 
ATOM      4  C   UNL     1     131.464 143.964 138.298  1.00  0.00     0.009 C 
ATOM      5  C   UNL     1     130.163 143.910 139.134  1.00  0.00     0.035 C 
ATOM      6  C   UNL     1     129.760 145.347 139.575  1.00  0.00     0.066 C 
ATOM      7  O   UNL     1     130.791 145.892 140.399  1.00  0.00    -0.369 OA
ATOM      8  C   UNL     1     129.595 146.237 138.310  1.00  0.00     0.035 C 
ATOM      9  C   UNL     1     130.910 146.236 137.492  1.00  0.00     0.009 C 
ATOM     10  C   UNL     1     128.454 145.313 140.376  1.00  0.00     0.042 C 
ATOM     11  C   UNL     1     133.084 145.154 140.560  1.00  0.00     0.042 C 
ENDROOT
TORSDOF 0
ENDMDL
MODEL 9
REMARK VINA RESULT:    -2.477      1.396      3.482
REMARK INTER + INTRA:          -2.477
REMARK INTER:                  -2.477
REMARK INTRA:                   0.000
REMARK UNBOUND:                 0.000
REMARK SMILES CC1(C)O[C@]2(C)CC[C@H]1CC2
REMARK SMILES IDX 1 1 2 2 9 3 10 4 11 5 5 6 4 7 7 8 8 9 6 10 3 11
REMARK H PARENT
REMARK Flexibility Score: inf
ROOT
ATOM      1  C   UNL     1     130.648 147.099 141.101  1.00  0.00     0.042 C 
ATOM      2  C   UNL     1     131.410 146.489 139.904  1.00  0.00     0.066 C 
ATOM      3  C   UNL     1     130.522 146.527 138.600  1.00  0.00     0.021 C 
ATOM      4  C   UNL     1     131.312 145.858 137.450  1.00  0.00     0.009 C 
ATOM      5  C   UNL     1     131.811 144.469 137.916  1.00  0.00     0.035 C 
ATOM      6  C   UNL     1     131.275 144.169 139.346  1.00  0.00     0.066 C 
ATOM      7  O   UNL     1     131.786 145.148 140.252  1.00  0.00    -0.369 OA
ATOM      8  C   UNL     1     129.722 144.249 139.332  1.00  0.00     0.035 C 
ATOM      9  C   UNL     1     129.272 145.644 138.832  1.00  0.00     0.009 C 
ATOM     10  C   UNL     1     131.733 142.782 139.806  1.00  0.00     0.042 C 
ATOM     11  C   UNL     1     132.700 147.315 139.711  1.00  0.00     0.042 C 
ENDROOT
TORSDOF 0
ENDMDL
