MODEL 1
REMARK VINA RESULT:    -1.555      0.000      0.000
REMARK INTER + INTRA:          -5.670
REMARK INTER:                  -2.918
REMARK INTRA:                  -2.752
REMARK UNBOUND:                -2.752
REMARK SMILES CCCCCCCCC=CCCCCCCCC(=O)[O-]
REMARK SMILES IDX 10 1 9 2 11 3 12 4 13 5 14 6 15 7 16 8 17 9 18 10 19 11
REMARK SMILES IDX 20 12 8 13 7 14 6 15 5 16 4 17 3 18 2 19 1 20
REMARK H PARENT
REMARK Flexibility Score: inf
ROOT
ATOM      1  C   UNL     1     172.177 178.247 192.275  1.00  0.00    -0.031 C 
ATOM      2  C   UNL     1     171.561 179.364 191.851  1.00  0.00    -0.031 C 
ENDROOT
BRANCH   1   3
ATOM      3  C   UNL     1     173.655 177.980 192.126  1.00  0.00     0.027 C 
BRANCH   3   4
ATOM      4  C   UNL     1     174.184 177.018 193.204  1.00  0.00     0.004 C 
BRANCH   4   5
ATOM      5  C   UNL     1     173.273 176.875 194.441  1.00  0.00     0.000 C 
BRANCH   5   6
ATOM      6  C   UNL     1     173.992 176.979 195.800  1.00  0.00     0.000 C 
BRANCH   6   7
ATOM      7  C   UNL     1     173.017 177.080 196.985  1.00  0.00     0.000 C 
BRANCH   7   8
ATOM      8  C   UNL     1     173.571 177.944 198.130  1.00  0.00     0.006 C 
BRANCH   8   9
ATOM      9  C   UNL     1     172.666 177.934 199.370  1.00  0.00     0.053 C 
BRANCH   9  10
ATOM     10  C   UNL     1     172.014 179.269 199.548  1.00  0.00     0.041 C 
ATOM     11  O   UNL     1     172.251 180.203 198.739  1.00  0.00    -0.550 OA
ATOM     12  O   UNL     1     171.180 179.496 200.636  1.00  0.00    -0.550 OA
ENDBRANCH   9  10
ENDBRANCH   8   9
ENDBRANCH   7   8
ENDBRANCH   6   7
ENDBRANCH   5   6
ENDBRANCH   4   5
ENDBRANCH   3   4
ENDBRANCH   1   3
BRANCH   2  13
ATOM     13  C   UNL     1     172.286 180.535 191.230  1.00  0.00     0.027 C 
BRANCH  13  14
ATOM     14  C   UNL     1     172.638 181.628 192.256  1.00  0.00     0.004 C 
BRANCH  14  15
ATOM     15  C   UNL     1     171.648 181.709 193.436  1.00  0.00     0.000 C 
BRANCH  15  16
ATOM     16  C   UNL     1     172.296 181.736 194.833  1.00  0.00     0.000 C 
BRANCH  16  17
ATOM     17  C   UNL     1     173.051 180.450 195.218  1.00  0.00    -0.000 C 
BRANCH  17  18
ATOM     18  C   UNL     1     174.517 180.710 195.606  1.00  0.00    -0.000 C 
BRANCH  18  19
ATOM     19  C   UNL     1     175.507 180.177 194.559  1.00  0.00    -0.003 C 
ATOM     20  C   UNL     1     176.270 181.294 193.848  1.00  0.00     0.004 C 
ENDBRANCH  18  19
ENDBRANCH  17  18
ENDBRANCH  16  17
ENDBRANCH  15  16
ENDBRANCH  14  15
ENDBRANCH  13  14
ENDBRANCH   2  13
TORSDOF 15
ENDMDL
MODEL 2
REMARK VINA RESULT:    -1.526      1.854      4.020
REMARK INTER + INTRA:          -5.616
REMARK INTER:                  -2.716
REMARK INTRA:                  -2.900
REMARK UNBOUND:                -2.752
REMARK SMILES CCCCCCCCC=CCCCCCCCC(=O)[O-]
REMARK SMILES IDX 10 1 9 2 11 3 12 4 13 5 14 6 15 7 16 8 17 9 18 10 19 11
REMARK SMILES IDX 20 12 8 13 7 14 6 15 5 16 4 17 3 18 2 19 1 20
REMARK H PARENT
REMARK Flexibility Score: inf
ROOT
ATOM      1  C   UNL     1     174.231 178.735 195.517  1.00  0.00    -0.031 C 
ATOM      2  C   UNL     1     174.077 179.926 194.913  1.00  0.00    -0.031 C 
ENDROOT
BRANCH   1   3
ATOM      3  C   UNL     1     173.092 177.839 195.937  1.00  0.00     0.027 C 
BRANCH   3   4
ATOM      4  C   UNL     1     173.445 176.986 197.168  1.00  0.00     0.004 C 
BRANCH   4   5
ATOM      5  C   UNL     1     172.862 177.506 198.499  1.00  0.00     0.000 C 
BRANCH   5   6
ATOM      6  C   UNL     1     173.715 178.568 199.218  1.00  0.00     0.000 C 
BRANCH   6   7
ATOM      7  C   UNL     1     172.926 179.847 199.543  1.00  0.00     0.000 C 
BRANCH   7   8
ATOM      8  C   UNL     1     172.706 180.733 198.306  1.00  0.00     0.006 C 
BRANCH   8   9
ATOM      9  C   UNL     1     173.694 181.906 198.235  1.00  0.00     0.053 C 
BRANCH   9  10
ATOM     10  C   UNL     1     173.265 182.884 197.187  1.00  0.00     0.041 C 
ATOM     11  O   UNL     1     172.058 183.229 197.097  1.00  0.00    -0.550 OA
ATOM     12  O   UNL     1     174.192 183.379 196.277  1.00  0.00    -0.550 OA
ENDBRANCH   9  10
ENDBRANCH   8   9
ENDBRANCH   7   8
ENDBRANCH   6   7
ENDBRANCH   5   6
ENDBRANCH   4   5
ENDBRANCH   3   4
ENDBRANCH   1   3
BRANCH   2  13
ATOM     13  C   UNL     1     172.736 180.492 194.510  1.00  0.00     0.027 C 
BRANCH  13  14
ATOM     14  C   UNL     1     172.852 181.583 193.430  1.00  0.00     0.004 C 
BRANCH  14  15
ATOM     15  C   UNL     1     172.289 181.159 192.059  1.00  0.00     0.000 C 
BRANCH  15  16
ATOM     16  C   UNL     1     171.233 180.039 192.104  1.00  0.00     0.000 C 
BRANCH  16  17
ATOM     17  C   UNL     1     171.660 178.723 191.428  1.00  0.00    -0.000 C 
BRANCH  17  18
ATOM     18  C   UNL     1     171.812 177.560 192.424  1.00  0.00    -0.000 C 
BRANCH  18  19
ATOM     19  C   UNL     1     173.215 176.934 192.389  1.00  0.00    -0.003 C 
ATOM     20  C   UNL     1     174.260 177.863 191.774  1.00  0.00     0.004 C 
ENDBRANCH  18  19
ENDBRANCH  17  18
ENDBRANCH  16  17
ENDBRANCH  15  16
ENDBRANCH  14  15
ENDBRANCH  13  14
ENDBRANCH   2  13
TORSDOF 15
ENDMDL
MODEL 3
REMARK VINA RESULT:    -1.485      3.442      5.836
REMARK INTER + INTRA:          -5.539
REMARK INTER:                  -2.354
REMARK INTRA:                  -3.185
REMARK UNBOUND:                -2.752
REMARK SMILES CCCCCCCCC=CCCCCCCCC(=O)[O-]
REMARK SMILES IDX 10 1 9 2 11 3 12 4 13 5 14 6 15 7 16 8 17 9 18 10 19 11
REMARK SMILES IDX 20 12 8 13 7 14 6 15 5 16 4 17 3 18 2 19 1 20
REMARK H PARENT
REMARK Flexibility Score: inf
ROOT
ATOM      1  C   UNL     1     172.379 180.873 198.560  1.00  0.00    -0.031 C 
ATOM      2  C   UNL     1     173.460 180.800 197.765  1.00  0.00    -0.031 C 
ENDROOT
BRANCH   1   3
ATOM      3  C   UNL     1     172.429 181.129 200.047  1.00  0.00     0.027 C 
BRANCH   3   4
ATOM      4  C   UNL     1     172.524 179.827 200.859  1.00  0.00     0.004 C 
BRANCH   4   5
ATOM      5  C   UNL     1     171.445 178.778 200.519  1.00  0.00     0.000 C 
BRANCH   5   6
ATOM      6  C   UNL     1     171.981 177.426 200.012  1.00  0.00     0.000 C 
BRANCH   6   7
ATOM      7  C   UNL     1     173.510 177.410 199.857  1.00  0.00     0.000 C 
BRANCH   7   8
ATOM      8  C   UNL     1     173.952 177.206 198.399  1.00  0.00     0.006 C 
BRANCH   8   9
ATOM      9  C   UNL     1     172.769 177.153 197.423  1.00  0.00     0.053 C 
BRANCH   9  10
ATOM     10  C   UNL     1     173.231 177.432 196.028  1.00  0.00     0.041 C 
ATOM     11  O   UNL     1     174.362 177.946 195.826  1.00  0.00    -0.550 OA
ATOM     12  O   UNL     1     172.393 177.169 194.951  1.00  0.00    -0.550 OA
ENDBRANCH   9  10
ENDBRANCH   8   9
ENDBRANCH   7   8
ENDBRANCH   6   7
ENDBRANCH   5   6
ENDBRANCH   4   5
ENDBRANCH   3   4
ENDBRANCH   1   3
BRANCH   2  13
ATOM     13  C   UNL     1     174.871 181.036 198.249  1.00  0.00     0.027 C 
BRANCH  13  14
ATOM     14  C   UNL     1     175.375 182.458 197.937  1.00  0.00     0.004 C 
BRANCH  14  15
ATOM     15  C   UNL     1     175.510 183.354 199.184  1.00  0.00     0.000 C 
BRANCH  15  16
ATOM     16  C   UNL     1     174.306 184.273 199.462  1.00  0.00     0.000 C 
BRANCH  16  17
ATOM     17  C   UNL     1     173.564 184.761 198.205  1.00  0.00    -0.000 C 
BRANCH  17  18
ATOM     18  C   UNL     1     172.053 184.473 198.253  1.00  0.00    -0.000 C 
BRANCH  18  19
ATOM     19  C   UNL     1     171.456 184.220 196.860  1.00  0.00    -0.003 C 
ATOM     20  C   UNL     1     172.501 183.759 195.846  1.00  0.00     0.004 C 
ENDBRANCH  18  19
ENDBRANCH  17  18
ENDBRANCH  16  17
ENDBRANCH  15  16
ENDBRANCH  14  15
ENDBRANCH  13  14
ENDBRANCH   2  13
TORSDOF 15
ENDMDL
MODEL 4
REMARK VINA RESULT:    -1.482      2.135      3.636
REMARK INTER + INTRA:          -5.534
REMARK INTER:                  -2.483
REMARK INTRA:                  -3.051
REMARK UNBOUND:                -2.752
REMARK SMILES CCCCCCCCC=CCCCCCCCC(=O)[O-]
REMARK SMILES IDX 10 1 9 2 11 3 12 4 13 5 14 6 15 7 16 8 17 9 18 10 19 11
REMARK SMILES IDX 20 12 8 13 7 14 6 15 5 16 4 17 3 18 2 19 1 20
REMARK H PARENT
REMARK Flexibility Score: inf
ROOT
ATOM      1  C   UNL     1     173.141 179.002 194.488  1.00  0.00    -0.031 C 
ATOM      2  C   UNL     1     174.232 179.433 193.832  1.00  0.00    -0.031 C 
ENDROOT
BRANCH   1   3
ATOM      3  C   UNL     1     172.637 177.579 194.460  1.00  0.00     0.027 C 
BRANCH   3   4
ATOM      4  C   UNL     1     172.797 176.879 195.820  1.00  0.00     0.004 C 
BRANCH   4   5
ATOM      5  C   UNL     1     173.125 177.823 196.995  1.00  0.00     0.000 C 
BRANCH   5   6
ATOM      6  C   UNL     1     173.704 177.136 198.247  1.00  0.00     0.000 C 
BRANCH   6   7
ATOM      7  C   UNL     1     173.215 177.772 199.558  1.00  0.00     0.000 C 
BRANCH   7   8
ATOM      8  C   UNL     1     172.281 178.970 199.319  1.00  0.00     0.006 C 
BRANCH   8   9
ATOM      9  C   UNL     1     172.870 180.292 199.830  1.00  0.00     0.053 C 
BRANCH   9  10
ATOM     10  C   UNL     1     171.960 181.431 199.497  1.00  0.00     0.041 C 
ATOM     11  O   UNL     1     170.875 181.578 200.117  1.00  0.00    -0.550 OA
ATOM     12  O   UNL     1     172.288 182.305 198.467  1.00  0.00    -0.550 OA
ENDBRANCH   9  10
ENDBRANCH   8   9
ENDBRANCH   7   8
ENDBRANCH   6   7
ENDBRANCH   5   6
ENDBRANCH   4   5
ENDBRANCH   3   4
ENDBRANCH   1   3
BRANCH   2  13
ATOM     13  C   UNL     1     175.141 178.528 193.035  1.00  0.00     0.027 C 
BRANCH  13  14
ATOM     14  C   UNL     1     176.477 178.249 193.749  1.00  0.00     0.004 C 
BRANCH  14  15
ATOM     15  C   UNL     1     176.380 177.165 194.841  1.00  0.00     0.000 C 
BRANCH  15  16
ATOM     16  C   UNL     1     176.837 177.606 196.244  1.00  0.00     0.000 C 
BRANCH  16  17
ATOM     17  C   UNL     1     177.050 179.122 196.405  1.00  0.00    -0.000 C 
BRANCH  17  18
ATOM     18  C   UNL     1     176.211 179.727 197.544  1.00  0.00    -0.000 C 
BRANCH  18  19
ATOM     19  C   UNL     1     175.279 180.847 197.059  1.00  0.00    -0.003 C 
ATOM     20  C   UNL     1     175.730 182.231 197.524  1.00  0.00     0.004 C 
ENDBRANCH  18  19
ENDBRANCH  17  18
ENDBRANCH  16  17
ENDBRANCH  15  16
ENDBRANCH  14  15
ENDBRANCH  13  14
ENDBRANCH   2  13
TORSDOF 15
ENDMDL
MODEL 5
REMARK VINA RESULT:    -1.480      2.252      5.746
REMARK INTER + INTRA:          -5.529
REMARK INTER:                  -3.083
REMARK INTRA:                  -2.446
REMARK UNBOUND:                -2.752
REMARK SMILES CCCCCCCCC=CCCCCCCCC(=O)[O-]
REMARK SMILES IDX 10 1 9 2 11 3 12 4 13 5 14 6 15 7 16 8 17 9 18 10 19 11
REMARK SMILES IDX 20 12 8 13 7 14 6 15 5 16 4 17 3 18 2 19 1 20
REMARK H PARENT
REMARK Flexibility Score: inf
ROOT
ATOM      1  C   UNL     1     173.572 178.199 196.709  1.00  0.00    -0.031 C 
ATOM      2  C   UNL     1     174.234 178.183 197.880  1.00  0.00    -0.031 C 
ENDROOT
BRANCH   1   3
ATOM      3  C   UNL     1     172.737 177.056 196.186  1.00  0.00     0.027 C 
BRANCH   3   4
ATOM      4  C   UNL     1     172.775 176.963 194.651  1.00  0.00     0.004 C 
BRANCH   4   5
ATOM      5  C   UNL     1     174.047 177.547 194.002  1.00  0.00     0.000 C 
BRANCH   5   6
ATOM      6  C   UNL     1     173.802 178.506 192.823  1.00  0.00     0.000 C 
BRANCH   6   7
ATOM      7  C   UNL     1     173.912 179.986 193.223  1.00  0.00     0.000 C 
BRANCH   7   8
ATOM      8  C   UNL     1     172.574 180.566 193.708  1.00  0.00     0.006 C 
BRANCH   8   9
ATOM      9  C   UNL     1     172.702 181.320 195.039  1.00  0.00     0.053 C 
BRANCH   9  10
ATOM     10  C   UNL     1     172.217 182.728 194.889  1.00  0.00     0.041 C 
ATOM     11  O   UNL     1     172.514 183.394 193.863  1.00  0.00    -0.550 OA
ATOM     12  O   UNL     1     171.477 183.320 195.904  1.00  0.00    -0.550 OA
ENDBRANCH   9  10
ENDBRANCH   8   9
ENDBRANCH   7   8
ENDBRANCH   6   7
ENDBRANCH   5   6
ENDBRANCH   4   5
ENDBRANCH   3   4
ENDBRANCH   1   3
BRANCH   2  13
ATOM     13  C   UNL     1     174.169 177.036 198.861  1.00  0.00     0.027 C 
BRANCH  13  14
ATOM     14  C   UNL     1     173.414 177.402 200.152  1.00  0.00     0.004 C 
BRANCH  14  15
ATOM     15  C   UNL     1     171.883 177.469 199.976  1.00  0.00     0.000 C 
BRANCH  15  16
ATOM     16  C   UNL     1     171.178 178.566 200.795  1.00  0.00     0.000 C 
BRANCH  16  17
ATOM     17  C   UNL     1     170.879 179.859 200.016  1.00  0.00    -0.000 C 
BRANCH  17  18
ATOM     18  C   UNL     1     172.031 180.877 200.082  1.00  0.00    -0.000 C 
BRANCH  18  19
ATOM     19  C   UNL     1     172.469 181.364 198.692  1.00  0.00    -0.003 C 
ATOM     20  C   UNL     1     173.946 181.750 198.641  1.00  0.00     0.004 C 
ENDBRANCH  18  19
ENDBRANCH  17  18
ENDBRANCH  16  17
ENDBRANCH  15  16
ENDBRANCH  14  15
ENDBRANCH  13  14
ENDBRANCH   2  13
TORSDOF 15
ENDMDL
MODEL 6
REMARK VINA RESULT:    -1.447      3.085      6.890
REMARK INTER + INTRA:          -5.468
REMARK INTER:                  -2.608
REMARK INTRA:                  -2.860
REMARK UNBOUND:                -2.752
REMARK SMILES CCCCCCCCC=CCCCCCCCC(=O)[O-]
REMARK SMILES IDX 10 1 9 2 11 3 12 4 13 5 14 6 15 7 16 8 17 9 18 10 19 11
REMARK SMILES IDX 20 12 8 13 7 14 6 15 5 16 4 17 3 18 2 19 1 20
REMARK H PARENT
REMARK Flexibility Score: inf
ROOT
ATOM      1  C   UNL     1     175.831 180.250 199.829  1.00  0.00    -0.031 C 
ATOM      2  C   UNL     1     175.422 179.398 200.786  1.00  0.00    -0.031 C 
ENDROOT
BRANCH   1   3
ATOM      3  C   UNL     1     176.713 179.865 198.666  1.00  0.00     0.027 C 
BRANCH   3   4
ATOM      4  C   UNL     1     175.900 179.544 197.400  1.00  0.00     0.004 C 
BRANCH   4   5
ATOM      5  C   UNL     1     174.512 180.215 197.341  1.00  0.00     0.000 C 
BRANCH   5   6
ATOM      6  C   UNL     1     173.598 179.731 196.199  1.00  0.00     0.000 C 
BRANCH   6   7
ATOM      7  C   UNL     1     173.948 178.315 195.713  1.00  0.00     0.000 C 
BRANCH   7   8
ATOM      8  C   UNL     1     172.705 177.515 195.289  1.00  0.00     0.006 C 
BRANCH   8   9
ATOM      9  C   UNL     1     172.857 176.876 193.902  1.00  0.00     0.053 C 
BRANCH   9  10
ATOM     10  C   UNL     1     173.004 177.934 192.855  1.00  0.00     0.041 C 
ATOM     11  O   UNL     1     173.970 177.899 192.049  1.00  0.00    -0.550 OA
ATOM     12  O   UNL     1     172.099 178.987 192.799  1.00  0.00    -0.550 OA
ENDBRANCH   9  10
ENDBRANCH   8   9
ENDBRANCH   7   8
ENDBRANCH   6   7
ENDBRANCH   5   6
ENDBRANCH   4   5
ENDBRANCH   3   4
ENDBRANCH   1   3
BRANCH   2  13
ATOM     13  C   UNL     1     175.736 177.921 200.781  1.00  0.00     0.027 C 
BRANCH  13  14
ATOM     14  C   UNL     1     174.478 177.047 200.623  1.00  0.00     0.004 C 
BRANCH  14  15
ATOM     15  C   UNL     1     173.901 177.045 199.194  1.00  0.00     0.000 C 
BRANCH  15  16
ATOM     16  C   UNL     1     172.463 177.583 199.069  1.00  0.00     0.000 C 
BRANCH  16  17
ATOM     17  C   UNL     1     171.854 178.105 200.383  1.00  0.00    -0.000 C 
BRANCH  17  18
ATOM     18  C   UNL     1     171.138 179.456 200.215  1.00  0.00    -0.000 C 
BRANCH  18  19
ATOM     19  C   UNL     1     172.111 180.645 200.227  1.00  0.00    -0.003 C 
ATOM     20  C   UNL     1     171.708 181.746 199.248  1.00  0.00     0.004 C 
ENDBRANCH  18  19
ENDBRANCH  17  18
ENDBRANCH  16  17
ENDBRANCH  15  16
ENDBRANCH  14  15
ENDBRANCH  13  14
ENDBRANCH   2  13
TORSDOF 15
ENDMDL
MODEL 7
REMARK VINA RESULT:    -1.443      3.276      6.423
REMARK INTER + INTRA:          -5.460
REMARK INTER:                  -2.358
REMARK INTRA:                  -3.102
REMARK UNBOUND:                -2.752
REMARK SMILES CCCCCCCCC=CCCCCCCCC(=O)[O-]
REMARK SMILES IDX 10 1 9 2 11 3 12 4 13 5 14 6 15 7 16 8 17 9 18 10 19 11
REMARK SMILES IDX 20 12 8 13 7 14 6 15 5 16 4 17 3 18 2 19 1 20
REMARK H PARENT
REMARK Flexibility Score: inf
ROOT
ATOM      1  C   UNL     1     176.231 179.773 196.011  1.00  0.00    -0.031 C 
ATOM      2  C   UNL     1     176.204 178.449 195.777  1.00  0.00    -0.031 C 
ENDROOT
BRANCH   1   3
ATOM      3  C   UNL     1     175.479 180.456 197.127  1.00  0.00     0.027 C 
BRANCH   3   4
ATOM      4  C   UNL     1     174.358 181.369 196.600  1.00  0.00     0.004 C 
BRANCH   4   5
ATOM      5  C   UNL     1     173.108 180.622 196.089  1.00  0.00     0.000 C 
BRANCH   5   6
ATOM      6  C   UNL     1     172.799 180.809 194.592  1.00  0.00     0.000 C 
BRANCH   6   7
ATOM      7  C   UNL     1     172.788 179.483 193.814  1.00  0.00     0.000 C 
BRANCH   7   8
ATOM      8  C   UNL     1     173.975 179.358 192.845  1.00  0.00     0.006 C 
BRANCH   8   9
ATOM      9  C   UNL     1     174.311 177.900 192.503  1.00  0.00     0.053 C 
BRANCH   9  10
ATOM     10  C   UNL     1     173.779 177.546 191.151  1.00  0.00     0.041 C 
ATOM     11  O   UNL     1     174.568 177.355 190.189  1.00  0.00    -0.550 OA
ATOM     12  O   UNL     1     172.407 177.475 190.940  1.00  0.00    -0.550 OA
ENDBRANCH   9  10
ENDBRANCH   8   9
ENDBRANCH   7   8
ENDBRANCH   6   7
ENDBRANCH   5   6
ENDBRANCH   4   5
ENDBRANCH   3   4
ENDBRANCH   1   3
BRANCH   2  13
ATOM     13  C   UNL     1     175.469 177.460 196.651  1.00  0.00     0.027 C 
BRANCH  13  14
ATOM     14  C   UNL     1     174.095 177.069 196.077  1.00  0.00     0.004 C 
BRANCH  14  15
ATOM     15  C   UNL     1     173.008 176.875 197.153  1.00  0.00     0.000 C 
BRANCH  15  16
ATOM     16  C   UNL     1     173.400 177.336 198.569  1.00  0.00     0.000 C 
BRANCH  16  17
ATOM     17  C   UNL     1     172.673 178.602 199.059  1.00  0.00    -0.000 C 
BRANCH  17  18
ATOM     18  C   UNL     1     173.523 179.445 200.025  1.00  0.00    -0.000 C 
BRANCH  18  19
ATOM     19  C   UNL     1     172.820 180.742 200.453  1.00  0.00    -0.003 C 
ATOM     20  C   UNL     1     171.648 181.104 199.542  1.00  0.00     0.004 C 
ENDBRANCH  18  19
ENDBRANCH  17  18
ENDBRANCH  16  17
ENDBRANCH  15  16
ENDBRANCH  14  15
ENDBRANCH  13  14
ENDBRANCH   2  13
TORSDOF 15
ENDMDL
MODEL 8
REMARK VINA RESULT:    -1.432      3.193      6.012
REMARK INTER + INTRA:          -5.439
REMARK INTER:                  -2.523
REMARK INTRA:                  -2.916
REMARK UNBOUND:                -2.752
REMARK SMILES CCCCCCCCC=CCCCCCCCC(=O)[O-]
REMARK SMILES IDX 10 1 9 2 11 3 12 4 13 5 14 6 15 7 16 8 17 9 18 10 19 11
REMARK SMILES IDX 20 12 8 13 7 14 6 15 5 16 4 17 3 18 2 19 1 20
REMARK H PARENT
REMARK Flexibility Score: inf
ROOT
ATOM      1  C   UNL     1     176.453 178.191 198.473  1.00  0.00    -0.031 C 
ATOM      2  C   UNL     1     175.378 178.025 199.263  1.00  0.00    -0.031 C 
ENDROOT
BRANCH   1   3
ATOM      3  C   UNL     1     176.645 177.512 197.140  1.00  0.00     0.027 C 
BRANCH   3   4
ATOM      4  C   UNL     1     176.575 178.503 195.966  1.00  0.00     0.004 C 
BRANCH   4   5
ATOM      5  C   UNL     1     175.543 178.140 194.878  1.00  0.00     0.000 C 
BRANCH   5   6
ATOM      6  C   UNL     1     174.359 177.280 195.358  1.00  0.00     0.000 C 
BRANCH   6   7
ATOM      7  C   UNL     1     172.994 177.894 195.009  1.00  0.00     0.000 C 
BRANCH   7   8
ATOM      8  C   UNL     1     173.122 179.178 194.173  1.00  0.00     0.006 C 
BRANCH   8   9
ATOM      9  C   UNL     1     172.363 179.097 192.842  1.00  0.00     0.053 C 
BRANCH   9  10
ATOM     10  C   UNL     1     172.817 177.907 192.056  1.00  0.00     0.041 C 
ATOM     11  O   UNL     1     173.990 177.857 191.604  1.00  0.00    -0.550 OA
ATOM     12  O   UNL     1     171.929 176.875 191.781  1.00  0.00    -0.550 OA
ENDBRANCH   9  10
ENDBRANCH   8   9
ENDBRANCH   7   8
ENDBRANCH   6   7
ENDBRANCH   5   6
ENDBRANCH   4   5
ENDBRANCH   3   4
ENDBRANCH   1   3
BRANCH   2  13
ATOM     13  C   UNL     1     174.183 177.184 198.881  1.00  0.00     0.027 C 
BRANCH  13  14
ATOM     14  C   UNL     1     172.942 177.492 199.740  1.00  0.00     0.004 C 
BRANCH  14  15
ATOM     15  C   UNL     1     172.914 178.931 200.292  1.00  0.00     0.000 C 
BRANCH  15  16
ATOM     16  C   UNL     1     171.841 179.848 199.676  1.00  0.00     0.000 C 
BRANCH  16  17
ATOM     17  C   UNL     1     172.395 181.025 198.853  1.00  0.00    -0.000 C 
BRANCH  17  18
ATOM     18  C   UNL     1     173.101 180.572 197.563  1.00  0.00    -0.000 C 
BRANCH  18  19
ATOM     19  C   UNL     1     174.521 181.145 197.435  1.00  0.00    -0.003 C 
ATOM     20  C   UNL     1     174.762 181.830 196.091  1.00  0.00     0.004 C 
ENDBRANCH  18  19
ENDBRANCH  17  18
ENDBRANCH  16  17
ENDBRANCH  15  16
ENDBRANCH  14  15
ENDBRANCH  13  14
ENDBRANCH   2  13
TORSDOF 15
ENDMDL
MODEL 9
REMARK VINA RESULT:    -1.403      2.470      5.880
REMARK INTER + INTRA:          -5.385
REMARK INTER:                  -2.339
REMARK INTRA:                  -3.046
REMARK UNBOUND:                -2.752
REMARK SMILES CCCCCCCCC=CCCCCCCCC(=O)[O-]
REMARK SMILES IDX 10 1 9 2 11 3 12 4 13 5 14 6 15 7 16 8 17 9 18 10 19 11
REMARK SMILES IDX 20 12 8 13 7 14 6 15 5 16 4 17 3 18 2 19 1 20
REMARK H PARENT
REMARK Flexibility Score: inf
ROOT
ATOM      1  C   UNL     1     175.998 178.920 196.908  1.00  0.00    -0.031 C 
ATOM      2  C   UNL     1     176.026 179.343 198.184  1.00  0.00    -0.031 C 
ENDROOT
BRANCH   1   3
ATOM      3  C   UNL     1     176.369 177.525 196.465  1.00  0.00     0.027 C 
BRANCH   3   4
ATOM      4  C   UNL     1     175.288 176.893 195.571  1.00  0.00     0.004 C 
BRANCH   4   5
ATOM      5  C   UNL     1     173.858 176.964 196.144  1.00  0.00     0.000 C 
BRANCH   5   6
ATOM      6  C   UNL     1     172.814 177.622 195.222  1.00  0.00     0.000 C 
BRANCH   6   7
ATOM      7  C   UNL     1     173.437 178.619 194.231  1.00  0.00     0.000 C 
BRANCH   7   8
ATOM      8  C   UNL     1     172.797 180.014 194.318  1.00  0.00     0.006 C 
BRANCH   8   9
ATOM      9  C   UNL     1     173.053 180.699 195.668  1.00  0.00     0.053 C 
BRANCH   9  10
ATOM     10  C   UNL     1     174.023 181.826 195.505  1.00  0.00     0.041 C 
ATOM     11  O   UNL     1     174.048 182.767 196.340  1.00  0.00    -0.550 OA
ATOM     12  O   UNL     1     174.868 181.862 194.402  1.00  0.00    -0.550 OA
ENDBRANCH   9  10
ENDBRANCH   8   9
ENDBRANCH   7   8
ENDBRANCH   6   7
ENDBRANCH   5   6
ENDBRANCH   4   5
ENDBRANCH   3   4
ENDBRANCH   1   3
BRANCH   2  13
ATOM     13  C   UNL     1     176.367 178.451 199.354  1.00  0.00     0.027 C 
BRANCH  13  14
ATOM     14  C   UNL     1     175.170 178.225 200.296  1.00  0.00     0.004 C 
BRANCH  14  15
ATOM     15  C   UNL     1     174.169 177.171 199.783  1.00  0.00     0.000 C 
BRANCH  15  16
ATOM     16  C   UNL     1     172.709 177.649 199.681  1.00  0.00     0.000 C 
BRANCH  16  17
ATOM     17  C   UNL     1     172.512 178.950 198.880  1.00  0.00    -0.000 C 
BRANCH  17  18
ATOM     18  C   UNL     1     171.695 180.005 199.645  1.00  0.00    -0.000 C 
BRANCH  18  19
ATOM     19  C   UNL     1     172.572 180.904 200.530  1.00  0.00    -0.003 C 
ATOM     20  C   UNL     1     173.594 181.706 199.725  1.00  0.00     0.004 C 
ENDBRANCH  18  19
ENDBRANCH  17  18
ENDBRANCH  16  17
ENDBRANCH  15  16
ENDBRANCH  14  15
ENDBRANCH  13  14
ENDBRANCH   2  13
TORSDOF 15
ENDMDL
