MODEL 1
REMARK VINA RESULT:    10.782      0.000      0.000
REMARK INTER + INTRA:          22.364
REMARK INTER:                  23.389
REMARK INTRA:                  -1.026
REMARK UNBOUND:                -1.026
REMARK SMILES CCCCCCCCCCCCCCCCCCCCCC(=O)[O-]
REMARK SMILES IDX 12 1 11 2 10 3 9 4 8 5 7 6 6 7 5 8 4 9 3 10 2 11 1 12 13 13
REMARK SMILES IDX 14 14 15 15 16 16 17 17 18 18 19 19 20 20 21 21 22 22 23 23
REMARK SMILES IDX 24 24
REMARK H PARENT
REMARK Flexibility Score: inf
ROOT
ATOM      1  C   UNL     1       4.568  -7.424 -17.760  1.00  0.00     0.000 C 
ENDROOT
BRANCH   1   2
ATOM      2  C   UNL     1       3.799  -6.093 -17.793  1.00  0.00     0.000 C 
BRANCH   2   3
ATOM      3  C   UNL     1       3.562  -5.511 -16.389  1.00  0.00     0.000 C 
BRANCH   3   4
ATOM      4  C   UNL     1       2.080  -5.215 -16.111  1.00  0.00    -0.000 C 
BRANCH   4   5
ATOM      5  C   UNL     1       1.173  -5.992 -17.074  1.00  0.00    -0.000 C 
BRANCH   5   6
ATOM      6  C   UNL     1      -0.309  -5.724 -16.772  1.00  0.00    -0.000 C 
BRANCH   6   7
ATOM      7  C   UNL     1      -1.011  -6.923 -16.117  1.00  0.00    -0.000 C 
BRANCH   7   8
ATOM      8  C   UNL     1      -1.950  -6.507 -14.971  1.00  0.00    -0.000 C 
BRANCH   8   9
ATOM      9  C   UNL     1      -3.321  -6.032 -15.478  1.00  0.00    -0.000 C 
BRANCH   9  10
ATOM     10  C   UNL     1      -4.278  -7.198 -15.776  1.00  0.00    -0.000 C 
BRANCH  10  11
ATOM     11  C   UNL     1      -5.680  -6.682 -16.119  1.00  0.00    -0.003 C 
ATOM     12  C   UNL     1      -5.608  -5.379 -16.911  1.00  0.00     0.004 C 
ENDBRANCH  10  11
ENDBRANCH   9  10
ENDBRANCH   8   9
ENDBRANCH   7   8
ENDBRANCH   6   7
ENDBRANCH   5   6
ENDBRANCH   4   5
ENDBRANCH   3   4
ENDBRANCH   2   3
ENDBRANCH   1   2
BRANCH   1  13
ATOM     13  C   UNL     1       6.005  -7.286 -18.289  1.00  0.00     0.000 C 
BRANCH  13  14
ATOM     14  C   UNL     1       6.655  -8.644 -18.609  1.00  0.00     0.000 C 
BRANCH  14  15
ATOM     15  C   UNL     1       7.053  -8.765 -20.096  1.00  0.00     0.000 C 
BRANCH  15  16
ATOM     16  C   UNL     1       8.575  -8.720 -20.336  1.00  0.00     0.000 C 
BRANCH  16  17
ATOM     17  C   UNL     1       8.998  -8.831 -21.810  1.00  0.00     0.000 C 
BRANCH  17  18
ATOM     18  C   UNL     1       8.304  -7.787 -22.704  1.00  0.00     0.000 C 
BRANCH  18  19
ATOM     19  C   UNL     1       8.596  -6.347 -22.256  1.00  0.00     0.000 C 
BRANCH  19  20
ATOM     20  C   UNL     1       7.836  -5.306 -23.098  1.00  0.00     0.006 C 
BRANCH  20  21
ATOM     21  C   UNL     1       7.102  -5.943 -24.285  1.00  0.00     0.053 C 
BRANCH  21  22
ATOM     22  C   UNL     1       5.614  -5.873 -24.124  1.00  0.00     0.041 C 
ATOM     23  O   UNL     1       4.871  -6.697 -24.720  1.00  0.00    -0.550 OA
ATOM     24  O   UNL     1       5.047  -4.875 -23.341  1.00  0.00    -0.550 OA
ENDBRANCH  21  22
ENDBRANCH  20  21
ENDBRANCH  19  20
ENDBRANCH  18  19
ENDBRANCH  17  18
ENDBRANCH  16  17
ENDBRANCH  15  16
ENDBRANCH  14  15
ENDBRANCH  13  14
ENDBRANCH   1  13
TORSDOF 20
ENDMDL
MODEL 2
REMARK VINA RESULT:    11.318      8.666     14.366
REMARK INTER + INTRA:          23.525
REMARK INTER:                  24.427
REMARK INTRA:                  -0.902
REMARK UNBOUND:                -1.026
REMARK SMILES CCCCCCCCCCCCCCCCCCCCCC(=O)[O-]
REMARK SMILES IDX 12 1 11 2 10 3 9 4 8 5 7 6 6 7 5 8 4 9 3 10 2 11 1 12 13 13
REMARK SMILES IDX 14 14 15 15 16 16 17 17 18 18 19 19 20 20 21 21 22 22 23 23
REMARK SMILES IDX 24 24
REMARK H PARENT
REMARK Flexibility Score: inf
ROOT
ATOM      1  C   UNL     1      -5.148  -8.793 -10.076  1.00  0.00     0.000 C 
ENDROOT
BRANCH   1   2
ATOM      2  C   UNL     1      -5.970  -7.593 -10.576  1.00  0.00     0.000 C 
BRANCH   2   3
ATOM      3  C   UNL     1      -5.088  -6.453 -11.112  1.00  0.00     0.000 C 
BRANCH   3   4
ATOM      4  C   UNL     1      -5.713  -5.733 -12.317  1.00  0.00    -0.000 C 
BRANCH   4   5
ATOM      5  C   UNL     1      -4.629  -5.198 -13.261  1.00  0.00    -0.000 C 
BRANCH   5   6
ATOM      6  C   UNL     1      -5.201  -4.930 -14.661  1.00  0.00    -0.000 C 
BRANCH   6   7
ATOM      7  C   UNL     1      -4.286  -5.438 -15.787  1.00  0.00    -0.000 C 
BRANCH   7   8
ATOM      8  C   UNL     1      -3.911  -6.921 -15.623  1.00  0.00    -0.000 C 
BRANCH   8   9
ATOM      9  C   UNL     1      -2.903  -7.393 -16.683  1.00  0.00    -0.000 C 
BRANCH   9  10
ATOM     10  C   UNL     1      -1.648  -8.030 -16.064  1.00  0.00    -0.000 C 
BRANCH  10  11
ATOM     11  C   UNL     1      -0.403  -7.188 -16.363  1.00  0.00    -0.003 C 
ATOM     12  C   UNL     1      -0.767  -5.720 -16.567  1.00  0.00     0.004 C 
ENDBRANCH  10  11
ENDBRANCH   9  10
ENDBRANCH   8   9
ENDBRANCH   7   8
ENDBRANCH   6   7
ENDBRANCH   5   6
ENDBRANCH   4   5
ENDBRANCH   3   4
ENDBRANCH   2   3
ENDBRANCH   1   2
BRANCH   1  13
ATOM     13  C   UNL     1      -4.752  -8.659  -8.597  1.00  0.00     0.000 C 
BRANCH  13  14
ATOM     14  C   UNL     1      -4.547 -10.021  -7.909  1.00  0.00     0.000 C 
BRANCH  14  15
ATOM     15  C   UNL     1      -4.827  -9.957  -6.392  1.00  0.00     0.000 C 
BRANCH  15  16
ATOM     16  C   UNL     1      -3.583 -10.224  -5.520  1.00  0.00     0.000 C 
BRANCH  16  17
ATOM     17  C   UNL     1      -2.955  -8.969  -4.894  1.00  0.00     0.000 C 
BRANCH  17  18
ATOM     18  C   UNL     1      -2.475  -7.958  -5.950  1.00  0.00     0.000 C 
BRANCH  18  19
ATOM     19  C   UNL     1      -2.021  -6.630  -5.326  1.00  0.00     0.000 C 
BRANCH  19  20
ATOM     20  C   UNL     1      -0.550  -6.667  -4.876  1.00  0.00     0.006 C 
BRANCH  20  21
ATOM     21  C   UNL     1       0.271  -7.703  -5.655  1.00  0.00     0.053 C 
BRANCH  21  22
ATOM     22  C   UNL     1       1.685  -7.777  -5.166  1.00  0.00     0.041 C 
ATOM     23  O   UNL     1       2.233  -8.895  -4.975  1.00  0.00    -0.550 OA
ATOM     24  O   UNL     1       2.386  -6.610  -4.891  1.00  0.00    -0.550 OA
ENDBRANCH  21  22
ENDBRANCH  20  21
ENDBRANCH  19  20
ENDBRANCH  18  19
ENDBRANCH  17  18
ENDBRANCH  16  17
ENDBRANCH  15  16
ENDBRANCH  14  15
ENDBRANCH  13  14
ENDBRANCH   1  13
TORSDOF 20
ENDMDL
MODEL 3
REMARK VINA RESULT:    11.742      9.900     13.959
REMARK INTER + INTRA:          24.444
REMARK INTER:                  25.060
REMARK INTRA:                  -0.616
REMARK UNBOUND:                -1.026
REMARK SMILES CCCCCCCCCCCCCCCCCCCCCC(=O)[O-]
REMARK SMILES IDX 12 1 11 2 10 3 9 4 8 5 7 6 6 7 5 8 4 9 3 10 2 11 1 12 13 13
REMARK SMILES IDX 14 14 15 15 16 16 17 17 18 18 19 19 20 20 21 21 22 22 23 23
REMARK SMILES IDX 24 24
REMARK H PARENT
REMARK Flexibility Score: inf
ROOT
ATOM      1  C   UNL     1      -3.873  -9.948  -7.095  1.00  0.00     0.000 C 
ENDROOT
BRANCH   1   2
ATOM      2  C   UNL     1      -4.694  -9.690  -8.370  1.00  0.00     0.000 C 
BRANCH   2   3
ATOM      3  C   UNL     1      -4.697  -8.209  -8.784  1.00  0.00     0.000 C 
BRANCH   3   4
ATOM      4  C   UNL     1      -5.269  -7.986 -10.192  1.00  0.00    -0.000 C 
BRANCH   4   5
ATOM      5  C   UNL     1      -5.521  -6.496 -10.454  1.00  0.00    -0.000 C 
BRANCH   5   6
ATOM      6  C   UNL     1      -6.069  -6.270 -11.871  1.00  0.00    -0.000 C 
BRANCH   6   7
ATOM      7  C   UNL     1      -5.205  -5.306 -12.698  1.00  0.00    -0.000 C 
BRANCH   7   8
ATOM      8  C   UNL     1      -5.095  -5.725 -14.174  1.00  0.00    -0.000 C 
BRANCH   8   9
ATOM      9  C   UNL     1      -4.038  -6.819 -14.397  1.00  0.00    -0.000 C 
BRANCH   9  10
ATOM     10  C   UNL     1      -3.053  -6.468 -15.524  1.00  0.00    -0.000 C 
BRANCH  10  11
ATOM     11  C   UNL     1      -3.791  -5.886 -16.735  1.00  0.00    -0.003 C 
ATOM     12  C   UNL     1      -4.899  -6.823 -17.207  1.00  0.00     0.004 C 
ENDBRANCH  10  11
ENDBRANCH   9  10
ENDBRANCH   8   9
ENDBRANCH   7   8
ENDBRANCH   6   7
ENDBRANCH   5   6
ENDBRANCH   4   5
ENDBRANCH   3   4
ENDBRANCH   2   3
ENDBRANCH   1   2
BRANCH   1  13
ATOM     13  C   UNL     1      -3.778  -8.705  -6.196  1.00  0.00     0.000 C 
BRANCH  13  14
ATOM     14  C   UNL     1      -2.619  -8.788  -5.186  1.00  0.00     0.000 C 
BRANCH  14  15
ATOM     15  C   UNL     1      -1.440  -7.869  -5.573  1.00  0.00     0.000 C 
BRANCH  15  16
ATOM     16  C   UNL     1      -1.654  -6.391  -5.189  1.00  0.00     0.000 C 
BRANCH  16  17
ATOM     17  C   UNL     1      -0.363  -5.612  -4.888  1.00  0.00     0.000 C 
BRANCH  17  18
ATOM     18  C   UNL     1       0.882  -6.267  -5.511  1.00  0.00     0.000 C 
BRANCH  18  19
ATOM     19  C   UNL     1       2.188  -5.764  -4.876  1.00  0.00     0.000 C 
BRANCH  19  20
ATOM     20  C   UNL     1       3.429  -6.169  -5.691  1.00  0.00     0.006 C 
BRANCH  20  21
ATOM     21  C   UNL     1       4.625  -5.244  -5.426  1.00  0.00     0.053 C 
BRANCH  21  22
ATOM     22  C   UNL     1       5.904  -5.823  -5.947  1.00  0.00     0.041 C 
ATOM     23  O   UNL     1       6.319  -5.516  -7.096  1.00  0.00    -0.550 OA
ATOM     24  O   UNL     1       6.622  -6.729  -5.176  1.00  0.00    -0.550 OA
ENDBRANCH  21  22
ENDBRANCH  20  21
ENDBRANCH  19  20
ENDBRANCH  18  19
ENDBRANCH  17  18
ENDBRANCH  16  17
ENDBRANCH  15  16
ENDBRANCH  14  15
ENDBRANCH  13  14
ENDBRANCH   1  13
TORSDOF 20
ENDMDL
MODEL 4
REMARK VINA RESULT:    11.781      6.829     11.335
REMARK INTER + INTRA:          24.531
REMARK INTER:                  24.082
REMARK INTRA:                   0.449
REMARK UNBOUND:                -1.026
REMARK SMILES CCCCCCCCCCCCCCCCCCCCCC(=O)[O-]
REMARK SMILES IDX 12 1 11 2 10 3 9 4 8 5 7 6 6 7 5 8 4 9 3 10 2 11 1 12 13 13
REMARK SMILES IDX 14 14 15 15 16 16 17 17 18 18 19 19 20 20 21 21 22 22 23 23
REMARK SMILES IDX 24 24
REMARK H PARENT
REMARK Flexibility Score: inf
ROOT
ATOM      1  C   UNL     1      -5.314  -7.244 -11.847  1.00  0.00     0.000 C 
ENDROOT
BRANCH   1   2
ATOM      2  C   UNL     1      -5.890  -7.425 -10.433  1.00  0.00     0.000 C 
BRANCH   2   3
ATOM      3  C   UNL     1      -5.281  -8.628  -9.694  1.00  0.00     0.000 C 
BRANCH   3   4
ATOM      4  C   UNL     1      -4.206  -8.218  -8.675  1.00  0.00    -0.000 C 
BRANCH   4   5
ATOM      5  C   UNL     1      -4.128  -9.226  -7.522  1.00  0.00    -0.000 C 
BRANCH   5   6
ATOM      6  C   UNL     1      -3.542  -8.576  -6.260  1.00  0.00    -0.000 C 
BRANCH   6   7
ATOM      7  C   UNL     1      -3.344  -9.576  -5.110  1.00  0.00    -0.000 C 
BRANCH   7   8
ATOM      8  C   UNL     1      -4.203 -10.842  -5.271  1.00  0.00    -0.000 C 
BRANCH   8   9
ATOM      9  C   UNL     1      -5.709 -10.542  -5.212  1.00  0.00    -0.000 C 
BRANCH   9  10
ATOM     10  C   UNL     1      -6.562 -11.817  -5.097  1.00  0.00    -0.000 C 
BRANCH  10  11
ATOM     11  C   UNL     1      -6.554 -12.601  -6.414  1.00  0.00    -0.003 C 
ATOM     12  C   UNL     1      -5.309 -12.281  -7.238  1.00  0.00     0.004 C 
ENDBRANCH  10  11
ENDBRANCH   9  10
ENDBRANCH   8   9
ENDBRANCH   7   8
ENDBRANCH   6   7
ENDBRANCH   5   6
ENDBRANCH   4   5
ENDBRANCH   3   4
ENDBRANCH   2   3
ENDBRANCH   1   2
BRANCH   1  13
ATOM     13  C   UNL     1      -4.804  -5.815 -12.096  1.00  0.00     0.000 C 
BRANCH  13  14
ATOM     14  C   UNL     1      -4.772  -5.446 -13.591  1.00  0.00     0.000 C 
BRANCH  14  15
ATOM     15  C   UNL     1      -4.437  -6.660 -14.485  1.00  0.00     0.000 C 
BRANCH  15  16
ATOM     16  C   UNL     1      -4.494  -6.352 -15.995  1.00  0.00     0.000 C 
BRANCH  16  17
ATOM     17  C   UNL     1      -3.269  -6.824 -16.794  1.00  0.00     0.000 C 
BRANCH  17  18
ATOM     18  C   UNL     1      -1.940  -6.446 -16.117  1.00  0.00     0.000 C 
BRANCH  18  19
ATOM     19  C   UNL     1      -0.874  -7.542 -16.264  1.00  0.00     0.000 C 
BRANCH  19  20
ATOM     20  C   UNL     1       0.357  -7.061 -17.053  1.00  0.00     0.006 C 
BRANCH  20  21
ATOM     21  C   UNL     1       1.562  -6.792 -16.141  1.00  0.00     0.053 C 
BRANCH  21  22
ATOM     22  C   UNL     1       2.574  -5.907 -16.801  1.00  0.00     0.041 C 
ATOM     23  O   UNL     1       3.541  -5.445 -16.138  1.00  0.00    -0.550 OA
ATOM     24  O   UNL     1       2.431  -5.565 -18.139  1.00  0.00    -0.550 OA
ENDBRANCH  21  22
ENDBRANCH  20  21
ENDBRANCH  19  20
ENDBRANCH  18  19
ENDBRANCH  17  18
ENDBRANCH  16  17
ENDBRANCH  15  16
ENDBRANCH  14  15
ENDBRANCH  13  14
ENDBRANCH   1  13
TORSDOF 20
ENDMDL
MODEL 5
REMARK VINA RESULT:    12.054      9.024     15.218
REMARK INTER + INTRA:          25.122
REMARK INTER:                  23.624
REMARK INTRA:                   1.498
REMARK UNBOUND:                -1.026
REMARK SMILES CCCCCCCCCCCCCCCCCCCCCC(=O)[O-]
REMARK SMILES IDX 12 1 11 2 10 3 9 4 8 5 7 6 6 7 5 8 4 9 3 10 2 11 1 12 13 13
REMARK SMILES IDX 14 14 15 15 16 16 17 17 18 18 19 19 20 20 21 21 22 22 23 23
REMARK SMILES IDX 24 24
REMARK H PARENT
REMARK Flexibility Score: inf
ROOT
ATOM      1  C   UNL     1      -5.192  -6.876 -11.539  1.00  0.00     0.000 C 
ENDROOT
BRANCH   1   2
ATOM      2  C   UNL     1      -5.491  -5.792 -12.588  1.00  0.00     0.000 C 
BRANCH   2   3
ATOM      3  C   UNL     1      -4.218  -5.098 -13.102  1.00  0.00     0.000 C 
BRANCH   3   4
ATOM      4  C   UNL     1      -3.610  -5.801 -14.324  1.00  0.00    -0.000 C 
BRANCH   4   5
ATOM      5  C   UNL     1      -4.648  -6.691 -15.020  1.00  0.00    -0.000 C 
BRANCH   5   6
ATOM      6  C   UNL     1      -4.565  -6.544 -16.547  1.00  0.00    -0.000 C 
BRANCH   6   7
ATOM      7  C   UNL     1      -3.121  -6.417 -17.057  1.00  0.00    -0.000 C 
BRANCH   7   8
ATOM      8  C   UNL     1      -2.081  -6.822 -15.997  1.00  0.00    -0.000 C 
BRANCH   8   9
ATOM      9  C   UNL     1      -0.718  -7.172 -16.617  1.00  0.00    -0.000 C 
BRANCH   9  10
ATOM     10  C   UNL     1       0.359  -6.119 -16.309  1.00  0.00    -0.000 C 
BRANCH  10  11
ATOM     11  C   UNL     1       1.643  -6.402 -17.098  1.00  0.00    -0.003 C 
ATOM     12  C   UNL     1       2.821  -5.613 -16.535  1.00  0.00     0.004 C 
ENDBRANCH  10  11
ENDBRANCH   9  10
ENDBRANCH   8   9
ENDBRANCH   7   8
ENDBRANCH   6   7
ENDBRANCH   5   6
ENDBRANCH   4   5
ENDBRANCH   3   4
ENDBRANCH   2   3
ENDBRANCH   1   2
BRANCH   1  13
ATOM     13  C   UNL     1      -6.398  -7.166 -10.632  1.00  0.00     0.000 C 
BRANCH  13  14
ATOM     14  C   UNL     1      -6.024  -7.994  -9.389  1.00  0.00     0.000 C 
BRANCH  14  15
ATOM     15  C   UNL     1      -4.575  -8.524  -9.454  1.00  0.00     0.000 C 
BRANCH  15  16
ATOM     16  C   UNL     1      -4.219  -9.497  -8.313  1.00  0.00     0.000 C 
BRANCH  16  17
ATOM     17  C   UNL     1      -4.452  -8.943  -6.898  1.00  0.00     0.000 C 
BRANCH  17  18
ATOM     18  C   UNL     1      -3.378  -9.404  -5.898  1.00  0.00     0.000 C 
BRANCH  18  19
ATOM     19  C   UNL     1      -3.884 -10.516  -4.966  1.00  0.00     0.000 C 
BRANCH  19  20
ATOM     20  C   UNL     1      -4.248 -11.801  -5.731  1.00  0.00     0.006 C 
BRANCH  20  21
ATOM     21  C   UNL     1      -5.517 -12.465  -5.181  1.00  0.00     0.053 C 
BRANCH  21  22
ATOM     22  C   UNL     1      -6.663 -11.503  -5.106  1.00  0.00     0.041 C 
ATOM     23  O   UNL     1      -7.844 -11.907  -5.277  1.00  0.00    -0.550 OA
ATOM     24  O   UNL     1      -6.423 -10.153  -4.882  1.00  0.00    -0.550 OA
ENDBRANCH  21  22
ENDBRANCH  20  21
ENDBRANCH  19  20
ENDBRANCH  18  19
ENDBRANCH  17  18
ENDBRANCH  16  17
ENDBRANCH  15  16
ENDBRANCH  14  15
ENDBRANCH  13  14
ENDBRANCH   1  13
TORSDOF 20
ENDMDL
MODEL 6
REMARK VINA RESULT:    12.090      4.432     10.677
REMARK INTER + INTRA:          25.199
REMARK INTER:                  25.995
REMARK INTRA:                  -0.796
REMARK UNBOUND:                -1.026
REMARK SMILES CCCCCCCCCCCCCCCCCCCCCC(=O)[O-]
REMARK SMILES IDX 12 1 11 2 10 3 9 4 8 5 7 6 6 7 5 8 4 9 3 10 2 11 1 12 13 13
REMARK SMILES IDX 14 14 15 15 16 16 17 17 18 18 19 19 20 20 21 21 22 22 23 23
REMARK SMILES IDX 24 24
REMARK H PARENT
REMARK Flexibility Score: inf
ROOT
ATOM      1  C   UNL     1       4.609 -12.291 -18.076  1.00  0.00     0.000 C 
ENDROOT
BRANCH   1   2
ATOM      2  C   UNL     1       5.118 -11.611 -19.358  1.00  0.00     0.000 C 
BRANCH   2   3
ATOM      3  C   UNL     1       6.291 -10.652 -19.095  1.00  0.00     0.000 C 
BRANCH   3   4
ATOM      4  C   UNL     1       7.120 -10.366 -20.357  1.00  0.00    -0.000 C 
BRANCH   4   5
ATOM      5  C   UNL     1       7.320  -8.858 -20.553  1.00  0.00    -0.000 C 
BRANCH   5   6
ATOM      6  C   UNL     1       8.744  -8.550 -21.041  1.00  0.00    -0.000 C 
BRANCH   6   7
ATOM      7  C   UNL     1       8.765  -7.756 -22.356  1.00  0.00    -0.000 C 
BRANCH   7   8
ATOM      8  C   UNL     1       8.459  -6.262 -22.152  1.00  0.00    -0.000 C 
BRANCH   8   9
ATOM      9  C   UNL     1       8.116  -5.547 -23.469  1.00  0.00    -0.000 C 
BRANCH   9  10
ATOM     10  C   UNL     1       7.012  -6.266 -24.262  1.00  0.00    -0.000 C 
BRANCH  10  11
ATOM     11  C   UNL     1       5.633  -5.690 -23.924  1.00  0.00    -0.003 C 
ATOM     12  C   UNL     1       4.540  -6.353 -24.758  1.00  0.00     0.004 C 
ENDBRANCH  10  11
ENDBRANCH   9  10
ENDBRANCH   8   9
ENDBRANCH   7   8
ENDBRANCH   6   7
ENDBRANCH   5   6
ENDBRANCH   4   5
ENDBRANCH   3   4
ENDBRANCH   2   3
ENDBRANCH   1   2
BRANCH   1  13
ATOM     13  C   UNL     1       3.097 -12.106 -17.872  1.00  0.00     0.000 C 
BRANCH  13  14
ATOM     14  C   UNL     1       2.647 -12.422 -16.434  1.00  0.00     0.000 C 
BRANCH  14  15
ATOM     15  C   UNL     1       2.439 -11.145 -15.593  1.00  0.00     0.000 C 
BRANCH  15  16
ATOM     16  C   UNL     1       1.029 -10.535 -15.729  1.00  0.00     0.000 C 
BRANCH  16  17
ATOM     17  C   UNL     1       1.006  -9.023 -16.006  1.00  0.00     0.000 C 
BRANCH  17  18
ATOM     18  C   UNL     1      -0.417  -8.486 -16.239  1.00  0.00     0.000 C 
BRANCH  18  19
ATOM     19  C   UNL     1      -0.496  -6.958 -16.104  1.00  0.00     0.000 C 
BRANCH  19  20
ATOM     20  C   UNL     1      -1.859  -6.400 -16.552  1.00  0.00     0.006 C 
BRANCH  20  21
ATOM     21  C   UNL     1      -3.026  -7.294 -16.112  1.00  0.00     0.053 C 
BRANCH  21  22
ATOM     22  C   UNL     1      -4.200  -6.490 -15.645  1.00  0.00     0.041 C 
ATOM     23  O   UNL     1      -4.202  -5.978 -14.495  1.00  0.00    -0.550 OA
ATOM     24  O   UNL     1      -5.307  -6.334 -16.470  1.00  0.00    -0.550 OA
ENDBRANCH  21  22
ENDBRANCH  20  21
ENDBRANCH  19  20
ENDBRANCH  18  19
ENDBRANCH  17  18
ENDBRANCH  16  17
ENDBRANCH  15  16
ENDBRANCH  14  15
ENDBRANCH  13  14
ENDBRANCH   1  13
TORSDOF 20
ENDMDL
MODEL 7
REMARK VINA RESULT:    12.093      8.842     15.122
REMARK INTER + INTRA:          25.207
REMARK INTER:                  23.656
REMARK INTRA:                   1.551
REMARK UNBOUND:                -1.026
REMARK SMILES CCCCCCCCCCCCCCCCCCCCCC(=O)[O-]
REMARK SMILES IDX 12 1 11 2 10 3 9 4 8 5 7 6 6 7 5 8 4 9 3 10 2 11 1 12 13 13
REMARK SMILES IDX 14 14 15 15 16 16 17 17 18 18 19 19 20 20 21 21 22 22 23 23
REMARK SMILES IDX 24 24
REMARK H PARENT
REMARK Flexibility Score: inf
ROOT
ATOM      1  C   UNL     1      -5.312  -7.022 -11.631  1.00  0.00     0.000 C 
ENDROOT
BRANCH   1   2
ATOM      2  C   UNL     1      -5.449  -5.549 -12.048  1.00  0.00     0.000 C 
BRANCH   2   3
ATOM      3  C   UNL     1      -4.547  -5.184 -13.239  1.00  0.00     0.000 C 
BRANCH   3   4
ATOM      4  C   UNL     1      -4.817  -6.052 -14.477  1.00  0.00    -0.000 C 
BRANCH   4   5
ATOM      5  C   UNL     1      -5.029  -5.183 -15.723  1.00  0.00    -0.000 C 
BRANCH   5   6
ATOM      6  C   UNL     1      -5.665  -5.996 -16.860  1.00  0.00    -0.000 C 
BRANCH   6   7
ATOM      7  C   UNL     1      -4.721  -7.066 -17.431  1.00  0.00    -0.000 C 
BRANCH   7   8
ATOM      8  C   UNL     1      -3.242  -6.646 -17.368  1.00  0.00    -0.000 C 
BRANCH   8   9
ATOM      9  C   UNL     1      -2.745  -6.460 -15.925  1.00  0.00    -0.000 C 
BRANCH   9  10
ATOM     10  C   UNL     1      -1.243  -6.753 -15.775  1.00  0.00    -0.000 C 
BRANCH  10  11
ATOM     11  C   UNL     1      -0.732  -7.603 -16.944  1.00  0.00    -0.003 C 
ATOM     12  C   UNL     1       0.420  -8.503 -16.508  1.00  0.00     0.004 C 
ENDBRANCH  10  11
ENDBRANCH   9  10
ENDBRANCH   8   9
ENDBRANCH   7   8
ENDBRANCH   6   7
ENDBRANCH   5   6
ENDBRANCH   4   5
ENDBRANCH   3   4
ENDBRANCH   2   3
ENDBRANCH   1   2
BRANCH   1  13
ATOM     13  C   UNL     1      -5.582  -7.237 -10.133  1.00  0.00     0.000 C 
BRANCH  13  14
ATOM     14  C   UNL     1      -5.121  -8.619  -9.636  1.00  0.00     0.000 C 
BRANCH  14  15
ATOM     15  C   UNL     1      -4.235  -8.520  -8.375  1.00  0.00     0.000 C 
BRANCH  15  16
ATOM     16  C   UNL     1      -4.350  -9.740  -7.439  1.00  0.00     0.000 C 
BRANCH  16  17
ATOM     17  C   UNL     1      -3.600  -9.600  -6.104  1.00  0.00     0.000 C 
BRANCH  17  18
ATOM     18  C   UNL     1      -4.460 -10.014  -4.897  1.00  0.00     0.000 C 
BRANCH  18  19
ATOM     19  C   UNL     1      -5.945 -10.165  -5.260  1.00  0.00     0.000 C 
BRANCH  19  20
ATOM     20  C   UNL     1      -6.447 -11.610  -5.085  1.00  0.00     0.006 C 
BRANCH  20  21
ATOM     21  C   UNL     1      -5.296 -12.603  -4.876  1.00  0.00     0.053 C 
BRANCH  21  22
ATOM     22  C   UNL     1      -4.656 -12.995  -6.172  1.00  0.00     0.041 C 
ATOM     23  O   UNL     1      -5.342 -13.058  -7.227  1.00  0.00    -0.550 OA
ATOM     24  O   UNL     1      -3.307 -13.324  -6.209  1.00  0.00    -0.550 OA
ENDBRANCH  21  22
ENDBRANCH  20  21
ENDBRANCH  19  20
ENDBRANCH  18  19
ENDBRANCH  17  18
ENDBRANCH  16  17
ENDBRANCH  15  16
ENDBRANCH  14  15
ENDBRANCH  13  14
ENDBRANCH   1  13
TORSDOF 20
ENDMDL
