MODEL 1
REMARK VINA RESULT:    -7.771      0.000      0.000
REMARK INTER + INTRA:         -11.581
REMARK INTER:                 -10.270
REMARK INTRA:                  -1.311
REMARK UNBOUND:                -1.311
REMARK SMILES CC[C@H](C=C[C@H](C)[C@H]1CC[C@H]2[C@H]3CC=C4C[C@@H](O)CC[C@]4(C)[C@H]3CC[C@@]12C)C(C)C
REMARK SMILES IDX 6 1 7 2 5 3 4 4 3 5 2 6 1 7 28 8 29 9 30 10 8 11 9 12 26 13
REMARK SMILES IDX 10 14 11 15 25 16 27 17 12 18 24 19 23 20 13 21 21 22 14 23
REMARK SMILES IDX 15 24 20 25 22 26 16 27 19 28 17 29 18 30
REMARK H PARENT 18 31
REMARK Flexibility Score: inf
ROOT
ATOM      1  C   UNL     1      16.529  20.736   9.852  1.00  0.00     0.012 C 
ATOM      2  C   UNL     1      14.997  20.901   9.817  1.00  0.00     0.012 C 
ENDROOT
BRANCH   1   3
ATOM      3  C   UNL     1      17.196  22.064   9.561  1.00  0.00    -0.028 C 
ATOM      4  C   UNL     1      18.132  22.597  10.364  1.00  0.00    -0.027 C 
BRANCH   4   5
ATOM      5  C   UNL     1      18.839  23.888  10.013  1.00  0.00     0.014 C 
BRANCH   5   6
ATOM      6  C   UNL     1      20.364  23.745  10.241  1.00  0.00     0.004 C 
ATOM      7  C   UNL     1      20.839  22.302  10.064  1.00  0.00     0.004 C 
ENDBRANCH   5   6
BRANCH   5   8
ATOM      8  C   UNL     1      18.461  24.319   8.564  1.00  0.00    -0.011 C 
ATOM      9  C   UNL     1      17.338  25.368   8.547  1.00  0.00     0.008 C 
ATOM     10  C   UNL     1      19.663  24.811   7.739  1.00  0.00     0.008 C 
ENDBRANCH   5   8
ENDBRANCH   4   5
ENDBRANCH   1   3
BRANCH   1  11
ATOM     11  C   UNL     1      17.132  20.076  11.145  1.00  0.00     0.002 C 
ATOM     12  C   UNL     1      16.196  19.940  12.358  1.00  0.00     0.005 C 
ATOM     13  C   UNL     1      17.804  18.682  10.980  1.00  0.00    -0.026 C 
ATOM     14  C   UNL     1      16.709  18.738  13.154  1.00  0.00     0.005 C 
ATOM     15  C   UNL     1      17.981  18.243  12.442  1.00  0.00    -0.001 C 
ATOM     16  C   UNL     1      16.873  17.677  10.257  1.00  0.00     0.007 C 
ATOM     17  C   UNL     1      19.170  18.810  10.259  1.00  0.00     0.012 C 
ATOM     18  C   UNL     1      18.388  16.744  12.651  1.00  0.00     0.000 C 
ATOM     19  C   UNL     1      17.419  16.251  10.247  1.00  0.00     0.005 C 
ATOM     20  C   UNL     1      17.814  15.680  11.641  1.00  0.00     0.003 C 
ATOM     21  C   UNL     1      18.278  16.321  14.137  1.00  0.00     0.031 C 
ATOM     22  C   UNL     1      16.848  14.590  12.261  1.00  0.00    -0.008 C 
ATOM     23  C   UNL     1      18.238  14.836  14.334  1.00  0.00    -0.027 C 
ATOM     24  C   UNL     1      17.520  14.029  13.528  1.00  0.00    -0.065 C 
ATOM     25  C   UNL     1      16.629  13.439  11.215  1.00  0.00     0.014 C 
ATOM     26  C   UNL     1      15.473  15.180  12.644  1.00  0.00     0.016 C 
ATOM     27  C   UNL     1      17.227  12.623  14.014  1.00  0.00     0.063 C 
ATOM     28  C   UNL     1      16.166  12.106  11.813  1.00  0.00     0.033 C 
ATOM     29  C   UNL     1      17.160  11.620  12.866  1.00  0.00     0.118 C 
BRANCH  29  30
ATOM     30  O   UNL     1      16.750  10.376  13.370  1.00  0.00    -0.393 OA
ATOM     31  H   UNL     1      17.467  10.065  13.983  1.00  0.00     0.210 HD
ENDBRANCH  29  30
ENDBRANCH   1  11
TORSDOF 6
ENDMDL
MODEL 2
REMARK VINA RESULT:    -7.747      1.434      2.041
REMARK INTER + INTRA:         -11.549
REMARK INTER:                 -10.224
REMARK INTRA:                  -1.325
REMARK UNBOUND:                -1.311
REMARK SMILES CC[C@H](C=C[C@H](C)[C@H]1CC[C@H]2[C@H]3CC=C4C[C@@H](O)CC[C@]4(C)[C@H]3CC[C@@]12C)C(C)C
REMARK SMILES IDX 6 1 7 2 5 3 4 4 3 5 2 6 1 7 28 8 29 9 30 10 8 11 9 12 26 13
REMARK SMILES IDX 10 14 11 15 25 16 27 17 12 18 24 19 23 20 13 21 21 22 14 23
REMARK SMILES IDX 15 24 20 25 22 26 16 27 19 28 17 29 18 30
REMARK H PARENT 18 31
REMARK Flexibility Score: inf
ROOT
ATOM      1  C   UNL     1      18.524  19.428   8.917  1.00  0.00     0.012 C 
ATOM      2  C   UNL     1      17.079  19.759   8.493  1.00  0.00     0.012 C 
ENDROOT
BRANCH   1   3
ATOM      3  C   UNL     1      19.427  20.611   8.631  1.00  0.00    -0.028 C 
ATOM      4  C   UNL     1      20.012  21.328   9.604  1.00  0.00    -0.027 C 
BRANCH   4   5
ATOM      5  C   UNL     1      20.970  22.457   9.293  1.00  0.00     0.014 C 
BRANCH   5   6
ATOM      6  C   UNL     1      21.011  22.724   7.768  1.00  0.00     0.004 C 
ATOM      7  C   UNL     1      20.619  24.162   7.426  1.00  0.00     0.004 C 
ENDBRANCH   5   6
BRANCH   5   8
ATOM      8  C   UNL     1      20.597  23.713  10.138  1.00  0.00    -0.011 C 
ATOM      9  C   UNL     1      19.250  23.544  10.859  1.00  0.00     0.008 C 
ATOM     10  C   UNL     1      21.691  24.123  11.139  1.00  0.00     0.008 C 
ENDBRANCH   5   8
ENDBRANCH   4   5
ENDBRANCH   1   3
BRANCH   1  11
ATOM     11  C   UNL     1      18.722  18.915  10.390  1.00  0.00     0.002 C 
ATOM     12  C   UNL     1      17.545  19.113  11.359  1.00  0.00     0.005 C 
ATOM     13  C   UNL     1      19.161  17.432  10.568  1.00  0.00    -0.026 C 
ATOM     14  C   UNL     1      17.665  18.001  12.403  1.00  0.00     0.005 C 
ATOM     15  C   UNL     1      18.952  17.222  12.075  1.00  0.00    -0.001 C 
ATOM     16  C   UNL     1      18.241  16.461   9.786  1.00  0.00     0.007 C 
ATOM     17  C   UNL     1      20.649  17.247  10.172  1.00  0.00     0.012 C 
ATOM     18  C   UNL     1      19.040  15.736  12.567  1.00  0.00     0.000 C 
ATOM     19  C   UNL     1      18.522  14.992  10.089  1.00  0.00     0.005 C 
ATOM     20  C   UNL     1      18.514  14.610  11.599  1.00  0.00     0.003 C 
ATOM     21  C   UNL     1      18.553  15.584  14.029  1.00  0.00     0.031 C 
ATOM     22  C   UNL     1      17.266  13.784  12.116  1.00  0.00    -0.008 C 
ATOM     23  C   UNL     1      18.216  14.174  14.404  1.00  0.00    -0.027 C 
ATOM     24  C   UNL     1      17.552  13.352  13.565  1.00  0.00    -0.065 C 
ATOM     25  C   UNL     1      17.073  12.517  11.206  1.00  0.00     0.014 C 
ATOM     26  C   UNL     1      15.965  14.616  12.089  1.00  0.00     0.016 C 
ATOM     27  C   UNL     1      16.926  12.101  14.149  1.00  0.00     0.063 C 
ATOM     28  C   UNL     1      16.273  11.380  11.850  1.00  0.00     0.033 C 
ATOM     29  C   UNL     1      16.926  10.941  13.159  1.00  0.00     0.118 C 
BRANCH  29  30
ATOM     30  O   UNL     1      16.211   9.868  13.712  1.00  0.00    -0.393 OA
ATOM     31  H   UNL     1      16.360   9.900  14.693  1.00  0.00     0.210 HD
ENDBRANCH  29  30
ENDBRANCH   1  11
TORSDOF 6
ENDMDL
MODEL 3
REMARK VINA RESULT:    -7.609      1.961      2.931
REMARK INTER + INTRA:         -11.366
REMARK INTER:                 -10.032
REMARK INTRA:                  -1.334
REMARK UNBOUND:                -1.311
REMARK SMILES CC[C@H](C=C[C@H](C)[C@H]1CC[C@H]2[C@H]3CC=C4C[C@@H](O)CC[C@]4(C)[C@H]3CC[C@@]12C)C(C)C
REMARK SMILES IDX 6 1 7 2 5 3 4 4 3 5 2 6 1 7 28 8 29 9 30 10 8 11 9 12 26 13
REMARK SMILES IDX 10 14 11 15 25 16 27 17 12 18 24 19 23 20 13 21 21 22 14 23
REMARK SMILES IDX 15 24 20 25 22 26 16 27 19 28 17 29 18 30
REMARK H PARENT 18 31
REMARK Flexibility Score: inf
ROOT
ATOM      1  C   UNL     1      17.025  19.488  10.659  1.00  0.00     0.012 C 
ATOM      2  C   UNL     1      16.273  19.918  11.935  1.00  0.00     0.012 C 
ENDROOT
BRANCH   1   3
ATOM      3  C   UNL     1      17.473  20.714   9.890  1.00  0.00    -0.028 C 
ATOM      4  C   UNL     1      18.760  21.093   9.818  1.00  0.00    -0.027 C 
BRANCH   4   5
ATOM      5  C   UNL     1      19.194  22.277   8.981  1.00  0.00     0.014 C 
BRANCH   5   6
ATOM      6  C   UNL     1      18.934  23.600   9.743  1.00  0.00     0.004 C 
ATOM      7  C   UNL     1      17.736  24.363   9.176  1.00  0.00     0.004 C 
ENDBRANCH   5   6
BRANCH   5   8
ATOM      8  C   UNL     1      20.677  22.092   8.536  1.00  0.00    -0.011 C 
ATOM      9  C   UNL     1      20.964  20.659   8.063  1.00  0.00     0.008 C 
ATOM     10  C   UNL     1      21.125  23.107   7.469  1.00  0.00     0.008 C 
ENDBRANCH   5   8
ENDBRANCH   4   5
ENDBRANCH   1   3
BRANCH   1  11
ATOM     11  C   UNL     1      18.216  18.482  10.855  1.00  0.00     0.002 C 
ATOM     12  C   UNL     1      18.476  17.981  12.286  1.00  0.00     0.005 C 
ATOM     13  C   UNL     1      18.217  17.206   9.963  1.00  0.00    -0.026 C 
ATOM     14  C   UNL     1      19.124  16.603  12.140  1.00  0.00     0.005 C 
ATOM     15  C   UNL     1      19.307  16.356  10.632  1.00  0.00    -0.001 C 
ATOM     16  C   UNL     1      16.866  16.451  10.036  1.00  0.00     0.007 C 
ATOM     17  C   UNL     1      18.592  17.557   8.500  1.00  0.00     0.012 C 
ATOM     18  C   UNL     1      19.390  14.866  10.150  1.00  0.00     0.000 C 
ATOM     19  C   UNL     1      16.893  15.099   9.329  1.00  0.00     0.005 C 
ATOM     20  C   UNL     1      18.045  14.144   9.763  1.00  0.00     0.003 C 
ATOM     21  C   UNL     1      20.318  14.020  11.057  1.00  0.00     0.031 C 
ATOM     22  C   UNL     1      17.640  12.908  10.666  1.00  0.00    -0.008 C 
ATOM     23  C   UNL     1      20.108  12.543  10.915  1.00  0.00    -0.027 C 
ATOM     24  C   UNL     1      18.877  12.004  10.813  1.00  0.00    -0.065 C 
ATOM     25  C   UNL     1      16.476  12.118   9.968  1.00  0.00     0.014 C 
ATOM     26  C   UNL     1      17.170  13.344  12.072  1.00  0.00     0.016 C 
ATOM     27  C   UNL     1      18.735  10.514  11.055  1.00  0.00     0.063 C 
ATOM     28  C   UNL     1      16.324  10.663  10.423  1.00  0.00     0.033 C 
ATOM     29  C   UNL     1      17.627   9.897  10.208  1.00  0.00     0.118 C 
BRANCH  29  30
ATOM     30  O   UNL     1      17.460   8.555  10.583  1.00  0.00    -0.393 OA
ATOM     31  H   UNL     1      16.482   8.398  10.660  1.00  0.00     0.210 HD
ENDBRANCH  29  30
ENDBRANCH   1  11
TORSDOF 6
ENDMDL
MODEL 4
REMARK VINA RESULT:    -7.405      3.382      9.672
REMARK INTER + INTRA:         -11.098
REMARK INTER:                 -10.002
REMARK INTRA:                  -1.095
REMARK UNBOUND:                -1.311
REMARK SMILES CC[C@H](C=C[C@H](C)[C@H]1CC[C@H]2[C@H]3CC=C4C[C@@H](O)CC[C@]4(C)[C@H]3CC[C@@]12C)C(C)C
REMARK SMILES IDX 6 1 7 2 5 3 4 4 3 5 2 6 1 7 28 8 29 9 30 10 8 11 9 12 26 13
REMARK SMILES IDX 10 14 11 15 25 16 27 17 12 18 24 19 23 20 13 21 21 22 14 23
REMARK SMILES IDX 15 24 20 25 22 26 16 27 19 28 17 29 18 30
REMARK H PARENT 18 31
REMARK Flexibility Score: inf
ROOT
ATOM      1  C   UNL     1      17.626  13.492  10.575  1.00  0.00     0.012 C 
ATOM      2  C   UNL     1      16.729  13.166   9.364  1.00  0.00     0.012 C 
ENDROOT
BRANCH   1   3
ATOM      3  C   UNL     1      18.153  12.209  11.185  1.00  0.00    -0.028 C 
ATOM      4  C   UNL     1      17.403  11.101  11.299  1.00  0.00    -0.027 C 
BRANCH   4   5
ATOM      5  C   UNL     1      17.973   9.808  11.842  1.00  0.00     0.014 C 
BRANCH   5   6
ATOM      6  C   UNL     1      17.103   9.285  13.011  1.00  0.00     0.004 C 
ATOM      7  C   UNL     1      15.632   9.673  12.852  1.00  0.00     0.004 C 
ENDBRANCH   5   6
BRANCH   5   8
ATOM      8  C   UNL     1      18.146   8.781  10.682  1.00  0.00    -0.011 C 
ATOM      9  C   UNL     1      17.058   8.933   9.608  1.00  0.00     0.008 C 
ATOM     10  C   UNL     1      19.543   8.817  10.037  1.00  0.00     0.008 C 
ENDBRANCH   5   8
ENDBRANCH   4   5
ENDBRANCH   1   3
BRANCH   1  11
ATOM     11  C   UNL     1      18.793  14.516  10.325  1.00  0.00     0.002 C 
ATOM     12  C   UNL     1      19.133  14.839   8.861  1.00  0.00     0.005 C 
ATOM     13  C   UNL     1      18.689  15.894  11.042  1.00  0.00    -0.026 C 
ATOM     14  C   UNL     1      19.723  16.251   8.866  1.00  0.00     0.005 C 
ATOM     15  C   UNL     1      19.794  16.697  10.338  1.00  0.00    -0.001 C 
ATOM     16  C   UNL     1      17.322  16.575  10.785  1.00  0.00     0.007 C 
ATOM     17  C   UNL     1      18.976  15.749  12.558  1.00  0.00     0.012 C 
ATOM     18  C   UNL     1      19.793  18.238  10.625  1.00  0.00     0.000 C 
ATOM     19  C   UNL     1      17.255  18.006  11.310  1.00  0.00     0.005 C 
ATOM     20  C   UNL     1      18.401  18.946  10.829  1.00  0.00     0.003 C 
ATOM     21  C   UNL     1      20.751  19.000   9.677  1.00  0.00     0.031 C 
ATOM     22  C   UNL     1      18.017  20.038   9.748  1.00  0.00    -0.008 C 
ATOM     23  C   UNL     1      20.483  20.472   9.612  1.00  0.00    -0.027 C 
ATOM     24  C   UNL     1      19.230  20.967   9.564  1.00  0.00    -0.065 C 
ATOM     25  C   UNL     1      16.781  20.861  10.262  1.00  0.00     0.014 C 
ATOM     26  C   UNL     1      17.659  19.406   8.385  1.00  0.00     0.016 C 
ATOM     27  C   UNL     1      19.054  22.407   9.120  1.00  0.00     0.063 C 
ATOM     28  C   UNL     1      16.612  22.238   9.612  1.00  0.00     0.033 C 
ATOM     29  C   UNL     1      17.871  23.080   9.808  1.00  0.00     0.118 C 
BRANCH  29  30
ATOM     30  O   UNL     1      17.684  24.354   9.251  1.00  0.00    -0.393 OA
ATOM     31  H   UNL     1      18.200  24.991   9.811  1.00  0.00     0.210 HD
ENDBRANCH  29  30
ENDBRANCH   1  11
TORSDOF 6
ENDMDL
MODEL 5
REMARK VINA RESULT:    -7.293      3.429      9.533
REMARK INTER + INTRA:         -10.950
REMARK INTER:                  -9.857
REMARK INTRA:                  -1.093
REMARK UNBOUND:                -1.311
REMARK SMILES CC[C@H](C=C[C@H](C)[C@H]1CC[C@H]2[C@H]3CC=C4C[C@@H](O)CC[C@]4(C)[C@H]3CC[C@@]12C)C(C)C
REMARK SMILES IDX 6 1 7 2 5 3 4 4 3 5 2 6 1 7 28 8 29 9 30 10 8 11 9 12 26 13
REMARK SMILES IDX 10 14 11 15 25 16 27 17 12 18 24 19 23 20 13 21 21 22 14 23
REMARK SMILES IDX 15 24 20 25 22 26 16 27 19 28 17 29 18 30
REMARK H PARENT 18 31
REMARK Flexibility Score: inf
ROOT
ATOM      1  C   UNL     1      19.647  13.773  10.449  1.00  0.00     0.012 C 
ATOM      2  C   UNL     1      21.160  13.818  10.743  1.00  0.00     0.012 C 
ENDROOT
BRANCH   1   3
ATOM      3  C   UNL     1      19.064  12.470  10.957  1.00  0.00    -0.028 C 
ATOM      4  C   UNL     1      17.752  12.191  10.894  1.00  0.00    -0.027 C 
BRANCH   4   5
ATOM      5  C   UNL     1      17.202  10.853  11.337  1.00  0.00     0.014 C 
BRANCH   5   6
ATOM      6  C   UNL     1      18.356   9.845  11.564  1.00  0.00     0.004 C 
ATOM      7  C   UNL     1      18.393   8.762  10.483  1.00  0.00     0.004 C 
ENDBRANCH   5   6
BRANCH   5   8
ATOM      8  C   UNL     1      16.287  11.046  12.584  1.00  0.00    -0.011 C 
ATOM      9  C   UNL     1      15.873   9.705  13.211  1.00  0.00     0.008 C 
ATOM     10  C   UNL     1      16.897  11.970  13.653  1.00  0.00     0.008 C 
ENDBRANCH   5   8
ENDBRANCH   4   5
ENDBRANCH   1   3
BRANCH   1  11
ATOM     11  C   UNL     1      18.800  15.000  10.948  1.00  0.00     0.002 C 
ATOM     12  C   UNL     1      19.310  15.734  12.200  1.00  0.00     0.005 C 
ATOM     13  C   UNL     1      18.493  16.116   9.908  1.00  0.00    -0.026 C 
ATOM     14  C   UNL     1      18.807  17.174  12.079  1.00  0.00     0.005 C 
ATOM     15  C   UNL     1      17.946  17.238  10.804  1.00  0.00    -0.001 C 
ATOM     16  C   UNL     1      19.778  16.612   9.199  1.00  0.00     0.007 C 
ATOM     17  C   UNL     1      17.429  15.640   8.886  1.00  0.00     0.012 C 
ATOM     18  C   UNL     1      17.786  18.636  10.112  1.00  0.00     0.000 C 
ATOM     19  C   UNL     1      19.545  17.834   8.315  1.00  0.00     0.005 C 
ATOM     20  C   UNL     1      18.842  19.036   9.014  1.00  0.00     0.003 C 
ATOM     21  C   UNL     1      17.495  19.756  11.140  1.00  0.00     0.031 C 
ATOM     22  C   UNL     1      19.748  20.290   9.352  1.00  0.00    -0.008 C 
ATOM     23  C   UNL     1      17.751  21.134  10.612  1.00  0.00    -0.027 C 
ATOM     24  C   UNL     1      18.827  21.418   9.851  1.00  0.00    -0.065 C 
ATOM     25  C   UNL     1      20.503  20.747   8.052  1.00  0.00     0.014 C 
ATOM     26  C   UNL     1      20.792  19.975  10.446  1.00  0.00     0.016 C 
ATOM     27  C   UNL     1      19.211  22.875   9.683  1.00  0.00     0.063 C 
ATOM     28  C   UNL     1      20.994  22.198   8.072  1.00  0.00     0.033 C 
ATOM     29  C   UNL     1      19.828  23.153   8.316  1.00  0.00     0.118 C 
BRANCH  29  30
ATOM     30  O   UNL     1      20.284  24.480   8.283  1.00  0.00    -0.393 OA
ATOM     31  H   UNL     1      21.267  24.450   8.424  1.00  0.00     0.210 HD
ENDBRANCH  29  30
ENDBRANCH   1  11
TORSDOF 6
ENDMDL
MODEL 6
REMARK VINA RESULT:    -7.285      3.577      7.545
REMARK INTER + INTRA:         -10.939
REMARK INTER:                 -10.326
REMARK INTRA:                  -0.613
REMARK UNBOUND:                -1.311
REMARK SMILES CC[C@H](C=C[C@H](C)[C@H]1CC[C@H]2[C@H]3CC=C4C[C@@H](O)CC[C@]4(C)[C@H]3CC[C@@]12C)C(C)C
REMARK SMILES IDX 6 1 7 2 5 3 4 4 3 5 2 6 1 7 28 8 29 9 30 10 8 11 9 12 26 13
REMARK SMILES IDX 10 14 11 15 25 16 27 17 12 18 24 19 23 20 13 21 21 22 14 23
REMARK SMILES IDX 15 24 20 25 22 26 16 27 19 28 17 29 18 30
REMARK H PARENT 18 31
REMARK Flexibility Score: inf
ROOT
ATOM      1  C   UNL     1      16.946  14.616  14.883  1.00  0.00     0.012 C 
ATOM      2  C   UNL     1      18.372  14.194  15.293  1.00  0.00     0.012 C 
ENDROOT
BRANCH   1   3
ATOM      3  C   UNL     1      16.539  15.858  15.650  1.00  0.00    -0.028 C 
ATOM      4  C   UNL     1      17.430  16.759  16.096  1.00  0.00    -0.027 C 
BRANCH   4   5
ATOM      5  C   UNL     1      16.994  18.029  16.793  1.00  0.00     0.014 C 
BRANCH   5   6
ATOM      6  C   UNL     1      17.989  18.393  17.923  1.00  0.00     0.004 C 
ATOM      7  C   UNL     1      17.785  17.528  19.168  1.00  0.00     0.004 C 
ENDBRANCH   5   6
BRANCH   5   8
ATOM      8  C   UNL     1      16.798  19.165  15.743  1.00  0.00    -0.011 C 
ATOM      9  C   UNL     1      15.327  19.320  15.327  1.00  0.00     0.008 C 
ATOM     10  C   UNL     1      17.370  20.521  16.195  1.00  0.00     0.008 C 
ENDBRANCH   5   8
ENDBRANCH   4   5
ENDBRANCH   1   3
BRANCH   1  11
ATOM     11  C   UNL     1      16.685  14.797  13.344  1.00  0.00     0.002 C 
ATOM     12  C   UNL     1      15.611  15.819  12.936  1.00  0.00     0.005 C 
ATOM     13  C   UNL     1      17.920  15.113  12.450  1.00  0.00    -0.026 C 
ATOM     14  C   UNL     1      16.005  16.312  11.542  1.00  0.00     0.005 C 
ATOM     15  C   UNL     1      17.253  15.514  11.125  1.00  0.00    -0.001 C 
ATOM     16  C   UNL     1      18.733  16.313  12.994  1.00  0.00     0.007 C 
ATOM     17  C   UNL     1      18.810  13.856  12.276  1.00  0.00     0.012 C 
ATOM     18  C   UNL     1      18.205  16.165  10.062  1.00  0.00     0.000 C 
ATOM     19  C   UNL     1      19.837  16.772  12.045  1.00  0.00     0.005 C 
ATOM     20  C   UNL     1      19.377  17.076  10.588  1.00  0.00     0.003 C 
ATOM     21  C   UNL     1      17.413  16.781   8.883  1.00  0.00     0.031 C 
ATOM     22  C   UNL     1      19.307  18.601  10.169  1.00  0.00    -0.008 C 
ATOM     23  C   UNL     1      18.207  17.764   8.078  1.00  0.00    -0.027 C 
ATOM     24  C   UNL     1      19.025  18.664   8.657  1.00  0.00    -0.065 C 
ATOM     25  C   UNL     1      20.684  19.288  10.489  1.00  0.00     0.014 C 
ATOM     26  C   UNL     1      18.189  19.360  10.918  1.00  0.00     0.016 C 
ATOM     27  C   UNL     1      19.484  19.845   7.822  1.00  0.00     0.063 C 
ATOM     28  C   UNL     1      20.958  20.573   9.701  1.00  0.00     0.033 C 
ATOM     29  C   UNL     1      20.888  20.305   8.199  1.00  0.00     0.118 C 
BRANCH  29  30
ATOM     30  O   UNL     1      21.189  21.477   7.490  1.00  0.00    -0.393 OA
ATOM     31  H   UNL     1      20.344  21.782   7.066  1.00  0.00     0.210 HD
ENDBRANCH  29  30
ENDBRANCH   1  11
TORSDOF 6
ENDMDL
MODEL 7
REMARK VINA RESULT:    -7.164      3.357      4.435
REMARK INTER + INTRA:         -10.779
REMARK INTER:                  -9.387
REMARK INTRA:                  -1.392
REMARK UNBOUND:                -1.311
REMARK SMILES CC[C@H](C=C[C@H](C)[C@H]1CC[C@H]2[C@H]3CC=C4C[C@@H](O)CC[C@]4(C)[C@H]3CC[C@@]12C)C(C)C
REMARK SMILES IDX 6 1 7 2 5 3 4 4 3 5 2 6 1 7 28 8 29 9 30 10 8 11 9 12 26 13
REMARK SMILES IDX 10 14 11 15 25 16 27 17 12 18 24 19 23 20 13 21 21 22 14 23
REMARK SMILES IDX 15 24 20 25 22 26 16 27 19 28 17 29 18 30
REMARK H PARENT 18 31
REMARK Flexibility Score: inf
ROOT
ATOM      1  C   UNL     1      16.420  19.581  10.234  1.00  0.00     0.012 C 
ATOM      2  C   UNL     1      15.067  20.256   9.930  1.00  0.00     0.012 C 
ENDROOT
BRANCH   1   3
ATOM      3  C   UNL     1      17.487  20.129   9.309  1.00  0.00    -0.028 C 
ATOM      4  C   UNL     1      18.624  20.683   9.762  1.00  0.00    -0.027 C 
BRANCH   4   5
ATOM      5  C   UNL     1      19.709  21.155   8.818  1.00  0.00     0.014 C 
BRANCH   5   6
ATOM      6  C   UNL     1      20.076  22.630   9.114  1.00  0.00     0.004 C 
ATOM      7  C   UNL     1      19.307  23.184  10.315  1.00  0.00     0.004 C 
ENDBRANCH   5   6
BRANCH   5   8
ATOM      8  C   UNL     1      20.925  20.182   8.886  1.00  0.00    -0.011 C 
ATOM      9  C   UNL     1      20.985  19.422  10.220  1.00  0.00     0.008 C 
ATOM     10  C   UNL     1      20.983  19.195   7.706  1.00  0.00     0.008 C 
ENDBRANCH   5   8
ENDBRANCH   4   5
ENDBRANCH   1   3
BRANCH   1  11
ATOM     11  C   UNL     1      16.901  19.619  11.730  1.00  0.00     0.002 C 
ATOM     12  C   UNL     1      16.314  20.726  12.621  1.00  0.00     0.005 C 
ATOM     13  C   UNL     1      16.757  18.305  12.552  1.00  0.00    -0.026 C 
ATOM     14  C   UNL     1      16.345  20.179  14.050  1.00  0.00     0.005 C 
ATOM     15  C   UNL     1      17.022  18.798  13.983  1.00  0.00    -0.001 C 
ATOM     16  C   UNL     1      15.322  17.728  12.471  1.00  0.00     0.007 C 
ATOM     17  C   UNL     1      17.814  17.260  12.110  1.00  0.00     0.012 C 
ATOM     18  C   UNL     1      16.688  17.775  15.122  1.00  0.00     0.000 C 
ATOM     19  C   UNL     1      15.092  16.551  13.414  1.00  0.00     0.005 C 
ATOM     20  C   UNL     1      15.462  16.810  14.904  1.00  0.00     0.003 C 
ATOM     21  C   UNL     1      16.723  18.439  16.520  1.00  0.00     0.031 C 
ATOM     22  C   UNL     1      14.256  16.988  15.915  1.00  0.00    -0.008 C 
ATOM     23  C   UNL     1      16.015  17.647  17.576  1.00  0.00    -0.027 C 
ATOM     24  C   UNL     1      14.837  17.037  17.340  1.00  0.00    -0.065 C 
ATOM     25  C   UNL     1      13.279  15.765  15.774  1.00  0.00     0.014 C 
ATOM     26  C   UNL     1      13.464  18.288  15.653  1.00  0.00     0.016 C 
ATOM     27  C   UNL     1      14.017  16.593  18.536  1.00  0.00     0.063 C 
ATOM     28  C   UNL     1      12.378  15.521  16.988  1.00  0.00     0.033 C 
ATOM     29  C   UNL     1      13.219  15.326  18.248  1.00  0.00     0.118 C 
BRANCH  29  30
ATOM     30  O   UNL     1      12.383  15.054  19.342  1.00  0.00    -0.393 OA
ATOM     31  H   UNL     1      11.957  14.174  19.166  1.00  0.00     0.210 HD
ENDBRANCH  29  30
ENDBRANCH   1  11
TORSDOF 6
ENDMDL
MODEL 8
REMARK VINA RESULT:    -7.086      1.793      3.051
REMARK INTER + INTRA:         -10.676
REMARK INTER:                  -9.548
REMARK INTRA:                  -1.128
REMARK UNBOUND:                -1.311
REMARK SMILES CC[C@H](C=C[C@H](C)[C@H]1CC[C@H]2[C@H]3CC=C4C[C@@H](O)CC[C@]4(C)[C@H]3CC[C@@]12C)C(C)C
REMARK SMILES IDX 6 1 7 2 5 3 4 4 3 5 2 6 1 7 28 8 29 9 30 10 8 11 9 12 26 13
REMARK SMILES IDX 10 14 11 15 25 16 27 17 12 18 24 19 23 20 13 21 21 22 14 23
REMARK SMILES IDX 15 24 20 25 22 26 16 27 19 28 17 29 18 30
REMARK H PARENT 18 31
REMARK Flexibility Score: inf
ROOT
ATOM      1  C   UNL     1      20.551  19.015   9.232  1.00  0.00     0.012 C 
ATOM      2  C   UNL     1      20.592  18.625   7.741  1.00  0.00     0.012 C 
ENDROOT
BRANCH   1   3
ATOM      3  C   UNL     1      20.697  20.517   9.374  1.00  0.00    -0.028 C 
ATOM      4  C   UNL     1      19.760  21.379   8.949  1.00  0.00    -0.027 C 
BRANCH   4   5
ATOM      5  C   UNL     1      19.893  22.870   9.170  1.00  0.00     0.014 C 
BRANCH   5   6
ATOM      6  C   UNL     1      20.322  23.574   7.859  1.00  0.00     0.004 C 
ATOM      7  C   UNL     1      21.842  23.576   7.679  1.00  0.00     0.004 C 
ENDBRANCH   5   6
BRANCH   5   8
ATOM      8  C   UNL     1      18.573  23.433   9.778  1.00  0.00    -0.011 C 
ATOM      9  C   UNL     1      18.010  24.603   8.956  1.00  0.00     0.008 C 
ATOM     10  C   UNL     1      17.490  22.359   9.987  1.00  0.00     0.008 C 
ENDBRANCH   5   8
ENDBRANCH   4   5
ENDBRANCH   1   3
BRANCH   1  11
ATOM     11  C   UNL     1      19.321  18.491  10.059  1.00  0.00     0.002 C 
ATOM     12  C   UNL     1      18.052  18.134   9.267  1.00  0.00     0.005 C 
ATOM     13  C   UNL     1      19.571  17.283  11.008  1.00  0.00    -0.026 C 
ATOM     14  C   UNL     1      17.327  17.067  10.090  1.00  0.00     0.005 C 
ATOM     15  C   UNL     1      18.138  16.877  11.384  1.00  0.00    -0.001 C 
ATOM     16  C   UNL     1      20.258  16.105  10.273  1.00  0.00     0.007 C 
ATOM     17  C   UNL     1      20.380  17.722  12.256  1.00  0.00     0.012 C 
ATOM     18  C   UNL     1      18.000  15.503  12.127  1.00  0.00     0.000 C 
ATOM     19  C   UNL     1      20.346  14.838  11.119  1.00  0.00     0.005 C 
ATOM     20  C   UNL     1      18.999  14.352  11.731  1.00  0.00     0.003 C 
ATOM     21  C   UNL     1      16.523  15.048  12.223  1.00  0.00     0.031 C 
ATOM     22  C   UNL     1      18.345  13.065  11.079  1.00  0.00    -0.008 C 
ATOM     23  C   UNL     1      16.366  13.589  12.526  1.00  0.00    -0.027 C 
ATOM     24  C   UNL     1      17.144  12.652  11.948  1.00  0.00    -0.065 C 
ATOM     25  C   UNL     1      19.407  11.908  11.044  1.00  0.00     0.014 C 
ATOM     26  C   UNL     1      17.853  13.329   9.638  1.00  0.00     0.016 C 
ATOM     27  C   UNL     1      16.680  11.210  12.010  1.00  0.00     0.063 C 
ATOM     28  C   UNL     1      18.817  10.498  10.933  1.00  0.00     0.033 C 
ATOM     29  C   UNL     1      17.848  10.232  12.083  1.00  0.00     0.118 C 
BRANCH  29  30
ATOM     30  O   UNL     1      17.353   8.922  11.997  1.00  0.00    -0.393 OA
ATOM     31  H   UNL     1      17.156   8.752  11.038  1.00  0.00     0.210 HD
ENDBRANCH  29  30
ENDBRANCH   1  11
TORSDOF 6
ENDMDL
MODEL 9
REMARK VINA RESULT:    -6.999      3.517      9.551
REMARK INTER + INTRA:         -10.560
REMARK INTER:                  -9.199
REMARK INTRA:                  -1.361
REMARK UNBOUND:                -1.311
REMARK SMILES CC[C@H](C=C[C@H](C)[C@H]1CC[C@H]2[C@H]3CC=C4C[C@@H](O)CC[C@]4(C)[C@H]3CC[C@@]12C)C(C)C
REMARK SMILES IDX 6 1 7 2 5 3 4 4 3 5 2 6 1 7 28 8 29 9 30 10 8 11 9 12 26 13
REMARK SMILES IDX 10 14 11 15 25 16 27 17 12 18 24 19 23 20 13 21 21 22 14 23
REMARK SMILES IDX 15 24 20 25 22 26 16 27 19 28 17 29 18 30
REMARK H PARENT 18 31
REMARK Flexibility Score: inf
ROOT
ATOM      1  C   UNL     1      17.609  13.348  13.250  1.00  0.00     0.012 C 
ATOM      2  C   UNL     1      17.005  13.998  14.510  1.00  0.00     0.012 C 
ENDROOT
BRANCH   1   3
ATOM      3  C   UNL     1      17.289  11.867  13.231  1.00  0.00    -0.028 C 
ATOM      4  C   UNL     1      17.125  11.176  12.091  1.00  0.00    -0.027 C 
BRANCH   4   5
ATOM      5  C   UNL     1      16.881   9.682  12.096  1.00  0.00     0.014 C 
BRANCH   5   6
ATOM      6  C   UNL     1      15.408   9.376  11.730  1.00  0.00     0.004 C 
ATOM      7  C   UNL     1      14.704  10.588  11.118  1.00  0.00     0.004 C 
ENDBRANCH   5   6
BRANCH   5   8
ATOM      8  C   UNL     1      17.916   8.977  11.168  1.00  0.00    -0.011 C 
ATOM      9  C   UNL     1      17.245   8.305   9.959  1.00  0.00     0.008 C 
ATOM     10  C   UNL     1      19.051   9.906  10.700  1.00  0.00     0.008 C 
ENDBRANCH   5   8
ENDBRANCH   4   5
ENDBRANCH   1   3
BRANCH   1  11
ATOM     11  C   UNL     1      17.246  14.018  11.874  1.00  0.00     0.002 C 
ATOM     12  C   UNL     1      16.147  15.093  11.893  1.00  0.00     0.005 C 
ATOM     13  C   UNL     1      18.419  14.637  11.059  1.00  0.00    -0.026 C 
ATOM     14  C   UNL     1      16.447  16.025  10.718  1.00  0.00     0.005 C 
ATOM     15  C   UNL     1      17.666  15.436   9.984  1.00  0.00    -0.001 C 
ATOM     16  C   UNL     1      19.265  15.611  11.917  1.00  0.00     0.007 C 
ATOM     17  C   UNL     1      19.297  13.528  10.427  1.00  0.00     0.012 C 
ATOM     18  C   UNL     1      18.544  16.422   9.138  1.00  0.00     0.000 C 
ATOM     19  C   UNL     1      20.303  16.381  11.105  1.00  0.00     0.005 C 
ATOM     20  C   UNL     1      19.748  17.136   9.860  1.00  0.00     0.003 C 
ATOM     21  C   UNL     1      17.676  17.372   8.279  1.00  0.00     0.031 C 
ATOM     22  C   UNL     1      19.649  18.712   9.972  1.00  0.00    -0.008 C 
ATOM     23  C   UNL     1      18.413  18.582   7.794  1.00  0.00    -0.027 C 
ATOM     24  C   UNL     1      19.268  19.261   8.585  1.00  0.00    -0.065 C 
ATOM     25  C   UNL     1      21.043  19.287  10.414  1.00  0.00     0.014 C 
ATOM     26  C   UNL     1      18.582  19.157  10.997  1.00  0.00     0.016 C 
ATOM     27  C   UNL     1      19.669  20.660   8.159  1.00  0.00     0.063 C 
ATOM     28  C   UNL     1      21.264  20.765  10.077  1.00  0.00     0.033 C 
ATOM     29  C   UNL     1      21.094  21.003   8.577  1.00  0.00     0.118 C 
BRANCH  29  30
ATOM     30  O   UNL     1      21.347  22.350   8.277  1.00  0.00    -0.393 OA
ATOM     31  H   UNL     1      20.887  22.544   7.418  1.00  0.00     0.210 HD
ENDBRANCH  29  30
ENDBRANCH   1  11
TORSDOF 6
ENDMDL
