MODEL 1
REMARK VINA RESULT:    -3.952      0.000      0.000
REMARK INTER + INTRA:         -10.226
REMARK INTER:                  -7.418
REMARK INTRA:                  -2.808
REMARK UNBOUND:                -2.808
REMARK SMILES CCCCCCCCC=CCCCCCCCC(=O)[O-]
REMARK SMILES IDX 10 1 9 2 11 3 12 4 13 5 14 6 15 7 16 8 17 9 18 10 19 11
REMARK SMILES IDX 20 12 8 13 7 14 6 15 5 16 4 17 3 18 2 19 1 20
REMARK H PARENT
REMARK Flexibility Score: inf
ROOT
ATOM      1  C   UNL     1      18.523  17.818  16.767  1.00  0.00    -0.031 C 
ATOM      2  C   UNL     1      18.864  18.755  17.671  1.00  0.00    -0.031 C 
ENDROOT
BRANCH   1   3
ATOM      3  C   UNL     1      17.215  17.779  16.016  1.00  0.00     0.027 C 
BRANCH   3   4
ATOM      4  C   UNL     1      17.363  18.188  14.537  1.00  0.00     0.004 C 
BRANCH   4   5
ATOM      5  C   UNL     1      18.818  18.465  14.112  1.00  0.00     0.000 C 
BRANCH   5   6
ATOM      6  C   UNL     1      19.076  19.944  13.794  1.00  0.00     0.000 C 
BRANCH   6   7
ATOM      7  C   UNL     1      20.578  20.264  13.835  1.00  0.00     0.000 C 
BRANCH   7   8
ATOM      8  C   UNL     1      21.293  19.611  15.030  1.00  0.00     0.006 C 
BRANCH   8   9
ATOM      9  C   UNL     1      21.782  20.636  16.062  1.00  0.00     0.053 C 
BRANCH   9  10
ATOM     10  C   UNL     1      23.252  20.485  16.309  1.00  0.00     0.041 C 
ATOM     11  O   UNL     1      23.665  19.985  17.391  1.00  0.00    -0.550 OA
ATOM     12  O   UNL     1      24.166  20.881  15.339  1.00  0.00    -0.550 OA
ENDBRANCH   9  10
ENDBRANCH   8   9
ENDBRANCH   7   8
ENDBRANCH   6   7
ENDBRANCH   5   6
ENDBRANCH   4   5
ENDBRANCH   3   4
ENDBRANCH   1   3
BRANCH   2  13
ATOM     13  C   UNL     1      18.027  19.961  18.028  1.00  0.00     0.027 C 
BRANCH  13  14
ATOM     14  C   UNL     1      18.328  21.146  17.100  1.00  0.00     0.004 C 
BRANCH  14  15
ATOM     15  C   UNL     1      17.056  21.922  16.719  1.00  0.00     0.000 C 
BRANCH  15  16
ATOM     16  C   UNL     1      15.795  21.043  16.724  1.00  0.00     0.000 C 
BRANCH  16  17
ATOM     17  C   UNL     1      14.560  21.741  17.333  1.00  0.00    -0.000 C 
BRANCH  17  18
ATOM     18  C   UNL     1      13.773  20.809  18.272  1.00  0.00    -0.000 C 
BRANCH  18  19
ATOM     19  C   UNL     1      14.461  19.448  18.468  1.00  0.00    -0.003 C 
ATOM     20  C   UNL     1      14.929  19.221  19.907  1.00  0.00     0.004 C 
ENDBRANCH  18  19
ENDBRANCH  17  18
ENDBRANCH  16  17
ENDBRANCH  15  16
ENDBRANCH  14  15
ENDBRANCH  13  14
ENDBRANCH   2  13
TORSDOF 15
ENDMDL
MODEL 2
REMARK VINA RESULT:    -3.704      2.170      4.525
REMARK INTER + INTRA:          -9.761
REMARK INTER:                  -6.898
REMARK INTRA:                  -2.863
REMARK UNBOUND:                -2.808
REMARK SMILES CCCCCCCCC=CCCCCCCCC(=O)[O-]
REMARK SMILES IDX 10 1 9 2 11 3 12 4 13 5 14 6 15 7 16 8 17 9 18 10 19 11
REMARK SMILES IDX 20 12 8 13 7 14 6 15 5 16 4 17 3 18 2 19 1 20
REMARK H PARENT
REMARK Flexibility Score: inf
ROOT
ATOM      1  C   UNL     1      13.500  20.593  18.594  1.00  0.00    -0.031 C 
ATOM      2  C   UNL     1      12.948  19.422  18.964  1.00  0.00    -0.031 C 
ENDROOT
BRANCH   1   3
ATOM      3  C   UNL     1      13.924  20.940  17.189  1.00  0.00     0.027 C 
BRANCH   3   4
ATOM      4  C   UNL     1      15.030  22.013  17.146  1.00  0.00     0.004 C 
BRANCH   4   5
ATOM      5  C   UNL     1      16.416  21.462  16.760  1.00  0.00     0.000 C 
BRANCH   5   6
ATOM      6  C   UNL     1      17.511  22.538  16.773  1.00  0.00     0.000 C 
BRANCH   6   7
ATOM      7  C   UNL     1      18.892  21.924  16.497  1.00  0.00     0.000 C 
BRANCH   7   8
ATOM      8  C   UNL     1      18.912  20.398  16.682  1.00  0.00     0.006 C 
BRANCH   8   9
ATOM      9  C   UNL     1      19.988  19.710  15.831  1.00  0.00     0.053 C 
BRANCH   9  10
ATOM     10  C   UNL     1      19.819  20.049  14.382  1.00  0.00     0.041 C 
ATOM     11  O   UNL     1      18.758  19.736  13.777  1.00  0.00    -0.550 OA
ATOM     12  O   UNL     1      20.827  20.724  13.702  1.00  0.00    -0.550 OA
ENDBRANCH   9  10
ENDBRANCH   8   9
ENDBRANCH   7   8
ENDBRANCH   6   7
ENDBRANCH   5   6
ENDBRANCH   4   5
ENDBRANCH   3   4
ENDBRANCH   1   3
BRANCH   2  13
ATOM     13  C   UNL     1      12.594  18.294  18.024  1.00  0.00     0.027 C 
BRANCH  13  14
ATOM     14  C   UNL     1      13.700  17.230  17.984  1.00  0.00     0.004 C 
BRANCH  14  15
ATOM     15  C   UNL     1      14.670  17.446  16.810  1.00  0.00     0.000 C 
BRANCH  15  16
ATOM     16  C   UNL     1      16.078  17.861  17.266  1.00  0.00     0.000 C 
BRANCH  16  17
ATOM     17  C   UNL     1      16.308  17.693  18.783  1.00  0.00    -0.000 C 
BRANCH  17  18
ATOM     18  C   UNL     1      16.883  18.968  19.426  1.00  0.00    -0.000 C 
BRANCH  18  19
ATOM     19  C   UNL     1      16.318  19.227  20.832  1.00  0.00    -0.003 C 
ATOM     20  C   UNL     1      15.424  18.092  21.333  1.00  0.00     0.004 C 
ENDBRANCH  18  19
ENDBRANCH  17  18
ENDBRANCH  16  17
ENDBRANCH  15  16
ENDBRANCH  14  15
ENDBRANCH  13  14
ENDBRANCH   2  13
TORSDOF 15
ENDMDL
MODEL 3
REMARK VINA RESULT:    -3.682      1.435      3.424
REMARK INTER + INTRA:          -9.719
REMARK INTER:                  -7.062
REMARK INTRA:                  -2.657
REMARK UNBOUND:                -2.808
REMARK SMILES CCCCCCCCC=CCCCCCCCC(=O)[O-]
REMARK SMILES IDX 10 1 9 2 11 3 12 4 13 5 14 6 15 7 16 8 17 9 18 10 19 11
REMARK SMILES IDX 20 12 8 13 7 14 6 15 5 16 4 17 3 18 2 19 1 20
REMARK H PARENT
REMARK Flexibility Score: inf
ROOT
ATOM      1  C   UNL     1      17.093  18.595  19.761  1.00  0.00    -0.031 C 
ATOM      2  C   UNL     1      15.967  19.232  20.133  1.00  0.00    -0.031 C 
ENDROOT
BRANCH   1   3
ATOM      3  C   UNL     1      17.136  17.270  19.040  1.00  0.00     0.027 C 
BRANCH   3   4
ATOM      4  C   UNL     1      17.504  17.411  17.550  1.00  0.00     0.004 C 
BRANCH   4   5
ATOM      5  C   UNL     1      19.010  17.613  17.299  1.00  0.00     0.000 C 
BRANCH   5   6
ATOM      6  C   UNL     1      19.430  17.252  15.867  1.00  0.00     0.000 C 
BRANCH   6   7
ATOM      7  C   UNL     1      18.714  18.143  14.841  1.00  0.00     0.000 C 
BRANCH   7   8
ATOM      8  C   UNL     1      19.681  19.051  14.063  1.00  0.00     0.006 C 
BRANCH   8   9
ATOM      9  C   UNL     1      19.789  20.459  14.665  1.00  0.00     0.053 C 
BRANCH   9  10
ATOM     10  C   UNL     1      20.992  20.569  15.551  1.00  0.00     0.041 C 
ATOM     11  O   UNL     1      20.861  20.537  16.804  1.00  0.00    -0.550 OA
ATOM     12  O   UNL     1      22.260  20.693  14.992  1.00  0.00    -0.550 OA
ENDBRANCH   9  10
ENDBRANCH   8   9
ENDBRANCH   7   8
ENDBRANCH   6   7
ENDBRANCH   5   6
ENDBRANCH   4   5
ENDBRANCH   3   4
ENDBRANCH   1   3
BRANCH   2  13
ATOM     13  C   UNL     1      14.563  18.764  19.827  1.00  0.00     0.027 C 
BRANCH  13  14
ATOM     14  C   UNL     1      14.087  19.279  18.462  1.00  0.00     0.004 C 
BRANCH  14  15
ATOM     15  C   UNL     1      14.201  20.809  18.347  1.00  0.00     0.000 C 
BRANCH  15  16
ATOM     16  C   UNL     1      14.697  21.269  16.967  1.00  0.00     0.000 C 
BRANCH  16  17
ATOM     17  C   UNL     1      15.959  20.521  16.486  1.00  0.00    -0.000 C 
BRANCH  17  18
ATOM     18  C   UNL     1      17.246  21.107  17.092  1.00  0.00    -0.000 C 
BRANCH  18  19
ATOM     19  C   UNL     1      17.495  22.561  16.660  1.00  0.00    -0.003 C 
ATOM     20  C   UNL     1      18.703  23.190  17.358  1.00  0.00     0.004 C 
ENDBRANCH  18  19
ENDBRANCH  17  18
ENDBRANCH  16  17
ENDBRANCH  15  16
ENDBRANCH  14  15
ENDBRANCH  13  14
ENDBRANCH   2  13
TORSDOF 15
ENDMDL
MODEL 4
REMARK VINA RESULT:    -3.675      1.836      2.909
REMARK INTER + INTRA:          -9.706
REMARK INTER:                  -7.018
REMARK INTRA:                  -2.687
REMARK UNBOUND:                -2.808
REMARK SMILES CCCCCCCCC=CCCCCCCCC(=O)[O-]
REMARK SMILES IDX 10 1 9 2 11 3 12 4 13 5 14 6 15 7 16 8 17 9 18 10 19 11
REMARK SMILES IDX 20 12 8 13 7 14 6 15 5 16 4 17 3 18 2 19 1 20
REMARK H PARENT
REMARK Flexibility Score: inf
ROOT
ATOM      1  C   UNL     1      19.236  19.506  13.738  1.00  0.00    -0.031 C 
ATOM      2  C   UNL     1      19.877  20.409  14.503  1.00  0.00    -0.031 C 
ENDROOT
BRANCH   1   3
ATOM      3  C   UNL     1      17.902  18.885  14.072  1.00  0.00     0.027 C 
BRANCH   3   4
ATOM      4  C   UNL     1      17.973  17.351  14.203  1.00  0.00     0.004 C 
BRANCH   4   5
ATOM      5  C   UNL     1      19.406  16.806  14.356  1.00  0.00     0.000 C 
BRANCH   5   6
ATOM      6  C   UNL     1      19.641  16.117  15.708  1.00  0.00     0.000 C 
BRANCH   6   7
ATOM      7  C   UNL     1      21.103  16.267  16.156  1.00  0.00     0.000 C 
BRANCH   7   8
ATOM      8  C   UNL     1      21.901  17.238  15.271  1.00  0.00     0.006 C 
BRANCH   8   9
ATOM      9  C   UNL     1      22.738  18.234  16.085  1.00  0.00     0.053 C 
BRANCH   9  10
ATOM     10  C   UNL     1      24.188  17.856  16.060  1.00  0.00     0.041 C 
ATOM     11  O   UNL     1      24.542  16.679  16.340  1.00  0.00    -0.550 OA
ATOM     12  O   UNL     1      25.148  18.801  15.713  1.00  0.00    -0.550 OA
ENDBRANCH   9  10
ENDBRANCH   8   9
ENDBRANCH   7   8
ENDBRANCH   6   7
ENDBRANCH   5   6
ENDBRANCH   4   5
ENDBRANCH   3   4
ENDBRANCH   1   3
BRANCH   2  13
ATOM     13  C   UNL     1      19.335  21.005  15.781  1.00  0.00     0.027 C 
BRANCH  13  14
ATOM     14  C   UNL     1      19.842  20.242  17.013  1.00  0.00     0.004 C 
BRANCH  14  15
ATOM     15  C   UNL     1      18.812  19.222  17.527  1.00  0.00     0.000 C 
BRANCH  15  16
ATOM     16  C   UNL     1      17.582  19.885  18.167  1.00  0.00     0.000 C 
BRANCH  16  17
ATOM     17  C   UNL     1      16.284  19.687  17.355  1.00  0.00    -0.000 C 
BRANCH  17  18
ATOM     18  C   UNL     1      15.813  20.992  16.688  1.00  0.00    -0.000 C 
BRANCH  18  19
ATOM     19  C   UNL     1      14.533  21.555  17.327  1.00  0.00    -0.003 C 
ATOM     20  C   UNL     1      13.827  20.545  18.234  1.00  0.00     0.004 C 
ENDBRANCH  18  19
ENDBRANCH  17  18
ENDBRANCH  16  17
ENDBRANCH  15  16
ENDBRANCH  14  15
ENDBRANCH  13  14
ENDBRANCH   2  13
TORSDOF 15
ENDMDL
MODEL 5
REMARK VINA RESULT:    -3.661      3.991      7.506
REMARK INTER + INTRA:          -9.679
REMARK INTER:                  -7.555
REMARK INTRA:                  -2.123
REMARK UNBOUND:                -2.808
REMARK SMILES CCCCCCCCC=CCCCCCCCC(=O)[O-]
REMARK SMILES IDX 10 1 9 2 11 3 12 4 13 5 14 6 15 7 16 8 17 9 18 10 19 11
REMARK SMILES IDX 20 12 8 13 7 14 6 15 5 16 4 17 3 18 2 19 1 20
REMARK H PARENT
REMARK Flexibility Score: inf
ROOT
ATOM      1  C   UNL     1      17.608  18.377  15.828  1.00  0.00    -0.031 C 
ATOM      2  C   UNL     1      18.149  18.155  14.616  1.00  0.00    -0.031 C 
ENDROOT
BRANCH   1   3
ATOM      3  C   UNL     1      18.383  18.778  17.059  1.00  0.00     0.027 C 
BRANCH   3   4
ATOM      4  C   UNL     1      17.842  20.064  17.713  1.00  0.00     0.004 C 
BRANCH   4   5
ATOM      5  C   UNL     1      17.729  21.254  16.742  1.00  0.00     0.000 C 
BRANCH   5   6
ATOM      6  C   UNL     1      16.349  21.927  16.779  1.00  0.00     0.000 C 
BRANCH   6   7
ATOM      7  C   UNL     1      15.226  20.880  16.834  1.00  0.00     0.000 C 
BRANCH   7   8
ATOM      8  C   UNL     1      14.206  21.158  17.950  1.00  0.00     0.006 C 
BRANCH   8   9
ATOM      9  C   UNL     1      14.075  19.993  18.940  1.00  0.00     0.053 C 
BRANCH   9  10
ATOM     10  C   UNL     1      12.641  19.765  19.309  1.00  0.00     0.041 C 
ATOM     11  O   UNL     1      11.771  20.635  19.038  1.00  0.00    -0.550 OA
ATOM     12  O   UNL     1      12.263  18.582  19.937  1.00  0.00    -0.550 OA
ENDBRANCH   9  10
ENDBRANCH   8   9
ENDBRANCH   7   8
ENDBRANCH   6   7
ENDBRANCH   5   6
ENDBRANCH   4   5
ENDBRANCH   3   4
ENDBRANCH   1   3
BRANCH   2  13
ATOM     13  C   UNL     1      19.608  18.343  14.270  1.00  0.00     0.027 C 
BRANCH  13  14
ATOM     14  C   UNL     1      19.843  19.673  13.540  1.00  0.00     0.004 C 
BRANCH  14  15
ATOM     15  C   UNL     1      20.547  20.708  14.435  1.00  0.00     0.000 C 
BRANCH  15  16
ATOM     16  C   UNL     1      21.491  20.065  15.463  1.00  0.00     0.000 C 
BRANCH  16  17
ATOM     17  C   UNL     1      21.679  20.913  16.740  1.00  0.00    -0.000 C 
BRANCH  17  18
ATOM     18  C   UNL     1      23.122  21.429  16.884  1.00  0.00    -0.000 C 
BRANCH  18  19
ATOM     19  C   UNL     1      24.017  21.024  15.701  1.00  0.00    -0.003 C 
ATOM     20  C   UNL     1      24.503  22.223  14.885  1.00  0.00     0.004 C 
ENDBRANCH  18  19
ENDBRANCH  17  18
ENDBRANCH  16  17
ENDBRANCH  15  16
ENDBRANCH  14  15
ENDBRANCH  13  14
ENDBRANCH   2  13
TORSDOF 15
ENDMDL
MODEL 6
REMARK VINA RESULT:    -3.641      1.789      2.797
REMARK INTER + INTRA:          -9.642
REMARK INTER:                  -7.079
REMARK INTRA:                  -2.564
REMARK UNBOUND:                -2.808
REMARK SMILES CCCCCCCCC=CCCCCCCCC(=O)[O-]
REMARK SMILES IDX 10 1 9 2 11 3 12 4 13 5 14 6 15 7 16 8 17 9 18 10 19 11
REMARK SMILES IDX 20 12 8 13 7 14 6 15 5 16 4 17 3 18 2 19 1 20
REMARK H PARENT
REMARK Flexibility Score: inf
ROOT
ATOM      1  C   UNL     1      16.520  18.706  17.247  1.00  0.00    -0.031 C 
ATOM      2  C   UNL     1      16.613  20.024  17.501  1.00  0.00    -0.031 C 
ENDROOT
BRANCH   1   3
ATOM      3  C   UNL     1      15.693  18.096  16.143  1.00  0.00     0.027 C 
BRANCH   3   4
ATOM      4  C   UNL     1      16.292  18.337  14.744  1.00  0.00     0.004 C 
BRANCH   4   5
ATOM      5  C   UNL     1      17.471  17.406  14.404  1.00  0.00     0.000 C 
BRANCH   5   6
ATOM      6  C   UNL     1      18.833  18.107  14.499  1.00  0.00     0.000 C 
BRANCH   6   7
ATOM      7  C   UNL     1      18.699  19.613  14.226  1.00  0.00     0.000 C 
BRANCH   7   8
ATOM      8  C   UNL     1      19.890  20.424  14.762  1.00  0.00     0.006 C 
BRANCH   8   9
ATOM      9  C   UNL     1      20.146  20.188  16.257  1.00  0.00     0.053 C 
BRANCH   9  10
ATOM     10  C   UNL     1      20.352  21.487  16.974  1.00  0.00     0.041 C 
ATOM     11  O   UNL     1      19.380  22.268  17.161  1.00  0.00    -0.550 OA
ATOM     12  O   UNL     1      21.613  21.828  17.450  1.00  0.00    -0.550 OA
ENDBRANCH   9  10
ENDBRANCH   8   9
ENDBRANCH   7   8
ENDBRANCH   6   7
ENDBRANCH   5   6
ENDBRANCH   4   5
ENDBRANCH   3   4
ENDBRANCH   1   3
BRANCH   2  13
ATOM     13  C   UNL     1      15.964  21.114  16.679  1.00  0.00     0.027 C 
BRANCH  13  14
ATOM     14  C   UNL     1      14.760  21.724  17.410  1.00  0.00     0.004 C 
BRANCH  14  15
ATOM     15  C   UNL     1      13.543  20.784  17.407  1.00  0.00     0.000 C 
BRANCH  15  16
ATOM     16  C   UNL     1      12.991  20.517  18.817  1.00  0.00     0.000 C 
BRANCH  16  17
ATOM     17  C   UNL     1      13.076  19.034  19.240  1.00  0.00    -0.000 C 
BRANCH  17  18
ATOM     18  C   UNL     1      13.723  18.865  20.626  1.00  0.00    -0.000 C 
BRANCH  18  19
ATOM     19  C   UNL     1      15.129  18.246  20.551  1.00  0.00    -0.003 C 
ATOM     20  C   UNL     1      16.212  19.160  21.127  1.00  0.00     0.004 C 
ENDBRANCH  18  19
ENDBRANCH  17  18
ENDBRANCH  16  17
ENDBRANCH  15  16
ENDBRANCH  14  15
ENDBRANCH  13  14
ENDBRANCH   2  13
TORSDOF 15
ENDMDL
MODEL 7
REMARK VINA RESULT:    -3.630      3.252      7.108
REMARK INTER + INTRA:          -9.621
REMARK INTER:                  -7.551
REMARK INTRA:                  -2.070
REMARK UNBOUND:                -2.808
REMARK SMILES CCCCCCCCC=CCCCCCCCC(=O)[O-]
REMARK SMILES IDX 10 1 9 2 11 3 12 4 13 5 14 6 15 7 16 8 17 9 18 10 19 11
REMARK SMILES IDX 20 12 8 13 7 14 6 15 5 16 4 17 3 18 2 19 1 20
REMARK H PARENT
REMARK Flexibility Score: inf
ROOT
ATOM      1  C   UNL     1      19.654  20.849  15.001  1.00  0.00    -0.031 C 
ATOM      2  C   UNL     1      19.384  19.959  14.028  1.00  0.00    -0.031 C 
ENDROOT
BRANCH   1   3
ATOM      3  C   UNL     1      19.284  20.677  16.454  1.00  0.00     0.027 C 
BRANCH   3   4
ATOM      4  C   UNL     1      18.775  21.981  17.099  1.00  0.00     0.004 C 
BRANCH   4   5
ATOM      5  C   UNL     1      17.352  22.376  16.661  1.00  0.00     0.000 C 
BRANCH   5   6
ATOM      6  C   UNL     1      16.371  21.195  16.684  1.00  0.00     0.000 C 
BRANCH   6   7
ATOM      7  C   UNL     1      14.966  21.653  17.106  1.00  0.00     0.000 C 
BRANCH   7   8
ATOM      8  C   UNL     1      14.329  20.728  18.156  1.00  0.00     0.006 C 
BRANCH   8   9
ATOM      9  C   UNL     1      15.238  19.556  18.546  1.00  0.00     0.053 C 
BRANCH   9  10
ATOM     10  C   UNL     1      15.033  19.177  19.981  1.00  0.00     0.041 C 
ATOM     11  O   UNL     1      13.875  18.933  20.413  1.00  0.00    -0.550 OA
ATOM     12  O   UNL     1      16.124  19.079  20.839  1.00  0.00    -0.550 OA
ENDBRANCH   9  10
ENDBRANCH   8   9
ENDBRANCH   7   8
ENDBRANCH   6   7
ENDBRANCH   5   6
ENDBRANCH   4   5
ENDBRANCH   3   4
ENDBRANCH   1   3
BRANCH   2  13
ATOM     13  C   UNL     1      18.734  18.611  14.240  1.00  0.00     0.027 C 
BRANCH  13  14
ATOM     14  C   UNL     1      19.756  17.472  14.124  1.00  0.00     0.004 C 
BRANCH  14  15
ATOM     15  C   UNL     1      20.481  17.207  15.454  1.00  0.00     0.000 C 
BRANCH  15  16
ATOM     16  C   UNL     1      21.953  16.805  15.263  1.00  0.00     0.000 C 
BRANCH  16  17
ATOM     17  C   UNL     1      22.951  17.833  15.837  1.00  0.00    -0.000 C 
BRANCH  17  18
ATOM     18  C   UNL     1      22.359  18.614  17.025  1.00  0.00    -0.000 C 
BRANCH  18  19
ATOM     19  C   UNL     1      22.809  20.083  17.051  1.00  0.00    -0.003 C 
ATOM     20  C   UNL     1      23.280  20.585  15.684  1.00  0.00     0.004 C 
ENDBRANCH  18  19
ENDBRANCH  17  18
ENDBRANCH  16  17
ENDBRANCH  15  16
ENDBRANCH  14  15
ENDBRANCH  13  14
ENDBRANCH   2  13
TORSDOF 15
ENDMDL
MODEL 8
REMARK VINA RESULT:    -3.622      1.566      2.321
REMARK INTER + INTRA:          -9.606
REMARK INTER:                  -7.785
REMARK INTRA:                  -1.821
REMARK UNBOUND:                -2.808
REMARK SMILES CCCCCCCCC=CCCCCCCCC(=O)[O-]
REMARK SMILES IDX 10 1 9 2 11 3 12 4 13 5 14 6 15 7 16 8 17 9 18 10 19 11
REMARK SMILES IDX 20 12 8 13 7 14 6 15 5 16 4 17 3 18 2 19 1 20
REMARK H PARENT
REMARK Flexibility Score: inf
ROOT
ATOM      1  C   UNL     1      19.229  19.744  14.032  1.00  0.00    -0.031 C 
ATOM      2  C   UNL     1      19.571  20.697  14.919  1.00  0.00    -0.031 C 
ENDROOT
BRANCH   1   3
ATOM      3  C   UNL     1      18.422  18.511  14.358  1.00  0.00     0.027 C 
BRANCH   3   4
ATOM      4  C   UNL     1      19.199  17.204  14.104  1.00  0.00     0.004 C 
BRANCH   4   5
ATOM      5  C   UNL     1      20.206  16.854  15.215  1.00  0.00     0.000 C 
BRANCH   5   6
ATOM      6  C   UNL     1      21.644  16.711  14.694  1.00  0.00     0.000 C 
BRANCH   6   7
ATOM      7  C   UNL     1      22.655  17.275  15.703  1.00  0.00     0.000 C 
BRANCH   7   8
ATOM      8  C   UNL     1      22.113  18.488  16.476  1.00  0.00     0.006 C 
BRANCH   8   9
ATOM      9  C   UNL     1      22.898  19.775  16.189  1.00  0.00     0.053 C 
BRANCH   9  10
ATOM     10  C   UNL     1      23.103  20.565  17.445  1.00  0.00     0.041 C 
ATOM     11  O   UNL     1      22.354  21.545  17.708  1.00  0.00    -0.550 OA
ATOM     12  O   UNL     1      24.112  20.210  18.335  1.00  0.00    -0.550 OA
ENDBRANCH   9  10
ENDBRANCH   8   9
ENDBRANCH   7   8
ENDBRANCH   6   7
ENDBRANCH   5   6
ENDBRANCH   4   5
ENDBRANCH   3   4
ENDBRANCH   1   3
BRANCH   2  13
ATOM     13  C   UNL     1      19.143  20.728  16.367  1.00  0.00     0.027 C 
BRANCH  13  14
ATOM     14  C   UNL     1      18.918  22.166  16.854  1.00  0.00     0.004 C 
BRANCH  14  15
ATOM     15  C   UNL     1      17.447  22.597  16.729  1.00  0.00     0.000 C 
BRANCH  15  16
ATOM     16  C   UNL     1      16.463  21.447  16.997  1.00  0.00     0.000 C 
BRANCH  16  17
ATOM     17  C   UNL     1      14.988  21.900  17.053  1.00  0.00    -0.000 C 
BRANCH  17  18
ATOM     18  C   UNL     1      14.026  20.715  17.250  1.00  0.00    -0.000 C 
BRANCH  18  19
ATOM     19  C   UNL     1      14.251  19.986  18.585  1.00  0.00    -0.003 C 
ATOM     20  C   UNL     1      12.959  19.788  19.380  1.00  0.00     0.004 C 
ENDBRANCH  18  19
ENDBRANCH  17  18
ENDBRANCH  16  17
ENDBRANCH  15  16
ENDBRANCH  14  15
ENDBRANCH  13  14
ENDBRANCH   2  13
TORSDOF 15
ENDMDL
MODEL 9
REMARK VINA RESULT:    -3.618      3.036      6.515
REMARK INTER + INTRA:          -9.599
REMARK INTER:                  -6.654
REMARK INTRA:                  -2.945
REMARK UNBOUND:                -2.808
REMARK SMILES CCCCCCCCC=CCCCCCCCC(=O)[O-]
REMARK SMILES IDX 10 1 9 2 11 3 12 4 13 5 14 6 15 7 16 8 17 9 18 10 19 11
REMARK SMILES IDX 20 12 8 13 7 14 6 15 5 16 4 17 3 18 2 19 1 20
REMARK H PARENT
REMARK Flexibility Score: inf
ROOT
ATOM      1  C   UNL     1      17.763  20.292  17.721  1.00  0.00    -0.031 C 
ATOM      2  C   UNL     1      18.087  19.033  18.070  1.00  0.00    -0.031 C 
ENDROOT
BRANCH   1   3
ATOM      3  C   UNL     1      17.125  20.687  16.412  1.00  0.00     0.027 C 
BRANCH   3   4
ATOM      4  C   UNL     1      15.603  20.446  16.393  1.00  0.00     0.004 C 
BRANCH   4   5
ATOM      5  C   UNL     1      14.814  21.377  17.332  1.00  0.00     0.000 C 
BRANCH   5   6
ATOM      6  C   UNL     1      13.957  20.612  18.350  1.00  0.00     0.000 C 
BRANCH   6   7
ATOM      7  C   UNL     1      14.019  19.098  18.097  1.00  0.00     0.000 C 
BRANCH   7   8
ATOM      8  C   UNL     1      14.682  18.328  19.252  1.00  0.00     0.006 C 
BRANCH   8   9
ATOM      9  C   UNL     1      15.081  19.238  20.421  1.00  0.00     0.053 C 
BRANCH   9  10
ATOM     10  C   UNL     1      16.096  18.567  21.296  1.00  0.00     0.041 C 
ATOM     11  O   UNL     1      16.404  19.070  22.409  1.00  0.00    -0.550 OA
ATOM     12  O   UNL     1      16.691  17.378  20.887  1.00  0.00    -0.550 OA
ENDBRANCH   9  10
ENDBRANCH   8   9
ENDBRANCH   7   8
ENDBRANCH   6   7
ENDBRANCH   5   6
ENDBRANCH   4   5
ENDBRANCH   3   4
ENDBRANCH   1   3
BRANCH   2  13
ATOM     13  C   UNL     1      17.800  17.802  17.243  1.00  0.00     0.027 C 
BRANCH  13  14
ATOM     14  C   UNL     1      19.022  17.388  16.411  1.00  0.00     0.004 C 
BRANCH  14  15
ATOM     15  C   UNL     1      18.727  17.401  14.902  1.00  0.00     0.000 C 
BRANCH  15  16
ATOM     16  C   UNL     1      19.783  18.172  14.093  1.00  0.00     0.000 C 
BRANCH  16  17
ATOM     17  C   UNL     1      19.367  19.621  13.761  1.00  0.00    -0.000 C 
BRANCH  17  18
ATOM     18  C   UNL     1      20.413  20.646  14.235  1.00  0.00    -0.000 C 
BRANCH  18  19
ATOM     19  C   UNL     1      21.369  20.070  15.292  1.00  0.00    -0.003 C 
ATOM     20  C   UNL     1      21.188  20.711  16.670  1.00  0.00     0.004 C 
ENDBRANCH  18  19
ENDBRANCH  17  18
ENDBRANCH  16  17
ENDBRANCH  15  16
ENDBRANCH  14  15
ENDBRANCH  13  14
ENDBRANCH   2  13
TORSDOF 15
ENDMDL
