MODEL 1
REMARK VINA RESULT:    -1.566      0.000      0.000
REMARK INTER + INTRA:          -4.491
REMARK INTER:                  -3.580
REMARK INTRA:                  -0.911
REMARK UNBOUND:                -0.911
REMARK SMILES CCCCCCCCCCCCCCCCCCCCCCCC(=O)[O-]
REMARK SMILES IDX 13 1 14 2 15 3 16 4 17 5 18 6 19 7 20 8 21 9 22 10 23 11
REMARK SMILES IDX 24 12 25 13 26 14 12 15 11 16 10 17 9 18 8 19 7 20 6 21 5 22
REMARK SMILES IDX 4 23 3 24 2 25 1 26
REMARK H PARENT
REMARK Flexibility Score: inf
ROOT
ATOM      1  C   UNL     1      45.592  11.876 -28.770  1.00  0.00     0.000 C 
ENDROOT
BRANCH   1   2
ATOM      2  C   UNL     1      46.251  12.645 -29.928  1.00  0.00     0.000 C 
BRANCH   2   3
ATOM      3  C   UNL     1      45.625  12.313 -31.295  1.00  0.00     0.000 C 
BRANCH   3   4
ATOM      4  C   UNL     1      45.997  13.284 -32.434  1.00  0.00     0.000 C 
BRANCH   4   5
ATOM      5  C   UNL     1      44.924  13.459 -33.526  1.00  0.00     0.000 C 
BRANCH   5   6
ATOM      6  C   UNL     1      44.634  12.205 -34.373  1.00  0.00     0.000 C 
BRANCH   6   7
ATOM      7  C   UNL     1      43.150  12.066 -34.748  1.00  0.00     0.000 C 
BRANCH   7   8
ATOM      8  C   UNL     1      42.892  12.264 -36.253  1.00  0.00     0.000 C 
BRANCH   8   9
ATOM      9  C   UNL     1      42.119  13.543 -36.622  1.00  0.00     0.000 C 
BRANCH   9  10
ATOM     10  C   UNL     1      40.816  13.709 -35.822  1.00  0.00     0.006 C 
BRANCH  10  11
ATOM     11  C   UNL     1      39.740  12.703 -36.253  1.00  0.00     0.053 C 
BRANCH  11  12
ATOM     12  C   UNL     1      38.362  13.284 -36.148  1.00  0.00     0.041 C 
ATOM     13  O   UNL     1      37.686  13.127 -35.099  1.00  0.00    -0.550 OA
ATOM     14  O   UNL     1      37.815  13.973 -37.225  1.00  0.00    -0.550 OA
ENDBRANCH  11  12
ENDBRANCH  10  11
ENDBRANCH   9  10
ENDBRANCH   8   9
ENDBRANCH   7   8
ENDBRANCH   6   7
ENDBRANCH   5   6
ENDBRANCH   4   5
ENDBRANCH   3   4
ENDBRANCH   2   3
ENDBRANCH   1   2
BRANCH   1  15
ATOM     15  C   UNL     1      46.420  11.932 -27.477  1.00  0.00     0.000 C 
BRANCH  15  16
ATOM     16  C   UNL     1      45.549  11.912 -26.211  1.00  0.00     0.000 C 
BRANCH  16  17
ATOM     17  C   UNL     1      46.420  11.878 -24.945  1.00  0.00     0.000 C 
BRANCH  17  18
ATOM     18  C   UNL     1      45.742  12.550 -23.739  1.00  0.00    -0.000 C 
BRANCH  18  19
ATOM     19  C   UNL     1      45.281  13.986 -24.042  1.00  0.00    -0.000 C 
BRANCH  19  20
ATOM     20  C   UNL     1      46.197  15.045 -23.406  1.00  0.00    -0.000 C 
BRANCH  20  21
ATOM     21  C   UNL     1      45.638  16.472 -23.548  1.00  0.00    -0.000 C 
BRANCH  21  22
ATOM     22  C   UNL     1      46.062  17.390 -22.390  1.00  0.00    -0.000 C 
BRANCH  22  23
ATOM     23  C   UNL     1      47.102  18.440 -22.811  1.00  0.00    -0.000 C 
BRANCH  23  24
ATOM     24  C   UNL     1      46.928  18.821 -24.289  1.00  0.00    -0.000 C 
BRANCH  24  25
ATOM     25  C   UNL     1      47.652  20.128 -24.650  1.00  0.00    -0.003 C 
ATOM     26  C   UNL     1      47.137  20.750 -25.949  1.00  0.00     0.004 C 
ENDBRANCH  24  25
ENDBRANCH  23  24
ENDBRANCH  22  23
ENDBRANCH  21  22
ENDBRANCH  20  21
ENDBRANCH  19  20
ENDBRANCH  18  19
ENDBRANCH  17  18
ENDBRANCH  16  17
ENDBRANCH  15  16
ENDBRANCH   1  15
TORSDOF 22
ENDMDL
MODEL 2
REMARK VINA RESULT:    -1.439      4.324     12.249
REMARK INTER + INTRA:          -4.201
REMARK INTER:                  -3.164
REMARK INTRA:                  -1.037
REMARK UNBOUND:                -0.911
REMARK SMILES CCCCCCCCCCCCCCCCCCCCCCCC(=O)[O-]
REMARK SMILES IDX 13 1 14 2 15 3 16 4 17 5 18 6 19 7 20 8 21 9 22 10 23 11
REMARK SMILES IDX 24 12 25 13 26 14 12 15 11 16 10 17 9 18 8 19 7 20 6 21 5 22
REMARK SMILES IDX 4 23 3 24 2 25 1 26
REMARK H PARENT
REMARK Flexibility Score: inf
ROOT
ATOM      1  C   UNL     1      45.275  13.183 -30.488  1.00  0.00     0.000 C 
ENDROOT
BRANCH   1   2
ATOM      2  C   UNL     1      46.565  12.711 -29.794  1.00  0.00     0.000 C 
BRANCH   2   3
ATOM      3  C   UNL     1      46.289  11.875 -28.531  1.00  0.00     0.000 C 
BRANCH   3   4
ATOM      4  C   UNL     1      45.472  12.594 -27.439  1.00  0.00     0.000 C 
BRANCH   4   5
ATOM      5  C   UNL     1      45.845  12.230 -25.989  1.00  0.00     0.000 C 
BRANCH   5   6
ATOM      6  C   UNL     1      45.018  12.938 -24.899  1.00  0.00     0.000 C 
BRANCH   6   7
ATOM      7  C   UNL     1      45.890  13.690 -23.880  1.00  0.00     0.000 C 
BRANCH   7   8
ATOM      8  C   UNL     1      45.322  15.072 -23.510  1.00  0.00     0.000 C 
BRANCH   8   9
ATOM      9  C   UNL     1      46.363  16.102 -23.033  1.00  0.00     0.000 C 
BRANCH   9  10
ATOM     10  C   UNL     1      45.767  17.504 -22.823  1.00  0.00     0.006 C 
BRANCH  10  11
ATOM     11  C   UNL     1      46.837  18.603 -22.887  1.00  0.00     0.053 C 
BRANCH  11  12
ATOM     12  C   UNL     1      46.949  19.190 -24.261  1.00  0.00     0.041 C 
ATOM     13  O   UNL     1      47.992  19.803 -24.606  1.00  0.00    -0.550 OA
ATOM     14  O   UNL     1      45.885  19.086 -25.150  1.00  0.00    -0.550 OA
ENDBRANCH  11  12
ENDBRANCH  10  11
ENDBRANCH   9  10
ENDBRANCH   8   9
ENDBRANCH   7   8
ENDBRANCH   6   7
ENDBRANCH   5   6
ENDBRANCH   4   5
ENDBRANCH   3   4
ENDBRANCH   2   3
ENDBRANCH   1   2
BRANCH   1  15
ATOM     15  C   UNL     1      45.551  14.120 -31.674  1.00  0.00     0.000 C 
BRANCH  15  16
ATOM     16  C   UNL     1      45.831  13.361 -32.980  1.00  0.00     0.000 C 
BRANCH  16  17
ATOM     17  C   UNL     1      44.821  12.218 -33.179  1.00  0.00     0.000 C 
BRANCH  17  18
ATOM     18  C   UNL     1      43.673  12.599 -34.129  1.00  0.00    -0.000 C 
BRANCH  18  19
ATOM     19  C   UNL     1      43.971  12.236 -35.594  1.00  0.00    -0.000 C 
BRANCH  19  20
ATOM     20  C   UNL     1      42.696  12.137 -36.447  1.00  0.00    -0.000 C 
BRANCH  20  21
ATOM     21  C   UNL     1      41.430  12.534 -35.668  1.00  0.00    -0.000 C 
BRANCH  21  22
ATOM     22  C   UNL     1      41.016  13.994 -35.919  1.00  0.00    -0.000 C 
BRANCH  22  23
ATOM     23  C   UNL     1      39.560  14.127 -36.391  1.00  0.00    -0.000 C 
BRANCH  23  24
ATOM     24  C   UNL     1      38.611  14.302 -35.196  1.00  0.00    -0.000 C 
BRANCH  24  25
ATOM     25  C   UNL     1      37.490  13.251 -35.173  1.00  0.00    -0.003 C 
ATOM     26  C   UNL     1      37.756  12.082 -36.121  1.00  0.00     0.004 C 
ENDBRANCH  24  25
ENDBRANCH  23  24
ENDBRANCH  22  23
ENDBRANCH  21  22
ENDBRANCH  20  21
ENDBRANCH  19  20
ENDBRANCH  18  19
ENDBRANCH  17  18
ENDBRANCH  16  17
ENDBRANCH  15  16
ENDBRANCH   1  15
TORSDOF 22
ENDMDL
MODEL 3
REMARK VINA RESULT:    -0.304      2.365      3.139
REMARK INTER + INTRA:          -1.606
REMARK INTER:                  -0.867
REMARK INTRA:                  -0.740
REMARK UNBOUND:                -0.911
REMARK SMILES CCCCCCCCCCCCCCCCCCCCCCCC(=O)[O-]
REMARK SMILES IDX 13 1 14 2 15 3 16 4 17 5 18 6 19 7 20 8 21 9 22 10 23 11
REMARK SMILES IDX 24 12 25 13 26 14 12 15 11 16 10 17 9 18 8 19 7 20 6 21 5 22
REMARK SMILES IDX 4 23 3 24 2 25 1 26
REMARK H PARENT
REMARK Flexibility Score: inf
ROOT
ATOM      1  C   UNL     1      45.487  11.875 -28.688  1.00  0.00     0.000 C 
ENDROOT
BRANCH   1   2
ATOM      2  C   UNL     1      46.493  12.296 -29.773  1.00  0.00     0.000 C 
BRANCH   2   3
ATOM      3  C   UNL     1      45.834  12.497 -31.150  1.00  0.00     0.000 C 
BRANCH   3   4
ATOM      4  C   UNL     1      46.813  12.534 -32.341  1.00  0.00     0.000 C 
BRANCH   4   5
ATOM      5  C   UNL     1      46.235  13.105 -33.651  1.00  0.00     0.000 C 
BRANCH   5   6
ATOM      6  C   UNL     1      45.247  12.184 -34.392  1.00  0.00     0.000 C 
BRANCH   6   7
ATOM      7  C   UNL     1      43.777  12.544 -34.123  1.00  0.00     0.000 C 
BRANCH   7   8
ATOM      8  C   UNL     1      42.811  11.913 -35.143  1.00  0.00     0.000 C 
BRANCH   8   9
ATOM      9  C   UNL     1      42.001  12.916 -35.986  1.00  0.00     0.000 C 
BRANCH   9  10
ATOM     10  C   UNL     1      40.548  12.469 -36.218  1.00  0.00     0.006 C 
BRANCH  10  11
ATOM     11  C   UNL     1      39.536  13.442 -35.597  1.00  0.00     0.053 C 
BRANCH  11  12
ATOM     12  C   UNL     1      38.181  13.310 -36.223  1.00  0.00     0.041 C 
ATOM     13  O   UNL     1      37.605  14.318 -36.709  1.00  0.00    -0.550 OA
ATOM     14  O   UNL     1      37.542  12.075 -36.243  1.00  0.00    -0.550 OA
ENDBRANCH  11  12
ENDBRANCH  10  11
ENDBRANCH   9  10
ENDBRANCH   8   9
ENDBRANCH   7   8
ENDBRANCH   6   7
ENDBRANCH   5   6
ENDBRANCH   4   5
ENDBRANCH   3   4
ENDBRANCH   2   3
ENDBRANCH   1   2
BRANCH   1  15
ATOM     15  C   UNL     1      46.098  11.890 -27.278  1.00  0.00     0.000 C 
BRANCH  15  16
ATOM     16  C   UNL     1      45.256  12.693 -26.273  1.00  0.00     0.000 C 
BRANCH  16  17
ATOM     17  C   UNL     1      45.084  11.916 -24.958  1.00  0.00     0.000 C 
BRANCH  17  18
ATOM     18  C   UNL     1      45.089  12.832 -23.722  1.00  0.00    -0.000 C 
BRANCH  18  19
ATOM     19  C   UNL     1      46.306  13.774 -23.689  1.00  0.00    -0.000 C 
BRANCH  19  20
ATOM     20  C   UNL     1      46.461  14.487 -22.335  1.00  0.00    -0.000 C 
BRANCH  20  21
ATOM     21  C   UNL     1      46.875  15.961 -22.488  1.00  0.00    -0.000 C 
BRANCH  21  22
ATOM     22  C   UNL     1      48.139  16.306 -21.683  1.00  0.00    -0.000 C 
BRANCH  22  23
ATOM     23  C   UNL     1      48.910  15.059 -21.221  1.00  0.00    -0.000 C 
BRANCH  23  24
ATOM     24  C   UNL     1      50.186  15.454 -20.462  1.00  0.00    -0.000 C 
BRANCH  24  25
ATOM     25  C   UNL     1      50.994  14.235 -19.990  1.00  0.00    -0.003 C 
ATOM     26  C   UNL     1      52.490  14.369 -20.277  1.00  0.00     0.004 C 
ENDBRANCH  24  25
ENDBRANCH  23  24
ENDBRANCH  22  23
ENDBRANCH  21  22
ENDBRANCH  20  21
ENDBRANCH  19  20
ENDBRANCH  18  19
ENDBRANCH  17  18
ENDBRANCH  16  17
ENDBRANCH  15  16
ENDBRANCH   1  15
TORSDOF 22
ENDMDL
MODEL 4
REMARK VINA RESULT:     0.113      1.296      2.367
REMARK INTER + INTRA:          -0.653
REMARK INTER:                   0.306
REMARK INTRA:                  -0.959
REMARK UNBOUND:                -0.911
REMARK SMILES CCCCCCCCCCCCCCCCCCCCCCCC(=O)[O-]
REMARK SMILES IDX 13 1 14 2 15 3 16 4 17 5 18 6 19 7 20 8 21 9 22 10 23 11
REMARK SMILES IDX 24 12 25 13 26 14 12 15 11 16 10 17 9 18 8 19 7 20 6 21 5 22
REMARK SMILES IDX 4 23 3 24 2 25 1 26
REMARK H PARENT
REMARK Flexibility Score: inf
ROOT
ATOM      1  C   UNL     1      44.902  12.394 -26.823  1.00  0.00     0.000 C 
ENDROOT
BRANCH   1   2
ATOM      2  C   UNL     1      45.933  11.875 -27.840  1.00  0.00     0.000 C 
BRANCH   2   3
ATOM      3  C   UNL     1      45.515  12.137 -29.298  1.00  0.00     0.000 C 
BRANCH   3   4
ATOM      4  C   UNL     1      46.632  11.935 -30.342  1.00  0.00     0.000 C 
BRANCH   4   5
ATOM      5  C   UNL     1      46.525  12.819 -31.600  1.00  0.00     0.000 C 
BRANCH   5   6
ATOM      6  C   UNL     1      45.669  12.238 -32.742  1.00  0.00     0.000 C 
BRANCH   6   7
ATOM      7  C   UNL     1      44.177  12.580 -32.605  1.00  0.00     0.000 C 
BRANCH   7   8
ATOM      8  C   UNL     1      43.356  12.185 -33.847  1.00  0.00     0.000 C 
BRANCH   8   9
ATOM      9  C   UNL     1      44.121  12.238 -35.182  1.00  0.00     0.000 C 
BRANCH   9  10
ATOM     10  C   UNL     1      43.200  12.106 -36.407  1.00  0.00     0.006 C 
BRANCH  10  11
ATOM     11  C   UNL     1      41.716  12.079 -36.016  1.00  0.00     0.053 C 
BRANCH  11  12
ATOM     12  C   UNL     1      41.087  13.434 -36.128  1.00  0.00     0.041 C 
ATOM     13  O   UNL     1      39.946  13.646 -35.641  1.00  0.00    -0.550 OA
ATOM     14  O   UNL     1      41.751  14.455 -36.799  1.00  0.00    -0.550 OA
ENDBRANCH  11  12
ENDBRANCH  10  11
ENDBRANCH   9  10
ENDBRANCH   8   9
ENDBRANCH   7   8
ENDBRANCH   6   7
ENDBRANCH   5   6
ENDBRANCH   4   5
ENDBRANCH   3   4
ENDBRANCH   2   3
ENDBRANCH   1   2
BRANCH   1  15
ATOM     15  C   UNL     1      45.209  11.942 -25.387  1.00  0.00     0.000 C 
BRANCH  15  16
ATOM     16  C   UNL     1      46.139  12.913 -24.643  1.00  0.00     0.000 C 
BRANCH  16  17
ATOM     17  C   UNL     1      45.382  13.655 -23.530  1.00  0.00     0.000 C 
BRANCH  17  18
ATOM     18  C   UNL     1      45.849  15.112 -23.362  1.00  0.00    -0.000 C 
BRANCH  18  19
ATOM     19  C   UNL     1      47.113  15.232 -22.494  1.00  0.00    -0.000 C 
BRANCH  19  20
ATOM     20  C   UNL     1      47.344  16.665 -21.985  1.00  0.00    -0.000 C 
BRANCH  20  21
ATOM     21  C   UNL     1      46.187  17.613 -22.344  1.00  0.00    -0.000 C 
BRANCH  21  22
ATOM     22  C   UNL     1      46.678  18.951 -22.921  1.00  0.00    -0.000 C 
BRANCH  22  23
ATOM     23  C   UNL     1      47.392  18.792 -24.272  1.00  0.00    -0.000 C 
BRANCH  23  24
ATOM     24  C   UNL     1      47.744  20.162 -24.870  1.00  0.00    -0.000 C 
BRANCH  24  25
ATOM     25  C   UNL     1      46.592  20.763 -25.690  1.00  0.00    -0.003 C 
ATOM     26  C   UNL     1      45.535  19.727 -26.073  1.00  0.00     0.004 C 
ENDBRANCH  24  25
ENDBRANCH  23  24
ENDBRANCH  22  23
ENDBRANCH  21  22
ENDBRANCH  20  21
ENDBRANCH  19  20
ENDBRANCH  18  19
ENDBRANCH  17  18
ENDBRANCH  16  17
ENDBRANCH  15  16
ENDBRANCH   1  15
TORSDOF 22
ENDMDL
