MODEL 1
REMARK VINA RESULT:    -4.542      0.000      0.000
REMARK INTER + INTRA:          -7.122
REMARK INTER:                  -6.134
REMARK INTRA:                  -0.988
REMARK UNBOUND:                -0.988
REMARK SMILES C=C[C@@](C)(CCC=C(C)C)OC(C)=O
REMARK SMILES IDX 3 1 4 2 5 3 6 4 7 5 9 6 8 7 10 8 2 9 1 10 11 11 12 12 14 13
REMARK SMILES IDX 13 14
REMARK H PARENT
REMARK Flexibility Score: inf
ROOT
ATOM      1  C   UNL     1       9.395 -29.111  31.297  1.00  0.00     0.127 C 
ATOM      2  C   UNL     1       9.782 -29.782  32.635  1.00  0.00     0.061 C 
ENDROOT
BRANCH   1   3
ATOM      3  C   UNL     1      10.630 -28.938  30.366  1.00  0.00     0.057 C 
BRANCH   3   4
ATOM      4  C   UNL     1      10.352 -29.237  28.879  1.00  0.00     0.032 C 
BRANCH   4   5
ATOM      5  C   UNL     1      10.504 -27.989  28.046  1.00  0.00    -0.028 C 
ATOM      6  C   UNL     1       8.136 -28.053  27.235  1.00  0.00     0.039 C 
ATOM      7  C   UNL     1       9.511 -27.432  27.319  1.00  0.00    -0.080 C 
ATOM      8  C   UNL     1       9.801 -26.163  26.559  1.00  0.00     0.039 C 
ENDBRANCH   4   5
ENDBRANCH   3   4
ENDBRANCH   1   3
BRANCH   1   9
ATOM      9  C   UNL     1       8.343 -29.957  30.598  1.00  0.00     0.013 C 
ATOM     10  C   UNL     1       7.228 -30.362  31.218  1.00  0.00     0.008 C 
ENDBRANCH   1   9
BRANCH   1  11
ATOM     11  O   UNL     1       8.798 -27.826  31.539  1.00  0.00    -0.455 OA
BRANCH  11  12
ATOM     12  C   UNL     1       9.478 -26.611  31.709  1.00  0.00     0.303 C 
ATOM     13  O   UNL     1      10.154 -26.375  32.747  1.00  0.00    -0.253 OA
ATOM     14  C   UNL     1       9.433 -25.595  30.619  1.00  0.00     0.139 C 
ENDBRANCH  11  12
ENDBRANCH   1  11
TORSDOF 6
ENDMDL
MODEL 2
REMARK VINA RESULT:    -4.497      1.455      1.886
REMARK INTER + INTRA:          -7.063
REMARK INTER:                  -6.362
REMARK INTRA:                  -0.701
REMARK UNBOUND:                -0.988
REMARK SMILES C=C[C@@](C)(CCC=C(C)C)OC(C)=O
REMARK SMILES IDX 3 1 4 2 5 3 6 4 7 5 9 6 8 7 10 8 2 9 1 10 11 11 12 12 14 13
REMARK SMILES IDX 13 14
REMARK H PARENT
REMARK Flexibility Score: inf
ROOT
ATOM      1  C   UNL     1       9.145 -29.175  31.518  1.00  0.00     0.127 C 
ATOM      2  C   UNL     1       9.889 -29.858  32.688  1.00  0.00     0.061 C 
ENDROOT
BRANCH   1   3
ATOM      3  C   UNL     1      10.094 -28.906  30.315  1.00  0.00     0.057 C 
BRANCH   3   4
ATOM      4  C   UNL     1       9.371 -28.649  28.979  1.00  0.00     0.032 C 
BRANCH   4   5
ATOM      5  C   UNL     1       9.800 -29.652  27.937  1.00  0.00    -0.028 C 
ATOM      6  C   UNL     1       7.461 -30.423  27.487  1.00  0.00     0.039 C 
ATOM      7  C   UNL     1       8.951 -30.441  27.242  1.00  0.00    -0.080 C 
ATOM      8  C   UNL     1       9.523 -31.375  26.207  1.00  0.00     0.039 C 
ENDBRANCH   4   5
ENDBRANCH   3   4
ENDBRANCH   1   3
BRANCH   1   9
ATOM      9  C   UNL     1       7.994 -30.062  31.071  1.00  0.00     0.013 C 
ATOM     10  C   UNL     1       6.986 -30.387  31.889  1.00  0.00     0.008 C 
ENDBRANCH   1   9
BRANCH   1  11
ATOM     11  O   UNL     1       8.565 -27.934  31.953  1.00  0.00    -0.455 OA
BRANCH  11  12
ATOM     12  C   UNL     1       9.201 -26.685  31.990  1.00  0.00     0.303 C 
ATOM     13  O   UNL     1      10.161 -26.458  32.775  1.00  0.00    -0.253 OA
ATOM     14  C   UNL     1       8.760 -25.618  31.048  1.00  0.00     0.139 C 
ENDBRANCH  11  12
ENDBRANCH   1  11
TORSDOF 6
ENDMDL
MODEL 3
REMARK VINA RESULT:    -4.467      1.220      4.279
REMARK INTER + INTRA:          -7.022
REMARK INTER:                  -6.265
REMARK INTRA:                  -0.757
REMARK UNBOUND:                -0.988
REMARK SMILES C=C[C@@](C)(CCC=C(C)C)OC(C)=O
REMARK SMILES IDX 3 1 4 2 5 3 6 4 7 5 9 6 8 7 10 8 2 9 1 10 11 11 12 12 14 13
REMARK SMILES IDX 13 14
REMARK H PARENT
REMARK Flexibility Score: inf
ROOT
ATOM      1  C   UNL     1       9.324 -27.049  27.820  1.00  0.00     0.127 C 
ATOM      2  C   UNL     1       8.502 -28.261  27.321  1.00  0.00     0.061 C 
ENDROOT
BRANCH   1   3
ATOM      3  C   UNL     1      10.574 -27.501  28.627  1.00  0.00     0.057 C 
BRANCH   3   4
ATOM      4  C   UNL     1      10.603 -29.004  28.968  1.00  0.00     0.032 C 
BRANCH   4   5
ATOM      5  C   UNL     1      10.681 -29.213  30.460  1.00  0.00    -0.028 C 
ATOM      6  C   UNL     1       8.273 -29.871  30.652  1.00  0.00     0.039 C 
ATOM      7  C   UNL     1       9.648 -29.624  31.228  1.00  0.00    -0.080 C 
ATOM      8  C   UNL     1       9.883 -29.820  32.703  1.00  0.00     0.039 C 
ENDBRANCH   4   5
ENDBRANCH   3   4
ENDBRANCH   1   3
BRANCH   1   9
ATOM      9  C   UNL     1       9.760 -26.215  26.626  1.00  0.00     0.013 C 
ATOM     10  C   UNL     1       9.031 -26.137  25.507  1.00  0.00     0.008 C 
ENDBRANCH   1   9
BRANCH   1  11
ATOM     11  O   UNL     1       8.508 -26.198  28.642  1.00  0.00    -0.455 OA
BRANCH  11  12
ATOM     12  C   UNL     1       8.883 -25.607  29.858  1.00  0.00     0.303 C 
ATOM     13  O   UNL     1       8.767 -26.223  30.952  1.00  0.00    -0.253 OA
ATOM     14  C   UNL     1       9.471 -24.238  29.848  1.00  0.00     0.139 C 
ENDBRANCH  11  12
ENDBRANCH   1  11
TORSDOF 6
ENDMDL
MODEL 4
REMARK VINA RESULT:    -4.361      2.046      4.448
REMARK INTER + INTRA:          -6.878
REMARK INTER:                  -5.994
REMARK INTRA:                  -0.884
REMARK UNBOUND:                -0.988
REMARK SMILES C=C[C@@](C)(CCC=C(C)C)OC(C)=O
REMARK SMILES IDX 3 1 4 2 5 3 6 4 7 5 9 6 8 7 10 8 2 9 1 10 11 11 12 12 14 13
REMARK SMILES IDX 13 14
REMARK H PARENT
REMARK Flexibility Score: inf
ROOT
ATOM      1  C   UNL     1       9.276 -25.399  30.983  1.00  0.00     0.127 C 
ATOM      2  C   UNL     1       7.786 -25.005  30.862  1.00  0.00     0.061 C 
ENDROOT
BRANCH   1   3
ATOM      3  C   UNL     1       9.522 -26.336  32.201  1.00  0.00     0.057 C 
BRANCH   3   4
ATOM      4  C   UNL     1       9.822 -27.801  31.826  1.00  0.00     0.032 C 
BRANCH   4   5
ATOM      5  C   UNL     1       8.640 -28.685  32.139  1.00  0.00    -0.028 C 
ATOM      6  C   UNL     1       8.614 -29.722  29.859  1.00  0.00     0.039 C 
ATOM      7  C   UNL     1       8.100 -29.570  31.272  1.00  0.00    -0.080 C 
ATOM      8  C   UNL     1       6.939 -30.412  31.735  1.00  0.00     0.039 C 
ENDBRANCH   4   5
ENDBRANCH   3   4
ENDBRANCH   1   3
BRANCH   1   9
ATOM      9  C   UNL     1       9.715 -26.096  29.706  1.00  0.00     0.013 C 
ATOM     10  C   UNL     1       8.935 -26.152  28.621  1.00  0.00     0.008 C 
ENDBRANCH   1   9
BRANCH   1  11
ATOM     11  O   UNL     1      10.093 -24.224  31.115  1.00  0.00    -0.455 OA
BRANCH  11  12
ATOM     12  C   UNL     1       9.669 -22.895  30.967  1.00  0.00     0.303 C 
ATOM     13  O   UNL     1       9.390 -22.179  31.967  1.00  0.00    -0.253 OA
ATOM     14  C   UNL     1       9.591 -22.305  29.601  1.00  0.00     0.139 C 
ENDBRANCH  11  12
ENDBRANCH   1  11
TORSDOF 6
ENDMDL
MODEL 5
REMARK VINA RESULT:    -4.358      1.452      2.672
REMARK INTER + INTRA:          -6.874
REMARK INTER:                  -5.951
REMARK INTRA:                  -0.923
REMARK UNBOUND:                -0.988
REMARK SMILES C=C[C@@](C)(CCC=C(C)C)OC(C)=O
REMARK SMILES IDX 3 1 4 2 5 3 6 4 7 5 9 6 8 7 10 8 2 9 1 10 11 11 12 12 14 13
REMARK SMILES IDX 13 14
REMARK H PARENT
REMARK Flexibility Score: inf
ROOT
ATOM      1  C   UNL     1       9.369 -28.540  29.308  1.00  0.00     0.127 C 
ATOM      2  C   UNL     1      10.864 -28.933  29.289  1.00  0.00     0.061 C 
ENDROOT
BRANCH   1   3
ATOM      3  C   UNL     1       9.159 -27.067  28.856  1.00  0.00     0.057 C 
BRANCH   3   4
ATOM      4  C   UNL     1       8.580 -26.913  27.435  1.00  0.00     0.032 C 
BRANCH   4   5
ATOM      5  C   UNL     1       9.555 -26.195  26.535  1.00  0.00    -0.028 C 
ATOM      6  C   UNL     1      10.338 -28.306  25.438  1.00  0.00     0.039 C 
ATOM      7  C   UNL     1      10.336 -26.805  25.617  1.00  0.00    -0.080 C 
ATOM      8  C   UNL     1      11.241 -25.954  24.764  1.00  0.00     0.039 C 
ENDBRANCH   4   5
ENDBRANCH   3   4
ENDBRANCH   1   3
BRANCH   1   9
ATOM      9  C   UNL     1       8.595 -29.471  28.388  1.00  0.00     0.013 C 
ATOM     10  C   UNL     1       7.662 -30.313  28.848  1.00  0.00     0.008 C 
ENDBRANCH   1   9
BRANCH   1  11
ATOM     11  O   UNL     1       8.824 -28.716  30.626  1.00  0.00    -0.455 OA
BRANCH  11  12
ATOM     12  C   UNL     1       9.521 -28.597  31.838  1.00  0.00     0.303 C 
ATOM     13  O   UNL     1       9.877 -27.474  32.285  1.00  0.00    -0.253 OA
ATOM     14  C   UNL     1       9.807 -29.825  32.633  1.00  0.00     0.139 C 
ENDBRANCH  11  12
ENDBRANCH   1  11
TORSDOF 6
ENDMDL
MODEL 6
REMARK VINA RESULT:    -4.348      1.756      3.937
REMARK INTER + INTRA:          -6.861
REMARK INTER:                  -6.491
REMARK INTRA:                  -0.370
REMARK UNBOUND:                -0.988
REMARK SMILES C=C[C@@](C)(CCC=C(C)C)OC(C)=O
REMARK SMILES IDX 3 1 4 2 5 3 6 4 7 5 9 6 8 7 10 8 2 9 1 10 11 11 12 12 14 13
REMARK SMILES IDX 13 14
REMARK H PARENT
REMARK Flexibility Score: inf
ROOT
ATOM      1  C   UNL     1       9.550 -28.467  29.883  1.00  0.00     0.127 C 
ATOM      2  C   UNL     1      10.842 -29.289  30.095  1.00  0.00     0.061 C 
ENDROOT
BRANCH   1   3
ATOM      3  C   UNL     1       9.868 -26.984  29.536  1.00  0.00     0.057 C 
BRANCH   3   4
ATOM      4  C   UNL     1       9.310 -25.961  30.546  1.00  0.00     0.032 C 
BRANCH   4   5
ATOM      5  C   UNL     1       9.082 -24.625  29.883  1.00  0.00    -0.028 C 
ATOM      6  C   UNL     1      10.604 -23.407  31.455  1.00  0.00     0.039 C 
ATOM      7  C   UNL     1       9.674 -23.472  30.266  1.00  0.00    -0.080 C 
ATOM      8  C   UNL     1       9.374 -22.217  29.487  1.00  0.00     0.039 C 
ENDBRANCH   4   5
ENDBRANCH   3   4
ENDBRANCH   1   3
BRANCH   1   9
ATOM      9  C   UNL     1       8.738 -29.090  28.760  1.00  0.00     0.013 C 
ATOM     10  C   UNL     1       8.402 -28.407  27.659  1.00  0.00     0.008 C 
ENDBRANCH   1   9
BRANCH   1  11
ATOM     11  O   UNL     1       8.729 -28.514  31.061  1.00  0.00    -0.455 OA
BRANCH  11  12
ATOM     12  C   UNL     1       8.487 -29.640  31.863  1.00  0.00     0.303 C 
ATOM     13  O   UNL     1       9.340 -30.049  32.696  1.00  0.00    -0.253 OA
ATOM     14  C   UNL     1       7.176 -30.339  31.755  1.00  0.00     0.139 C 
ENDBRANCH  11  12
ENDBRANCH   1  11
TORSDOF 6
ENDMDL
MODEL 7
REMARK VINA RESULT:    -4.260      1.902      4.106
REMARK INTER + INTRA:          -6.742
REMARK INTER:                  -6.345
REMARK INTRA:                  -0.397
REMARK UNBOUND:                -0.988
REMARK SMILES C=C[C@@](C)(CCC=C(C)C)OC(C)=O
REMARK SMILES IDX 3 1 4 2 5 3 6 4 7 5 9 6 8 7 10 8 2 9 1 10 11 11 12 12 14 13
REMARK SMILES IDX 13 14
REMARK H PARENT
REMARK Flexibility Score: inf
ROOT
ATOM      1  C   UNL     1       9.615 -28.922  31.500  1.00  0.00     0.127 C 
ATOM      2  C   UNL     1       9.760 -29.939  32.655  1.00  0.00     0.061 C 
ENDROOT
BRANCH   1   3
ATOM      3  C   UNL     1       9.864 -27.465  31.986  1.00  0.00     0.057 C 
BRANCH   3   4
ATOM      4  C   UNL     1       8.614 -26.563  31.961  1.00  0.00     0.032 C 
BRANCH   4   5
ATOM      5  C   UNL     1       8.742 -25.502  30.896  1.00  0.00    -0.028 C 
ATOM      6  C   UNL     1      10.099 -23.982  32.353  1.00  0.00     0.039 C 
ATOM      7  C   UNL     1       9.426 -24.346  31.050  1.00  0.00    -0.080 C 
ATOM      8  C   UNL     1       9.495 -23.392  29.885  1.00  0.00     0.039 C 
ENDBRANCH   4   5
ENDBRANCH   3   4
ENDBRANCH   1   3
BRANCH   1   9
ATOM      9  C   UNL     1      10.604 -29.269  30.399  1.00  0.00     0.013 C 
ATOM     10  C   UNL     1      10.502 -28.764  29.164  1.00  0.00     0.008 C 
ENDBRANCH   1   9
BRANCH   1  11
ATOM     11  O   UNL     1       8.303 -29.011  30.919  1.00  0.00    -0.455 OA
BRANCH  11  12
ATOM     12  C   UNL     1       7.490 -30.153  30.869  1.00  0.00     0.303 C 
ATOM     13  O   UNL     1       6.936 -30.611  31.905  1.00  0.00    -0.253 OA
ATOM     14  C   UNL     1       7.244 -30.813  29.555  1.00  0.00     0.139 C 
ENDBRANCH  11  12
ENDBRANCH   1  11
TORSDOF 6
ENDMDL
MODEL 8
REMARK VINA RESULT:    -4.231      2.779      4.944
REMARK INTER + INTRA:          -6.703
REMARK INTER:                  -5.808
REMARK INTRA:                  -0.894
REMARK UNBOUND:                -0.988
REMARK SMILES C=C[C@@](C)(CCC=C(C)C)OC(C)=O
REMARK SMILES IDX 3 1 4 2 5 3 6 4 7 5 9 6 8 7 10 8 2 9 1 10 11 11 12 12 14 13
REMARK SMILES IDX 13 14
REMARK H PARENT
REMARK Flexibility Score: inf
ROOT
ATOM      1  C   UNL     1       9.020 -28.378  27.338  1.00  0.00     0.127 C 
ATOM      2  C   UNL     1       8.693 -27.026  28.013  1.00  0.00     0.061 C 
ENDROOT
BRANCH   1   3
ATOM      3  C   UNL     1      10.267 -29.050  27.981  1.00  0.00     0.057 C 
BRANCH   3   4
ATOM      4  C   UNL     1      10.792 -28.342  29.245  1.00  0.00     0.032 C 
BRANCH   4   5
ATOM      5  C   UNL     1      10.631 -29.224  30.458  1.00  0.00    -0.028 C 
ATOM      6  C   UNL     1       9.053 -27.646  31.593  1.00  0.00     0.039 C 
ATOM      7  C   UNL     1       9.836 -28.936  31.512  1.00  0.00    -0.080 C 
ATOM      8  C   UNL     1       9.751 -29.930  32.641  1.00  0.00     0.039 C 
ENDBRANCH   4   5
ENDBRANCH   3   4
ENDBRANCH   1   3
BRANCH   1   9
ATOM      9  C   UNL     1       7.820 -29.302  27.463  1.00  0.00     0.013 C 
ATOM     10  C   UNL     1       7.760 -30.271  28.385  1.00  0.00     0.008 C 
ENDBRANCH   1   9
BRANCH   1  11
ATOM     11  O   UNL     1       9.252 -28.190  25.932  1.00  0.00    -0.455 OA
BRANCH  11  12
ATOM     12  C   UNL     1       9.450 -26.965  25.278  1.00  0.00     0.303 C 
ATOM     13  O   UNL     1       8.492 -26.336  24.753  1.00  0.00    -0.253 OA
ATOM     14  C   UNL     1      10.819 -26.375  25.241  1.00  0.00     0.139 C 
ENDBRANCH  11  12
ENDBRANCH   1  11
TORSDOF 6
ENDMDL
MODEL 9
REMARK VINA RESULT:    -4.201      2.533      5.084
REMARK INTER + INTRA:          -6.662
REMARK INTER:                  -6.087
REMARK INTRA:                  -0.575
REMARK UNBOUND:                -0.988
REMARK SMILES C=C[C@@](C)(CCC=C(C)C)OC(C)=O
REMARK SMILES IDX 3 1 4 2 5 3 6 4 7 5 9 6 8 7 10 8 2 9 1 10 11 11 12 12 14 13
REMARK SMILES IDX 13 14
REMARK H PARENT
REMARK Flexibility Score: inf
ROOT
ATOM      1  C   UNL     1       9.171 -24.148  30.750  1.00  0.00     0.127 C 
ATOM      2  C   UNL     1       7.653 -24.438  30.796  1.00  0.00     0.061 C 
ENDROOT
BRANCH   1   3
ATOM      3  C   UNL     1       9.999 -25.460  30.624  1.00  0.00     0.057 C 
BRANCH   3   4
ATOM      4  C   UNL     1       9.162 -26.711  30.292  1.00  0.00     0.032 C 
BRANCH   4   5
ATOM      5  C   UNL     1       9.228 -27.713  31.418  1.00  0.00    -0.028 C 
ATOM      6  C   UNL     1      10.694 -29.289  30.139  1.00  0.00     0.039 C 
ATOM      7  C   UNL     1       9.930 -28.866  31.372  1.00  0.00    -0.080 C 
ATOM      8  C   UNL     1       9.929 -29.757  32.588  1.00  0.00     0.039 C 
ENDBRANCH   4   5
ENDBRANCH   3   4
ENDBRANCH   1   3
BRANCH   1   9
ATOM      9  C   UNL     1       9.472 -23.239  29.570  1.00  0.00     0.013 C 
ATOM     10  C   UNL     1       9.201 -21.929  29.593  1.00  0.00     0.008 C 
ENDBRANCH   1   9
BRANCH   1  11
ATOM     11  O   UNL     1       9.579 -23.440  31.932  1.00  0.00    -0.455 OA
BRANCH  11  12
ATOM     12  C   UNL     1      10.638 -23.784  32.785  1.00  0.00     0.303 C 
ATOM     13  O   UNL     1      11.807 -23.352  32.590  1.00  0.00    -0.253 OA
ATOM     14  C   UNL     1      10.365 -24.643  33.972  1.00  0.00     0.139 C 
ENDBRANCH  11  12
ENDBRANCH   1  11
TORSDOF 6
ENDMDL
