MODEL 1
REMARK VINA RESULT:    -5.928      0.000      0.000
REMARK INTER + INTRA:         -16.298
REMARK INTER:                 -14.937
REMARK INTRA:                  -1.361
REMARK UNBOUND:                -1.361
REMARK SMILES CCCCCCCCCCCCCCCCCCCCCCCCCCCC(=O)[O-]
REMARK SMILES IDX 15 1 16 2 17 3 18 4 19 5 20 6 21 7 22 8 23 9 24 10 25 11
REMARK SMILES IDX 26 12 27 13 28 14 29 15 30 16 14 17 13 18 12 19 11 20 10 21
REMARK SMILES IDX 9 22 8 23 7 24 6 25 5 26 4 27 3 28 2 29 1 30
REMARK H PARENT
REMARK Flexibility Score: inf
ROOT
ATOM      1  C   UNL     1      10.993  16.468  42.008  1.00  0.00     0.000 C 
ENDROOT
BRANCH   1   2
ATOM      2  C   UNL     1      11.813  17.767  42.084  1.00  0.00     0.000 C 
BRANCH   2   3
ATOM      3  C   UNL     1      13.217  17.544  42.673  1.00  0.00     0.000 C 
BRANCH   3   4
ATOM      4  C   UNL     1      14.137  18.761  42.480  1.00  0.00     0.000 C 
BRANCH   4   5
ATOM      5  C   UNL     1      15.220  18.522  41.414  1.00  0.00     0.000 C 
BRANCH   5   6
ATOM      6  C   UNL     1      16.104  17.282  41.658  1.00  0.00     0.000 C 
BRANCH   6   7
ATOM      7  C   UNL     1      17.435  17.558  42.389  1.00  0.00     0.000 C 
BRANCH   7   8
ATOM      8  C   UNL     1      18.460  16.411  42.332  1.00  0.00     0.000 C 
BRANCH   8   9
ATOM      9  C   UNL     1      19.915  16.909  42.320  1.00  0.00     0.000 C 
BRANCH   9  10
ATOM     10  C   UNL     1      20.877  15.914  42.992  1.00  0.00     0.000 C 
BRANCH  10  11
ATOM     11  C   UNL     1      21.648  15.063  41.968  1.00  0.00     0.000 C 
BRANCH  11  12
ATOM     12  C   UNL     1      21.598  13.561  42.289  1.00  0.00     0.006 C 
BRANCH  12  13
ATOM     13  C   UNL     1      20.316  13.153  43.025  1.00  0.00     0.053 C 
BRANCH  13  14
ATOM     14  C   UNL     1      20.590  12.024  43.969  1.00  0.00     0.041 C 
ATOM     15  O   UNL     1      20.005  11.974  45.083  1.00  0.00    -0.550 OA
ATOM     16  O   UNL     1      21.517  11.045  43.634  1.00  0.00    -0.550 OA
ENDBRANCH  13  14
ENDBRANCH  12  13
ENDBRANCH  11  12
ENDBRANCH  10  11
ENDBRANCH   9  10
ENDBRANCH   8   9
ENDBRANCH   7   8
ENDBRANCH   6   7
ENDBRANCH   5   6
ENDBRANCH   4   5
ENDBRANCH   3   4
ENDBRANCH   2   3
ENDBRANCH   1   2
BRANCH   1  17
ATOM     17  C   UNL     1       9.479  16.728  41.987  1.00  0.00     0.000 C 
BRANCH  17  18
ATOM     18  C   UNL     1       8.656  15.443  41.800  1.00  0.00     0.000 C 
BRANCH  18  19
ATOM     19  C   UNL     1       9.530  14.217  41.475  1.00  0.00     0.000 C 
BRANCH  19  20
ATOM     20  C   UNL     1       8.772  13.028  40.852  1.00  0.00     0.000 C 
BRANCH  20  21
ATOM     21  C   UNL     1       9.274  12.589  39.463  1.00  0.00     0.000 C 
BRANCH  21  22
ATOM     22  C   UNL     1       9.803  11.143  39.389  1.00  0.00    -0.000 C 
BRANCH  22  23
ATOM     23  C   UNL     1       8.856  10.138  38.707  1.00  0.00    -0.000 C 
BRANCH  23  24
ATOM     24  C   UNL     1       8.055   9.298  39.712  1.00  0.00    -0.000 C 
BRANCH  24  25
ATOM     25  C   UNL     1       8.985   8.659  40.754  1.00  0.00    -0.000 C 
BRANCH  25  26
ATOM     26  C   UNL     1       8.485   8.850  42.196  1.00  0.00    -0.000 C 
BRANCH  26  27
ATOM     27  C   UNL     1       9.334   8.149  43.274  1.00  0.00    -0.000 C 
BRANCH  27  28
ATOM     28  C   UNL     1       9.191   8.770  44.679  1.00  0.00    -0.000 C 
BRANCH  28  29
ATOM     29  C   UNL     1      10.502   9.399  45.176  1.00  0.00    -0.003 C 
ATOM     30  C   UNL     1      11.544   8.329  45.487  1.00  0.00     0.004 C 
ENDBRANCH  28  29
ENDBRANCH  27  28
ENDBRANCH  26  27
ENDBRANCH  25  26
ENDBRANCH  24  25
ENDBRANCH  23  24
ENDBRANCH  22  23
ENDBRANCH  21  22
ENDBRANCH  20  21
ENDBRANCH  19  20
ENDBRANCH  18  19
ENDBRANCH  17  18
ENDBRANCH   1  17
TORSDOF 26
ENDMDL
MODEL 2
REMARK VINA RESULT:    -5.865      1.587      3.325
REMARK INTER + INTRA:         -16.141
REMARK INTER:                 -14.885
REMARK INTRA:                  -1.256
REMARK UNBOUND:                -1.361
REMARK SMILES CCCCCCCCCCCCCCCCCCCCCCCCCCCC(=O)[O-]
REMARK SMILES IDX 15 1 16 2 17 3 18 4 19 5 20 6 21 7 22 8 23 9 24 10 25 11
REMARK SMILES IDX 26 12 27 13 28 14 29 15 30 16 14 17 13 18 12 19 11 20 10 21
REMARK SMILES IDX 9 22 8 23 7 24 6 25 5 26 4 27 3 28 2 29 1 30
REMARK H PARENT
REMARK Flexibility Score: inf
ROOT
ATOM      1  C   UNL     1      13.826  18.666  42.517  1.00  0.00     0.000 C 
ENDROOT
BRANCH   1   2
ATOM      2  C   UNL     1      15.007  18.689  41.531  1.00  0.00     0.000 C 
BRANCH   2   3
ATOM      3  C   UNL     1      15.843  17.399  41.583  1.00  0.00     0.000 C 
BRANCH   3   4
ATOM      4  C   UNL     1      17.191  17.600  42.295  1.00  0.00     0.000 C 
BRANCH   4   5
ATOM      5  C   UNL     1      18.022  16.307  42.365  1.00  0.00     0.000 C 
BRANCH   5   6
ATOM      6  C   UNL     1      19.549  16.520  42.393  1.00  0.00     0.000 C 
BRANCH   6   7
ATOM      7  C   UNL     1      20.394  15.243  42.203  1.00  0.00     0.000 C 
BRANCH   7   8
ATOM      8  C   UNL     1      19.832  13.982  42.883  1.00  0.00     0.000 C 
BRANCH   8   9
ATOM      9  C   UNL     1      20.492  13.690  44.242  1.00  0.00     0.000 C 
BRANCH   9  10
ATOM     10  C   UNL     1      19.455  13.450  45.353  1.00  0.00     0.000 C 
BRANCH  10  11
ATOM     11  C   UNL     1      19.334  11.963  45.729  1.00  0.00     0.000 C 
BRANCH  11  12
ATOM     12  C   UNL     1      20.293  11.069  44.927  1.00  0.00     0.006 C 
BRANCH  12  13
ATOM     13  C   UNL     1      21.098  10.114  45.817  1.00  0.00     0.053 C 
BRANCH  13  14
ATOM     14  C   UNL     1      22.466   9.895  45.249  1.00  0.00     0.041 C 
ATOM     15  O   UNL     1      22.812  10.479  44.189  1.00  0.00    -0.550 OA
ATOM     16  O   UNL     1      23.346   9.020  45.873  1.00  0.00    -0.550 OA
ENDBRANCH  13  14
ENDBRANCH  12  13
ENDBRANCH  11  12
ENDBRANCH  10  11
ENDBRANCH   9  10
ENDBRANCH   8   9
ENDBRANCH   7   8
ENDBRANCH   6   7
ENDBRANCH   5   6
ENDBRANCH   4   5
ENDBRANCH   3   4
ENDBRANCH   2   3
ENDBRANCH   1   2
BRANCH   1  17
ATOM     17  C   UNL     1      13.077  17.324  42.507  1.00  0.00     0.000 C 
BRANCH  17  18
ATOM     18  C   UNL     1      11.612  17.464  42.061  1.00  0.00     0.000 C 
BRANCH  18  19
ATOM     19  C   UNL     1      10.864  16.118  42.038  1.00  0.00     0.000 C 
BRANCH  19  20
ATOM     20  C   UNL     1       9.364  16.215  41.697  1.00  0.00     0.000 C 
BRANCH  20  21
ATOM     21  C   UNL     1       8.469  15.161  42.378  1.00  0.00     0.000 C 
BRANCH  21  22
ATOM     22  C   UNL     1       8.047  13.985  41.475  1.00  0.00    -0.000 C 
BRANCH  22  23
ATOM     23  C   UNL     1       8.714  12.638  41.810  1.00  0.00    -0.000 C 
BRANCH  23  24
ATOM     24  C   UNL     1       7.780  11.439  41.591  1.00  0.00    -0.000 C 
BRANCH  24  25
ATOM     25  C   UNL     1       8.305  10.196  42.326  1.00  0.00    -0.000 C 
BRANCH  25  26
ATOM     26  C   UNL     1       8.704  10.490  43.782  1.00  0.00    -0.000 C 
BRANCH  26  27
ATOM     27  C   UNL     1       8.360   9.371  44.785  1.00  0.00    -0.000 C 
BRANCH  27  28
ATOM     28  C   UNL     1       9.566   8.892  45.620  1.00  0.00    -0.000 C 
BRANCH  28  29
ATOM     29  C   UNL     1      10.688   8.311  44.745  1.00  0.00    -0.003 C 
ATOM     30  C   UNL     1      12.031   8.358  45.468  1.00  0.00     0.004 C 
ENDBRANCH  28  29
ENDBRANCH  27  28
ENDBRANCH  26  27
ENDBRANCH  25  26
ENDBRANCH  24  25
ENDBRANCH  23  24
ENDBRANCH  22  23
ENDBRANCH  21  22
ENDBRANCH  20  21
ENDBRANCH  19  20
ENDBRANCH  18  19
ENDBRANCH  17  18
ENDBRANCH   1  17
TORSDOF 26
ENDMDL
MODEL 3
REMARK VINA RESULT:    -5.835      3.813     10.880
REMARK INTER + INTRA:         -16.065
REMARK INTER:                 -14.021
REMARK INTRA:                  -2.043
REMARK UNBOUND:                -1.361
REMARK SMILES CCCCCCCCCCCCCCCCCCCCCCCCCCCC(=O)[O-]
REMARK SMILES IDX 15 1 16 2 17 3 18 4 19 5 20 6 21 7 22 8 23 9 24 10 25 11
REMARK SMILES IDX 26 12 27 13 28 14 29 15 30 16 14 17 13 18 12 19 11 20 10 21
REMARK SMILES IDX 9 22 8 23 7 24 6 25 5 26 4 27 3 28 2 29 1 30
REMARK H PARENT
REMARK Flexibility Score: inf
ROOT
ATOM      1  C   UNL     1      13.302  17.595  42.846  1.00  0.00     0.000 C 
ENDROOT
BRANCH   1   2
ATOM      2  C   UNL     1      12.002  17.761  42.039  1.00  0.00     0.000 C 
BRANCH   2   3
ATOM      3  C   UNL     1      11.079  16.536  42.150  1.00  0.00     0.000 C 
BRANCH   3   4
ATOM      4  C   UNL     1       9.612  16.873  41.835  1.00  0.00     0.000 C 
BRANCH   4   5
ATOM      5  C   UNL     1       8.632  16.264  42.853  1.00  0.00     0.000 C 
BRANCH   5   6
ATOM      6  C   UNL     1       7.283  15.812  42.260  1.00  0.00     0.000 C 
BRANCH   6   7
ATOM      7  C   UNL     1       6.895  14.347  42.549  1.00  0.00     0.000 C 
BRANCH   7   8
ATOM      8  C   UNL     1       7.328  13.334  41.474  1.00  0.00     0.000 C 
BRANCH   8   9
ATOM      9  C   UNL     1       8.790  12.882  41.630  1.00  0.00     0.000 C 
BRANCH   9  10
ATOM     10  C   UNL     1       9.701  13.467  40.537  1.00  0.00     0.000 C 
BRANCH  10  11
ATOM     11  C   UNL     1       9.358  12.925  39.138  1.00  0.00     0.000 C 
BRANCH  11  12
ATOM     12  C   UNL     1      10.006  11.560  38.857  1.00  0.00     0.006 C 
BRANCH  12  13
ATOM     13  C   UNL     1       8.975  10.453  38.603  1.00  0.00     0.053 C 
BRANCH  13  14
ATOM     14  C   UNL     1       8.985   9.460  39.723  1.00  0.00     0.041 C 
ATOM     15  O   UNL     1       9.742   8.455  39.671  1.00  0.00    -0.550 OA
ATOM     16  O   UNL     1       8.135   9.627  40.808  1.00  0.00    -0.550 OA
ENDBRANCH  13  14
ENDBRANCH  12  13
ENDBRANCH  11  12
ENDBRANCH  10  11
ENDBRANCH   9  10
ENDBRANCH   8   9
ENDBRANCH   7   8
ENDBRANCH   6   7
ENDBRANCH   5   6
ENDBRANCH   4   5
ENDBRANCH   3   4
ENDBRANCH   2   3
ENDBRANCH   1   2
BRANCH   1  17
ATOM     17  C   UNL     1      14.297  18.739  42.599  1.00  0.00     0.000 C 
BRANCH  17  18
ATOM     18  C   UNL     1      15.369  18.380  41.556  1.00  0.00     0.000 C 
BRANCH  18  19
ATOM     19  C   UNL     1      16.166  17.116  41.930  1.00  0.00     0.000 C 
BRANCH  19  20
ATOM     20  C   UNL     1      17.682  17.334  42.104  1.00  0.00     0.000 C 
BRANCH  20  21
ATOM     21  C   UNL     1      18.480  16.080  42.510  1.00  0.00     0.000 C 
BRANCH  21  22
ATOM     22  C   UNL     1      19.964  16.332  42.842  1.00  0.00    -0.000 C 
BRANCH  22  23
ATOM     23  C   UNL     1      20.875  16.550  41.621  1.00  0.00    -0.000 C 
BRANCH  23  24
ATOM     24  C   UNL     1      22.361  16.328  41.937  1.00  0.00    -0.000 C 
BRANCH  24  25
ATOM     25  C   UNL     1      22.770  14.875  41.651  1.00  0.00    -0.000 C 
BRANCH  25  26
ATOM     26  C   UNL     1      22.395  13.916  42.793  1.00  0.00    -0.000 C 
BRANCH  26  27
ATOM     27  C   UNL     1      21.282  12.907  42.452  1.00  0.00    -0.000 C 
BRANCH  27  28
ATOM     28  C   UNL     1      20.586  12.304  43.690  1.00  0.00    -0.000 C 
BRANCH  28  29
ATOM     29  C   UNL     1      20.210  13.374  44.727  1.00  0.00    -0.003 C 
ATOM     30  C   UNL     1      19.387  12.776  45.864  1.00  0.00     0.004 C 
ENDBRANCH  28  29
ENDBRANCH  27  28
ENDBRANCH  26  27
ENDBRANCH  25  26
ENDBRANCH  24  25
ENDBRANCH  23  24
ENDBRANCH  22  23
ENDBRANCH  21  22
ENDBRANCH  20  21
ENDBRANCH  19  20
ENDBRANCH  18  19
ENDBRANCH  17  18
ENDBRANCH   1  17
TORSDOF 26
ENDMDL
MODEL 4
REMARK VINA RESULT:    -5.818      4.000     10.727
REMARK INTER + INTRA:         -16.022
REMARK INTER:                 -14.942
REMARK INTRA:                  -1.081
REMARK UNBOUND:                -1.361
REMARK SMILES CCCCCCCCCCCCCCCCCCCCCCCCCCCC(=O)[O-]
REMARK SMILES IDX 15 1 16 2 17 3 18 4 19 5 20 6 21 7 22 8 23 9 24 10 25 11
REMARK SMILES IDX 26 12 27 13 28 14 29 15 30 16 14 17 13 18 12 19 11 20 10 21
REMARK SMILES IDX 9 22 8 23 7 24 6 25 5 26 4 27 3 28 2 29 1 30
REMARK H PARENT
REMARK Flexibility Score: inf
ROOT
ATOM      1  C   UNL     1      15.977  17.332  41.931  1.00  0.00     0.000 C 
ENDROOT
BRANCH   1   2
ATOM      2  C   UNL     1      15.122  18.556  41.560  1.00  0.00     0.000 C 
BRANCH   2   3
ATOM      3  C   UNL     1      13.827  18.641  42.385  1.00  0.00     0.000 C 
BRANCH   3   4
ATOM      4  C   UNL     1      13.098  17.289  42.476  1.00  0.00     0.000 C 
BRANCH   4   5
ATOM      5  C   UNL     1      11.594  17.405  42.170  1.00  0.00     0.000 C 
BRANCH   5   6
ATOM      6  C   UNL     1      10.839  16.062  42.120  1.00  0.00     0.000 C 
BRANCH   6   7
ATOM      7  C   UNL     1       9.369  16.152  41.659  1.00  0.00     0.000 C 
BRANCH   7   8
ATOM      8  C   UNL     1       8.734  14.813  41.242  1.00  0.00     0.000 C 
BRANCH   8   9
ATOM      9  C   UNL     1       8.318  13.948  42.445  1.00  0.00     0.000 C 
BRANCH   9  10
ATOM     10  C   UNL     1       7.638  12.638  42.013  1.00  0.00     0.000 C 
BRANCH  10  11
ATOM     11  C   UNL     1       8.451  11.396  42.417  1.00  0.00     0.000 C 
BRANCH  11  12
ATOM     12  C   UNL     1       8.136  10.171  41.543  1.00  0.00     0.006 C 
BRANCH  12  13
ATOM     13  C   UNL     1       7.943  10.530  40.064  1.00  0.00     0.053 C 
BRANCH  13  14
ATOM     14  C   UNL     1       9.149  10.141  39.268  1.00  0.00     0.041 C 
ATOM     15  O   UNL     1       9.672   9.006  39.425  1.00  0.00    -0.550 OA
ATOM     16  O   UNL     1       9.717  11.044  38.378  1.00  0.00    -0.550 OA
ENDBRANCH  13  14
ENDBRANCH  12  13
ENDBRANCH  11  12
ENDBRANCH  10  11
ENDBRANCH   9  10
ENDBRANCH   8   9
ENDBRANCH   7   8
ENDBRANCH   6   7
ENDBRANCH   5   6
ENDBRANCH   4   5
ENDBRANCH   3   4
ENDBRANCH   2   3
ENDBRANCH   1   2
BRANCH   1  17
ATOM     17  C   UNL     1      17.422  17.711  42.290  1.00  0.00     0.000 C 
BRANCH  17  18
ATOM     18  C   UNL     1      18.377  16.506  42.268  1.00  0.00     0.000 C 
BRANCH  18  19
ATOM     19  C   UNL     1      19.852  16.910  42.448  1.00  0.00     0.000 C 
BRANCH  19  20
ATOM     20  C   UNL     1      20.840  15.730  42.544  1.00  0.00     0.000 C 
BRANCH  20  21
ATOM     21  C   UNL     1      20.211  14.382  42.948  1.00  0.00     0.000 C 
BRANCH  21  22
ATOM     22  C   UNL     1      21.220  13.280  43.327  1.00  0.00    -0.000 C 
BRANCH  22  23
ATOM     23  C   UNL     1      20.891  11.880  42.777  1.00  0.00    -0.000 C 
BRANCH  23  24
ATOM     24  C   UNL     1      21.664  10.762  43.490  1.00  0.00    -0.000 C 
BRANCH  24  25
ATOM     25  C   UNL     1      21.713   9.494  42.625  1.00  0.00    -0.000 C 
BRANCH  25  26
ATOM     26  C   UNL     1      20.556   9.418  41.614  1.00  0.00    -0.000 C 
BRANCH  26  27
ATOM     27  C   UNL     1      20.976   9.064  40.175  1.00  0.00    -0.000 C 
BRANCH  27  28
ATOM     28  C   UNL     1      19.886   8.322  39.373  1.00  0.00    -0.000 C 
BRANCH  28  29
ATOM     29  C   UNL     1      18.537   9.056  39.404  1.00  0.00    -0.003 C 
ATOM     30  C   UNL     1      17.398   8.104  39.757  1.00  0.00     0.004 C 
ENDBRANCH  28  29
ENDBRANCH  27  28
ENDBRANCH  26  27
ENDBRANCH  25  26
ENDBRANCH  24  25
ENDBRANCH  23  24
ENDBRANCH  22  23
ENDBRANCH  21  22
ENDBRANCH  20  21
ENDBRANCH  19  20
ENDBRANCH  18  19
ENDBRANCH  17  18
ENDBRANCH   1  17
TORSDOF 26
ENDMDL
MODEL 5
REMARK VINA RESULT:    -5.783      3.762     10.540
REMARK INTER + INTRA:         -15.934
REMARK INTER:                 -14.639
REMARK INTRA:                  -1.295
REMARK UNBOUND:                -1.361
REMARK SMILES CCCCCCCCCCCCCCCCCCCCCCCCCCCC(=O)[O-]
REMARK SMILES IDX 15 1 16 2 17 3 18 4 19 5 20 6 21 7 22 8 23 9 24 10 25 11
REMARK SMILES IDX 26 12 27 13 28 14 29 15 30 16 14 17 13 18 12 19 11 20 10 21
REMARK SMILES IDX 9 22 8 23 7 24 6 25 5 26 4 27 3 28 2 29 1 30
REMARK H PARENT
REMARK Flexibility Score: inf
ROOT
ATOM      1  C   UNL     1      16.276  17.225  41.986  1.00  0.00     0.000 C 
ENDROOT
BRANCH   1   2
ATOM      2  C   UNL     1      15.633  18.623  41.967  1.00  0.00     0.000 C 
BRANCH   2   3
ATOM      3  C   UNL     1      14.251  18.645  42.641  1.00  0.00     0.000 C 
BRANCH   3   4
ATOM      4  C   UNL     1      13.444  17.364  42.371  1.00  0.00     0.000 C 
BRANCH   4   5
ATOM      5  C   UNL     1      11.933  17.631  42.248  1.00  0.00     0.000 C 
BRANCH   5   6
ATOM      6  C   UNL     1      11.079  16.382  41.955  1.00  0.00     0.000 C 
BRANCH   6   7
ATOM      7  C   UNL     1       9.553  16.617  41.946  1.00  0.00     0.000 C 
BRANCH   7   8
ATOM      8  C   UNL     1       8.727  15.515  41.258  1.00  0.00     0.000 C 
BRANCH   8   9
ATOM      9  C   UNL     1       8.980  14.119  41.853  1.00  0.00     0.000 C 
BRANCH   9  10
ATOM     10  C   UNL     1       9.083  13.034  40.768  1.00  0.00     0.000 C 
BRANCH  10  11
ATOM     11  C   UNL     1       8.370  11.732  41.173  1.00  0.00     0.000 C 
BRANCH  11  12
ATOM     12  C   UNL     1       8.437  11.464  42.685  1.00  0.00     0.006 C 
BRANCH  12  13
ATOM     13  C   UNL     1       8.018  10.036  43.055  1.00  0.00     0.053 C 
BRANCH  13  14
ATOM     14  C   UNL     1       8.984   9.442  44.032  1.00  0.00     0.041 C 
ATOM     15  O   UNL     1       9.892   8.667  43.632  1.00  0.00    -0.550 OA
ATOM     16  O   UNL     1       8.861   9.718  45.387  1.00  0.00    -0.550 OA
ENDBRANCH  13  14
ENDBRANCH  12  13
ENDBRANCH  11  12
ENDBRANCH  10  11
ENDBRANCH   9  10
ENDBRANCH   8   9
ENDBRANCH   7   8
ENDBRANCH   6   7
ENDBRANCH   5   6
ENDBRANCH   4   5
ENDBRANCH   3   4
ENDBRANCH   2   3
ENDBRANCH   1   2
BRANCH   1  17
ATOM     17  C   UNL     1      17.767  17.267  42.356  1.00  0.00     0.000 C 
BRANCH  17  18
ATOM     18  C   UNL     1      18.410  15.871  42.396  1.00  0.00     0.000 C 
BRANCH  18  19
ATOM     19  C   UNL     1      19.887  15.907  42.831  1.00  0.00     0.000 C 
BRANCH  19  20
ATOM     20  C   UNL     1      20.595  14.538  42.832  1.00  0.00     0.000 C 
BRANCH  20  21
ATOM     21  C   UNL     1      20.370  13.687  44.097  1.00  0.00     0.000 C 
BRANCH  21  22
ATOM     22  C   UNL     1      20.482  12.164  43.885  1.00  0.00    -0.000 C 
BRANCH  22  23
ATOM     23  C   UNL     1      20.937  11.735  42.478  1.00  0.00    -0.000 C 
BRANCH  23  24
ATOM     24  C   UNL     1      22.328  11.085  42.473  1.00  0.00    -0.000 C 
BRANCH  24  25
ATOM     25  C   UNL     1      22.249   9.629  41.992  1.00  0.00    -0.000 C 
BRANCH  25  26
ATOM     26  C   UNL     1      20.802   9.134  41.828  1.00  0.00    -0.000 C 
BRANCH  26  27
ATOM     27  C   UNL     1      20.558   8.244  40.594  1.00  0.00    -0.000 C 
BRANCH  27  28
ATOM     28  C   UNL     1      19.998   9.009  39.376  1.00  0.00    -0.000 C 
BRANCH  28  29
ATOM     29  C   UNL     1      18.531   9.421  39.569  1.00  0.00    -0.003 C 
ATOM     30  C   UNL     1      17.612   8.203  39.568  1.00  0.00     0.004 C 
ENDBRANCH  28  29
ENDBRANCH  27  28
ENDBRANCH  26  27
ENDBRANCH  25  26
ENDBRANCH  24  25
ENDBRANCH  23  24
ENDBRANCH  22  23
ENDBRANCH  21  22
ENDBRANCH  20  21
ENDBRANCH  19  20
ENDBRANCH  18  19
ENDBRANCH  17  18
ENDBRANCH   1  17
TORSDOF 26
ENDMDL
MODEL 6
REMARK VINA RESULT:    -5.748      1.974      2.990
REMARK INTER + INTRA:         -15.846
REMARK INTER:                 -14.399
REMARK INTRA:                  -1.447
REMARK UNBOUND:                -1.361
REMARK SMILES CCCCCCCCCCCCCCCCCCCCCCCCCCCC(=O)[O-]
REMARK SMILES IDX 15 1 16 2 17 3 18 4 19 5 20 6 21 7 22 8 23 9 24 10 25 11
REMARK SMILES IDX 26 12 27 13 28 14 29 15 30 16 14 17 13 18 12 19 11 20 10 21
REMARK SMILES IDX 9 22 8 23 7 24 6 25 5 26 4 27 3 28 2 29 1 30
REMARK H PARENT
REMARK Flexibility Score: inf
ROOT
ATOM      1  C   UNL     1      13.067  17.431  42.491  1.00  0.00     0.000 C 
ENDROOT
BRANCH   1   2
ATOM      2  C   UNL     1      13.910  18.607  41.966  1.00  0.00     0.000 C 
BRANCH   2   3
ATOM      3  C   UNL     1      15.367  18.552  42.456  1.00  0.00     0.000 C 
BRANCH   3   4
ATOM      4  C   UNL     1      16.249  17.647  41.580  1.00  0.00     0.000 C 
BRANCH   4   5
ATOM      5  C   UNL     1      17.264  16.834  42.402  1.00  0.00     0.000 C 
BRANCH   5   6
ATOM      6  C   UNL     1      18.696  17.405  42.409  1.00  0.00     0.000 C 
BRANCH   6   7
ATOM      7  C   UNL     1      19.819  16.360  42.580  1.00  0.00     0.000 C 
BRANCH   7   8
ATOM      8  C   UNL     1      19.362  14.892  42.498  1.00  0.00     0.000 C 
BRANCH   8   9
ATOM      9  C   UNL     1      20.100  13.980  43.493  1.00  0.00     0.000 C 
BRANCH   9  10
ATOM     10  C   UNL     1      21.054  13.000  42.789  1.00  0.00     0.000 C 
BRANCH  10  11
ATOM     11  C   UNL     1      20.517  11.558  42.790  1.00  0.00     0.000 C 
BRANCH  11  12
ATOM     12  C   UNL     1      21.255  10.651  41.793  1.00  0.00     0.006 C 
BRANCH  12  13
ATOM     13  C   UNL     1      20.457   9.391  41.433  1.00  0.00     0.053 C 
BRANCH  13  14
ATOM     14  C   UNL     1      20.066   9.413  39.988  1.00  0.00     0.041 C 
ATOM     15  O   UNL     1      20.815   8.889  39.122  1.00  0.00    -0.550 OA
ATOM     16  O   UNL     1      18.892  10.040  39.595  1.00  0.00    -0.550 OA
ENDBRANCH  13  14
ENDBRANCH  12  13
ENDBRANCH  11  12
ENDBRANCH  10  11
ENDBRANCH   9  10
ENDBRANCH   8   9
ENDBRANCH   7   8
ENDBRANCH   6   7
ENDBRANCH   5   6
ENDBRANCH   4   5
ENDBRANCH   3   4
ENDBRANCH   2   3
ENDBRANCH   1   2
BRANCH   1  17
ATOM     17  C   UNL     1      11.565  17.622  42.232  1.00  0.00     0.000 C 
BRANCH  17  18
ATOM     18  C   UNL     1      10.834  16.296  41.962  1.00  0.00     0.000 C 
BRANCH  18  19
ATOM     19  C   UNL     1       9.303  16.456  41.927  1.00  0.00     0.000 C 
BRANCH  19  20
ATOM     20  C   UNL     1       8.522  15.155  41.649  1.00  0.00     0.000 C 
BRANCH  20  21
ATOM     21  C   UNL     1       9.159  14.222  40.601  1.00  0.00     0.000 C 
BRANCH  21  22
ATOM     22  C   UNL     1       8.899  12.719  40.824  1.00  0.00    -0.000 C 
BRANCH  22  23
ATOM     23  C   UNL     1       8.600  12.321  42.280  1.00  0.00    -0.000 C 
BRANCH  23  24
ATOM     24  C   UNL     1       7.854  10.983  42.392  1.00  0.00    -0.000 C 
BRANCH  24  25
ATOM     25  C   UNL     1       8.562   9.893  41.574  1.00  0.00    -0.000 C 
BRANCH  25  26
ATOM     26  C   UNL     1       8.122   8.473  41.970  1.00  0.00    -0.000 C 
BRANCH  26  27
ATOM     27  C   UNL     1       8.352   8.113  43.451  1.00  0.00    -0.000 C 
BRANCH  27  28
ATOM     28  C   UNL     1       9.829   8.191  43.888  1.00  0.00    -0.000 C 
BRANCH  28  29
ATOM     29  C   UNL     1       9.988   8.743  45.313  1.00  0.00    -0.003 C 
ATOM     30  C   UNL     1      10.457  10.195  45.294  1.00  0.00     0.004 C 
ENDBRANCH  28  29
ENDBRANCH  27  28
ENDBRANCH  26  27
ENDBRANCH  25  26
ENDBRANCH  24  25
ENDBRANCH  23  24
ENDBRANCH  22  23
ENDBRANCH  21  22
ENDBRANCH  20  21
ENDBRANCH  19  20
ENDBRANCH  18  19
ENDBRANCH  17  18
ENDBRANCH   1  17
TORSDOF 26
ENDMDL
MODEL 7
REMARK VINA RESULT:    -5.704      1.462      3.036
REMARK INTER + INTRA:         -15.733
REMARK INTER:                 -13.858
REMARK INTRA:                  -1.876
REMARK UNBOUND:                -1.361
REMARK SMILES CCCCCCCCCCCCCCCCCCCCCCCCCCCC(=O)[O-]
REMARK SMILES IDX 15 1 16 2 17 3 18 4 19 5 20 6 21 7 22 8 23 9 24 10 25 11
REMARK SMILES IDX 26 12 27 13 28 14 29 15 30 16 14 17 13 18 12 19 11 20 10 21
REMARK SMILES IDX 9 22 8 23 7 24 6 25 5 26 4 27 3 28 2 29 1 30
REMARK H PARENT
REMARK Flexibility Score: inf
ROOT
ATOM      1  C   UNL     1      11.197  16.491  41.987  1.00  0.00     0.000 C 
ENDROOT
BRANCH   1   2
ATOM      2  C   UNL     1      12.097  17.713  42.245  1.00  0.00     0.000 C 
BRANCH   2   3
ATOM      3  C   UNL     1      13.508  17.317  42.710  1.00  0.00     0.000 C 
BRANCH   3   4
ATOM      4  C   UNL     1      14.572  18.352  42.310  1.00  0.00     0.000 C 
BRANCH   4   5
ATOM      5  C   UNL     1      15.770  17.720  41.580  1.00  0.00     0.000 C 
BRANCH   5   6
ATOM      6  C   UNL     1      17.118  17.853  42.314  1.00  0.00     0.000 C 
BRANCH   6   7
ATOM      7  C   UNL     1      17.979  16.572  42.347  1.00  0.00     0.000 C 
BRANCH   7   8
ATOM      8  C   UNL     1      19.500  16.807  42.314  1.00  0.00     0.000 C 
BRANCH   8   9
ATOM      9  C   UNL     1      20.284  15.767  43.133  1.00  0.00     0.000 C 
BRANCH   9  10
ATOM     10  C   UNL     1      19.625  14.378  43.094  1.00  0.00     0.000 C 
BRANCH  10  11
ATOM     11  C   UNL     1      19.878  13.574  44.381  1.00  0.00     0.000 C 
BRANCH  11  12
ATOM     12  C   UNL     1      20.592  12.239  44.115  1.00  0.00     0.006 C 
BRANCH  12  13
ATOM     13  C   UNL     1      20.829  11.979  42.622  1.00  0.00     0.053 C 
BRANCH  13  14
ATOM     14  C   UNL     1      20.786  10.511  42.332  1.00  0.00     0.041 C 
ATOM     15  O   UNL     1      21.175   9.683  43.197  1.00  0.00    -0.550 OA
ATOM     16  O   UNL     1      20.349  10.059  41.093  1.00  0.00    -0.550 OA
ENDBRANCH  13  14
ENDBRANCH  12  13
ENDBRANCH  11  12
ENDBRANCH  10  11
ENDBRANCH   9  10
ENDBRANCH   8   9
ENDBRANCH   7   8
ENDBRANCH   6   7
ENDBRANCH   5   6
ENDBRANCH   4   5
ENDBRANCH   3   4
ENDBRANCH   2   3
ENDBRANCH   1   2
BRANCH   1  17
ATOM     17  C   UNL     1       9.705  16.856  41.955  1.00  0.00     0.000 C 
BRANCH  17  18
ATOM     18  C   UNL     1       8.834  15.747  41.341  1.00  0.00     0.000 C 
BRANCH  18  19
ATOM     19  C   UNL     1       9.555  14.388  41.278  1.00  0.00     0.000 C 
BRANCH  19  20
ATOM     20  C   UNL     1       9.042  13.336  42.282  1.00  0.00     0.000 C 
BRANCH  20  21
ATOM     21  C   UNL     1       7.639  12.775  41.980  1.00  0.00     0.000 C 
BRANCH  21  22
ATOM     22  C   UNL     1       7.414  11.314  42.419  1.00  0.00    -0.000 C 
BRANCH  22  23
ATOM     23  C   UNL     1       8.663  10.600  42.967  1.00  0.00    -0.000 C 
BRANCH  23  24
ATOM     24  C   UNL     1       8.667   9.093  42.672  1.00  0.00    -0.000 C 
BRANCH  24  25
ATOM     25  C   UNL     1       7.364   8.669  41.978  1.00  0.00    -0.000 C 
BRANCH  25  26
ATOM     26  C   UNL     1       7.555   8.379  40.479  1.00  0.00    -0.000 C 
BRANCH  26  27
ATOM     27  C   UNL     1       8.868   8.918  39.878  1.00  0.00    -0.000 C 
BRANCH  27  28
ATOM     28  C   UNL     1       8.716  10.284  39.177  1.00  0.00    -0.000 C 
BRANCH  28  29
ATOM     29  C   UNL     1      10.055  10.822  38.650  1.00  0.00    -0.003 C 
ATOM     30  C   UNL     1       9.975  12.318  38.362  1.00  0.00     0.004 C 
ENDBRANCH  28  29
ENDBRANCH  27  28
ENDBRANCH  26  27
ENDBRANCH  25  26
ENDBRANCH  24  25
ENDBRANCH  23  24
ENDBRANCH  22  23
ENDBRANCH  21  22
ENDBRANCH  20  21
ENDBRANCH  19  20
ENDBRANCH  18  19
ENDBRANCH  17  18
ENDBRANCH   1  17
TORSDOF 26
ENDMDL
MODEL 8
REMARK VINA RESULT:    -5.695      1.987      4.027
REMARK INTER + INTRA:         -15.711
REMARK INTER:                 -13.252
REMARK INTRA:                  -2.458
REMARK UNBOUND:                -1.361
REMARK SMILES CCCCCCCCCCCCCCCCCCCCCCCCCCCC(=O)[O-]
REMARK SMILES IDX 15 1 16 2 17 3 18 4 19 5 20 6 21 7 22 8 23 9 24 10 25 11
REMARK SMILES IDX 26 12 27 13 28 14 29 15 30 16 14 17 13 18 12 19 11 20 10 21
REMARK SMILES IDX 9 22 8 23 7 24 6 25 5 26 4 27 3 28 2 29 1 30
REMARK H PARENT
REMARK Flexibility Score: inf
ROOT
ATOM      1  C   UNL     1       6.101  15.516  42.049  1.00  0.00     0.000 C 
ENDROOT
BRANCH   1   2
ATOM      2  C   UNL     1       6.845  15.789  43.368  1.00  0.00     0.000 C 
BRANCH   2   3
ATOM      3  C   UNL     1       8.166  16.546  43.153  1.00  0.00     0.000 C 
BRANCH   3   4
ATOM      4  C   UNL     1       8.877  16.134  41.853  1.00  0.00     0.000 C 
BRANCH   4   5
ATOM      5  C   UNL     1      10.403  16.027  42.020  1.00  0.00     0.000 C 
BRANCH   5   6
ATOM      6  C   UNL     1      11.144  17.377  42.070  1.00  0.00     0.000 C 
BRANCH   6   7
ATOM      7  C   UNL     1      12.641  17.292  42.434  1.00  0.00     0.000 C 
BRANCH   7   8
ATOM      8  C   UNL     1      13.458  18.562  42.135  1.00  0.00     0.000 C 
BRANCH   8   9
ATOM      9  C   UNL     1      14.829  18.570  42.834  1.00  0.00     0.000 C 
BRANCH   9  10
ATOM     10  C   UNL     1      15.988  18.365  41.844  1.00  0.00     0.000 C 
BRANCH  10  11
ATOM     11  C   UNL     1      16.788  17.084  42.136  1.00  0.00     0.000 C 
BRANCH  11  12
ATOM     12  C   UNL     1      18.303  17.336  42.213  1.00  0.00     0.006 C 
BRANCH  12  13
ATOM     13  C   UNL     1      19.101  16.066  42.533  1.00  0.00     0.053 C 
BRANCH  13  14
ATOM     14  C   UNL     1      20.551  16.265  42.219  1.00  0.00     0.041 C 
ATOM     15  O   UNL     1      21.383  16.437  43.149  1.00  0.00    -0.550 OA
ATOM     16  O   UNL     1      20.979  16.293  40.898  1.00  0.00    -0.550 OA
ENDBRANCH  13  14
ENDBRANCH  12  13
ENDBRANCH  11  12
ENDBRANCH  10  11
ENDBRANCH   9  10
ENDBRANCH   8   9
ENDBRANCH   7   8
ENDBRANCH   6   7
ENDBRANCH   5   6
ENDBRANCH   4   5
ENDBRANCH   3   4
ENDBRANCH   2   3
ENDBRANCH   1   2
BRANCH   1  17
ATOM     17  C   UNL     1       5.529  14.091  41.981  1.00  0.00     0.000 C 
BRANCH  17  18
ATOM     18  C   UNL     1       6.492  13.093  41.317  1.00  0.00     0.000 C 
BRANCH  18  19
ATOM     19  C   UNL     1       7.597  12.606  42.272  1.00  0.00     0.000 C 
BRANCH  19  20
ATOM     20  C   UNL     1       9.008  12.543  41.653  1.00  0.00     0.000 C 
BRANCH  20  21
ATOM     21  C   UNL     1       9.104  13.036  40.196  1.00  0.00     0.000 C 
BRANCH  21  22
ATOM     22  C   UNL     1       9.537  11.965  39.174  1.00  0.00    -0.000 C 
BRANCH  22  23
ATOM     23  C   UNL     1       9.393  10.510  39.657  1.00  0.00    -0.000 C 
BRANCH  23  24
ATOM     24  C   UNL     1       8.270   9.751  38.936  1.00  0.00    -0.000 C 
BRANCH  24  25
ATOM     25  C   UNL     1       7.555   8.791  39.898  1.00  0.00    -0.000 C 
BRANCH  25  26
ATOM     26  C   UNL     1       7.853   9.097  41.375  1.00  0.00    -0.000 C 
BRANCH  26  27
ATOM     27  C   UNL     1       8.707   8.036  42.096  1.00  0.00    -0.000 C 
BRANCH  27  28
ATOM     28  C   UNL     1       8.723   8.189  43.632  1.00  0.00    -0.000 C 
BRANCH  28  29
ATOM     29  C   UNL     1      10.138   8.424  44.181  1.00  0.00    -0.003 C 
ATOM     30  C   UNL     1      10.126   9.438  45.321  1.00  0.00     0.004 C 
ENDBRANCH  28  29
ENDBRANCH  27  28
ENDBRANCH  26  27
ENDBRANCH  25  26
ENDBRANCH  24  25
ENDBRANCH  23  24
ENDBRANCH  22  23
ENDBRANCH  21  22
ENDBRANCH  20  21
ENDBRANCH  19  20
ENDBRANCH  18  19
ENDBRANCH  17  18
ENDBRANCH   1  17
TORSDOF 26
ENDMDL
MODEL 9
REMARK VINA RESULT:    -5.682      3.182     10.367
REMARK INTER + INTRA:         -15.679
REMARK INTER:                 -14.531
REMARK INTRA:                  -1.148
REMARK UNBOUND:                -1.361
REMARK SMILES CCCCCCCCCCCCCCCCCCCCCCCCCCCC(=O)[O-]
REMARK SMILES IDX 15 1 16 2 17 3 18 4 19 5 20 6 21 7 22 8 23 9 24 10 25 11
REMARK SMILES IDX 26 12 27 13 28 14 29 15 30 16 14 17 13 18 12 19 11 20 10 21
REMARK SMILES IDX 9 22 8 23 7 24 6 25 5 26 4 27 3 28 2 29 1 30
REMARK H PARENT
REMARK Flexibility Score: inf
ROOT
ATOM      1  C   UNL     1      13.071  17.514  42.415  1.00  0.00     0.000 C 
ENDROOT
BRANCH   1   2
ATOM      2  C   UNL     1      11.590  17.634  42.017  1.00  0.00     0.000 C 
BRANCH   2   3
ATOM      3  C   UNL     1      10.865  16.278  42.028  1.00  0.00     0.000 C 
BRANCH   3   4
ATOM      4  C   UNL     1       9.366  16.408  41.709  1.00  0.00     0.000 C 
BRANCH   4   5
ATOM      5  C   UNL     1       8.473  15.777  42.791  1.00  0.00     0.000 C 
BRANCH   5   6
ATOM      6  C   UNL     1       7.830  14.434  42.396  1.00  0.00     0.000 C 
BRANCH   6   7
ATOM      7  C   UNL     1       8.430  13.761  41.143  1.00  0.00     0.000 C 
BRANCH   7   8
ATOM      8  C   UNL     1       8.478  12.224  41.187  1.00  0.00     0.000 C 
BRANCH   8   9
ATOM      9  C   UNL     1       8.612  11.670  42.617  1.00  0.00     0.000 C 
BRANCH   9  10
ATOM     10  C   UNL     1       8.286  10.169  42.693  1.00  0.00     0.000 C 
BRANCH  10  11
ATOM     11  C   UNL     1       7.548   9.796  43.991  1.00  0.00     0.000 C 
BRANCH  11  12
ATOM     12  C   UNL     1       8.308   8.752  44.825  1.00  0.00     0.006 C 
BRANCH  12  13
ATOM     13  C   UNL     1       9.713   8.464  44.280  1.00  0.00     0.053 C 
BRANCH  13  14
ATOM     14  C   UNL     1      10.756   9.021  45.198  1.00  0.00     0.041 C 
ATOM     15  O   UNL     1      10.817  10.261  45.408  1.00  0.00    -0.550 OA
ATOM     16  O   UNL     1      11.681   8.175  45.795  1.00  0.00    -0.550 OA
ENDBRANCH  13  14
ENDBRANCH  12  13
ENDBRANCH  11  12
ENDBRANCH  10  11
ENDBRANCH   9  10
ENDBRANCH   8   9
ENDBRANCH   7   8
ENDBRANCH   6   7
ENDBRANCH   5   6
ENDBRANCH   4   5
ENDBRANCH   3   4
ENDBRANCH   2   3
ENDBRANCH   1   2
BRANCH   1  17
ATOM     17  C   UNL     1      13.893  18.745  42.004  1.00  0.00     0.000 C 
BRANCH  17  18
ATOM     18  C   UNL     1      15.379  18.623  42.384  1.00  0.00     0.000 C 
BRANCH  18  19
ATOM     19  C   UNL     1      16.041  17.361  41.803  1.00  0.00     0.000 C 
BRANCH  19  20
ATOM     20  C   UNL     1      17.568  17.281  42.002  1.00  0.00     0.000 C 
BRANCH  20  21
ATOM     21  C   UNL     1      18.064  16.038  42.766  1.00  0.00     0.000 C 
BRANCH  21  22
ATOM     22  C   UNL     1      19.458  15.530  42.348  1.00  0.00    -0.000 C 
BRANCH  22  23
ATOM     23  C   UNL     1      20.035  14.411  43.235  1.00  0.00    -0.000 C 
BRANCH  23  24
ATOM     24  C   UNL     1      20.842  13.375  42.439  1.00  0.00    -0.000 C 
BRANCH  24  25
ATOM     25  C   UNL     1      20.634  11.965  43.009  1.00  0.00    -0.000 C 
BRANCH  25  26
ATOM     26  C   UNL     1      21.254  10.868  42.127  1.00  0.00    -0.000 C 
BRANCH  26  27
ATOM     27  C   UNL     1      20.243  10.068  41.283  1.00  0.00    -0.000 C 
BRANCH  27  28
ATOM     28  C   UNL     1      20.807   9.585  39.930  1.00  0.00    -0.000 C 
BRANCH  28  29
ATOM     29  C   UNL     1      19.890   8.557  39.249  1.00  0.00    -0.003 C 
ATOM     30  C   UNL     1      18.434   8.761  39.655  1.00  0.00     0.004 C 
ENDBRANCH  28  29
ENDBRANCH  27  28
ENDBRANCH  26  27
ENDBRANCH  25  26
ENDBRANCH  24  25
ENDBRANCH  23  24
ENDBRANCH  22  23
ENDBRANCH  21  22
ENDBRANCH  20  21
ENDBRANCH  19  20
ENDBRANCH  18  19
ENDBRANCH  17  18
ENDBRANCH   1  17
TORSDOF 26
ENDMDL
