MODEL 1
REMARK VINA RESULT:    -7.153      0.000      0.000
REMARK INTER + INTRA:         -12.150
REMARK INTER:                 -10.498
REMARK INTRA:                  -1.652
REMARK UNBOUND:                -1.652
REMARK SMILES O=c1c(O[C@@H]2O[C@@H](CO)[C@H](O)[C@H](O)[C@@H]2O)c(-c2ccc(O)c(O)c2)oc2cc(O)cc(O)c12
REMARK SMILES IDX 4 1 3 2 16 3 25 4 2 5 26 6 1 7 33 8 27 9 31 10 28 11 30 12
REMARK SMILES IDX 17 13 18 14 19 15 20 16 24 17 22 18 21 19 23 21 32 23 29 25
REMARK SMILES IDX 5 27 14 28 6 29 12 30 7 31 10 32 15 33 13 35 8 37 9 38 11 40
REMARK H PARENT 21 20 23 22 32 24 29 26 15 34 13 36 9 39 11 41
REMARK Flexibility Score: inf
ROOT
ATOM      1  O   UNL     1      -9.965  -8.451  39.492  1.00  0.00    -0.454 OA
ENDROOT
BRANCH   1   2
ATOM      2  C   UNL     1     -11.228  -7.825  39.550  1.00  0.00     0.214 A 
ATOM      3  C   UNL     1     -11.663  -7.330  40.794  1.00  0.00     0.180 A 
ATOM      4  O   UNL     1     -12.816  -6.682  40.893  1.00  0.00    -0.452 OA
ATOM      5  C   UNL     1     -12.072  -7.644  38.429  1.00  0.00     0.239 A 
ATOM      6  C   UNL     1     -13.620  -6.462  39.864  1.00  0.00     0.146 A 
ATOM      7  O   UNL     1     -11.771  -8.172  37.330  1.00  0.00    -0.285 OA
ATOM      8  C   UNL     1     -13.274  -6.904  38.562  1.00  0.00     0.111 A 
ATOM      9  C   UNL     1     -14.828  -5.797  40.092  1.00  0.00     0.094 A 
ATOM     10  C   UNL     1     -14.164  -6.606  37.485  1.00  0.00     0.134 A 
ATOM     11  C   UNL     1     -15.717  -5.567  39.046  1.00  0.00     0.123 A 
ATOM     12  C   UNL     1     -15.385  -5.976  37.752  1.00  0.00     0.093 A 
BRANCH   3  13
ATOM     13  C   UNL     1     -10.861  -7.506  42.023  1.00  0.00     0.025 A 
ATOM     14  C   UNL     1      -9.994  -6.498  42.470  1.00  0.00     0.016 A 
ATOM     15  C   UNL     1      -9.228  -6.687  43.623  1.00  0.00     0.051 A 
ATOM     16  C   UNL     1      -9.307  -7.893  44.334  1.00  0.00     0.157 A 
ATOM     17  C   UNL     1     -10.921  -8.721  42.722  1.00  0.00     0.062 A 
ATOM     18  C   UNL     1     -10.156  -8.915  43.878  1.00  0.00     0.158 A 
BRANCH  16  19
ATOM     19  O   UNL     1      -8.545  -8.077  45.486  1.00  0.00    -0.504 OA
ATOM     20  H   UNL     1      -7.532  -8.096  45.455  1.00  0.00     0.293 HD
ENDBRANCH  16  19
BRANCH  18  21
ATOM     21  O   UNL     1     -10.250 -10.130  44.557  1.00  0.00    -0.504 OA
ATOM     22  H   UNL     1     -11.139 -10.506  44.864  1.00  0.00     0.293 HD
ENDBRANCH  18  21
ENDBRANCH   3  13
BRANCH  10  23
ATOM     23  O   UNL     1     -13.884  -6.877  36.143  1.00  0.00    -0.507 OA
ATOM     24  H   UNL     1     -14.257  -7.659  35.625  1.00  0.00     0.293 HD
ENDBRANCH  10  23
BRANCH  11  25
ATOM     25  O   UNL     1     -16.927  -4.923  39.300  1.00  0.00    -0.508 OA
ATOM     26  H   UNL     1     -17.205  -4.671  40.241  1.00  0.00     0.293 HD
ENDBRANCH  11  25
ENDBRANCH   1   2
BRANCH   1  27
ATOM     27  C   UNL     1      -8.714  -7.848  39.135  1.00  0.00     0.339 C 
ATOM     28  C   UNL     1      -7.532  -8.628  39.742  1.00  0.00     0.214 C 
ATOM     29  O   UNL     1      -8.578  -7.729  37.728  1.00  0.00    -0.332 OA
ATOM     30  C   UNL     1      -7.357  -9.998  39.062  1.00  0.00     0.180 C 
ATOM     31  C   UNL     1      -8.587  -8.997  37.093  1.00  0.00     0.179 C 
ATOM     32  C   UNL     1      -7.361  -9.829  37.530  1.00  0.00     0.177 C 
BRANCH  28  33
ATOM     33  O   UNL     1      -7.728  -8.783  41.123  1.00  0.00    -0.384 OA
ATOM     34  H   UNL     1      -7.872  -7.874  41.496  1.00  0.00     0.211 HD
ENDBRANCH  28  33
BRANCH  30  35
ATOM     35  O   UNL     1      -8.389 -10.863  39.467  1.00  0.00    -0.387 OA
ATOM     36  H   UNL     1      -8.628 -10.616  40.398  1.00  0.00     0.211 HD
ENDBRANCH  30  35
BRANCH  31  37
ATOM     37  C   UNL     1      -8.582  -8.776  35.573  1.00  0.00     0.191 C 
BRANCH  37  38
ATOM     38  O   UNL     1      -9.873  -8.469  35.120  1.00  0.00    -0.394 OA
ATOM     39  H   UNL     1     -10.021  -9.005  34.297  1.00  0.00     0.210 HD
ENDBRANCH  37  38
ENDBRANCH  31  37
BRANCH  32  40
ATOM     40  O   UNL     1      -7.383 -11.086  36.904  1.00  0.00    -0.387 OA
ATOM     41  H   UNL     1      -8.080 -11.622  37.365  1.00  0.00     0.211 HD
ENDBRANCH  32  40
ENDBRANCH   1  27
TORSDOF 12
ENDMDL
MODEL 2
REMARK VINA RESULT:    -7.105      1.241      2.559
REMARK INTER + INTRA:         -12.079
REMARK INTER:                 -10.118
REMARK INTRA:                  -1.961
REMARK UNBOUND:                -1.652
REMARK SMILES O=c1c(O[C@@H]2O[C@@H](CO)[C@H](O)[C@H](O)[C@@H]2O)c(-c2ccc(O)c(O)c2)oc2cc(O)cc(O)c12
REMARK SMILES IDX 4 1 3 2 16 3 25 4 2 5 26 6 1 7 33 8 27 9 31 10 28 11 30 12
REMARK SMILES IDX 17 13 18 14 19 15 20 16 24 17 22 18 21 19 23 21 32 23 29 25
REMARK SMILES IDX 5 27 14 28 6 29 12 30 7 31 10 32 15 33 13 35 8 37 9 38 11 40
REMARK H PARENT 21 20 23 22 32 24 29 26 15 34 13 36 9 39 11 41
REMARK Flexibility Score: inf
ROOT
ATOM      1  O   UNL     1      -9.895  -8.707  39.448  1.00  0.00    -0.454 OA
ENDROOT
BRANCH   1   2
ATOM      2  C   UNL     1     -11.124  -8.015  39.515  1.00  0.00     0.214 A 
ATOM      3  C   UNL     1     -11.527  -7.505  40.763  1.00  0.00     0.180 A 
ATOM      4  O   UNL     1     -12.645  -6.798  40.869  1.00  0.00    -0.452 OA
ATOM      5  C   UNL     1     -11.961  -7.784  38.397  1.00  0.00     0.239 A 
ATOM      6  C   UNL     1     -13.440  -6.531  39.844  1.00  0.00     0.146 A 
ATOM      7  O   UNL     1     -11.691  -8.321  37.294  1.00  0.00    -0.285 OA
ATOM      8  C   UNL     1     -13.122  -6.983  38.539  1.00  0.00     0.111 A 
ATOM      9  C   UNL     1     -14.610  -5.805  40.080  1.00  0.00     0.094 A 
ATOM     10  C   UNL     1     -13.999  -6.633  37.467  1.00  0.00     0.134 A 
ATOM     11  C   UNL     1     -15.490  -5.523  39.039  1.00  0.00     0.123 A 
ATOM     12  C   UNL     1     -15.185  -5.941  37.741  1.00  0.00     0.093 A 
BRANCH   3  13
ATOM     13  C   UNL     1     -10.732  -7.730  41.987  1.00  0.00     0.025 A 
ATOM     14  C   UNL     1      -9.673  -6.875  42.327  1.00  0.00     0.016 A 
ATOM     15  C   UNL     1      -8.917  -7.112  43.479  1.00  0.00     0.051 A 
ATOM     16  C   UNL     1      -9.201  -8.215  44.295  1.00  0.00     0.157 A 
ATOM     17  C   UNL     1     -10.999  -8.847  42.793  1.00  0.00     0.062 A 
ATOM     18  C   UNL     1     -10.245  -9.089  43.947  1.00  0.00     0.158 A 
BRANCH  16  19
ATOM     19  O   UNL     1      -8.448  -8.447  45.445  1.00  0.00    -0.504 OA
ATOM     20  H   UNL     1      -7.602  -9.004  45.422  1.00  0.00     0.293 HD
ENDBRANCH  16  19
BRANCH  18  21
ATOM     21  O   UNL     1     -10.547 -10.200  44.733  1.00  0.00    -0.504 OA
ATOM     22  H   UNL     1     -10.334 -11.145  44.433  1.00  0.00     0.293 HD
ENDBRANCH  18  21
ENDBRANCH   3  13
BRANCH  10  23
ATOM     23  O   UNL     1     -13.738  -6.911  36.123  1.00  0.00    -0.507 OA
ATOM     24  H   UNL     1     -14.020  -7.754  35.645  1.00  0.00     0.293 HD
ENDBRANCH  10  23
BRANCH  11  25
ATOM     25  O   UNL     1     -16.663  -4.817  39.301  1.00  0.00    -0.508 OA
ATOM     26  H   UNL     1     -17.046  -4.159  38.633  1.00  0.00     0.293 HD
ENDBRANCH  11  25
ENDBRANCH   1   2
BRANCH   1  27
ATOM     27  C   UNL     1      -9.702 -10.111  39.232  1.00  0.00     0.339 C 
ATOM     28  C   UNL     1      -8.705 -10.360  38.085  1.00  0.00     0.214 C 
ATOM     29  O   UNL     1      -9.286 -10.766  40.420  1.00  0.00    -0.332 OA
ATOM     30  C   UNL     1      -7.274  -9.965  38.490  1.00  0.00     0.180 C 
ATOM     31  C   UNL     1      -8.038 -10.273  40.880  1.00  0.00     0.179 C 
ATOM     32  C   UNL     1      -6.924 -10.586  39.857  1.00  0.00     0.177 C 
BRANCH  28  33
ATOM     33  O   UNL     1      -9.110  -9.649  36.944  1.00  0.00    -0.384 OA
ATOM     34  H   UNL     1      -9.943 -10.081  36.618  1.00  0.00     0.211 HD
ENDBRANCH  28  33
BRANCH  30  35
ATOM     35  O   UNL     1      -7.164  -8.564  38.541  1.00  0.00    -0.387 OA
ATOM     36  H   UNL     1      -6.661  -8.282  37.732  1.00  0.00     0.211 HD
ENDBRANCH  30  35
BRANCH  31  37
ATOM     37  C   UNL     1      -7.732 -10.926  42.236  1.00  0.00     0.191 C 
BRANCH  37  38
ATOM     38  O   UNL     1      -8.782 -11.775  42.617  1.00  0.00    -0.394 OA
ATOM     39  H   UNL     1      -8.953 -12.378  41.848  1.00  0.00     0.210 HD
ENDBRANCH  37  38
ENDBRANCH  31  37
BRANCH  32  40
ATOM     40  O   UNL     1      -5.694 -10.087  40.315  1.00  0.00    -0.387 OA
ATOM     41  H   UNL     1      -5.132  -9.929  39.511  1.00  0.00     0.211 HD
ENDBRANCH  32  40
ENDBRANCH   1  27
TORSDOF 12
ENDMDL
MODEL 3
REMARK VINA RESULT:    -6.878      5.292      7.715
REMARK INTER + INTRA:         -11.747
REMARK INTER:                  -9.682
REMARK INTRA:                  -2.064
REMARK UNBOUND:                -1.652
REMARK SMILES O=c1c(O[C@@H]2O[C@@H](CO)[C@H](O)[C@H](O)[C@@H]2O)c(-c2ccc(O)c(O)c2)oc2cc(O)cc(O)c12
REMARK SMILES IDX 4 1 3 2 16 3 25 4 2 5 26 6 1 7 33 8 27 9 31 10 28 11 30 12
REMARK SMILES IDX 17 13 18 14 19 15 20 16 24 17 22 18 21 19 23 21 32 23 29 25
REMARK SMILES IDX 5 27 14 28 6 29 12 30 7 31 10 32 15 33 13 35 8 37 9 38 11 40
REMARK H PARENT 21 20 23 22 32 24 29 26 15 34 13 36 9 39 11 41
REMARK Flexibility Score: inf
ROOT
ATOM      1  O   UNL     1     -13.513  -6.376  44.957  1.00  0.00    -0.454 OA
ENDROOT
BRANCH   1   2
ATOM      2  C   UNL     1     -14.323  -6.399  43.802  1.00  0.00     0.214 A 
ATOM      3  C   UNL     1     -15.545  -7.096  43.866  1.00  0.00     0.180 A 
ATOM      4  O   UNL     1     -16.369  -7.100  42.827  1.00  0.00    -0.452 OA
ATOM      5  C   UNL     1     -13.991  -5.744  42.592  1.00  0.00     0.239 A 
ATOM      6  C   UNL     1     -16.113  -6.474  41.688  1.00  0.00     0.146 A 
ATOM      7  O   UNL     1     -12.861  -5.212  42.460  1.00  0.00    -0.285 OA
ATOM      8  C   UNL     1     -14.918  -5.729  41.520  1.00  0.00     0.111 A 
ATOM      9  C   UNL     1     -17.041  -6.576  40.649  1.00  0.00     0.094 A 
ATOM     10  C   UNL     1     -14.714  -5.046  40.283  1.00  0.00     0.134 A 
ATOM     11  C   UNL     1     -16.802  -5.957  39.425  1.00  0.00     0.123 A 
ATOM     12  C   UNL     1     -15.641  -5.201  39.245  1.00  0.00     0.093 A 
BRANCH   3  13
ATOM     13  C   UNL     1     -15.953  -7.836  45.077  1.00  0.00     0.025 A 
ATOM     14  C   UNL     1     -16.667  -7.202  46.105  1.00  0.00     0.016 A 
ATOM     15  C   UNL     1     -17.030  -7.911  47.253  1.00  0.00     0.051 A 
ATOM     16  C   UNL     1     -16.670  -9.258  47.395  1.00  0.00     0.157 A 
ATOM     17  C   UNL     1     -15.573  -9.178  45.231  1.00  0.00     0.062 A 
ATOM     18  C   UNL     1     -15.934  -9.892  46.380  1.00  0.00     0.158 A 
BRANCH  16  19
ATOM     19  O   UNL     1     -17.036  -9.963  48.540  1.00  0.00    -0.504 OA
ATOM     20  H   UNL     1     -16.432 -10.009  49.351  1.00  0.00     0.293 HD
ENDBRANCH  16  19
BRANCH  18  21
ATOM     21  O   UNL     1     -15.552 -11.229  46.494  1.00  0.00    -0.504 OA
ATOM     22  H   UNL     1     -16.197 -11.990  46.317  1.00  0.00     0.293 HD
ENDBRANCH  18  21
ENDBRANCH   3  13
BRANCH  10  23
ATOM     23  O   UNL     1     -13.642  -4.184  40.035  1.00  0.00    -0.507 OA
ATOM     24  H   UNL     1     -12.914  -3.967  40.700  1.00  0.00     0.293 HD
ENDBRANCH  10  23
BRANCH  11  25
ATOM     25  O   UNL     1     -17.730  -6.091  38.393  1.00  0.00    -0.508 OA
ATOM     26  H   UNL     1     -18.093  -5.285  37.899  1.00  0.00     0.293 HD
ENDBRANCH  11  25
ENDBRANCH   1   2
BRANCH   1  27
ATOM     27  C   UNL     1     -12.265  -7.054  45.153  1.00  0.00     0.339 C 
ATOM     28  C   UNL     1     -11.163  -6.066  45.583  1.00  0.00     0.214 C 
ATOM     29  O   UNL     1     -12.391  -8.114  46.088  1.00  0.00    -0.332 OA
ATOM     30  C   UNL     1     -11.400  -5.548  47.013  1.00  0.00     0.180 C 
ATOM     31  C   UNL     1     -12.776  -7.639  47.368  1.00  0.00     0.179 C 
ATOM     32  C   UNL     1     -11.675  -6.732  47.961  1.00  0.00     0.177 C 
BRANCH  28  33
ATOM     33  O   UNL     1     -11.106  -4.998  44.673  1.00  0.00    -0.384 OA
ATOM     34  H   UNL     1     -11.001  -4.170  45.211  1.00  0.00     0.211 HD
ENDBRANCH  28  33
BRANCH  30  35
ATOM     35  O   UNL     1     -12.480  -4.648  47.018  1.00  0.00    -0.387 OA
ATOM     36  H   UNL     1     -12.836  -4.626  47.945  1.00  0.00     0.211 HD
ENDBRANCH  30  35
BRANCH  31  37
ATOM     37  C   UNL     1     -13.030  -8.852  48.276  1.00  0.00     0.191 C 
BRANCH  37  38
ATOM     38  O   UNL     1     -13.894  -8.505  49.325  1.00  0.00    -0.394 OA
ATOM     39  H   UNL     1     -14.065  -9.336  49.840  1.00  0.00     0.210 HD
ENDBRANCH  37  38
ENDBRANCH  31  37
BRANCH  32  40
ATOM     40  O   UNL     1     -12.068  -6.260  49.224  1.00  0.00    -0.387 OA
ATOM     41  H   UNL     1     -11.720  -5.332  49.303  1.00  0.00     0.211 HD
ENDBRANCH  32  40
ENDBRANCH   1  27
TORSDOF 12
ENDMDL
MODEL 4
REMARK VINA RESULT:    -6.857      6.244      9.488
REMARK INTER + INTRA:         -11.716
REMARK INTER:                 -10.003
REMARK INTRA:                  -1.713
REMARK UNBOUND:                -1.652
REMARK SMILES O=c1c(O[C@@H]2O[C@@H](CO)[C@H](O)[C@H](O)[C@@H]2O)c(-c2ccc(O)c(O)c2)oc2cc(O)cc(O)c12
REMARK SMILES IDX 4 1 3 2 16 3 25 4 2 5 26 6 1 7 33 8 27 9 31 10 28 11 30 12
REMARK SMILES IDX 17 13 18 14 19 15 20 16 24 17 22 18 21 19 23 21 32 23 29 25
REMARK SMILES IDX 5 27 14 28 6 29 12 30 7 31 10 32 15 33 13 35 8 37 9 38 11 40
REMARK H PARENT 21 20 23 22 32 24 29 26 15 34 13 36 9 39 11 41
REMARK Flexibility Score: inf
ROOT
ATOM      1  O   UNL     1     -13.553  -8.102  46.527  1.00  0.00    -0.454 OA
ENDROOT
BRANCH   1   2
ATOM      2  C   UNL     1     -12.630  -7.051  46.336  1.00  0.00     0.214 A 
ATOM      3  C   UNL     1     -12.904  -6.108  45.328  1.00  0.00     0.180 A 
ATOM      4  O   UNL     1     -12.100  -5.070  45.145  1.00  0.00    -0.452 OA
ATOM      5  C   UNL     1     -11.460  -6.876  47.113  1.00  0.00     0.239 A 
ATOM      6  C   UNL     1     -11.013  -4.850  45.870  1.00  0.00     0.146 A 
ATOM      7  O   UNL     1     -11.125  -7.758  47.942  1.00  0.00    -0.285 OA
ATOM      8  C   UNL     1     -10.651  -5.729  46.922  1.00  0.00     0.111 A 
ATOM      9  C   UNL     1     -10.221  -3.740  45.565  1.00  0.00     0.094 A 
ATOM     10  C   UNL     1      -9.489  -5.421  47.693  1.00  0.00     0.134 A 
ATOM     11  C   UNL     1      -9.056  -3.484  46.283  1.00  0.00     0.123 A 
ATOM     12  C   UNL     1      -8.693  -4.326  47.337  1.00  0.00     0.093 A 
BRANCH   3  13
ATOM     13  C   UNL     1     -14.083  -6.233  44.447  1.00  0.00     0.025 A 
ATOM     14  C   UNL     1     -13.945  -6.223  43.050  1.00  0.00     0.016 A 
ATOM     15  C   UNL     1     -15.072  -6.323  42.230  1.00  0.00     0.051 A 
ATOM     16  C   UNL     1     -16.351  -6.417  42.795  1.00  0.00     0.157 A 
ATOM     17  C   UNL     1     -15.366  -6.303  45.010  1.00  0.00     0.062 A 
ATOM     18  C   UNL     1     -16.498  -6.403  44.192  1.00  0.00     0.158 A 
BRANCH  16  19
ATOM     19  O   UNL     1     -17.473  -6.521  41.974  1.00  0.00    -0.504 OA
ATOM     20  H   UNL     1     -17.730  -5.781  41.331  1.00  0.00     0.293 HD
ENDBRANCH  16  19
BRANCH  18  21
ATOM     21  O   UNL     1     -17.757  -6.486  44.786  1.00  0.00    -0.504 OA
ATOM     22  H   UNL     1     -18.288  -5.661  45.039  1.00  0.00     0.293 HD
ENDBRANCH  18  21
ENDBRANCH   3  13
BRANCH  10  23
ATOM     23  O   UNL     1      -9.094  -6.134  48.828  1.00  0.00    -0.507 OA
ATOM     24  H   UNL     1      -9.493  -6.018  49.748  1.00  0.00     0.293 HD
ENDBRANCH  10  23
BRANCH  11  25
ATOM     25  O   UNL     1      -8.269  -2.384  45.947  1.00  0.00    -0.508 OA
ATOM     26  H   UNL     1      -8.186  -1.584  46.562  1.00  0.00     0.293 HD
ENDBRANCH  11  25
ENDBRANCH   1   2
BRANCH   1  27
ATOM     27  C   UNL     1     -13.414  -9.464  46.101  1.00  0.00     0.339 C 
ATOM     28  C   UNL     1     -13.472 -10.426  47.303  1.00  0.00     0.214 C 
ATOM     29  O   UNL     1     -14.390  -9.805  45.128  1.00  0.00    -0.332 OA
ATOM     30  C   UNL     1     -14.887 -10.489  47.904  1.00  0.00     0.180 C 
ATOM     31  C   UNL     1     -15.706  -9.696  45.647  1.00  0.00     0.179 C 
ATOM     32  C   UNL     1     -15.923 -10.718  46.785  1.00  0.00     0.177 C 
BRANCH  28  33
ATOM     33  O   UNL     1     -12.540 -10.025  48.274  1.00  0.00    -0.384 OA
ATOM     34  H   UNL     1     -11.641 -10.257  47.921  1.00  0.00     0.211 HD
ENDBRANCH  28  33
BRANCH  30  35
ATOM     35  O   UNL     1     -15.162  -9.297  48.596  1.00  0.00    -0.387 OA
ATOM     36  H   UNL     1     -15.320  -8.593  47.914  1.00  0.00     0.211 HD
ENDBRANCH  30  35
BRANCH  31  37
ATOM     37  C   UNL     1     -16.697  -9.940  44.499  1.00  0.00     0.191 C 
BRANCH  37  38
ATOM     38  O   UNL     1     -17.979  -9.497  44.859  1.00  0.00    -0.394 OA
ATOM     39  H   UNL     1     -18.167  -9.870  45.759  1.00  0.00     0.210 HD
ENDBRANCH  37  38
ENDBRANCH  31  37
BRANCH  32  40
ATOM     40  O   UNL     1     -17.225 -10.597  47.298  1.00  0.00    -0.387 OA
ATOM     41  H   UNL     1     -17.329 -11.308  47.984  1.00  0.00     0.211 HD
ENDBRANCH  32  40
ENDBRANCH   1  27
TORSDOF 12
ENDMDL
MODEL 5
REMARK VINA RESULT:    -6.828      4.980      9.807
REMARK INTER + INTRA:         -11.673
REMARK INTER:                  -9.749
REMARK INTRA:                  -1.923
REMARK UNBOUND:                -1.652
REMARK SMILES O=c1c(O[C@@H]2O[C@@H](CO)[C@H](O)[C@H](O)[C@@H]2O)c(-c2ccc(O)c(O)c2)oc2cc(O)cc(O)c12
REMARK SMILES IDX 4 1 3 2 16 3 25 4 2 5 26 6 1 7 33 8 27 9 31 10 28 11 30 12
REMARK SMILES IDX 17 13 18 14 19 15 20 16 24 17 22 18 21 19 23 21 32 23 29 25
REMARK SMILES IDX 5 27 14 28 6 29 12 30 7 31 10 32 15 33 13 35 8 37 9 38 11 40
REMARK H PARENT 21 20 23 22 32 24 29 26 15 34 13 36 9 39 11 41
REMARK Flexibility Score: inf
ROOT
ATOM      1  O   UNL     1     -12.129  -7.735  47.095  1.00  0.00    -0.454 OA
ENDROOT
BRANCH   1   2
ATOM      2  C   UNL     1     -11.423  -8.398  46.068  1.00  0.00     0.214 A 
ATOM      3  C   UNL     1     -12.148  -9.249  45.212  1.00  0.00     0.180 A 
ATOM      4  O   UNL     1     -11.544  -9.851  44.197  1.00  0.00    -0.452 OA
ATOM      5  C   UNL     1     -10.037  -8.239  45.833  1.00  0.00     0.239 A 
ATOM      6  C   UNL     1     -10.257  -9.705  43.922  1.00  0.00     0.146 A 
ATOM      7  O   UNL     1      -9.338  -7.580  46.643  1.00  0.00    -0.285 OA
ATOM      8  C   UNL     1      -9.436  -8.859  44.709  1.00  0.00     0.111 A 
ATOM      9  C   UNL     1      -9.721 -10.416  42.845  1.00  0.00     0.094 A 
ATOM     10  C   UNL     1      -8.063  -8.713  44.342  1.00  0.00     0.134 A 
ATOM     11  C   UNL     1      -8.367 -10.315  42.534  1.00  0.00     0.123 A 
ATOM     12  C   UNL     1      -7.545  -9.471  43.285  1.00  0.00     0.093 A 
BRANCH   3  13
ATOM     13  C   UNL     1     -13.591  -9.499  45.406  1.00  0.00     0.025 A 
ATOM     14  C   UNL     1     -14.039 -10.624  46.116  1.00  0.00     0.016 A 
ATOM     15  C   UNL     1     -15.407 -10.858  46.275  1.00  0.00     0.051 A 
ATOM     16  C   UNL     1     -16.344  -9.981  45.713  1.00  0.00     0.157 A 
ATOM     17  C   UNL     1     -14.530  -8.636  44.823  1.00  0.00     0.062 A 
ATOM     18  C   UNL     1     -15.902  -8.866  44.980  1.00  0.00     0.158 A 
BRANCH  16  19
ATOM     19  O   UNL     1     -17.709 -10.215  45.876  1.00  0.00    -0.504 OA
ATOM     20  H   UNL     1     -18.345  -9.475  46.147  1.00  0.00     0.293 HD
ENDBRANCH  16  19
BRANCH  18  21
ATOM     21  O   UNL     1     -16.808  -7.980  44.399  1.00  0.00    -0.504 OA
ATOM     22  H   UNL     1     -17.801  -8.179  44.351  1.00  0.00     0.293 HD
ENDBRANCH  18  21
ENDBRANCH   3  13
BRANCH  10  23
ATOM     23  O   UNL     1      -7.181  -7.822  44.959  1.00  0.00    -0.507 OA
ATOM     24  H   UNL     1      -7.439  -6.915  45.320  1.00  0.00     0.293 HD
ENDBRANCH  10  23
BRANCH  11  25
ATOM     25  O   UNL     1      -7.849 -11.051  41.470  1.00  0.00    -0.508 OA
ATOM     26  H   UNL     1      -7.900 -12.063  41.452  1.00  0.00     0.293 HD
ENDBRANCH  11  25
ENDBRANCH   1   2
BRANCH   1  27
ATOM     27  C   UNL     1     -12.227  -8.126  48.470  1.00  0.00     0.339 C 
ATOM     28  C   UNL     1     -11.777  -6.985  49.402  1.00  0.00     0.214 C 
ATOM     29  O   UNL     1     -13.539  -8.560  48.793  1.00  0.00    -0.332 OA
ATOM     30  C   UNL     1     -12.787  -5.823  49.395  1.00  0.00     0.180 C 
ATOM     31  C   UNL     1     -14.491  -7.523  48.620  1.00  0.00     0.179 C 
ATOM     32  C   UNL     1     -14.214  -6.366  49.606  1.00  0.00     0.177 C 
BRANCH  28  33
ATOM     33  O   UNL     1     -10.504  -6.536  49.017  1.00  0.00    -0.384 OA
ATOM     34  H   UNL     1     -10.253  -5.811  49.648  1.00  0.00     0.211 HD
ENDBRANCH  28  33
BRANCH  30  35
ATOM     35  O   UNL     1     -12.699  -5.126  48.177  1.00  0.00    -0.387 OA
ATOM     36  H   UNL     1     -11.761  -4.810  48.089  1.00  0.00     0.211 HD
ENDBRANCH  30  35
BRANCH  31  37
ATOM     37  C   UNL     1     -15.891  -8.111  48.849  1.00  0.00     0.191 C 
BRANCH  37  38
ATOM     38  O   UNL     1     -15.798  -9.371  49.459  1.00  0.00    -0.394 OA
ATOM     39  H   UNL     1     -16.510  -9.406  50.150  1.00  0.00     0.210 HD
ENDBRANCH  37  38
ENDBRANCH  31  37
BRANCH  32  40
ATOM     40  O   UNL     1     -15.155  -5.340  49.422  1.00  0.00    -0.387 OA
ATOM     41  H   UNL     1     -15.779  -5.649  48.713  1.00  0.00     0.211 HD
ENDBRANCH  32  40
ENDBRANCH   1  27
TORSDOF 12
ENDMDL
MODEL 6
REMARK VINA RESULT:    -6.827      1.978      3.896
REMARK INTER + INTRA:         -11.672
REMARK INTER:                  -9.622
REMARK INTRA:                  -2.050
REMARK UNBOUND:                -1.652
REMARK SMILES O=c1c(O[C@@H]2O[C@@H](CO)[C@H](O)[C@H](O)[C@@H]2O)c(-c2ccc(O)c(O)c2)oc2cc(O)cc(O)c12
REMARK SMILES IDX 4 1 3 2 16 3 25 4 2 5 26 6 1 7 33 8 27 9 31 10 28 11 30 12
REMARK SMILES IDX 17 13 18 14 19 15 20 16 24 17 22 18 21 19 23 21 32 23 29 25
REMARK SMILES IDX 5 27 14 28 6 29 12 30 7 31 10 32 15 33 13 35 8 37 9 38 11 40
REMARK H PARENT 21 20 23 22 32 24 29 26 15 34 13 36 9 39 11 41
REMARK Flexibility Score: inf
ROOT
ATOM      1  O   UNL     1      -8.920  -9.473  40.767  1.00  0.00    -0.454 OA
ENDROOT
BRANCH   1   2
ATOM      2  C   UNL     1     -10.065  -8.801  40.289  1.00  0.00     0.214 A 
ATOM      3  C   UNL     1     -10.800  -8.018  41.200  1.00  0.00     0.180 A 
ATOM      4  O   UNL     1     -11.850  -7.321  40.790  1.00  0.00    -0.452 OA
ATOM      5  C   UNL     1     -10.504  -8.848  38.945  1.00  0.00     0.239 A 
ATOM      6  C   UNL     1     -12.276  -7.311  39.535  1.00  0.00     0.146 A 
ATOM      7  O   UNL     1      -9.943  -9.624  38.132  1.00  0.00    -0.285 OA
ATOM      8  C   UNL     1     -11.601  -8.051  38.532  1.00  0.00     0.111 A 
ATOM      9  C   UNL     1     -13.416  -6.565  39.224  1.00  0.00     0.094 A 
ATOM     10  C   UNL     1     -12.085  -7.972  37.190  1.00  0.00     0.134 A 
ATOM     11  C   UNL     1     -13.915  -6.545  37.925  1.00  0.00     0.123 A 
ATOM     12  C   UNL     1     -13.253  -7.251  36.917  1.00  0.00     0.093 A 
BRANCH   3  13
ATOM     13  C   UNL     1     -10.433  -7.941  42.628  1.00  0.00     0.025 A 
ATOM     14  C   UNL     1     -11.073  -8.747  43.583  1.00  0.00     0.016 A 
ATOM     15  C   UNL     1     -10.728  -8.649  44.933  1.00  0.00     0.051 A 
ATOM     16  C   UNL     1      -9.753  -7.732  45.349  1.00  0.00     0.157 A 
ATOM     17  C   UNL     1      -9.475  -7.006  43.050  1.00  0.00     0.062 A 
ATOM     18  C   UNL     1      -9.127  -6.904  44.402  1.00  0.00     0.158 A 
BRANCH  16  19
ATOM     19  O   UNL     1      -9.410  -7.638  46.697  1.00  0.00    -0.504 OA
ATOM     20  H   UNL     1      -9.272  -8.464  47.268  1.00  0.00     0.293 HD
ENDBRANCH  16  19
BRANCH  18  21
ATOM     21  O   UNL     1      -8.160  -5.975  44.784  1.00  0.00    -0.504 OA
ATOM     22  H   UNL     1      -7.950  -5.787  45.757  1.00  0.00     0.293 HD
ENDBRANCH  18  21
ENDBRANCH   3  13
BRANCH  10  23
ATOM     23  O   UNL     1     -11.442  -8.553  36.094  1.00  0.00    -0.507 OA
ATOM     24  H   UNL     1     -10.601  -8.196  35.665  1.00  0.00     0.293 HD
ENDBRANCH  10  23
BRANCH  11  25
ATOM     25  O   UNL     1     -15.067  -5.813  37.641  1.00  0.00    -0.508 OA
ATOM     26  H   UNL     1     -15.045  -4.805  37.550  1.00  0.00     0.293 HD
ENDBRANCH  11  25
ENDBRANCH   1   2
BRANCH   1  27
ATOM     27  C   UNL     1      -8.828 -10.843  41.180  1.00  0.00     0.339 C 
ATOM     28  C   UNL     1      -7.721 -11.580  40.404  1.00  0.00     0.214 C 
ATOM     29  O   UNL     1      -8.628 -10.950  42.581  1.00  0.00    -0.332 OA
ATOM     30  C   UNL     1      -6.322 -11.093  40.825  1.00  0.00     0.180 C 
ATOM     31  C   UNL     1      -7.409 -10.346  42.982  1.00  0.00     0.179 C 
ATOM     32  C   UNL     1      -6.206 -11.092  42.362  1.00  0.00     0.177 C 
BRANCH  28  33
ATOM     33  O   UNL     1      -7.912 -11.402  39.025  1.00  0.00    -0.384 OA
ATOM     34  H   UNL     1      -8.751 -11.877  38.788  1.00  0.00     0.211 HD
ENDBRANCH  28  33
BRANCH  30  35
ATOM     35  O   UNL     1      -6.094  -9.804  40.311  1.00  0.00    -0.387 OA
ATOM     36  H   UNL     1      -6.896  -9.556  39.780  1.00  0.00     0.211 HD
ENDBRANCH  30  35
BRANCH  31  37
ATOM     37  C   UNL     1      -7.338 -10.378  44.516  1.00  0.00     0.191 C 
BRANCH  37  38
ATOM     38  O   UNL     1      -6.610 -11.497  44.948  1.00  0.00    -0.394 OA
ATOM     39  H   UNL     1      -7.274 -12.183  45.215  1.00  0.00     0.210 HD
ENDBRANCH  37  38
ENDBRANCH  31  37
BRANCH  32  40
ATOM     40  O   UNL     1      -5.005 -10.482  42.758  1.00  0.00    -0.387 OA
ATOM     41  H   UNL     1      -4.368 -11.216  42.968  1.00  0.00     0.211 HD
ENDBRANCH  32  40
ENDBRANCH   1  27
TORSDOF 12
ENDMDL
MODEL 7
REMARK VINA RESULT:    -6.813      4.930      8.919
REMARK INTER + INTRA:         -11.650
REMARK INTER:                 -10.047
REMARK INTRA:                  -1.603
REMARK UNBOUND:                -1.652
REMARK SMILES O=c1c(O[C@@H]2O[C@@H](CO)[C@H](O)[C@H](O)[C@@H]2O)c(-c2ccc(O)c(O)c2)oc2cc(O)cc(O)c12
REMARK SMILES IDX 4 1 3 2 16 3 25 4 2 5 26 6 1 7 33 8 27 9 31 10 28 11 30 12
REMARK SMILES IDX 17 13 18 14 19 15 20 16 24 17 22 18 21 19 23 21 32 23 29 25
REMARK SMILES IDX 5 27 14 28 6 29 12 30 7 31 10 32 15 33 13 35 8 37 9 38 11 40
REMARK H PARENT 21 20 23 22 32 24 29 26 15 34 13 36 9 39 11 41
REMARK Flexibility Score: inf
ROOT
ATOM      1  O   UNL     1     -10.985  -7.842  46.754  1.00  0.00    -0.454 OA
ENDROOT
BRANCH   1   2
ATOM      2  C   UNL     1     -10.546  -8.556  45.618  1.00  0.00     0.214 A 
ATOM      3  C   UNL     1     -11.410  -9.524  45.073  1.00  0.00     0.180 A 
ATOM      4  O   UNL     1     -11.070 -10.182  43.974  1.00  0.00    -0.452 OA
ATOM      5  C   UNL     1      -9.301  -8.338  44.982  1.00  0.00     0.239 A 
ATOM      6  C   UNL     1      -9.930  -9.987  43.328  1.00  0.00     0.146 A 
ATOM      7  O   UNL     1      -8.460  -7.566  45.505  1.00  0.00    -0.285 OA
ATOM      8  C   UNL     1      -8.994  -9.024  43.780  1.00  0.00     0.111 A 
ATOM      9  C   UNL     1      -9.664 -10.763  42.197  1.00  0.00     0.094 A 
ATOM     10  C   UNL     1      -7.798  -8.832  43.023  1.00  0.00     0.134 A 
ATOM     11  C   UNL     1      -8.467 -10.611  41.501  1.00  0.00     0.123 A 
ATOM     12  C   UNL     1      -7.540  -9.654  41.919  1.00  0.00     0.093 A 
BRANCH   3  13
ATOM     13  C   UNL     1     -12.712  -9.840  45.694  1.00  0.00     0.025 A 
ATOM     14  C   UNL     1     -13.902  -9.286  45.199  1.00  0.00     0.016 A 
ATOM     15  C   UNL     1     -15.125  -9.579  45.809  1.00  0.00     0.051 A 
ATOM     16  C   UNL     1     -15.171 -10.417  46.932  1.00  0.00     0.157 A 
ATOM     17  C   UNL     1     -12.758 -10.660  46.833  1.00  0.00     0.062 A 
ATOM     18  C   UNL     1     -13.981 -10.956  47.448  1.00  0.00     0.158 A 
BRANCH  16  19
ATOM     19  O   UNL     1     -16.392 -10.710  47.536  1.00  0.00    -0.504 OA
ATOM     20  H   UNL     1     -17.269 -10.380  47.149  1.00  0.00     0.293 HD
ENDBRANCH  16  19
BRANCH  18  21
ATOM     21  O   UNL     1     -13.991 -11.785  48.569  1.00  0.00    -0.504 OA
ATOM     22  H   UNL     1     -13.849 -12.786  48.499  1.00  0.00     0.293 HD
ENDBRANCH  18  21
ENDBRANCH   3  13
BRANCH  10  23
ATOM     23  O   UNL     1      -6.856  -7.836  43.291  1.00  0.00    -0.507 OA
ATOM     24  H   UNL     1      -7.080  -6.887  43.551  1.00  0.00     0.293 HD
ENDBRANCH  10  23
BRANCH  11  25
ATOM     25  O   UNL     1      -8.212 -11.412  40.389  1.00  0.00    -0.508 OA
ATOM     26  H   UNL     1      -8.197 -11.028  39.452  1.00  0.00     0.293 HD
ENDBRANCH  11  25
ENDBRANCH   1   2
BRANCH   1  27
ATOM     27  C   UNL     1     -11.700  -6.600  46.774  1.00  0.00     0.339 C 
ATOM     28  C   UNL     1     -12.469  -6.426  48.097  1.00  0.00     0.214 C 
ATOM     29  O   UNL     1     -10.835  -5.499  46.539  1.00  0.00    -0.332 OA
ATOM     30  C   UNL     1     -11.509  -6.187  49.277  1.00  0.00     0.180 C 
ATOM     31  C   UNL     1      -9.845  -5.388  47.549  1.00  0.00     0.179 C 
ATOM     32  C   UNL     1     -10.498  -5.081  48.915  1.00  0.00     0.177 C 
BRANCH  28  33
ATOM     33  O   UNL     1     -13.267  -7.558  48.332  1.00  0.00    -0.384 OA
ATOM     34  H   UNL     1     -12.850  -8.050  49.087  1.00  0.00     0.211 HD
ENDBRANCH  28  33
BRANCH  30  35
ATOM     35  O   UNL     1     -10.841  -7.382  49.595  1.00  0.00    -0.387 OA
ATOM     36  H   UNL     1     -10.696  -7.871  48.743  1.00  0.00     0.211 HD
ENDBRANCH  30  35
BRANCH  31  37
ATOM     37  C   UNL     1      -8.870  -4.271  47.147  1.00  0.00     0.191 C 
BRANCH  37  38
ATOM     38  O   UNL     1      -7.632  -4.453  47.780  1.00  0.00    -0.394 OA
ATOM     39  H   UNL     1      -7.799  -4.396  48.756  1.00  0.00     0.210 HD
ENDBRANCH  37  38
ENDBRANCH  31  37
BRANCH  32  40
ATOM     40  O   UNL     1      -9.511  -4.981  49.909  1.00  0.00    -0.387 OA
ATOM     41  H   UNL     1      -9.609  -5.782  50.489  1.00  0.00     0.211 HD
ENDBRANCH  32  40
ENDBRANCH   1  27
TORSDOF 12
ENDMDL
MODEL 8
REMARK VINA RESULT:    -6.769      5.327      8.558
REMARK INTER + INTRA:         -11.586
REMARK INTER:                  -9.861
REMARK INTRA:                  -1.725
REMARK UNBOUND:                -1.652
REMARK SMILES O=c1c(O[C@@H]2O[C@@H](CO)[C@H](O)[C@H](O)[C@@H]2O)c(-c2ccc(O)c(O)c2)oc2cc(O)cc(O)c12
REMARK SMILES IDX 4 1 3 2 16 3 25 4 2 5 26 6 1 7 33 8 27 9 31 10 28 11 30 12
REMARK SMILES IDX 17 13 18 14 19 15 20 16 24 17 22 18 21 19 23 21 32 23 29 25
REMARK SMILES IDX 5 27 14 28 6 29 12 30 7 31 10 32 15 33 13 35 8 37 9 38 11 40
REMARK H PARENT 21 20 23 22 32 24 29 26 15 34 13 36 9 39 11 41
REMARK Flexibility Score: inf
ROOT
ATOM      1  O   UNL     1     -15.584  -8.104  45.715  1.00  0.00    -0.454 OA
ENDROOT
BRANCH   1   2
ATOM      2  C   UNL     1     -15.361  -7.408  44.507  1.00  0.00     0.214 A 
ATOM      3  C   UNL     1     -14.092  -6.836  44.300  1.00  0.00     0.180 A 
ATOM      4  O   UNL     1     -13.813  -6.220  43.159  1.00  0.00    -0.452 OA
ATOM      5  C   UNL     1     -16.330  -7.272  43.484  1.00  0.00     0.239 A 
ATOM      6  C   UNL     1     -14.678  -6.099  42.163  1.00  0.00     0.146 A 
ATOM      7  O   UNL     1     -17.505  -7.669  43.682  1.00  0.00    -0.285 OA
ATOM      8  C   UNL     1     -15.980  -6.652  42.259  1.00  0.00     0.111 A 
ATOM      9  C   UNL     1     -14.284  -5.400  41.019  1.00  0.00     0.094 A 
ATOM     10  C   UNL     1     -16.857  -6.520  41.139  1.00  0.00     0.134 A 
ATOM     11  C   UNL     1     -15.168  -5.225  39.958  1.00  0.00     0.123 A 
ATOM     12  C   UNL     1     -16.448  -5.779  40.024  1.00  0.00     0.093 A 
BRANCH   3  13
ATOM     13  C   UNL     1     -13.034  -6.899  45.328  1.00  0.00     0.025 A 
ATOM     14  C   UNL     1     -12.016  -7.862  45.259  1.00  0.00     0.016 A 
ATOM     15  C   UNL     1     -11.033  -7.922  46.250  1.00  0.00     0.051 A 
ATOM     16  C   UNL     1     -11.065  -7.031  47.332  1.00  0.00     0.157 A 
ATOM     17  C   UNL     1     -13.078  -6.024  46.424  1.00  0.00     0.062 A 
ATOM     18  C   UNL     1     -12.096  -6.080  47.420  1.00  0.00     0.158 A 
BRANCH  16  19
ATOM     19  O   UNL     1     -10.081  -7.091  48.317  1.00  0.00    -0.504 OA
ATOM     20  H   UNL     1     -10.277  -6.839  49.278  1.00  0.00     0.293 HD
ENDBRANCH  16  19
BRANCH  18  21
ATOM     21  O   UNL     1     -12.161  -5.186  48.488  1.00  0.00    -0.504 OA
ATOM     22  H   UNL     1     -11.329  -4.802  48.921  1.00  0.00     0.293 HD
ENDBRANCH  18  21
ENDBRANCH   3  13
BRANCH  10  23
ATOM     23  O   UNL     1     -18.116  -7.121  41.060  1.00  0.00    -0.507 OA
ATOM     24  H   UNL     1     -18.740  -7.044  40.270  1.00  0.00     0.293 HD
ENDBRANCH  10  23
BRANCH  11  25
ATOM     25  O   UNL     1     -14.762  -4.504  38.836  1.00  0.00    -0.508 OA
ATOM     26  H   UNL     1     -13.975  -4.801  38.272  1.00  0.00     0.293 HD
ENDBRANCH  11  25
ENDBRANCH   1   2
BRANCH   1  27
ATOM     27  C   UNL     1     -16.675  -7.928  46.628  1.00  0.00     0.339 C 
ATOM     28  C   UNL     1     -17.398  -9.263  46.888  1.00  0.00     0.214 C 
ATOM     29  O   UNL     1     -16.244  -7.336  47.844  1.00  0.00    -0.332 OA
ATOM     30  C   UNL     1     -16.524 -10.221  47.717  1.00  0.00     0.180 C 
ATOM     31  C   UNL     1     -15.306  -8.157  48.520  1.00  0.00     0.179 C 
ATOM     32  C   UNL     1     -15.964  -9.487  48.951  1.00  0.00     0.177 C 
BRANCH  28  33
ATOM     33  O   UNL     1     -17.755  -9.852  45.664  1.00  0.00    -0.384 OA
ATOM     34  H   UNL     1     -18.124  -9.128  45.094  1.00  0.00     0.211 HD
ENDBRANCH  28  33
BRANCH  30  35
ATOM     35  O   UNL     1     -15.478 -10.719  46.920  1.00  0.00    -0.387 OA
ATOM     36  H   UNL     1     -14.679 -10.160  47.106  1.00  0.00     0.211 HD
ENDBRANCH  30  35
BRANCH  31  37
ATOM     37  C   UNL     1     -14.785  -7.386  49.743  1.00  0.00     0.191 C 
BRANCH  37  38
ATOM     38  O   UNL     1     -14.930  -6.005  49.547  1.00  0.00    -0.394 OA
ATOM     39  H   UNL     1     -14.030  -5.605  49.666  1.00  0.00     0.210 HD
ENDBRANCH  37  38
ENDBRANCH  31  37
BRANCH  32  40
ATOM     40  O   UNL     1     -15.026 -10.297  49.612  1.00  0.00    -0.387 OA
ATOM     41  H   UNL     1     -14.128 -10.000  49.308  1.00  0.00     0.211 HD
ENDBRANCH  32  40
ENDBRANCH   1  27
TORSDOF 12
ENDMDL
MODEL 9
REMARK VINA RESULT:    -6.715      6.425      8.881
REMARK INTER + INTRA:         -11.506
REMARK INTER:                  -9.406
REMARK INTRA:                  -2.100
REMARK UNBOUND:                -1.652
REMARK SMILES O=c1c(O[C@@H]2O[C@@H](CO)[C@H](O)[C@H](O)[C@@H]2O)c(-c2ccc(O)c(O)c2)oc2cc(O)cc(O)c12
REMARK SMILES IDX 4 1 3 2 16 3 25 4 2 5 26 6 1 7 33 8 27 9 31 10 28 11 30 12
REMARK SMILES IDX 17 13 18 14 19 15 20 16 24 17 22 18 21 19 23 21 32 23 29 25
REMARK SMILES IDX 5 27 14 28 6 29 12 30 7 31 10 32 15 33 13 35 8 37 9 38 11 40
REMARK H PARENT 21 20 23 22 32 24 29 26 15 34 13 36 9 39 11 41
REMARK Flexibility Score: inf
ROOT
ATOM      1  O   UNL     1     -13.124  -6.088  45.935  1.00  0.00    -0.454 OA
ENDROOT
BRANCH   1   2
ATOM      2  C   UNL     1     -13.763  -4.917  46.395  1.00  0.00     0.214 A 
ATOM      3  C   UNL     1     -14.977  -5.059  47.093  1.00  0.00     0.180 A 
ATOM      4  O   UNL     1     -15.589  -3.996  47.597  1.00  0.00    -0.452 OA
ATOM      5  C   UNL     1     -13.244  -3.613  46.219  1.00  0.00     0.239 A 
ATOM      6  C   UNL     1     -15.123  -2.762  47.483  1.00  0.00     0.146 A 
ATOM      7  O   UNL     1     -12.226  -3.438  45.504  1.00  0.00    -0.285 OA
ATOM      8  C   UNL     1     -13.899  -2.506  46.813  1.00  0.00     0.111 A 
ATOM      9  C   UNL     1     -15.870  -1.714  48.025  1.00  0.00     0.094 A 
ATOM     10  C   UNL     1     -13.428  -1.159  46.754  1.00  0.00     0.134 A 
ATOM     11  C   UNL     1     -15.433  -0.398  47.907  1.00  0.00     0.123 A 
ATOM     12  C   UNL     1     -14.220  -0.125  47.269  1.00  0.00     0.093 A 
BRANCH   3  13
ATOM     13  C   UNL     1     -15.608  -6.380  47.292  1.00  0.00     0.025 A 
ATOM     14  C   UNL     1     -15.219  -7.214  48.352  1.00  0.00     0.016 A 
ATOM     15  C   UNL     1     -15.812  -8.468  48.516  1.00  0.00     0.051 A 
ATOM     16  C   UNL     1     -16.788  -8.912  47.614  1.00  0.00     0.157 A 
ATOM     17  C   UNL     1     -16.568  -6.836  46.376  1.00  0.00     0.062 A 
ATOM     18  C   UNL     1     -17.164  -8.093  46.536  1.00  0.00     0.158 A 
BRANCH  16  19
ATOM     19  O   UNL     1     -17.380 -10.163  47.782  1.00  0.00    -0.504 OA
ATOM     20  H   UNL     1     -18.338 -10.339  47.503  1.00  0.00     0.293 HD
ENDBRANCH  16  19
BRANCH  18  21
ATOM     21  O   UNL     1     -18.125  -8.509  45.615  1.00  0.00    -0.504 OA
ATOM     22  H   UNL     1     -19.117  -8.463  45.815  1.00  0.00     0.293 HD
ENDBRANCH  18  21
ENDBRANCH   3  13
BRANCH  10  23
ATOM     23  O   UNL     1     -12.186  -0.789  46.232  1.00  0.00    -0.507 OA
ATOM     24  H   UNL     1     -12.052  -0.130  45.479  1.00  0.00     0.293 HD
ENDBRANCH  10  23
BRANCH  11  25
ATOM     25  O   UNL     1     -16.206   0.635  48.435  1.00  0.00    -0.508 OA
ATOM     26  H   UNL     1     -16.104   0.935  49.397  1.00  0.00     0.293 HD
ENDBRANCH  11  25
ENDBRANCH   1   2
BRANCH   1  27
ATOM     27  C   UNL     1     -13.118  -6.602  44.596  1.00  0.00     0.339 C 
ATOM     28  C   UNL     1     -11.678  -6.829  44.098  1.00  0.00     0.214 C 
ATOM     29  O   UNL     1     -13.886  -7.792  44.495  1.00  0.00    -0.332 OA
ATOM     30  C   UNL     1     -11.011  -8.009  44.827  1.00  0.00     0.180 C 
ATOM     31  C   UNL     1     -13.355  -8.827  45.306  1.00  0.00     0.179 C 
ATOM     32  C   UNL     1     -11.948  -9.233  44.813  1.00  0.00     0.177 C 
BRANCH  28  33
ATOM     33  O   UNL     1     -10.929  -5.654  44.270  1.00  0.00    -0.384 OA
ATOM     34  H   UNL     1     -10.818  -5.250  43.370  1.00  0.00     0.211 HD
ENDBRANCH  28  33
BRANCH  30  35
ATOM     35  O   UNL     1     -10.704  -7.637  46.148  1.00  0.00    -0.387 OA
ATOM     36  H   UNL     1     -11.073  -8.342  46.743  1.00  0.00     0.211 HD
ENDBRANCH  30  35
BRANCH  31  37
ATOM     37  C   UNL     1     -14.317 -10.023  45.252  1.00  0.00     0.191 C 
BRANCH  37  38
ATOM     38  O   UNL     1     -14.187 -10.808  46.408  1.00  0.00    -0.394 OA
ATOM     39  H   UNL     1     -13.256 -11.153  46.414  1.00  0.00     0.210 HD
ENDBRANCH  37  38
ENDBRANCH  31  37
BRANCH  32  40
ATOM     40  O   UNL     1     -11.427 -10.252  45.627  1.00  0.00    -0.387 OA
ATOM     41  H   UNL     1     -12.032 -11.034  45.528  1.00  0.00     0.211 HD
ENDBRANCH  32  40
ENDBRANCH   1  27
TORSDOF 12
ENDMDL
