MODEL 1
REMARK VINA RESULT:    -3.462      0.000      0.000
REMARK INTER + INTRA:         -11.322
REMARK INTER:                  -7.914
REMARK INTRA:                  -3.408
REMARK UNBOUND:                -3.408
REMARK SMILES CCCCCCCCCCCCCCCCCCCCCCCC(=O)[O-]
REMARK SMILES IDX 13 1 14 2 15 3 16 4 17 5 18 6 19 7 20 8 21 9 22 10 23 11
REMARK SMILES IDX 24 12 25 13 26 14 12 15 11 16 10 17 9 18 8 19 7 20 6 21 5 22
REMARK SMILES IDX 4 23 3 24 2 25 1 26
REMARK H PARENT
REMARK Flexibility Score: inf
ROOT
ATOM      1  C   UNL     1      58.543  28.686  50.450  1.00  0.00     0.000 C 
ENDROOT
BRANCH   1   2
ATOM      2  C   UNL     1      59.131  27.862  49.295  1.00  0.00     0.000 C 
BRANCH   2   3
ATOM      3  C   UNL     1      60.453  27.165  49.664  1.00  0.00     0.000 C 
BRANCH   3   4
ATOM      4  C   UNL     1      61.302  27.893  50.724  1.00  0.00     0.000 C 
BRANCH   4   5
ATOM      5  C   UNL     1      62.256  26.950  51.479  1.00  0.00     0.000 C 
BRANCH   5   6
ATOM      6  C   UNL     1      62.629  25.707  50.655  1.00  0.00     0.000 C 
BRANCH   6   7
ATOM      7  C   UNL     1      62.642  24.422  51.503  1.00  0.00     0.000 C 
BRANCH   7   8
ATOM      8  C   UNL     1      62.355  23.163  50.671  1.00  0.00     0.000 C 
BRANCH   8   9
ATOM      9  C   UNL     1      60.885  23.059  50.238  1.00  0.00     0.000 C 
BRANCH   9  10
ATOM     10  C   UNL     1      60.200  21.856  50.907  1.00  0.00     0.006 C 
BRANCH  10  11
ATOM     11  C   UNL     1      60.674  20.519  50.324  1.00  0.00     0.053 C 
BRANCH  11  12
ATOM     12  C   UNL     1      59.769  19.391  50.716  1.00  0.00     0.041 C 
ATOM     13  O   UNL     1      59.002  18.869  49.864  1.00  0.00    -0.550 OA
ATOM     14  O   UNL     1      59.749  18.939  52.028  1.00  0.00    -0.550 OA
ENDBRANCH  11  12
ENDBRANCH  10  11
ENDBRANCH   9  10
ENDBRANCH   8   9
ENDBRANCH   7   8
ENDBRANCH   6   7
ENDBRANCH   5   6
ENDBRANCH   4   5
ENDBRANCH   3   4
ENDBRANCH   2   3
ENDBRANCH   1   2
BRANCH   1  15
ATOM     15  C   UNL     1      57.017  28.541  50.505  1.00  0.00     0.000 C 
BRANCH  15  16
ATOM     16  C   UNL     1      56.503  28.707  51.943  1.00  0.00     0.000 C 
BRANCH  16  17
ATOM     17  C   UNL     1      54.976  28.871  52.009  1.00  0.00     0.000 C 
BRANCH  17  18
ATOM     18  C   UNL     1      54.347  29.108  50.624  1.00  0.00    -0.000 C 
BRANCH  18  19
ATOM     19  C   UNL     1      53.024  28.349  50.439  1.00  0.00    -0.000 C 
BRANCH  19  20
ATOM     20  C   UNL     1      53.134  26.867  50.838  1.00  0.00    -0.000 C 
BRANCH  20  21
ATOM     21  C   UNL     1      53.353  25.947  49.626  1.00  0.00    -0.000 C 
BRANCH  21  22
ATOM     22  C   UNL     1      54.692  25.192  49.696  1.00  0.00    -0.000 C 
BRANCH  22  23
ATOM     23  C   UNL     1      55.327  25.236  51.097  1.00  0.00    -0.000 C 
BRANCH  23  24
ATOM     24  C   UNL     1      56.863  25.156  51.050  1.00  0.00    -0.000 C 
BRANCH  24  25
ATOM     25  C   UNL     1      57.490  25.079  52.451  1.00  0.00    -0.003 C 
ATOM     26  C   UNL     1      58.997  25.336  52.441  1.00  0.00     0.004 C 
ENDBRANCH  24  25
ENDBRANCH  23  24
ENDBRANCH  22  23
ENDBRANCH  21  22
ENDBRANCH  20  21
ENDBRANCH  19  20
ENDBRANCH  18  19
ENDBRANCH  17  18
ENDBRANCH  16  17
ENDBRANCH  15  16
ENDBRANCH   1  15
TORSDOF 22
ENDMDL
MODEL 2
REMARK VINA RESULT:    -3.431      3.863      6.268
REMARK INTER + INTRA:         -11.251
REMARK INTER:                  -7.183
REMARK INTRA:                  -4.067
REMARK UNBOUND:                -3.408
REMARK SMILES CCCCCCCCCCCCCCCCCCCCCCCC(=O)[O-]
REMARK SMILES IDX 13 1 14 2 15 3 16 4 17 5 18 6 19 7 20 8 21 9 22 10 23 11
REMARK SMILES IDX 24 12 25 13 26 14 12 15 11 16 10 17 9 18 8 19 7 20 6 21 5 22
REMARK SMILES IDX 4 23 3 24 2 25 1 26
REMARK H PARENT
REMARK Flexibility Score: inf
ROOT
ATOM      1  C   UNL     1      56.544  25.783  52.991  1.00  0.00     0.000 C 
ENDROOT
BRANCH   1   2
ATOM      2  C   UNL     1      57.010  24.866  51.851  1.00  0.00     0.000 C 
BRANCH   2   3
ATOM      3  C   UNL     1      58.443  25.172  51.379  1.00  0.00     0.000 C 
BRANCH   3   4
ATOM      4  C   UNL     1      58.555  25.740  49.952  1.00  0.00     0.000 C 
BRANCH   4   5
ATOM      5  C   UNL     1      59.573  26.889  49.842  1.00  0.00     0.000 C 
BRANCH   5   6
ATOM      6  C   UNL     1      58.909  28.233  49.503  1.00  0.00     0.000 C 
BRANCH   6   7
ATOM      7  C   UNL     1      58.051  28.773  50.661  1.00  0.00     0.000 C 
BRANCH   7   8
ATOM      8  C   UNL     1      58.791  28.744  52.008  1.00  0.00     0.000 C 
BRANCH   8   9
ATOM      9  C   UNL     1      59.031  30.147  52.584  1.00  0.00     0.000 C 
BRANCH   9  10
ATOM     10  C   UNL     1      60.498  30.571  52.407  1.00  0.00     0.006 C 
BRANCH  10  11
ATOM     11  C   UNL     1      61.400  29.393  52.016  1.00  0.00     0.053 C 
BRANCH  11  12
ATOM     12  C   UNL     1      62.127  29.655  50.732  1.00  0.00     0.041 C 
ATOM     13  O   UNL     1      62.805  28.742  50.191  1.00  0.00    -0.550 OA
ATOM     14  O   UNL     1      62.083  30.915  50.153  1.00  0.00    -0.550 OA
ENDBRANCH  11  12
ENDBRANCH  10  11
ENDBRANCH   9  10
ENDBRANCH   8   9
ENDBRANCH   7   8
ENDBRANCH   6   7
ENDBRANCH   5   6
ENDBRANCH   4   5
ENDBRANCH   3   4
ENDBRANCH   2   3
ENDBRANCH   1   2
BRANCH   1  15
ATOM     15  C   UNL     1      55.144  25.388  53.476  1.00  0.00     0.000 C 
BRANCH  15  16
ATOM     16  C   UNL     1      54.612  24.179  52.690  1.00  0.00     0.000 C 
BRANCH  16  17
ATOM     17  C   UNL     1      53.337  24.505  51.898  1.00  0.00     0.000 C 
BRANCH  17  18
ATOM     18  C   UNL     1      53.479  24.196  50.397  1.00  0.00    -0.000 C 
BRANCH  18  19
ATOM     19  C   UNL     1      54.127  25.349  49.616  1.00  0.00    -0.000 C 
BRANCH  19  20
ATOM     20  C   UNL     1      53.570  26.724  50.023  1.00  0.00    -0.000 C 
BRANCH  20  21
ATOM     21  C   UNL     1      54.667  27.680  50.516  1.00  0.00    -0.000 C 
BRANCH  21  22
ATOM     22  C   UNL     1      54.227  29.154  50.470  1.00  0.00    -0.000 C 
BRANCH  22  23
ATOM     23  C   UNL     1      53.974  29.743  51.868  1.00  0.00    -0.000 C 
BRANCH  23  24
ATOM     24  C   UNL     1      55.159  29.523  52.824  1.00  0.00    -0.000 C 
BRANCH  24  25
ATOM     25  C   UNL     1      54.728  28.900  54.161  1.00  0.00    -0.003 C 
ATOM     26  C   UNL     1      53.263  28.462  54.166  1.00  0.00     0.004 C 
ENDBRANCH  24  25
ENDBRANCH  23  24
ENDBRANCH  22  23
ENDBRANCH  21  22
ENDBRANCH  20  21
ENDBRANCH  19  20
ENDBRANCH  18  19
ENDBRANCH  17  18
ENDBRANCH  16  17
ENDBRANCH  15  16
ENDBRANCH   1  15
TORSDOF 22
ENDMDL
MODEL 3
REMARK VINA RESULT:    -3.380      4.272      8.132
REMARK INTER + INTRA:         -11.134
REMARK INTER:                  -6.690
REMARK INTRA:                  -4.443
REMARK UNBOUND:                -3.408
REMARK SMILES CCCCCCCCCCCCCCCCCCCCCCCC(=O)[O-]
REMARK SMILES IDX 13 1 14 2 15 3 16 4 17 5 18 6 19 7 20 8 21 9 22 10 23 11
REMARK SMILES IDX 24 12 25 13 26 14 12 15 11 16 10 17 9 18 8 19 7 20 6 21 5 22
REMARK SMILES IDX 4 23 3 24 2 25 1 26
REMARK H PARENT
REMARK Flexibility Score: inf
ROOT
ATOM      1  C   UNL     1      54.180  25.702  53.771  1.00  0.00     0.000 C 
ENDROOT
BRANCH   1   2
ATOM      2  C   UNL     1      53.147  25.335  52.695  1.00  0.00     0.000 C 
BRANCH   2   3
ATOM      3  C   UNL     1      53.452  23.995  52.001  1.00  0.00     0.000 C 
BRANCH   3   4
ATOM      4  C   UNL     1      53.505  24.053  50.463  1.00  0.00     0.000 C 
BRANCH   4   5
ATOM      5  C   UNL     1      53.691  25.482  49.922  1.00  0.00     0.000 C 
BRANCH   5   6
ATOM      6  C   UNL     1      55.147  25.965  50.027  1.00  0.00     0.000 C 
BRANCH   6   7
ATOM      7  C   UNL     1      55.246  27.458  50.387  1.00  0.00     0.000 C 
BRANCH   7   8
ATOM      8  C   UNL     1      53.881  28.164  50.359  1.00  0.00     0.000 C 
BRANCH   8   9
ATOM      9  C   UNL     1      53.614  28.993  51.624  1.00  0.00     0.000 C 
BRANCH   9  10
ATOM     10  C   UNL     1      54.932  29.440  52.276  1.00  0.00     0.006 C 
BRANCH  10  11
ATOM     11  C   UNL     1      54.887  29.343  53.806  1.00  0.00     0.053 C 
BRANCH  11  12
ATOM     12  C   UNL     1      55.134  30.671  54.454  1.00  0.00     0.041 C 
ATOM     13  O   UNL     1      55.159  30.770  55.709  1.00  0.00    -0.550 OA
ATOM     14  O   UNL     1      55.305  31.805  53.671  1.00  0.00    -0.550 OA
ENDBRANCH  11  12
ENDBRANCH  10  11
ENDBRANCH   9  10
ENDBRANCH   8   9
ENDBRANCH   7   8
ENDBRANCH   6   7
ENDBRANCH   5   6
ENDBRANCH   4   5
ENDBRANCH   3   4
ENDBRANCH   2   3
ENDBRANCH   1   2
BRANCH   1  15
ATOM     15  C   UNL     1      55.527  25.025  53.491  1.00  0.00     0.000 C 
BRANCH  15  16
ATOM     16  C   UNL     1      56.673  26.047  53.528  1.00  0.00     0.000 C 
BRANCH  16  17
ATOM     17  C   UNL     1      58.022  25.437  53.113  1.00  0.00     0.000 C 
BRANCH  17  18
ATOM     18  C   UNL     1      57.882  24.415  51.972  1.00  0.00    -0.000 C 
BRANCH  18  19
ATOM     19  C   UNL     1      59.221  24.117  51.280  1.00  0.00    -0.000 C 
BRANCH  19  20
ATOM     20  C   UNL     1      59.932  25.392  50.796  1.00  0.00    -0.000 C 
BRANCH  20  21
ATOM     21  C   UNL     1      59.085  26.195  49.797  1.00  0.00    -0.000 C 
BRANCH  21  22
ATOM     22  C   UNL     1      59.777  27.494  49.348  1.00  0.00    -0.000 C 
BRANCH  22  23
ATOM     23  C   UNL     1      59.037  28.756  49.821  1.00  0.00    -0.000 C 
BRANCH  23  24
ATOM     24  C   UNL     1      58.330  28.553  51.174  1.00  0.00    -0.000 C 
BRANCH  24  25
ATOM     25  C   UNL     1      59.135  29.128  52.349  1.00  0.00    -0.003 C 
ATOM     26  C   UNL     1      58.546  30.433  52.889  1.00  0.00     0.004 C 
ENDBRANCH  24  25
ENDBRANCH  23  24
ENDBRANCH  22  23
ENDBRANCH  21  22
ENDBRANCH  20  21
ENDBRANCH  19  20
ENDBRANCH  18  19
ENDBRANCH  17  18
ENDBRANCH  16  17
ENDBRANCH  15  16
ENDBRANCH   1  15
TORSDOF 22
ENDMDL
MODEL 4
REMARK VINA RESULT:    -3.375      2.498      5.231
REMARK INTER + INTRA:         -11.124
REMARK INTER:                  -7.076
REMARK INTRA:                  -4.048
REMARK UNBOUND:                -3.408
REMARK SMILES CCCCCCCCCCCCCCCCCCCCCCCC(=O)[O-]
REMARK SMILES IDX 13 1 14 2 15 3 16 4 17 5 18 6 19 7 20 8 21 9 22 10 23 11
REMARK SMILES IDX 24 12 25 13 26 14 12 15 11 16 10 17 9 18 8 19 7 20 6 21 5 22
REMARK SMILES IDX 4 23 3 24 2 25 1 26
REMARK H PARENT
REMARK Flexibility Score: inf
ROOT
ATOM      1  C   UNL     1      53.877  26.478  50.849  1.00  0.00     0.000 C 
ENDROOT
BRANCH   1   2
ATOM      2  C   UNL     1      54.794  25.558  50.030  1.00  0.00     0.000 C 
BRANCH   2   3
ATOM      3  C   UNL     1      56.286  25.741  50.365  1.00  0.00     0.000 C 
BRANCH   3   4
ATOM      4  C   UNL     1      56.576  26.285  51.776  1.00  0.00     0.000 C 
BRANCH   4   5
ATOM      5  C   UNL     1      57.417  27.575  51.760  1.00  0.00     0.000 C 
BRANCH   5   6
ATOM      6  C   UNL     1      57.422  28.257  50.381  1.00  0.00     0.000 C 
BRANCH   6   7
ATOM      7  C   UNL     1      58.846  28.542  49.871  1.00  0.00     0.000 C 
BRANCH   7   8
ATOM      8  C   UNL     1      59.584  27.265  49.439  1.00  0.00     0.000 C 
BRANCH   8   9
ATOM      9  C   UNL     1      61.049  27.242  49.899  1.00  0.00     0.000 C 
BRANCH   9  10
ATOM     10  C   UNL     1      61.401  25.890  50.541  1.00  0.00     0.006 C 
BRANCH  10  11
ATOM     11  C   UNL     1      60.336  25.427  51.544  1.00  0.00     0.053 C 
BRANCH  11  12
ATOM     12  C   UNL     1      59.852  24.043  51.239  1.00  0.00     0.041 C 
ATOM     13  O   UNL     1      60.362  23.388  50.293  1.00  0.00    -0.550 OA
ATOM     14  O   UNL     1      58.815  23.491  51.978  1.00  0.00    -0.550 OA
ENDBRANCH  11  12
ENDBRANCH  10  11
ENDBRANCH   9  10
ENDBRANCH   8   9
ENDBRANCH   7   8
ENDBRANCH   6   7
ENDBRANCH   5   6
ENDBRANCH   4   5
ENDBRANCH   3   4
ENDBRANCH   2   3
ENDBRANCH   1   2
BRANCH   1  15
ATOM     15  C   UNL     1      53.397  27.665  50.006  1.00  0.00     0.000 C 
BRANCH  15  16
ATOM     16  C   UNL     1      53.968  28.986  50.544  1.00  0.00     0.000 C 
BRANCH  16  17
ATOM     17  C   UNL     1      53.982  29.041  52.080  1.00  0.00     0.000 C 
BRANCH  17  18
ATOM     18  C   UNL     1      54.224  30.462  52.618  1.00  0.00    -0.000 C 
BRANCH  18  19
ATOM     19  C   UNL     1      54.652  30.470  54.093  1.00  0.00    -0.000 C 
BRANCH  19  20
ATOM     20  C   UNL     1      55.590  29.301  54.441  1.00  0.00    -0.000 C 
BRANCH  20  21
ATOM     21  C   UNL     1      56.995  29.776  54.846  1.00  0.00    -0.000 C 
BRANCH  21  22
ATOM     22  C   UNL     1      57.102  31.309  54.911  1.00  0.00    -0.000 C 
BRANCH  22  23
ATOM     23  C   UNL     1      58.096  31.879  53.885  1.00  0.00    -0.000 C 
BRANCH  23  24
ATOM     24  C   UNL     1      58.633  30.804  52.924  1.00  0.00    -0.000 C 
BRANCH  24  25
ATOM     25  C   UNL     1      60.167  30.708  52.947  1.00  0.00    -0.003 C 
ATOM     26  C   UNL     1      60.717  30.332  54.324  1.00  0.00     0.004 C 
ENDBRANCH  24  25
ENDBRANCH  23  24
ENDBRANCH  22  23
ENDBRANCH  21  22
ENDBRANCH  20  21
ENDBRANCH  19  20
ENDBRANCH  18  19
ENDBRANCH  17  18
ENDBRANCH  16  17
ENDBRANCH  15  16
ENDBRANCH   1  15
TORSDOF 22
ENDMDL
MODEL 5
REMARK VINA RESULT:    -3.371      1.798      2.946
REMARK INTER + INTRA:         -11.114
REMARK INTER:                  -6.810
REMARK INTRA:                  -4.305
REMARK UNBOUND:                -3.408
REMARK SMILES CCCCCCCCCCCCCCCCCCCCCCCC(=O)[O-]
REMARK SMILES IDX 13 1 14 2 15 3 16 4 17 5 18 6 19 7 20 8 21 9 22 10 23 11
REMARK SMILES IDX 24 12 25 13 26 14 12 15 11 16 10 17 9 18 8 19 7 20 6 21 5 22
REMARK SMILES IDX 4 23 3 24 2 25 1 26
REMARK H PARENT
REMARK Flexibility Score: inf
ROOT
ATOM      1  C   UNL     1      57.728  28.918  51.807  1.00  0.00     0.000 C 
ENDROOT
BRANCH   1   2
ATOM      2  C   UNL     1      57.599  28.362  50.382  1.00  0.00     0.000 C 
BRANCH   2   3
ATOM      3  C   UNL     1      58.873  28.559  49.541  1.00  0.00     0.000 C 
BRANCH   3   4
ATOM      4  C   UNL     1      59.817  27.343  49.489  1.00  0.00     0.000 C 
BRANCH   4   5
ATOM      5  C   UNL     1      59.110  26.020  49.833  1.00  0.00     0.000 C 
BRANCH   5   6
ATOM      6  C   UNL     1      59.645  25.385  51.127  1.00  0.00     0.000 C 
BRANCH   6   7
ATOM      7  C   UNL     1      58.630  24.427  51.776  1.00  0.00     0.000 C 
BRANCH   7   8
ATOM      8  C   UNL     1      58.879  24.234  53.280  1.00  0.00     0.000 C 
BRANCH   8   9
ATOM      9  C   UNL     1      59.179  22.774  53.649  1.00  0.00     0.000 C 
BRANCH   9  10
ATOM     10  C   UNL     1      59.244  21.891  52.393  1.00  0.00     0.006 C 
BRANCH  10  11
ATOM     11  C   UNL     1      60.682  21.496  52.034  1.00  0.00     0.053 C 
BRANCH  11  12
ATOM     12  C   UNL     1      61.001  21.805  50.603  1.00  0.00     0.041 C 
ATOM     13  O   UNL     1      61.816  22.721  50.320  1.00  0.00    -0.550 OA
ATOM     14  O   UNL     1      60.374  21.102  49.584  1.00  0.00    -0.550 OA
ENDBRANCH  11  12
ENDBRANCH  10  11
ENDBRANCH   9  10
ENDBRANCH   8   9
ENDBRANCH   7   8
ENDBRANCH   6   7
ENDBRANCH   5   6
ENDBRANCH   4   5
ENDBRANCH   3   4
ENDBRANCH   2   3
ENDBRANCH   1   2
BRANCH   1  15
ATOM     15  C   UNL     1      57.562  27.803  52.848  1.00  0.00     0.000 C 
BRANCH  15  16
ATOM     16  C   UNL     1      56.933  28.348  54.139  1.00  0.00     0.000 C 
BRANCH  16  17
ATOM     17  C   UNL     1      55.863  29.417  53.869  1.00  0.00     0.000 C 
BRANCH  17  18
ATOM     18  C   UNL     1      54.442  28.926  54.197  1.00  0.00    -0.000 C 
BRANCH  18  19
ATOM     19  C   UNL     1      53.630  28.588  52.937  1.00  0.00    -0.000 C 
BRANCH  19  20
ATOM     20  C   UNL     1      54.035  29.446  51.726  1.00  0.00    -0.000 C 
BRANCH  20  21
ATOM     21  C   UNL     1      53.943  28.673  50.401  1.00  0.00    -0.000 C 
BRANCH  21  22
ATOM     22  C   UNL     1      53.381  27.252  50.586  1.00  0.00    -0.000 C 
BRANCH  22  23
ATOM     23  C   UNL     1      54.271  26.174  49.945  1.00  0.00    -0.000 C 
BRANCH  23  24
ATOM     24  C   UNL     1      55.318  25.614  50.924  1.00  0.00    -0.000 C 
BRANCH  24  25
ATOM     25  C   UNL     1      54.687  24.758  52.033  1.00  0.00    -0.003 C 
ATOM     26  C   UNL     1      55.127  25.186  53.434  1.00  0.00     0.004 C 
ENDBRANCH  24  25
ENDBRANCH  23  24
ENDBRANCH  22  23
ENDBRANCH  21  22
ENDBRANCH  20  21
ENDBRANCH  19  20
ENDBRANCH  18  19
ENDBRANCH  17  18
ENDBRANCH  16  17
ENDBRANCH  15  16
ENDBRANCH   1  15
TORSDOF 22
ENDMDL
MODEL 6
REMARK VINA RESULT:    -3.359     10.511     13.300
REMARK INTER + INTRA:         -11.087
REMARK INTER:                  -7.116
REMARK INTRA:                  -3.970
REMARK UNBOUND:                -3.408
REMARK SMILES CCCCCCCCCCCCCCCCCCCCCCCC(=O)[O-]
REMARK SMILES IDX 13 1 14 2 15 3 16 4 17 5 18 6 19 7 20 8 21 9 22 10 23 11
REMARK SMILES IDX 24 12 25 13 26 14 12 15 11 16 10 17 9 18 8 19 7 20 6 21 5 22
REMARK SMILES IDX 4 23 3 24 2 25 1 26
REMARK H PARENT
REMARK Flexibility Score: inf
ROOT
ATOM      1  C   UNL     1      63.656  30.873  57.687  1.00  0.00     0.000 C 
ENDROOT
BRANCH   1   2
ATOM      2  C   UNL     1      63.420  32.286  58.240  1.00  0.00     0.000 C 
BRANCH   2   3
ATOM      3  C   UNL     1      64.610  32.817  59.060  1.00  0.00     0.000 C 
BRANCH   3   4
ATOM      4  C   UNL     1      64.469  32.670  60.587  1.00  0.00     0.000 C 
BRANCH   4   5
ATOM      5  C   UNL     1      64.483  34.022  61.324  1.00  0.00     0.000 C 
BRANCH   5   6
ATOM      6  C   UNL     1      63.899  35.162  60.473  1.00  0.00     0.000 C 
BRANCH   6   7
ATOM      7  C   UNL     1      63.016  36.117  61.296  1.00  0.00     0.000 C 
BRANCH   7   8
ATOM      8  C   UNL     1      61.532  36.031  60.907  1.00  0.00     0.000 C 
BRANCH   8   9
ATOM      9  C   UNL     1      61.119  34.625  60.446  1.00  0.00     0.000 C 
BRANCH   9  10
ATOM     10  C   UNL     1      59.589  34.494  60.384  1.00  0.00     0.006 C 
BRANCH  10  11
ATOM     11  C   UNL     1      59.019  34.966  59.041  1.00  0.00     0.053 C 
BRANCH  11  12
ATOM     12  C   UNL     1      57.946  34.049  58.541  1.00  0.00     0.041 C 
ATOM     13  O   UNL     1      58.222  32.861  58.227  1.00  0.00    -0.550 OA
ATOM     14  O   UNL     1      56.647  34.516  58.390  1.00  0.00    -0.550 OA
ENDBRANCH  11  12
ENDBRANCH  10  11
ENDBRANCH   9  10
ENDBRANCH   8   9
ENDBRANCH   7   8
ENDBRANCH   6   7
ENDBRANCH   5   6
ENDBRANCH   4   5
ENDBRANCH   3   4
ENDBRANCH   2   3
ENDBRANCH   1   2
BRANCH   1  15
ATOM     15  C   UNL     1      62.366  30.044  57.732  1.00  0.00     0.000 C 
BRANCH  15  16
ATOM     16  C   UNL     1      61.227  30.837  58.391  1.00  0.00     0.000 C 
BRANCH  16  17
ATOM     17  C   UNL     1      60.740  30.194  59.699  1.00  0.00     0.000 C 
BRANCH  17  18
ATOM     18  C   UNL     1      61.125  31.016  60.942  1.00  0.00    -0.000 C 
BRANCH  18  19
ATOM     19  C   UNL     1      61.912  30.194  61.973  1.00  0.00    -0.000 C 
BRANCH  19  20
ATOM     20  C   UNL     1      62.578  28.953  61.354  1.00  0.00    -0.000 C 
BRANCH  20  21
ATOM     21  C   UNL     1      64.087  29.144  61.134  1.00  0.00    -0.000 C 
BRANCH  21  22
ATOM     22  C   UNL     1      64.760  27.890  60.549  1.00  0.00    -0.000 C 
BRANCH  22  23
ATOM     23  C   UNL     1      63.749  26.791  60.179  1.00  0.00    -0.000 C 
BRANCH  23  24
ATOM     24  C   UNL     1      63.453  26.746  58.670  1.00  0.00    -0.000 C 
BRANCH  24  25
ATOM     25  C   UNL     1      62.139  26.016  58.350  1.00  0.00    -0.003 C 
ATOM     26  C   UNL     1      60.963  26.519  59.188  1.00  0.00     0.004 C 
ENDBRANCH  24  25
ENDBRANCH  23  24
ENDBRANCH  22  23
ENDBRANCH  21  22
ENDBRANCH  20  21
ENDBRANCH  19  20
ENDBRANCH  18  19
ENDBRANCH  17  18
ENDBRANCH  16  17
ENDBRANCH  15  16
ENDBRANCH   1  15
TORSDOF 22
ENDMDL
MODEL 7
REMARK VINA RESULT:    -3.316      1.500      3.143
REMARK INTER + INTRA:         -10.989
REMARK INTER:                  -7.620
REMARK INTRA:                  -3.369
REMARK UNBOUND:                -3.408
REMARK SMILES CCCCCCCCCCCCCCCCCCCCCCCC(=O)[O-]
REMARK SMILES IDX 13 1 14 2 15 3 16 4 17 5 18 6 19 7 20 8 21 9 22 10 23 11
REMARK SMILES IDX 24 12 25 13 26 14 12 15 11 16 10 17 9 18 8 19 7 20 6 21 5 22
REMARK SMILES IDX 4 23 3 24 2 25 1 26
REMARK H PARENT
REMARK Flexibility Score: inf
ROOT
ATOM      1  C   UNL     1      57.184  28.670  51.763  1.00  0.00     0.000 C 
ENDROOT
BRANCH   1   2
ATOM      2  C   UNL     1      57.446  28.051  50.382  1.00  0.00     0.000 C 
BRANCH   2   3
ATOM      3  C   UNL     1      58.754  28.545  49.739  1.00  0.00     0.000 C 
BRANCH   3   4
ATOM      4  C   UNL     1      59.863  27.483  49.615  1.00  0.00     0.000 C 
BRANCH   4   5
ATOM      5  C   UNL     1      59.323  26.043  49.666  1.00  0.00     0.000 C 
BRANCH   5   6
ATOM      6  C   UNL     1      60.290  25.076  50.371  1.00  0.00     0.000 C 
BRANCH   6   7
ATOM      7  C   UNL     1      59.553  23.962  51.136  1.00  0.00     0.000 C 
BRANCH   7   8
ATOM      8  C   UNL     1      60.504  22.866  51.641  1.00  0.00     0.000 C 
BRANCH   8   9
ATOM      9  C   UNL     1      59.785  21.537  51.917  1.00  0.00     0.000 C 
BRANCH   9  10
ATOM     10  C   UNL     1      60.211  20.461  50.905  1.00  0.00     0.006 C 
BRANCH  10  11
ATOM     11  C   UNL     1      59.913  19.042  51.406  1.00  0.00     0.053 C 
BRANCH  11  12
ATOM     12  C   UNL     1      58.694  18.467  50.752  1.00  0.00     0.041 C 
ATOM     13  O   UNL     1      58.704  18.194  49.523  1.00  0.00    -0.550 OA
ATOM     14  O   UNL     1      57.538  18.265  51.493  1.00  0.00    -0.550 OA
ENDBRANCH  11  12
ENDBRANCH  10  11
ENDBRANCH   9  10
ENDBRANCH   8   9
ENDBRANCH   7   8
ENDBRANCH   6   7
ENDBRANCH   5   6
ENDBRANCH   4   5
ENDBRANCH   3   4
ENDBRANCH   2   3
ENDBRANCH   1   2
BRANCH   1  15
ATOM     15  C   UNL     1      57.315  27.616  52.870  1.00  0.00     0.000 C 
BRANCH  15  16
ATOM     16  C   UNL     1      56.915  26.226  52.353  1.00  0.00     0.000 C 
BRANCH  16  17
ATOM     17  C   UNL     1      55.549  25.767  52.889  1.00  0.00     0.000 C 
BRANCH  17  18
ATOM     18  C   UNL     1      54.817  24.829  51.913  1.00  0.00    -0.000 C 
BRANCH  18  19
ATOM     19  C   UNL     1      55.005  25.242  50.445  1.00  0.00    -0.000 C 
BRANCH  19  20
ATOM     20  C   UNL     1      53.667  25.445  49.713  1.00  0.00    -0.000 C 
BRANCH  20  21
ATOM     21  C   UNL     1      52.988  26.771  50.088  1.00  0.00    -0.000 C 
BRANCH  21  22
ATOM     22  C   UNL     1      53.978  27.948  50.130  1.00  0.00    -0.000 C 
BRANCH  22  23
ATOM     23  C   UNL     1      53.537  29.061  51.096  1.00  0.00    -0.000 C 
BRANCH  23  24
ATOM     24  C   UNL     1      53.444  28.575  52.553  1.00  0.00    -0.000 C 
BRANCH  24  25
ATOM     25  C   UNL     1      54.080  29.563  53.544  1.00  0.00    -0.003 C 
ATOM     26  C   UNL     1      54.353  28.936  54.912  1.00  0.00     0.004 C 
ENDBRANCH  24  25
ENDBRANCH  23  24
ENDBRANCH  22  23
ENDBRANCH  21  22
ENDBRANCH  20  21
ENDBRANCH  19  20
ENDBRANCH  18  19
ENDBRANCH  17  18
ENDBRANCH  16  17
ENDBRANCH  15  16
ENDBRANCH   1  15
TORSDOF 22
ENDMDL
MODEL 8
REMARK VINA RESULT:    -3.297     12.003     14.677
REMARK INTER + INTRA:         -10.945
REMARK INTER:                  -7.621
REMARK INTRA:                  -3.324
REMARK UNBOUND:                -3.408
REMARK SMILES CCCCCCCCCCCCCCCCCCCCCCCC(=O)[O-]
REMARK SMILES IDX 13 1 14 2 15 3 16 4 17 5 18 6 19 7 20 8 21 9 22 10 23 11
REMARK SMILES IDX 24 12 25 13 26 14 12 15 11 16 10 17 9 18 8 19 7 20 6 21 5 22
REMARK SMILES IDX 4 23 3 24 2 25 1 26
REMARK H PARENT
REMARK Flexibility Score: inf
ROOT
ATOM      1  C   UNL     1      65.452  27.603  59.142  1.00  0.00     0.000 C 
ENDROOT
BRANCH   1   2
ATOM      2  C   UNL     1      66.345  27.966  57.947  1.00  0.00     0.000 C 
BRANCH   2   3
ATOM      3  C   UNL     1      67.827  28.136  58.332  1.00  0.00     0.000 C 
BRANCH   3   4
ATOM      4  C   UNL     1      68.118  29.281  59.320  1.00  0.00     0.000 C 
BRANCH   4   5
ATOM      5  C   UNL     1      68.400  28.783  60.749  1.00  0.00     0.000 C 
BRANCH   5   6
ATOM      6  C   UNL     1      69.859  28.336  60.940  1.00  0.00     0.000 C 
BRANCH   6   7
ATOM      7  C   UNL     1      70.787  29.503  61.320  1.00  0.00     0.000 C 
BRANCH   7   8
ATOM      8  C   UNL     1      71.846  29.789  60.244  1.00  0.00     0.000 C 
BRANCH   8   9
ATOM      9  C   UNL     1      72.594  31.109  60.482  1.00  0.00     0.000 C 
BRANCH   9  10
ATOM     10  C   UNL     1      71.646  32.311  60.339  1.00  0.00     0.006 C 
BRANCH  10  11
ATOM     11  C   UNL     1      70.919  32.321  58.989  1.00  0.00     0.053 C 
BRANCH  11  12
ATOM     12  C   UNL     1      71.298  33.511  58.163  1.00  0.00     0.041 C 
ATOM     13  O   UNL     1      70.793  34.639  58.407  1.00  0.00    -0.550 OA
ATOM     14  O   UNL     1      72.184  33.369  57.103  1.00  0.00    -0.550 OA
ENDBRANCH  11  12
ENDBRANCH  10  11
ENDBRANCH   9  10
ENDBRANCH   8   9
ENDBRANCH   7   8
ENDBRANCH   6   7
ENDBRANCH   5   6
ENDBRANCH   4   5
ENDBRANCH   3   4
ENDBRANCH   2   3
ENDBRANCH   1   2
BRANCH   1  15
ATOM     15  C   UNL     1      64.443  28.720  59.432  1.00  0.00     0.000 C 
BRANCH  15  16
ATOM     16  C   UNL     1      64.618  29.261  60.859  1.00  0.00     0.000 C 
BRANCH  16  17
ATOM     17  C   UNL     1      64.768  30.790  60.896  1.00  0.00     0.000 C 
BRANCH  17  18
ATOM     18  C   UNL     1      64.726  31.423  59.494  1.00  0.00    -0.000 C 
BRANCH  18  19
ATOM     19  C   UNL     1      64.525  32.945  59.539  1.00  0.00    -0.000 C 
BRANCH  19  20
ATOM     20  C   UNL     1      64.118  33.445  60.936  1.00  0.00    -0.000 C 
BRANCH  20  21
ATOM     21  C   UNL     1      62.866  34.337  60.899  1.00  0.00    -0.000 C 
BRANCH  21  22
ATOM     22  C   UNL     1      61.832  33.856  59.865  1.00  0.00    -0.000 C 
BRANCH  22  23
ATOM     23  C   UNL     1      60.897  32.769  60.421  1.00  0.00    -0.000 C 
BRANCH  23  24
ATOM     24  C   UNL     1      60.905  31.490  59.565  1.00  0.00    -0.000 C 
BRANCH  24  25
ATOM     25  C   UNL     1      61.085  30.219  60.410  1.00  0.00    -0.003 C 
ATOM     26  C   UNL     1      61.257  30.517  61.900  1.00  0.00     0.004 C 
ENDBRANCH  24  25
ENDBRANCH  23  24
ENDBRANCH  22  23
ENDBRANCH  21  22
ENDBRANCH  20  21
ENDBRANCH  19  20
ENDBRANCH  18  19
ENDBRANCH  17  18
ENDBRANCH  16  17
ENDBRANCH  15  16
ENDBRANCH   1  15
TORSDOF 22
ENDMDL
MODEL 9
REMARK VINA RESULT:    -3.293      2.896      5.483
REMARK INTER + INTRA:         -10.935
REMARK INTER:                  -6.234
REMARK INTRA:                  -4.701
REMARK UNBOUND:                -3.408
REMARK SMILES CCCCCCCCCCCCCCCCCCCCCCCC(=O)[O-]
REMARK SMILES IDX 13 1 14 2 15 3 16 4 17 5 18 6 19 7 20 8 21 9 22 10 23 11
REMARK SMILES IDX 24 12 25 13 26 14 12 15 11 16 10 17 9 18 8 19 7 20 6 21 5 22
REMARK SMILES IDX 4 23 3 24 2 25 1 26
REMARK H PARENT
REMARK Flexibility Score: inf
ROOT
ATOM      1  C   UNL     1      59.391  26.112  49.717  1.00  0.00     0.000 C 
ENDROOT
BRANCH   1   2
ATOM      2  C   UNL     1      59.939  27.536  49.887  1.00  0.00     0.000 C 
BRANCH   2   3
ATOM      3  C   UNL     1      58.923  28.623  49.492  1.00  0.00     0.000 C 
BRANCH   3   4
ATOM      4  C   UNL     1      57.636  28.654  50.337  1.00  0.00     0.000 C 
BRANCH   4   5
ATOM      5  C   UNL     1      57.903  28.935  51.827  1.00  0.00     0.000 C 
BRANCH   5   6
ATOM      6  C   UNL     1      56.969  28.139  52.753  1.00  0.00     0.000 C 
BRANCH   6   7
ATOM      7  C   UNL     1      57.701  27.576  53.985  1.00  0.00     0.000 C 
BRANCH   7   8
ATOM      8  C   UNL     1      56.987  26.357  54.590  1.00  0.00     0.000 C 
BRANCH   8   9
ATOM      9  C   UNL     1      55.467  26.391  54.373  1.00  0.00     0.000 C 
BRANCH   9  10
ATOM     10  C   UNL     1      54.829  25.043  54.741  1.00  0.00     0.006 C 
BRANCH  10  11
ATOM     11  C   UNL     1      55.560  23.858  54.097  1.00  0.00     0.053 C 
BRANCH  11  12
ATOM     12  C   UNL     1      55.090  22.548  54.651  1.00  0.00     0.041 C 
ATOM     13  O   UNL     1      54.904  21.566  53.885  1.00  0.00    -0.550 OA
ATOM     14  O   UNL     1      54.826  22.422  56.008  1.00  0.00    -0.550 OA
ENDBRANCH  11  12
ENDBRANCH  10  11
ENDBRANCH   9  10
ENDBRANCH   8   9
ENDBRANCH   7   8
ENDBRANCH   6   7
ENDBRANCH   5   6
ENDBRANCH   4   5
ENDBRANCH   3   4
ENDBRANCH   2   3
ENDBRANCH   1   2
BRANCH   1  15
ATOM     15  C   UNL     1      59.358  25.373  51.061  1.00  0.00     0.000 C 
BRANCH  15  16
ATOM     16  C   UNL     1      57.945  24.853  51.367  1.00  0.00     0.000 C 
BRANCH  16  17
ATOM     17  C   UNL     1      56.918  25.275  50.304  1.00  0.00     0.000 C 
BRANCH  17  18
ATOM     18  C   UNL     1      55.491  25.379  50.871  1.00  0.00    -0.000 C 
BRANCH  18  19
ATOM     19  C   UNL     1      54.609  26.352  50.074  1.00  0.00    -0.000 C 
BRANCH  19  20
ATOM     20  C   UNL     1      53.782  27.278  50.982  1.00  0.00    -0.000 C 
BRANCH  20  21
ATOM     21  C   UNL     1      53.664  28.703  50.419  1.00  0.00    -0.000 C 
BRANCH  21  22
ATOM     22  C   UNL     1      53.889  29.781  51.493  1.00  0.00    -0.000 C 
BRANCH  22  23
ATOM     23  C   UNL     1      53.534  29.293  52.908  1.00  0.00    -0.000 C 
BRANCH  23  24
ATOM     24  C   UNL     1      54.067  30.230  54.006  1.00  0.00    -0.000 C 
BRANCH  24  25
ATOM     25  C   UNL     1      55.134  31.203  53.481  1.00  0.00    -0.003 C 
ATOM     26  C   UNL     1      54.758  32.669  53.699  1.00  0.00     0.004 C 
ENDBRANCH  24  25
ENDBRANCH  23  24
ENDBRANCH  22  23
ENDBRANCH  21  22
ENDBRANCH  20  21
ENDBRANCH  19  20
ENDBRANCH  18  19
ENDBRANCH  17  18
ENDBRANCH  16  17
ENDBRANCH  15  16
ENDBRANCH   1  15
TORSDOF 22
ENDMDL
