MODEL 1
REMARK VINA RESULT:   142.749      0.000      0.000
REMARK INTER + INTRA:         156.032
REMARK INTER:                 155.266
REMARK INTRA:                   0.766
REMARK UNBOUND:                 0.766
REMARK SMILES CC1(C)CC[C@@]2(C(=O)[O-])CC[C@@]3(C)C(=CC[C@H]4[C@@]5(C)CC[C@@H](O)C(C)(C)[C@H]5CC[C@@]43C)[C@@H]2C1
REMARK SMILES IDX 6 1 5 2 10 3 32 4 4 5 11 6 14 7 33 8 2 9 12 10 15 11 1 12
REMARK SMILES IDX 3 13 13 14 30 15 16 16 17 17 29 18 31 19 18 20 28 21 27 22
REMARK SMILES IDX 20 23 19 24 24 25 21 26 22 27 25 28 26 29 7 30 8 31 9 32
REMARK SMILES IDX 23 33
REMARK H PARENT 23 34
REMARK Flexibility Score: inf
ROOT
ATOM      1  C   UNL     1       1.880  -0.975  11.295  1.00  0.00     0.017 C 
ATOM      2  C   UNL     1       1.140   0.388  11.371  1.00  0.00     0.014 C 
ATOM      3  C   UNL     1       3.372  -0.731  11.628  1.00  0.00     0.014 C 
ATOM      4  C   UNL     1       1.284  -1.938  12.370  1.00  0.00     0.028 C 
ATOM      5  C   UNL     1      -0.375   0.238  11.166  1.00  0.00     0.007 C 
ATOM      6  C   UNL     1       4.187  -2.036  11.638  1.00  0.00     0.013 C 
ATOM      7  C   UNL     1       2.097  -3.254  12.448  1.00  0.00    -0.064 C 
ATOM      8  C   UNL     1      -0.258  -2.089  12.206  1.00  0.00     0.015 C 
ATOM      9  C   UNL     1      -1.027  -0.737  12.178  1.00  0.00    -0.035 C 
ATOM     10  C   UNL     1       3.636  -3.143  12.610  1.00  0.00    -0.006 C 
ATOM     11  C   UNL     1       1.464  -4.453  12.558  1.00  0.00    -0.027 C 
ATOM     12  C   UNL     1      -1.080  -0.104  13.590  1.00  0.00     0.011 C 
ATOM     13  C   UNL     1      -2.480  -1.007  11.731  1.00  0.00     0.011 C 
ATOM     14  C   UNL     1       3.908  -2.631  14.066  1.00  0.00     0.017 C 
ATOM     15  C   UNL     1       4.359  -4.566  12.318  1.00  0.00    -0.020 C 
ATOM     16  C   UNL     1       2.156  -5.788  12.572  1.00  0.00     0.032 C 
ATOM     17  C   UNL     1       3.612  -5.707  13.092  1.00  0.00     0.006 C 
ATOM     18  C   UNL     1       5.827  -4.544  12.804  1.00  0.00     0.008 C 
ATOM     19  C   UNL     1       4.329  -4.866  10.786  1.00  0.00     0.012 C 
ATOM     20  C   UNL     1       4.349  -7.132  13.337  1.00  0.00    -0.025 C 
ATOM     21  C   UNL     1       6.529  -5.878  12.618  1.00  0.00     0.005 C 
ATOM     22  C   UNL     1       5.929  -6.994  13.517  1.00  0.00     0.003 C 
ATOM     23  C   UNL     1       4.024  -8.243  12.262  1.00  0.00     0.010 C 
ATOM     24  C   UNL     1       3.741  -7.629  14.702  1.00  0.00     0.012 C 
ATOM     25  C   UNL     1       6.745  -8.354  13.340  1.00  0.00    -0.006 C 
ATOM     26  C   UNL     1       5.152  -8.606  11.279  1.00  0.00     0.033 C 
ATOM     27  C   UNL     1       6.502  -8.993  11.923  1.00  0.00     0.120 C 
ATOM     28  C   UNL     1       8.269  -8.113  13.577  1.00  0.00     0.014 C 
ATOM     29  C   UNL     1       6.352  -9.399  14.422  1.00  0.00     0.014 C 
ENDROOT
BRANCH   1  30
ATOM     30  C   UNL     1       1.771  -1.527   9.873  1.00  0.00     0.048 C 
ATOM     31  O   UNL     1       1.993  -2.749   9.654  1.00  0.00    -0.550 OA
ATOM     32  O   UNL     1       1.379  -0.722   8.810  1.00  0.00    -0.550 OA
ENDBRANCH   1  30
BRANCH  27  33
ATOM     33  O   UNL     1       7.533  -8.648  11.029  1.00  0.00    -0.393 OA
ATOM     34  H   UNL     1       8.203  -8.122  11.541  1.00  0.00     0.210 HD
ENDBRANCH  27  33
TORSDOF 2
ENDMDL
