MODEL 1
REMARK VINA RESULT:    -5.367      0.000      0.000
REMARK INTER + INTRA:         -18.220
REMARK INTER:                 -13.526
REMARK INTRA:                  -4.694
REMARK UNBOUND:                -4.694
REMARK SMILES CCCCCCCCCCCCCCCCCCCCCCCCCCCC(=O)[O-]
REMARK SMILES IDX 15 1 16 2 17 3 18 4 19 5 20 6 21 7 22 8 23 9 24 10 25 11
REMARK SMILES IDX 26 12 27 13 28 14 29 15 30 16 14 17 13 18 12 19 11 20 10 21
REMARK SMILES IDX 9 22 8 23 7 24 6 25 5 26 4 27 3 28 2 29 1 30
REMARK H PARENT
REMARK Flexibility Score: inf
ROOT
ATOM      1  C   UNL     1     -21.990  55.547  -3.215  1.00  0.00     0.000 C 
ENDROOT
BRANCH   1   2
ATOM      2  C   UNL     1     -20.905  56.623  -3.388  1.00  0.00     0.000 C 
BRANCH   2   3
ATOM      3  C   UNL     1     -19.531  56.169  -2.864  1.00  0.00     0.000 C 
BRANCH   3   4
ATOM      4  C   UNL     1     -18.373  56.624  -3.768  1.00  0.00     0.000 C 
BRANCH   4   5
ATOM      5  C   UNL     1     -17.005  56.125  -3.276  1.00  0.00     0.000 C 
BRANCH   5   6
ATOM      6  C   UNL     1     -17.092  54.673  -2.786  1.00  0.00     0.000 C 
BRANCH   6   7
ATOM      7  C   UNL     1     -16.404  54.456  -1.425  1.00  0.00     0.000 C 
BRANCH   7   8
ATOM      8  C   UNL     1     -17.238  53.685  -0.385  1.00  0.00     0.000 C 
BRANCH   8   9
ATOM      9  C   UNL     1     -17.715  54.573   0.776  1.00  0.00     0.000 C 
BRANCH   9  10
ATOM     10  C   UNL     1     -18.652  55.705   0.317  1.00  0.00     0.000 C 
BRANCH  10  11
ATOM     11  C   UNL     1     -18.250  57.121   0.777  1.00  0.00     0.000 C 
BRANCH  11  12
ATOM     12  C   UNL     1     -16.942  57.662   0.164  1.00  0.00     0.006 C 
BRANCH  12  13
ATOM     13  C   UNL     1     -15.792  57.826   1.168  1.00  0.00     0.053 C 
BRANCH  13  14
ATOM     14  C   UNL     1     -14.953  59.030   0.868  1.00  0.00     0.041 C 
ATOM     15  O   UNL     1     -15.483  60.067   0.387  1.00  0.00    -0.550 OA
ATOM     16  O   UNL     1     -13.594  59.022   1.154  1.00  0.00    -0.550 OA
ENDBRANCH  13  14
ENDBRANCH  12  13
ENDBRANCH  11  12
ENDBRANCH  10  11
ENDBRANCH   9  10
ENDBRANCH   8   9
ENDBRANCH   7   8
ENDBRANCH   6   7
ENDBRANCH   5   6
ENDBRANCH   4   5
ENDBRANCH   3   4
ENDBRANCH   2   3
ENDBRANCH   1   2
BRANCH   1  17
ATOM     17  C   UNL     1     -23.256  56.085  -2.527  1.00  0.00     0.000 C 
BRANCH  17  18
ATOM     18  C   UNL     1     -24.381  55.038  -2.469  1.00  0.00     0.000 C 
BRANCH  18  19
ATOM     19  C   UNL     1     -25.750  55.661  -2.140  1.00  0.00     0.000 C 
BRANCH  19  20
ATOM     20  C   UNL     1     -26.306  55.186  -0.788  1.00  0.00     0.000 C 
BRANCH  20  21
ATOM     21  C   UNL     1     -26.808  56.348   0.088  1.00  0.00     0.000 C 
BRANCH  21  22
ATOM     22  C   UNL     1     -26.521  57.727  -0.532  1.00  0.00    -0.000 C 
BRANCH  22  23
ATOM     23  C   UNL     1     -25.406  58.539   0.159  1.00  0.00    -0.000 C 
BRANCH  23  24
ATOM     24  C   UNL     1     -24.671  57.814   1.305  1.00  0.00    -0.000 C 
BRANCH  24  25
ATOM     25  C   UNL     1     -23.312  57.193   0.924  1.00  0.00    -0.000 C 
BRANCH  25  26
ATOM     26  C   UNL     1     -23.236  55.660   1.113  1.00  0.00    -0.000 C 
BRANCH  26  27
ATOM     27  C   UNL     1     -21.968  55.024   0.511  1.00  0.00    -0.000 C 
BRANCH  27  28
ATOM     28  C   UNL     1     -22.146  53.583  -0.003  1.00  0.00    -0.000 C 
BRANCH  28  29
ATOM     29  C   UNL     1     -20.834  52.824  -0.270  1.00  0.00    -0.003 C 
ATOM     30  C   UNL     1     -20.585  52.567  -1.756  1.00  0.00     0.004 C 
ENDBRANCH  28  29
ENDBRANCH  27  28
ENDBRANCH  26  27
ENDBRANCH  25  26
ENDBRANCH  24  25
ENDBRANCH  23  24
ENDBRANCH  22  23
ENDBRANCH  21  22
ENDBRANCH  20  21
ENDBRANCH  19  20
ENDBRANCH  18  19
ENDBRANCH  17  18
ENDBRANCH   1  17
TORSDOF 26
ENDMDL
MODEL 2
REMARK VINA RESULT:    -5.359      2.403      7.503
REMARK INTER + INTRA:         -18.199
REMARK INTER:                 -13.669
REMARK INTRA:                  -4.530
REMARK UNBOUND:                -4.694
REMARK SMILES CCCCCCCCCCCCCCCCCCCCCCCCCCCC(=O)[O-]
REMARK SMILES IDX 15 1 16 2 17 3 18 4 19 5 20 6 21 7 22 8 23 9 24 10 25 11
REMARK SMILES IDX 26 12 27 13 28 14 29 15 30 16 14 17 13 18 12 19 11 20 10 21
REMARK SMILES IDX 9 22 8 23 7 24 6 25 5 26 4 27 3 28 2 29 1 30
REMARK H PARENT
REMARK Flexibility Score: inf
ROOT
ATOM      1  C   UNL     1     -22.460  55.383  -2.913  1.00  0.00     0.000 C 
ENDROOT
BRANCH   1   2
ATOM      2  C   UNL     1     -22.875  54.354  -1.849  1.00  0.00     0.000 C 
BRANCH   2   3
ATOM      3  C   UNL     1     -22.320  54.688  -0.453  1.00  0.00     0.000 C 
BRANCH   3   4
ATOM      4  C   UNL     1     -22.979  53.856   0.660  1.00  0.00     0.000 C 
BRANCH   4   5
ATOM      5  C   UNL     1     -24.082  54.627   1.402  1.00  0.00     0.000 C 
BRANCH   5   6
ATOM      6  C   UNL     1     -25.474  54.226   0.892  1.00  0.00     0.000 C 
BRANCH   6   7
ATOM      7  C   UNL     1     -26.256  55.408   0.290  1.00  0.00     0.000 C 
BRANCH   7   8
ATOM      8  C   UNL     1     -26.344  55.420  -1.247  1.00  0.00     0.000 C 
BRANCH   8   9
ATOM      9  C   UNL     1     -25.804  56.719  -1.867  1.00  0.00     0.000 C 
BRANCH   9  10
ATOM     10  C   UNL     1     -25.454  57.785  -0.812  1.00  0.00     0.000 C 
BRANCH  10  11
ATOM     11  C   UNL     1     -23.990  58.269  -0.826  1.00  0.00     0.000 C 
BRANCH  11  12
ATOM     12  C   UNL     1     -23.217  58.056   0.491  1.00  0.00     0.006 C 
BRANCH  12  13
ATOM     13  C   UNL     1     -24.031  58.350   1.759  1.00  0.00     0.053 C 
BRANCH  13  14
ATOM     14  C   UNL     1     -23.249  59.152   2.754  1.00  0.00     0.041 C 
ATOM     15  O   UNL     1     -23.794  60.112   3.362  1.00  0.00    -0.550 OA
ATOM     16  O   UNL     1     -21.932  58.815   3.040  1.00  0.00    -0.550 OA
ENDBRANCH  13  14
ENDBRANCH  12  13
ENDBRANCH  11  12
ENDBRANCH  10  11
ENDBRANCH   9  10
ENDBRANCH   8   9
ENDBRANCH   7   8
ENDBRANCH   6   7
ENDBRANCH   5   6
ENDBRANCH   4   5
ENDBRANCH   3   4
ENDBRANCH   2   3
ENDBRANCH   1   2
BRANCH   1  17
ATOM     17  C   UNL     1     -21.356  56.334  -2.422  1.00  0.00     0.000 C 
BRANCH  17  18
ATOM     18  C   UNL     1     -20.350  56.687  -3.530  1.00  0.00     0.000 C 
BRANCH  18  19
ATOM     19  C   UNL     1     -18.889  56.547  -3.066  1.00  0.00     0.000 C 
BRANCH  19  20
ATOM     20  C   UNL     1     -18.098  55.529  -3.904  1.00  0.00     0.000 C 
BRANCH  20  21
ATOM     21  C   UNL     1     -17.817  54.223  -3.140  1.00  0.00     0.000 C 
BRANCH  21  22
ATOM     22  C   UNL     1     -19.103  53.501  -2.701  1.00  0.00    -0.000 C 
BRANCH  22  23
ATOM     23  C   UNL     1     -19.097  52.970  -1.253  1.00  0.00    -0.000 C 
BRANCH  23  24
ATOM     24  C   UNL     1     -19.109  54.049  -0.150  1.00  0.00    -0.000 C 
BRANCH  24  25
ATOM     25  C   UNL     1     -17.728  54.629   0.216  1.00  0.00    -0.000 C 
BRANCH  25  26
ATOM     26  C   UNL     1     -17.754  56.113   0.648  1.00  0.00    -0.000 C 
BRANCH  26  27
ATOM     27  C   UNL     1     -16.427  56.855   0.396  1.00  0.00    -0.000 C 
BRANCH  27  28
ATOM     28  C   UNL     1     -16.341  58.262   1.017  1.00  0.00    -0.000 C 
BRANCH  28  29
ATOM     29  C   UNL     1     -15.243  59.165   0.427  1.00  0.00    -0.003 C 
ATOM     30  C   UNL     1     -13.921  59.072   1.189  1.00  0.00     0.004 C 
ENDBRANCH  28  29
ENDBRANCH  27  28
ENDBRANCH  26  27
ENDBRANCH  25  26
ENDBRANCH  24  25
ENDBRANCH  23  24
ENDBRANCH  22  23
ENDBRANCH  21  22
ENDBRANCH  20  21
ENDBRANCH  19  20
ENDBRANCH  18  19
ENDBRANCH  17  18
ENDBRANCH   1  17
TORSDOF 26
ENDMDL
MODEL 3
REMARK VINA RESULT:    -5.315      2.393      6.286
REMARK INTER + INTRA:         -18.089
REMARK INTER:                 -12.961
REMARK INTRA:                  -5.128
REMARK UNBOUND:                -4.694
REMARK SMILES CCCCCCCCCCCCCCCCCCCCCCCCCCCC(=O)[O-]
REMARK SMILES IDX 15 1 16 2 17 3 18 4 19 5 20 6 21 7 22 8 23 9 24 10 25 11
REMARK SMILES IDX 26 12 27 13 28 14 29 15 30 16 14 17 13 18 12 19 11 20 10 21
REMARK SMILES IDX 9 22 8 23 7 24 6 25 5 26 4 27 3 28 2 29 1 30
REMARK H PARENT
REMARK Flexibility Score: inf
ROOT
ATOM      1  C   UNL     1     -17.481  54.547  -2.662  1.00  0.00     0.000 C 
ENDROOT
BRANCH   1   2
ATOM      2  C   UNL     1     -17.361  55.638  -3.739  1.00  0.00     0.000 C 
BRANCH   2   3
ATOM      3  C   UNL     1     -18.451  56.717  -3.613  1.00  0.00     0.000 C 
BRANCH   3   4
ATOM      4  C   UNL     1     -19.698  56.213  -2.868  1.00  0.00     0.000 C 
BRANCH   4   5
ATOM      5  C   UNL     1     -21.009  56.681  -3.521  1.00  0.00     0.000 C 
BRANCH   5   6
ATOM      6  C   UNL     1     -22.214  56.371  -2.623  1.00  0.00     0.000 C 
BRANCH   6   7
ATOM      7  C   UNL     1     -23.133  55.281  -3.206  1.00  0.00     0.000 C 
BRANCH   7   8
ATOM      8  C   UNL     1     -24.271  54.818  -2.277  1.00  0.00     0.000 C 
BRANCH   8   9
ATOM      9  C   UNL     1     -25.449  55.804  -2.237  1.00  0.00     0.000 C 
BRANCH   9  10
ATOM     10  C   UNL     1     -26.188  55.799  -0.886  1.00  0.00     0.000 C 
BRANCH  10  11
ATOM     11  C   UNL     1     -26.188  57.142  -0.130  1.00  0.00     0.000 C 
BRANCH  11  12
ATOM     12  C   UNL     1     -25.375  58.270  -0.797  1.00  0.00     0.006 C 
BRANCH  12  13
ATOM     13  C   UNL     1     -24.761  59.277   0.188  1.00  0.00     0.053 C 
BRANCH  13  14
ATOM     14  C   UNL     1     -23.531  59.926  -0.368  1.00  0.00     0.041 C 
ATOM     15  O   UNL     1     -23.345  59.968  -1.614  1.00  0.00    -0.550 OA
ATOM     16  O   UNL     1     -22.608  60.517   0.485  1.00  0.00    -0.550 OA
ENDBRANCH  13  14
ENDBRANCH  12  13
ENDBRANCH  11  12
ENDBRANCH  10  11
ENDBRANCH   9  10
ENDBRANCH   8   9
ENDBRANCH   7   8
ENDBRANCH   6   7
ENDBRANCH   5   6
ENDBRANCH   4   5
ENDBRANCH   3   4
ENDBRANCH   2   3
ENDBRANCH   1   2
BRANCH   1  17
ATOM     17  C   UNL     1     -16.515  54.764  -1.485  1.00  0.00     0.000 C 
BRANCH  17  18
ATOM     18  C   UNL     1     -16.923  53.964  -0.237  1.00  0.00     0.000 C 
BRANCH  18  19
ATOM     19  C   UNL     1     -17.649  54.829   0.808  1.00  0.00     0.000 C 
BRANCH  19  20
ATOM     20  C   UNL     1     -17.341  56.327   0.652  1.00  0.00     0.000 C 
BRANCH  20  21
ATOM     21  C   UNL     1     -18.612  57.185   0.533  1.00  0.00     0.000 C 
BRANCH  21  22
ATOM     22  C   UNL     1     -19.899  56.342   0.508  1.00  0.00    -0.000 C 
BRANCH  22  23
ATOM     23  C   UNL     1     -21.149  57.033   1.092  1.00  0.00    -0.000 C 
BRANCH  23  24
ATOM     24  C   UNL     1     -22.503  56.479   0.601  1.00  0.00    -0.000 C 
BRANCH  24  25
ATOM     25  C   UNL     1     -23.250  55.583   1.610  1.00  0.00    -0.000 C 
BRANCH  25  26
ATOM     26  C   UNL     1     -23.328  54.094   1.205  1.00  0.00    -0.000 C 
BRANCH  26  27
ATOM     27  C   UNL     1     -22.316  53.694   0.114  1.00  0.00    -0.000 C 
BRANCH  27  28
ATOM     28  C   UNL     1     -21.371  52.539   0.496  1.00  0.00    -0.000 C 
BRANCH  28  29
ATOM     29  C   UNL     1     -20.188  52.324  -0.465  1.00  0.00    -0.003 C 
ATOM     30  C   UNL     1     -20.516  52.700  -1.910  1.00  0.00     0.004 C 
ENDBRANCH  28  29
ENDBRANCH  27  28
ENDBRANCH  26  27
ENDBRANCH  25  26
ENDBRANCH  24  25
ENDBRANCH  23  24
ENDBRANCH  22  23
ENDBRANCH  21  22
ENDBRANCH  20  21
ENDBRANCH  19  20
ENDBRANCH  18  19
ENDBRANCH  17  18
ENDBRANCH   1  17
TORSDOF 26
ENDMDL
MODEL 4
REMARK VINA RESULT:    -5.207      3.900      6.407
REMARK INTER + INTRA:         -17.814
REMARK INTER:                 -14.151
REMARK INTRA:                  -3.664
REMARK UNBOUND:                -4.694
REMARK SMILES CCCCCCCCCCCCCCCCCCCCCCCCCCCC(=O)[O-]
REMARK SMILES IDX 15 1 16 2 17 3 18 4 19 5 20 6 21 7 22 8 23 9 24 10 25 11
REMARK SMILES IDX 26 12 27 13 28 14 29 15 30 16 14 17 13 18 12 19 11 20 10 21
REMARK SMILES IDX 9 22 8 23 7 24 6 25 5 26 4 27 3 28 2 29 1 30
REMARK H PARENT
REMARK Flexibility Score: inf
ROOT
ATOM      1  C   UNL     1     -17.929  55.042   0.493  1.00  0.00     0.000 C 
ENDROOT
BRANCH   1   2
ATOM      2  C   UNL     1     -16.908  54.108  -0.176  1.00  0.00     0.000 C 
BRANCH   2   3
ATOM      3  C   UNL     1     -16.243  54.744  -1.410  1.00  0.00     0.000 C 
BRANCH   3   4
ATOM      4  C   UNL     1     -17.183  54.799  -2.625  1.00  0.00     0.000 C 
BRANCH   4   5
ATOM      5  C   UNL     1     -17.107  56.140  -3.374  1.00  0.00     0.000 C 
BRANCH   5   6
ATOM      6  C   UNL     1     -18.511  56.668  -3.702  1.00  0.00     0.000 C 
BRANCH   6   7
ATOM      7  C   UNL     1     -19.574  56.225  -2.680  1.00  0.00     0.000 C 
BRANCH   7   8
ATOM      8  C   UNL     1     -20.983  55.998  -3.257  1.00  0.00     0.000 C 
BRANCH   8   9
ATOM      9  C   UNL     1     -22.074  56.761  -2.488  1.00  0.00     0.000 C 
BRANCH   9  10
ATOM     10  C   UNL     1     -23.057  55.826  -1.759  1.00  0.00     0.000 C 
BRANCH  10  11
ATOM     11  C   UNL     1     -22.719  54.324  -1.838  1.00  0.00     0.000 C 
BRANCH  11  12
ATOM     12  C   UNL     1     -22.267  53.683  -0.510  1.00  0.00     0.006 C 
BRANCH  12  13
ATOM     13  C   UNL     1     -20.746  53.532  -0.364  1.00  0.00     0.053 C 
BRANCH  13  14
ATOM     14  C   UNL     1     -20.206  52.434  -1.229  1.00  0.00     0.041 C 
ATOM     15  O   UNL     1     -20.006  51.288  -0.745  1.00  0.00    -0.550 OA
ATOM     16  O   UNL     1     -19.961  52.664  -2.576  1.00  0.00    -0.550 OA
ENDBRANCH  13  14
ENDBRANCH  12  13
ENDBRANCH  11  12
ENDBRANCH  10  11
ENDBRANCH   9  10
ENDBRANCH   8   9
ENDBRANCH   7   8
ENDBRANCH   6   7
ENDBRANCH   5   6
ENDBRANCH   4   5
ENDBRANCH   3   4
ENDBRANCH   2   3
ENDBRANCH   1   2
BRANCH   1  17
ATOM     17  C   UNL     1     -17.472  56.511   0.508  1.00  0.00     0.000 C 
BRANCH  17  18
ATOM     18  C   UNL     1     -18.614  57.477   0.862  1.00  0.00     0.000 C 
BRANCH  18  19
ATOM     19  C   UNL     1     -20.002  56.828   0.716  1.00  0.00     0.000 C 
BRANCH  19  20
ATOM     20  C   UNL     1     -21.120  57.672   1.350  1.00  0.00     0.000 C 
BRANCH  20  21
ATOM     21  C   UNL     1     -22.402  56.862   1.607  1.00  0.00     0.000 C 
BRANCH  21  22
ATOM     22  C   UNL     1     -23.474  57.667   2.363  1.00  0.00    -0.000 C 
BRANCH  22  23
ATOM     23  C   UNL     1     -23.306  59.200   2.305  1.00  0.00    -0.000 C 
BRANCH  23  24
ATOM     24  C   UNL     1     -23.887  59.976   3.505  1.00  0.00    -0.000 C 
BRANCH  24  25
ATOM     25  C   UNL     1     -23.676  59.312   4.881  1.00  0.00    -0.000 C 
BRANCH  25  26
ATOM     26  C   UNL     1     -22.754  60.104   5.836  1.00  0.00    -0.000 C 
BRANCH  26  27
ATOM     27  C   UNL     1     -21.263  59.735   5.706  1.00  0.00    -0.000 C 
BRANCH  27  28
ATOM     28  C   UNL     1     -20.510  59.596   7.042  1.00  0.00    -0.000 C 
BRANCH  28  29
ATOM     29  C   UNL     1     -19.762  58.263   7.229  1.00  0.00    -0.003 C 
ATOM     30  C   UNL     1     -20.332  57.414   8.365  1.00  0.00     0.004 C 
ENDBRANCH  28  29
ENDBRANCH  27  28
ENDBRANCH  26  27
ENDBRANCH  25  26
ENDBRANCH  24  25
ENDBRANCH  23  24
ENDBRANCH  22  23
ENDBRANCH  21  22
ENDBRANCH  20  21
ENDBRANCH  19  20
ENDBRANCH  18  19
ENDBRANCH  17  18
ENDBRANCH   1  17
TORSDOF 26
ENDMDL
MODEL 5
REMARK VINA RESULT:    -5.203      2.826      7.481
REMARK INTER + INTRA:         -17.805
REMARK INTER:                 -13.938
REMARK INTRA:                  -3.866
REMARK UNBOUND:                -4.694
REMARK SMILES CCCCCCCCCCCCCCCCCCCCCCCCCCCC(=O)[O-]
REMARK SMILES IDX 15 1 16 2 17 3 18 4 19 5 20 6 21 7 22 8 23 9 24 10 25 11
REMARK SMILES IDX 26 12 27 13 28 14 29 15 30 16 14 17 13 18 12 19 11 20 10 21
REMARK SMILES IDX 9 22 8 23 7 24 6 25 5 26 4 27 3 28 2 29 1 30
REMARK H PARENT
REMARK Flexibility Score: inf
ROOT
ATOM      1  C   UNL     1     -22.013  53.654  -0.399  1.00  0.00     0.000 C 
ENDROOT
BRANCH   1   2
ATOM      2  C   UNL     1     -22.744  54.836   0.260  1.00  0.00     0.000 C 
BRANCH   2   3
ATOM      3  C   UNL     1     -23.752  54.385   1.332  1.00  0.00     0.000 C 
BRANCH   3   4
ATOM      4  C   UNL     1     -25.211  54.544   0.875  1.00  0.00     0.000 C 
BRANCH   4   5
ATOM      5  C   UNL     1     -25.332  55.226  -0.498  1.00  0.00     0.000 C 
BRANCH   5   6
ATOM      6  C   UNL     1     -26.447  56.280  -0.494  1.00  0.00     0.000 C 
BRANCH   6   7
ATOM      7  C   UNL     1     -25.913  57.721  -0.591  1.00  0.00     0.000 C 
BRANCH   7   8
ATOM      8  C   UNL     1     -24.445  57.847  -1.040  1.00  0.00     0.000 C 
BRANCH   8   9
ATOM      9  C   UNL     1     -23.553  58.522   0.014  1.00  0.00     0.000 C 
BRANCH   9  10
ATOM     10  C   UNL     1     -24.004  58.228   1.457  1.00  0.00     0.000 C 
BRANCH  10  11
ATOM     11  C   UNL     1     -22.879  57.815   2.427  1.00  0.00     0.000 C 
BRANCH  11  12
ATOM     12  C   UNL     1     -22.339  58.947   3.325  1.00  0.00     0.006 C 
BRANCH  12  13
ATOM     13  C   UNL     1     -23.160  59.192   4.600  1.00  0.00     0.053 C 
BRANCH  13  14
ATOM     14  C   UNL     1     -22.289  59.517   5.774  1.00  0.00     0.041 C 
ATOM     15  O   UNL     1     -21.035  59.522   5.649  1.00  0.00    -0.550 OA
ATOM     16  O   UNL     1     -22.860  59.851   6.994  1.00  0.00    -0.550 OA
ENDBRANCH  13  14
ENDBRANCH  12  13
ENDBRANCH  11  12
ENDBRANCH  10  11
ENDBRANCH   9  10
ENDBRANCH   8   9
ENDBRANCH   7   8
ENDBRANCH   6   7
ENDBRANCH   5   6
ENDBRANCH   4   5
ENDBRANCH   3   4
ENDBRANCH   2   3
ENDBRANCH   1   2
BRANCH   1  17
ATOM     17  C   UNL     1     -21.398  54.020  -1.761  1.00  0.00     0.000 C 
BRANCH  17  18
ATOM     18  C   UNL     1     -22.255  55.032  -2.539  1.00  0.00     0.000 C 
BRANCH  18  19
ATOM     19  C   UNL     1     -21.412  56.149  -3.180  1.00  0.00     0.000 C 
BRANCH  19  20
ATOM     20  C   UNL     1     -20.017  56.274  -2.547  1.00  0.00     0.000 C 
BRANCH  20  21
ATOM     21  C   UNL     1     -18.924  56.596  -3.581  1.00  0.00     0.000 C 
BRANCH  21  22
ATOM     22  C   UNL     1     -17.760  55.589  -3.549  1.00  0.00    -0.000 C 
BRANCH  22  23
ATOM     23  C   UNL     1     -17.723  54.666  -2.314  1.00  0.00    -0.000 C 
BRANCH  23  24
ATOM     24  C   UNL     1     -16.415  54.705  -1.496  1.00  0.00    -0.000 C 
BRANCH  24  25
ATOM     25  C   UNL     1     -16.594  54.923   0.020  1.00  0.00    -0.000 C 
BRANCH  25  26
ATOM     26  C   UNL     1     -17.871  55.705   0.405  1.00  0.00    -0.000 C 
BRANCH  26  27
ATOM     27  C   UNL     1     -17.707  57.235   0.327  1.00  0.00    -0.000 C 
BRANCH  27  28
ATOM     28  C   UNL     1     -16.581  57.814   1.204  1.00  0.00    -0.000 C 
BRANCH  28  29
ATOM     29  C   UNL     1     -15.713  58.886   0.521  1.00  0.00    -0.003 C 
ATOM     30  C   UNL     1     -14.289  58.942   1.074  1.00  0.00     0.004 C 
ENDBRANCH  28  29
ENDBRANCH  27  28
ENDBRANCH  26  27
ENDBRANCH  25  26
ENDBRANCH  24  25
ENDBRANCH  23  24
ENDBRANCH  22  23
ENDBRANCH  21  22
ENDBRANCH  20  21
ENDBRANCH  19  20
ENDBRANCH  18  19
ENDBRANCH  17  18
ENDBRANCH   1  17
TORSDOF 26
ENDMDL
MODEL 6
REMARK VINA RESULT:    -5.161      2.779      7.044
REMARK INTER + INTRA:         -17.699
REMARK INTER:                 -13.155
REMARK INTRA:                  -4.544
REMARK UNBOUND:                -4.694
REMARK SMILES CCCCCCCCCCCCCCCCCCCCCCCCCCCC(=O)[O-]
REMARK SMILES IDX 15 1 16 2 17 3 18 4 19 5 20 6 21 7 22 8 23 9 24 10 25 11
REMARK SMILES IDX 26 12 27 13 28 14 29 15 30 16 14 17 13 18 12 19 11 20 10 21
REMARK SMILES IDX 9 22 8 23 7 24 6 25 5 26 4 27 3 28 2 29 1 30
REMARK H PARENT
REMARK Flexibility Score: inf
ROOT
ATOM      1  C   UNL     1     -19.369  56.590  -2.988  1.00  0.00     0.000 C 
ENDROOT
BRANCH   1   2
ATOM      2  C   UNL     1     -20.801  56.597  -3.548  1.00  0.00     0.000 C 
BRANCH   2   3
ATOM      3  C   UNL     1     -21.600  55.344  -3.147  1.00  0.00     0.000 C 
BRANCH   3   4
ATOM      4  C   UNL     1     -23.074  55.657  -2.839  1.00  0.00     0.000 C 
BRANCH   4   5
ATOM      5  C   UNL     1     -23.242  56.883  -1.927  1.00  0.00     0.000 C 
BRANCH   5   6
ATOM      6  C   UNL     1     -24.725  57.160  -1.644  1.00  0.00     0.000 C 
BRANCH   6   7
ATOM      7  C   UNL     1     -25.641  55.984  -2.031  1.00  0.00     0.000 C 
BRANCH   7   8
ATOM      8  C   UNL     1     -26.021  55.042  -0.874  1.00  0.00     0.000 C 
BRANCH   8   9
ATOM      9  C   UNL     1     -25.259  55.351   0.425  1.00  0.00     0.000 C 
BRANCH   9  10
ATOM     10  C   UNL     1     -24.358  54.189   0.881  1.00  0.00     0.000 C 
BRANCH  10  11
ATOM     11  C   UNL     1     -22.849  54.387   0.629  1.00  0.00     0.000 C 
BRANCH  11  12
ATOM     12  C   UNL     1     -22.158  53.243  -0.140  1.00  0.00     0.006 C 
BRANCH  12  13
ATOM     13  C   UNL     1     -20.630  53.371  -0.229  1.00  0.00     0.053 C 
BRANCH  13  14
ATOM     14  C   UNL     1     -20.034  52.348  -1.146  1.00  0.00     0.041 C 
ATOM     15  O   UNL     1     -19.757  52.649  -2.338  1.00  0.00    -0.550 OA
ATOM     16  O   UNL     1     -19.747  51.073  -0.675  1.00  0.00    -0.550 OA
ENDBRANCH  13  14
ENDBRANCH  12  13
ENDBRANCH  11  12
ENDBRANCH  10  11
ENDBRANCH   9  10
ENDBRANCH   8   9
ENDBRANCH   7   8
ENDBRANCH   6   7
ENDBRANCH   5   6
ENDBRANCH   4   5
ENDBRANCH   3   4
ENDBRANCH   2   3
ENDBRANCH   1   2
BRANCH   1  17
ATOM     17  C   UNL     1     -18.316  56.235  -4.051  1.00  0.00     0.000 C 
BRANCH  17  18
ATOM     18  C   UNL     1     -16.973  55.817  -3.430  1.00  0.00     0.000 C 
BRANCH  18  19
ATOM     19  C   UNL     1     -16.895  56.134  -1.926  1.00  0.00     0.000 C 
BRANCH  19  20
ATOM     20  C   UNL     1     -16.871  54.867  -1.054  1.00  0.00     0.000 C 
BRANCH  20  21
ATOM     21  C   UNL     1     -17.385  55.120   0.373  1.00  0.00     0.000 C 
BRANCH  21  22
ATOM     22  C   UNL     1     -17.216  56.584   0.817  1.00  0.00    -0.000 C 
BRANCH  22  23
ATOM     23  C   UNL     1     -18.522  57.400   0.902  1.00  0.00    -0.000 C 
BRANCH  23  24
ATOM     24  C   UNL     1     -19.802  56.649   0.478  1.00  0.00    -0.000 C 
BRANCH  24  25
ATOM     25  C   UNL     1     -21.117  57.227   1.036  1.00  0.00    -0.000 C 
BRANCH  25  26
ATOM     26  C   UNL     1     -20.929  58.375   2.054  1.00  0.00    -0.000 C 
BRANCH  26  27
ATOM     27  C   UNL     1     -22.227  58.782   2.777  1.00  0.00    -0.000 C 
BRANCH  27  28
ATOM     28  C   UNL     1     -23.464  57.938   2.415  1.00  0.00    -0.000 C 
BRANCH  28  29
ATOM     29  C   UNL     1     -24.576  58.702   1.674  1.00  0.00    -0.003 C 
ATOM     30  C   UNL     1     -24.242  60.178   1.454  1.00  0.00     0.004 C 
ENDBRANCH  28  29
ENDBRANCH  27  28
ENDBRANCH  26  27
ENDBRANCH  25  26
ENDBRANCH  24  25
ENDBRANCH  23  24
ENDBRANCH  22  23
ENDBRANCH  21  22
ENDBRANCH  20  21
ENDBRANCH  19  20
ENDBRANCH  18  19
ENDBRANCH  17  18
ENDBRANCH   1  17
TORSDOF 26
ENDMDL
MODEL 7
REMARK VINA RESULT:    -5.150      3.998      6.938
REMARK INTER + INTRA:         -17.672
REMARK INTER:                 -13.754
REMARK INTRA:                  -3.918
REMARK UNBOUND:                -4.694
REMARK SMILES CCCCCCCCCCCCCCCCCCCCCCCCCCCC(=O)[O-]
REMARK SMILES IDX 15 1 16 2 17 3 18 4 19 5 20 6 21 7 22 8 23 9 24 10 25 11
REMARK SMILES IDX 26 12 27 13 28 14 29 15 30 16 14 17 13 18 12 19 11 20 10 21
REMARK SMILES IDX 9 22 8 23 7 24 6 25 5 26 4 27 3 28 2 29 1 30
REMARK H PARENT
REMARK Flexibility Score: inf
ROOT
ATOM      1  C   UNL     1     -17.206  56.626  -1.623  1.00  0.00     0.000 C 
ENDROOT
BRANCH   1   2
ATOM      2  C   UNL     1     -17.075  56.267  -3.112  1.00  0.00     0.000 C 
BRANCH   2   3
ATOM      3  C   UNL     1     -18.330  55.567  -3.665  1.00  0.00     0.000 C 
BRANCH   3   4
ATOM      4  C   UNL     1     -19.634  56.235  -3.197  1.00  0.00     0.000 C 
BRANCH   4   5
ATOM      5  C   UNL     1     -20.733  55.216  -2.855  1.00  0.00     0.000 C 
BRANCH   5   6
ATOM      6  C   UNL     1     -20.125  53.884  -2.392  1.00  0.00     0.000 C 
BRANCH   6   7
ATOM      7  C   UNL     1     -21.082  53.062  -1.510  1.00  0.00     0.000 C 
BRANCH   7   8
ATOM      8  C   UNL     1     -22.327  53.818  -1.010  1.00  0.00     0.000 C 
BRANCH   8   9
ATOM      9  C   UNL     1     -22.572  53.636   0.497  1.00  0.00     0.000 C 
BRANCH   9  10
ATOM     10  C   UNL     1     -23.557  54.672   1.071  1.00  0.00     0.000 C 
BRANCH  10  11
ATOM     11  C   UNL     1     -25.050  54.340   0.876  1.00  0.00     0.000 C 
BRANCH  11  12
ATOM     12  C   UNL     1     -25.890  55.460   0.230  1.00  0.00     0.006 C 
BRANCH  12  13
ATOM     13  C   UNL     1     -25.923  55.423  -1.305  1.00  0.00     0.053 C 
BRANCH  13  14
ATOM     14  C   UNL     1     -25.296  56.642  -1.909  1.00  0.00     0.041 C 
ATOM     15  O   UNL     1     -26.008  57.481  -2.524  1.00  0.00    -0.550 OA
ATOM     16  O   UNL     1     -23.935  56.872  -1.761  1.00  0.00    -0.550 OA
ENDBRANCH  13  14
ENDBRANCH  12  13
ENDBRANCH  11  12
ENDBRANCH  10  11
ENDBRANCH   9  10
ENDBRANCH   8   9
ENDBRANCH   7   8
ENDBRANCH   6   7
ENDBRANCH   5   6
ENDBRANCH   4   5
ENDBRANCH   3   4
ENDBRANCH   2   3
ENDBRANCH   1   2
BRANCH   1  17
ATOM     17  C   UNL     1     -17.134  55.393  -0.705  1.00  0.00     0.000 C 
BRANCH  17  18
ATOM     18  C   UNL     1     -18.223  55.407   0.381  1.00  0.00     0.000 C 
BRANCH  18  19
ATOM     19  C   UNL     1     -18.934  56.768   0.486  1.00  0.00     0.000 C 
BRANCH  19  20
ATOM     20  C   UNL     1     -20.466  56.637   0.485  1.00  0.00     0.000 C 
BRANCH  20  21
ATOM     21  C   UNL     1     -21.133  57.481   1.585  1.00  0.00     0.000 C 
BRANCH  21  22
ATOM     22  C   UNL     1     -22.337  58.289   1.067  1.00  0.00    -0.000 C 
BRANCH  22  23
ATOM     23  C   UNL     1     -23.599  58.228   1.952  1.00  0.00    -0.000 C 
BRANCH  23  24
ATOM     24  C   UNL     1     -23.366  58.482   3.456  1.00  0.00    -0.000 C 
BRANCH  24  25
ATOM     25  C   UNL     1     -23.186  59.961   3.853  1.00  0.00    -0.000 C 
BRANCH  25  26
ATOM     26  C   UNL     1     -22.706  60.178   5.306  1.00  0.00    -0.000 C 
BRANCH  26  27
ATOM     27  C   UNL     1     -21.553  59.245   5.723  1.00  0.00    -0.000 C 
BRANCH  27  28
ATOM     28  C   UNL     1     -20.602  59.823   6.789  1.00  0.00    -0.000 C 
BRANCH  28  29
ATOM     29  C   UNL     1     -19.710  58.785   7.493  1.00  0.00    -0.003 C 
ATOM     30  C   UNL     1     -20.486  57.558   7.971  1.00  0.00     0.004 C 
ENDBRANCH  28  29
ENDBRANCH  27  28
ENDBRANCH  26  27
ENDBRANCH  25  26
ENDBRANCH  24  25
ENDBRANCH  23  24
ENDBRANCH  22  23
ENDBRANCH  21  22
ENDBRANCH  20  21
ENDBRANCH  19  20
ENDBRANCH  18  19
ENDBRANCH  17  18
ENDBRANCH   1  17
TORSDOF 26
ENDMDL
MODEL 8
REMARK VINA RESULT:    -5.142      3.525      7.055
REMARK INTER + INTRA:         -17.651
REMARK INTER:                 -13.724
REMARK INTRA:                  -3.928
REMARK UNBOUND:                -4.694
REMARK SMILES CCCCCCCCCCCCCCCCCCCCCCCCCCCC(=O)[O-]
REMARK SMILES IDX 15 1 16 2 17 3 18 4 19 5 20 6 21 7 22 8 23 9 24 10 25 11
REMARK SMILES IDX 26 12 27 13 28 14 29 15 30 16 14 17 13 18 12 19 11 20 10 21
REMARK SMILES IDX 9 22 8 23 7 24 6 25 5 26 4 27 3 28 2 29 1 30
REMARK H PARENT
REMARK Flexibility Score: inf
ROOT
ATOM      1  C   UNL     1     -17.152  55.871  -3.259  1.00  0.00     0.000 C 
ENDROOT
BRANCH   1   2
ATOM      2  C   UNL     1     -18.453  56.615  -3.600  1.00  0.00     0.000 C 
BRANCH   2   3
ATOM      3  C   UNL     1     -19.699  55.926  -3.016  1.00  0.00     0.000 C 
BRANCH   3   4
ATOM      4  C   UNL     1     -20.991  56.718  -3.282  1.00  0.00     0.000 C 
BRANCH   4   5
ATOM      5  C   UNL     1     -22.002  56.606  -2.130  1.00  0.00     0.000 C 
BRANCH   5   6
ATOM      6  C   UNL     1     -23.021  57.753  -2.177  1.00  0.00     0.000 C 
BRANCH   6   7
ATOM      7  C   UNL     1     -24.412  57.344  -1.658  1.00  0.00     0.000 C 
BRANCH   7   8
ATOM      8  C   UNL     1     -24.870  55.929  -2.056  1.00  0.00     0.000 C 
BRANCH   8   9
ATOM      9  C   UNL     1     -25.192  55.041  -0.842  1.00  0.00     0.000 C 
BRANCH   9  10
ATOM     10  C   UNL     1     -24.692  55.638   0.486  1.00  0.00     0.000 C 
BRANCH  10  11
ATOM     11  C   UNL     1     -23.767  54.723   1.313  1.00  0.00     0.000 C 
BRANCH  11  12
ATOM     12  C   UNL     1     -23.014  53.648   0.503  1.00  0.00     0.006 C 
BRANCH  12  13
ATOM     13  C   UNL     1     -21.688  54.126  -0.107  1.00  0.00     0.053 C 
BRANCH  13  14
ATOM     14  C   UNL     1     -20.873  52.988  -0.641  1.00  0.00     0.041 C 
ATOM     15  O   UNL     1     -20.757  52.822  -1.885  1.00  0.00    -0.550 OA
ATOM     16  O   UNL     1     -20.212  52.135   0.232  1.00  0.00    -0.550 OA
ENDBRANCH  13  14
ENDBRANCH  12  13
ENDBRANCH  11  12
ENDBRANCH  10  11
ENDBRANCH   9  10
ENDBRANCH   8   9
ENDBRANCH   7   8
ENDBRANCH   6   7
ENDBRANCH   5   6
ENDBRANCH   4   5
ENDBRANCH   3   4
ENDBRANCH   2   3
ENDBRANCH   1   2
BRANCH   1  17
ATOM     17  C   UNL     1     -17.397  54.572  -2.473  1.00  0.00     0.000 C 
BRANCH  17  18
ATOM     18  C   UNL     1     -16.663  54.556  -1.121  1.00  0.00     0.000 C 
BRANCH  18  19
ATOM     19  C   UNL     1     -17.603  54.839   0.064  1.00  0.00     0.000 C 
BRANCH  19  20
ATOM     20  C   UNL     1     -17.209  56.104   0.843  1.00  0.00     0.000 C 
BRANCH  20  21
ATOM     21  C   UNL     1     -18.141  57.294   0.555  1.00  0.00     0.000 C 
BRANCH  21  22
ATOM     22  C   UNL     1     -19.629  56.939   0.726  1.00  0.00    -0.000 C 
BRANCH  22  23
ATOM     23  C   UNL     1     -20.441  57.916   1.600  1.00  0.00    -0.000 C 
BRANCH  23  24
ATOM     24  C   UNL     1     -21.973  57.742   1.542  1.00  0.00    -0.000 C 
BRANCH  24  25
ATOM     25  C   UNL     1     -22.743  58.284   2.762  1.00  0.00    -0.000 C 
BRANCH  25  26
ATOM     26  C   UNL     1     -22.025  59.431   3.511  1.00  0.00    -0.000 C 
BRANCH  26  27
ATOM     27  C   UNL     1     -22.026  59.267   5.043  1.00  0.00    -0.000 C 
BRANCH  27  28
ATOM     28  C   UNL     1     -20.725  59.702   5.744  1.00  0.00    -0.000 C 
BRANCH  28  29
ATOM     29  C   UNL     1     -19.971  58.573   6.469  1.00  0.00    -0.003 C 
ATOM     30  C   UNL     1     -20.467  58.346   7.897  1.00  0.00     0.004 C 
ENDBRANCH  28  29
ENDBRANCH  27  28
ENDBRANCH  26  27
ENDBRANCH  25  26
ENDBRANCH  24  25
ENDBRANCH  23  24
ENDBRANCH  22  23
ENDBRANCH  21  22
ENDBRANCH  20  21
ENDBRANCH  19  20
ENDBRANCH  18  19
ENDBRANCH  17  18
ENDBRANCH   1  17
TORSDOF 26
ENDMDL
MODEL 9
REMARK VINA RESULT:    -5.093      3.523      6.824
REMARK INTER + INTRA:         -17.529
REMARK INTER:                 -13.518
REMARK INTRA:                  -4.011
REMARK UNBOUND:                -4.694
REMARK SMILES CCCCCCCCCCCCCCCCCCCCCCCCCCCC(=O)[O-]
REMARK SMILES IDX 15 1 16 2 17 3 18 4 19 5 20 6 21 7 22 8 23 9 24 10 25 11
REMARK SMILES IDX 26 12 27 13 28 14 29 15 30 16 14 17 13 18 12 19 11 20 10 21
REMARK SMILES IDX 9 22 8 23 7 24 6 25 5 26 4 27 3 28 2 29 1 30
REMARK H PARENT
REMARK Flexibility Score: inf
ROOT
ATOM      1  C   UNL     1     -18.346  56.615  -3.596  1.00  0.00     0.000 C 
ENDROOT
BRANCH   1   2
ATOM      2  C   UNL     1     -19.461  55.617  -3.242  1.00  0.00     0.000 C 
BRANCH   2   3
ATOM      3  C   UNL     1     -18.956  54.165  -3.170  1.00  0.00     0.000 C 
BRANCH   3   4
ATOM      4  C   UNL     1     -19.997  53.206  -2.569  1.00  0.00     0.000 C 
BRANCH   4   5
ATOM      5  C   UNL     1     -19.486  52.491  -1.307  1.00  0.00     0.000 C 
BRANCH   5   6
ATOM      6  C   UNL     1     -20.485  52.633  -0.150  1.00  0.00     0.000 C 
BRANCH   6   7
ATOM      7  C   UNL     1     -21.827  53.249  -0.588  1.00  0.00     0.000 C 
BRANCH   7   8
ATOM      8  C   UNL     1     -22.767  53.654   0.562  1.00  0.00     0.000 C 
BRANCH   8   9
ATOM      9  C   UNL     1     -23.859  54.643   0.121  1.00  0.00     0.000 C 
BRANCH   9  10
ATOM     10  C   UNL     1     -23.694  55.104  -1.339  1.00  0.00     0.000 C 
BRANCH  10  11
ATOM     11  C   UNL     1     -24.811  56.025  -1.869  1.00  0.00     0.000 C 
BRANCH  11  12
ATOM     12  C   UNL     1     -24.717  57.497  -1.417  1.00  0.00     0.006 C 
BRANCH  12  13
ATOM     13  C   UNL     1     -23.668  58.326  -2.171  1.00  0.00     0.053 C 
BRANCH  13  14
ATOM     14  C   UNL     1     -23.434  59.657  -1.524  1.00  0.00     0.041 C 
ATOM     15  O   UNL     1     -23.076  60.645  -2.220  1.00  0.00    -0.550 OA
ATOM     16  O   UNL     1     -23.647  59.816  -0.161  1.00  0.00    -0.550 OA
ENDBRANCH  13  14
ENDBRANCH  12  13
ENDBRANCH  11  12
ENDBRANCH  10  11
ENDBRANCH   9  10
ENDBRANCH   8   9
ENDBRANCH   7   8
ENDBRANCH   6   7
ENDBRANCH   5   6
ENDBRANCH   4   5
ENDBRANCH   3   4
ENDBRANCH   2   3
ENDBRANCH   1   2
BRANCH   1  17
ATOM     17  C   UNL     1     -17.013  56.287  -2.903  1.00  0.00     0.000 C 
BRANCH  17  18
ATOM     18  C   UNL     1     -16.992  56.733  -1.431  1.00  0.00     0.000 C 
BRANCH  18  19
ATOM     19  C   UNL     1     -16.950  55.543  -0.455  1.00  0.00     0.000 C 
BRANCH  19  20
ATOM     20  C   UNL     1     -18.191  55.477   0.450  1.00  0.00     0.000 C 
BRANCH  20  21
ATOM     21  C   UNL     1     -19.015  56.775   0.423  1.00  0.00     0.000 C 
BRANCH  21  22
ATOM     22  C   UNL     1     -20.497  56.533   0.085  1.00  0.00    -0.000 C 
BRANCH  22  23
ATOM     23  C   UNL     1     -21.503  57.048   1.134  1.00  0.00    -0.000 C 
BRANCH  23  24
ATOM     24  C   UNL     1     -21.035  58.265   1.960  1.00  0.00    -0.000 C 
BRANCH  24  25
ATOM     25  C   UNL     1     -22.115  58.907   2.853  1.00  0.00    -0.000 C 
BRANCH  25  26
ATOM     26  C   UNL     1     -21.590  59.441   4.205  1.00  0.00    -0.000 C 
BRANCH  26  27
ATOM     27  C   UNL     1     -22.574  59.244   5.374  1.00  0.00    -0.000 C 
BRANCH  27  28
ATOM     28  C   UNL     1     -22.033  59.659   6.756  1.00  0.00    -0.000 C 
BRANCH  28  29
ATOM     29  C   UNL     1     -21.329  58.538   7.540  1.00  0.00    -0.003 C 
ATOM     30  C   UNL     1     -19.810  58.553   7.368  1.00  0.00     0.004 C 
ENDBRANCH  28  29
ENDBRANCH  27  28
ENDBRANCH  26  27
ENDBRANCH  25  26
ENDBRANCH  24  25
ENDBRANCH  23  24
ENDBRANCH  22  23
ENDBRANCH  21  22
ENDBRANCH  20  21
ENDBRANCH  19  20
ENDBRANCH  18  19
ENDBRANCH  17  18
ENDBRANCH   1  17
TORSDOF 26
ENDMDL
