MODEL 1
REMARK VINA RESULT:    -7.015      0.000      0.000
REMARK INTER + INTRA:          -8.511
REMARK INTER:                  -8.245
REMARK INTRA:                  -0.266
REMARK UNBOUND:                -0.266
REMARK SMILES O=c1cc(-c2ccc(O)c(O)c2)oc2cc(O)cc(O)c12
REMARK SMILES IDX 4 1 3 2 2 3 1 4 21 5 19 6 18 7 16 8 15 9 14 10 13 11 5 12
REMARK SMILES IDX 6 13 7 14 8 15 12 16 10 17 9 18 11 20 20 22 17 24
REMARK H PARENT 9 19 11 21 20 23 17 25
REMARK Flexibility Score: inf
ROOT
ATOM      1  C   UNL     1       9.403  10.323 -19.955  1.00  0.00     0.138 A 
ATOM      2  C   UNL     1      10.186  11.392 -19.498  1.00  0.00     0.100 A 
ATOM      3  C   UNL     1      10.426  12.481 -20.338  1.00  0.00     0.197 A 
ATOM      4  O   UNL     1      11.183  13.396 -19.921  1.00  0.00    -0.289 OA
ATOM      5  C   UNL     1       9.851  12.513 -21.630  1.00  0.00     0.107 A 
ATOM      6  C   UNL     1       9.993  13.589 -22.557  1.00  0.00     0.134 A 
ATOM      7  C   UNL     1       9.476  13.457 -23.851  1.00  0.00     0.093 A 
ATOM      8  C   UNL     1       8.771  12.317 -24.233  1.00  0.00     0.123 A 
ATOM      9  C   UNL     1       8.579  11.280 -23.319  1.00  0.00     0.094 A 
ATOM     10  C   UNL     1       9.113  11.367 -22.030  1.00  0.00     0.146 A 
ATOM     11  O   UNL     1       8.921  10.352 -21.193  1.00  0.00    -0.456 OA
ENDROOT
BRANCH   1  12
ATOM     12  C   UNL     1       9.116   9.141 -19.104  1.00  0.00     0.021 A 
ATOM     13  C   UNL     1       9.900   7.982 -19.243  1.00  0.00     0.016 A 
ATOM     14  C   UNL     1       9.645   6.853 -18.459  1.00  0.00     0.051 A 
ATOM     15  C   UNL     1       8.598   6.861 -17.532  1.00  0.00     0.157 A 
ATOM     16  C   UNL     1       8.055   9.136 -18.177  1.00  0.00     0.062 A 
ATOM     17  C   UNL     1       7.800   8.002 -17.391  1.00  0.00     0.158 A 
BRANCH  15  18
ATOM     18  O   UNL     1       8.342   5.738 -16.746  1.00  0.00    -0.504 OA
ATOM     19  H   UNL     1       8.958   5.470 -15.987  1.00  0.00     0.293 HD
ENDBRANCH  15  18
BRANCH  17  20
ATOM     20  O   UNL     1       6.750   8.002 -16.474  1.00  0.00    -0.504 OA
ATOM     21  H   UNL     1       6.169   8.820 -16.332  1.00  0.00     0.293 HD
ENDBRANCH  17  20
ENDBRANCH   1  12
BRANCH   6  22
ATOM     22  O   UNL     1      10.606  14.807 -22.250  1.00  0.00    -0.507 OA
ATOM     23  H   UNL     1      11.114  15.379 -22.907  1.00  0.00     0.293 HD
ENDBRANCH   6  22
BRANCH   8  24
ATOM     24  O   UNL     1       8.257  12.227 -25.526  1.00  0.00    -0.508 OA
ATOM     25  H   UNL     1       8.627  12.788 -26.283  1.00  0.00     0.293 HD
ENDBRANCH   8  24
TORSDOF 5
ENDMDL
MODEL 2
REMARK VINA RESULT:    -6.999      1.498      7.369
REMARK INTER + INTRA:          -8.492
REMARK INTER:                  -8.229
REMARK INTRA:                  -0.263
REMARK UNBOUND:                -0.266
REMARK SMILES O=c1cc(-c2ccc(O)c(O)c2)oc2cc(O)cc(O)c12
REMARK SMILES IDX 4 1 3 2 2 3 1 4 21 5 19 6 18 7 16 8 15 9 14 10 13 11 5 12
REMARK SMILES IDX 6 13 7 14 8 15 12 16 10 17 9 18 11 20 20 22 17 24
REMARK H PARENT 9 19 11 21 20 23 17 25
REMARK Flexibility Score: inf
ROOT
ATOM      1  C   UNL     1       9.172   9.747 -19.142  1.00  0.00     0.138 A 
ATOM      2  C   UNL     1       9.846   8.521 -19.220  1.00  0.00     0.100 A 
ATOM      3  C   UNL     1       9.410   7.444 -18.446  1.00  0.00     0.197 A 
ATOM      4  O   UNL     1      10.073   6.375 -18.491  1.00  0.00    -0.289 OA
ATOM      5  C   UNL     1       8.273   7.587 -17.616  1.00  0.00     0.107 A 
ATOM      6  C   UNL     1       7.714   6.546 -16.816  1.00  0.00     0.134 A 
ATOM      7  C   UNL     1       6.658   6.838 -15.945  1.00  0.00     0.093 A 
ATOM      8  C   UNL     1       6.101   8.115 -15.889  1.00  0.00     0.123 A 
ATOM      9  C   UNL     1       6.604   9.128 -16.707  1.00  0.00     0.094 A 
ATOM     10  C   UNL     1       7.680   8.877 -17.562  1.00  0.00     0.146 A 
ATOM     11  O   UNL     1       8.141   9.872 -18.313  1.00  0.00    -0.456 OA
ENDROOT
BRANCH   1  12
ATOM     12  C   UNL     1       9.592  10.925 -19.943  1.00  0.00     0.021 A 
ATOM     13  C   UNL     1      10.472  11.866 -19.379  1.00  0.00     0.016 A 
ATOM     14  C   UNL     1      10.877  12.986 -20.109  1.00  0.00     0.051 A 
ATOM     15  C   UNL     1      10.401  13.191 -21.409  1.00  0.00     0.157 A 
ATOM     16  C   UNL     1       9.108  11.145 -21.247  1.00  0.00     0.062 A 
ATOM     17  C   UNL     1       9.513  12.271 -21.979  1.00  0.00     0.158 A 
BRANCH  15  18
ATOM     18  O   UNL     1      10.804  14.307 -22.142  1.00  0.00    -0.504 OA
ATOM     19  H   UNL     1      10.651  15.249 -21.799  1.00  0.00     0.293 HD
ENDBRANCH  15  18
BRANCH  17  20
ATOM     20  O   UNL     1       9.033  12.483 -23.270  1.00  0.00    -0.504 OA
ATOM     21  H   UNL     1       8.705  13.393 -23.571  1.00  0.00     0.293 HD
ENDBRANCH  17  20
ENDBRANCH   1  12
BRANCH   6  22
ATOM     22  O   UNL     1       8.140   5.216 -16.857  1.00  0.00    -0.507 OA
ATOM     23  H   UNL     1       8.270   4.625 -16.050  1.00  0.00     0.293 HD
ENDBRANCH   6  22
BRANCH   8  24
ATOM     24  O   UNL     1       5.040   8.365 -15.021  1.00  0.00    -0.508 OA
ATOM     25  H   UNL     1       4.235   8.908 -15.311  1.00  0.00     0.293 HD
ENDBRANCH   8  24
TORSDOF 5
ENDMDL
MODEL 3
REMARK VINA RESULT:    -6.696      1.042      1.549
REMARK INTER + INTRA:          -8.137
REMARK INTER:                  -7.871
REMARK INTRA:                  -0.266
REMARK UNBOUND:                -0.266
REMARK SMILES O=c1cc(-c2ccc(O)c(O)c2)oc2cc(O)cc(O)c12
REMARK SMILES IDX 4 1 3 2 2 3 1 4 21 5 19 6 18 7 16 8 15 9 14 10 13 11 5 12
REMARK SMILES IDX 6 13 7 14 8 15 12 16 10 17 9 18 11 20 20 22 17 24
REMARK H PARENT 9 19 11 21 20 23 17 25
REMARK Flexibility Score: inf
ROOT
ATOM      1  C   UNL     1       9.126  10.310 -20.613  1.00  0.00     0.138 A 
ATOM      2  C   UNL     1       9.761  11.400 -20.002  1.00  0.00     0.100 A 
ATOM      3  C   UNL     1      10.031  12.549 -20.748  1.00  0.00     0.197 A 
ATOM      4  O   UNL     1      10.658  13.486 -20.189  1.00  0.00    -0.289 OA
ATOM      5  C   UNL     1       9.632  12.617 -22.104  1.00  0.00     0.107 A 
ATOM      6  C   UNL     1       9.817  13.751 -22.950  1.00  0.00     0.134 A 
ATOM      7  C   UNL     1       9.487  13.661 -24.308  1.00  0.00     0.093 A 
ATOM      8  C   UNL     1       8.923  12.500 -24.837  1.00  0.00     0.123 A 
ATOM      9  C   UNL     1       8.688  11.402 -24.007  1.00  0.00     0.094 A 
ATOM     10  C   UNL     1       9.038  11.450 -22.656  1.00  0.00     0.146 A 
ATOM     11  O   UNL     1       8.811  10.379 -21.902  1.00  0.00    -0.456 OA
ENDROOT
BRANCH   1  12
ATOM     12  C   UNL     1       8.815   9.065 -19.866  1.00  0.00     0.021 A 
ATOM     13  C   UNL     1       7.477   8.653 -19.735  1.00  0.00     0.016 A 
ATOM     14  C   UNL     1       7.157   7.490 -19.031  1.00  0.00     0.051 A 
ATOM     15  C   UNL     1       8.167   6.725 -18.437  1.00  0.00     0.157 A 
ATOM     16  C   UNL     1       9.825   8.297 -19.254  1.00  0.00     0.062 A 
ATOM     17  C   UNL     1       9.503   7.130 -18.546  1.00  0.00     0.158 A 
BRANCH  15  18
ATOM     18  O   UNL     1       7.853   5.562 -17.735  1.00  0.00    -0.504 OA
ATOM     19  H   UNL     1       8.207   4.657 -18.023  1.00  0.00     0.293 HD
ENDBRANCH  15  18
BRANCH  17  20
ATOM     20  O   UNL     1      10.505   6.371 -17.944  1.00  0.00    -0.504 OA
ATOM     21  H   UNL     1      11.475   6.664 -17.960  1.00  0.00     0.293 HD
ENDBRANCH  17  20
ENDBRANCH   1  12
BRANCH   6  22
ATOM     22  O   UNL     1      10.293  14.987 -22.505  1.00  0.00    -0.507 OA
ATOM     23  H   UNL     1      10.845  15.626 -23.057  1.00  0.00     0.293 HD
ENDBRANCH   6  22
BRANCH   8  24
ATOM     24  O   UNL     1       8.593  12.451 -26.190  1.00  0.00    -0.508 OA
ATOM     25  H   UNL     1       8.053  11.686 -26.576  1.00  0.00     0.293 HD
ENDBRANCH   8  24
TORSDOF 5
ENDMDL
MODEL 4
REMARK VINA RESULT:    -6.574      1.746      7.349
REMARK INTER + INTRA:          -7.993
REMARK INTER:                  -7.728
REMARK INTRA:                  -0.265
REMARK UNBOUND:                -0.266
REMARK SMILES O=c1cc(-c2ccc(O)c(O)c2)oc2cc(O)cc(O)c12
REMARK SMILES IDX 4 1 3 2 2 3 1 4 21 5 19 6 18 7 16 8 15 9 14 10 13 11 5 12
REMARK SMILES IDX 6 13 7 14 8 15 12 16 10 17 9 18 11 20 20 22 17 24
REMARK H PARENT 9 19 11 21 20 23 17 25
REMARK Flexibility Score: inf
ROOT
ATOM      1  C   UNL     1       8.205  10.397 -18.577  1.00  0.00     0.138 A 
ATOM      2  C   UNL     1       7.131  10.915 -17.839  1.00  0.00     0.100 A 
ATOM      3  C   UNL     1       6.396  10.071 -17.005  1.00  0.00     0.197 A 
ATOM      4  O   UNL     1       5.400  10.551 -16.404  1.00  0.00    -0.289 OA
ATOM      5  C   UNL     1       6.760   8.709 -16.885  1.00  0.00     0.107 A 
ATOM      6  C   UNL     1       6.110   7.765 -16.034  1.00  0.00     0.134 A 
ATOM      7  C   UNL     1       6.484   6.417 -16.086  1.00  0.00     0.093 A 
ATOM      8  C   UNL     1       7.522   5.989 -16.911  1.00  0.00     0.123 A 
ATOM      9  C   UNL     1       8.202   6.911 -17.708  1.00  0.00     0.094 A 
ATOM     10  C   UNL     1       7.829   8.258 -17.704  1.00  0.00     0.146 A 
ATOM     11  O   UNL     1       8.491   9.103 -18.488  1.00  0.00    -0.456 OA
ENDROOT
BRANCH   1  12
ATOM     12  C   UNL     1       9.020  11.250 -19.478  1.00  0.00     0.021 A 
ATOM     13  C   UNL     1      10.099  11.981 -18.950  1.00  0.00     0.016 A 
ATOM     14  C   UNL     1      10.876  12.797 -19.776  1.00  0.00     0.051 A 
ATOM     15  C   UNL     1      10.583  12.904 -21.140  1.00  0.00     0.157 A 
ATOM     16  C   UNL     1       8.723  11.374 -20.850  1.00  0.00     0.062 A 
ATOM     17  C   UNL     1       9.503  12.194 -21.678  1.00  0.00     0.158 A 
BRANCH  15  18
ATOM     18  O   UNL     1      11.358  13.716 -21.967  1.00  0.00    -0.504 OA
ATOM     19  H   UNL     1      12.366  13.623 -22.006  1.00  0.00     0.293 HD
ENDBRANCH  15  18
BRANCH  17  20
ATOM     20  O   UNL     1       9.207  12.312 -23.035  1.00  0.00    -0.504 OA
ATOM     21  H   UNL     1       9.836  12.779 -23.677  1.00  0.00     0.293 HD
ENDBRANCH  17  20
ENDBRANCH   1  12
BRANCH   6  22
ATOM     22  O   UNL     1       5.118   8.102 -15.110  1.00  0.00    -0.507 OA
ATOM     23  H   UNL     1       4.382   8.774 -15.270  1.00  0.00     0.293 HD
ENDBRANCH   6  22
BRANCH   8  24
ATOM     24  O   UNL     1       7.877   4.641 -16.926  1.00  0.00    -0.508 OA
ATOM     25  H   UNL     1       7.813   4.085 -17.771  1.00  0.00     0.293 HD
ENDBRANCH   8  24
TORSDOF 5
ENDMDL
MODEL 5
REMARK VINA RESULT:    -6.520      1.034      2.690
REMARK INTER + INTRA:          -7.930
REMARK INTER:                  -7.666
REMARK INTRA:                  -0.264
REMARK UNBOUND:                -0.266
REMARK SMILES O=c1cc(-c2ccc(O)c(O)c2)oc2cc(O)cc(O)c12
REMARK SMILES IDX 4 1 3 2 2 3 1 4 21 5 19 6 18 7 16 8 15 9 14 10 13 11 5 12
REMARK SMILES IDX 6 13 7 14 8 15 12 16 10 17 9 18 11 20 20 22 17 24
REMARK H PARENT 9 19 11 21 20 23 17 25
REMARK Flexibility Score: inf
ROOT
ATOM      1  C   UNL     1       8.707   9.699 -20.830  1.00  0.00     0.138 A 
ATOM      2  C   UNL     1       8.048   9.376 -22.024  1.00  0.00     0.100 A 
ATOM      3  C   UNL     1       8.023  10.299 -23.070  1.00  0.00     0.197 A 
ATOM      4  O   UNL     1       7.370  10.005 -24.106  1.00  0.00    -0.289 OA
ATOM      5  C   UNL     1       8.690  11.539 -22.931  1.00  0.00     0.107 A 
ATOM      6  C   UNL     1       8.767  12.540 -23.946  1.00  0.00     0.134 A 
ATOM      7  C   UNL     1       9.355  13.776 -23.652  1.00  0.00     0.093 A 
ATOM      8  C   UNL     1       9.922  14.026 -22.403  1.00  0.00     0.123 A 
ATOM      9  C   UNL     1       9.901  13.035 -21.420  1.00  0.00     0.094 A 
ATOM     10  C   UNL     1       9.291  11.804 -21.671  1.00  0.00     0.146 A 
ATOM     11  O   UNL     1       9.278  10.892 -20.704  1.00  0.00    -0.456 OA
ENDROOT
BRANCH   1  12
ATOM     12  C   UNL     1       8.764   8.754 -19.686  1.00  0.00     0.021 A 
ATOM     13  C   UNL     1       9.797   7.801 -19.627  1.00  0.00     0.016 A 
ATOM     14  C   UNL     1       9.869   6.896 -18.566  1.00  0.00     0.051 A 
ATOM     15  C   UNL     1       8.906   6.921 -17.551  1.00  0.00     0.157 A 
ATOM     16  C   UNL     1       7.791   8.764 -18.667  1.00  0.00     0.062 A 
ATOM     17  C   UNL     1       7.864   7.854 -17.602  1.00  0.00     0.158 A 
BRANCH  15  18
ATOM     18  O   UNL     1       8.975   6.021 -16.489  1.00  0.00    -0.504 OA
ATOM     19  H   UNL     1       8.157   5.516 -16.167  1.00  0.00     0.293 HD
ENDBRANCH  15  18
BRANCH  17  20
ATOM     20  O   UNL     1       6.900   7.869 -16.595  1.00  0.00    -0.504 OA
ATOM     21  H   UNL     1       6.267   8.651 -16.478  1.00  0.00     0.293 HD
ENDBRANCH  17  20
ENDBRANCH   1  12
BRANCH   6  22
ATOM     22  O   UNL     1       8.307  12.362 -25.253  1.00  0.00    -0.507 OA
ATOM     23  H   UNL     1       7.353  12.160 -25.508  1.00  0.00     0.293 HD
ENDBRANCH   6  22
BRANCH   8  24
ATOM     24  O   UNL     1      10.513  15.263 -22.151  1.00  0.00    -0.508 OA
ATOM     25  H   UNL     1      11.516  15.393 -22.208  1.00  0.00     0.293 HD
ENDBRANCH   8  24
TORSDOF 5
ENDMDL
MODEL 6
REMARK VINA RESULT:    -6.426      1.552      2.358
REMARK INTER + INTRA:          -7.819
REMARK INTER:                  -7.556
REMARK INTRA:                  -0.263
REMARK UNBOUND:                -0.266
REMARK SMILES O=c1cc(-c2ccc(O)c(O)c2)oc2cc(O)cc(O)c12
REMARK SMILES IDX 4 1 3 2 2 3 1 4 21 5 19 6 18 7 16 8 15 9 14 10 13 11 5 12
REMARK SMILES IDX 6 13 7 14 8 15 12 16 10 17 9 18 11 20 20 22 17 24
REMARK H PARENT 9 19 11 21 20 23 17 25
REMARK Flexibility Score: inf
ROOT
ATOM      1  C   UNL     1       8.026  10.093 -18.766  1.00  0.00     0.138 A 
ATOM      2  C   UNL     1       9.192  10.796 -18.433  1.00  0.00     0.100 A 
ATOM      3  C   UNL     1       9.820  11.588 -19.396  1.00  0.00     0.197 A 
ATOM      4  O   UNL     1      10.899  12.156 -19.086  1.00  0.00    -0.289 OA
ATOM      5  C   UNL     1       9.256  11.702 -20.689  1.00  0.00     0.107 A 
ATOM      6  C   UNL     1       9.786  12.512 -21.738  1.00  0.00     0.134 A 
ATOM      7  C   UNL     1       9.208  12.455 -23.012  1.00  0.00     0.093 A 
ATOM      8  C   UNL     1       8.087  11.665 -23.261  1.00  0.00     0.123 A 
ATOM      9  C   UNL     1       7.528  10.909 -22.229  1.00  0.00     0.094 A 
ATOM     10  C   UNL     1       8.101  10.918 -20.955  1.00  0.00     0.146 A 
ATOM     11  O   UNL     1       7.548  10.174 -20.003  1.00  0.00    -0.456 OA
ENDROOT
BRANCH   1  12
ATOM     12  C   UNL     1       7.318   9.238 -17.780  1.00  0.00     0.021 A 
ATOM     13  C   UNL     1       6.232   9.767 -17.059  1.00  0.00     0.016 A 
ATOM     14  C   UNL     1       5.555   8.984 -16.120  1.00  0.00     0.051 A 
ATOM     15  C   UNL     1       5.956   7.666 -15.879  1.00  0.00     0.157 A 
ATOM     16  C   UNL     1       7.724   7.914 -17.522  1.00  0.00     0.062 A 
ATOM     17  C   UNL     1       7.044   7.130 -16.579  1.00  0.00     0.158 A 
BRANCH  15  18
ATOM     18  O   UNL     1       5.281   6.881 -14.945  1.00  0.00    -0.504 OA
ATOM     19  H   UNL     1       5.231   5.873 -15.037  1.00  0.00     0.293 HD
ENDBRANCH  15  18
BRANCH  17  20
ATOM     20  O   UNL     1       7.448   5.820 -16.328  1.00  0.00    -0.504 OA
ATOM     21  H   UNL     1       6.951   5.027 -16.717  1.00  0.00     0.293 HD
ENDBRANCH  17  20
ENDBRANCH   1  12
BRANCH   6  22
ATOM     22  O   UNL     1      10.851  13.401 -21.575  1.00  0.00    -0.507 OA
ATOM     23  H   UNL     1      11.310  13.598 -20.699  1.00  0.00     0.293 HD
ENDBRANCH   6  22
BRANCH   8  24
ATOM     24  O   UNL     1       7.530  11.644 -24.538  1.00  0.00    -0.508 OA
ATOM     25  H   UNL     1       7.090  10.811 -24.910  1.00  0.00     0.293 HD
ENDBRANCH   8  24
TORSDOF 5
ENDMDL
MODEL 7
REMARK VINA RESULT:    -6.408      2.563      7.523
REMARK INTER + INTRA:          -7.798
REMARK INTER:                  -7.536
REMARK INTRA:                  -0.263
REMARK UNBOUND:                -0.266
REMARK SMILES O=c1cc(-c2ccc(O)c(O)c2)oc2cc(O)cc(O)c12
REMARK SMILES IDX 4 1 3 2 2 3 1 4 21 5 19 6 18 7 16 8 15 9 14 10 13 11 5 12
REMARK SMILES IDX 6 13 7 14 8 15 12 16 10 17 9 18 11 20 20 22 17 24
REMARK H PARENT 9 19 11 21 20 23 17 25
REMARK Flexibility Score: inf
ROOT
ATOM      1  C   UNL     1       6.763   9.640 -20.050  1.00  0.00     0.138 A 
ATOM      2  C   UNL     1       5.966  10.309 -19.111  1.00  0.00     0.100 A 
ATOM      3  C   UNL     1       5.644   9.681 -17.907  1.00  0.00     0.197 A 
ATOM      4  O   UNL     1       4.875  10.281 -17.111  1.00  0.00    -0.289 OA
ATOM      5  C   UNL     1       6.151   8.389 -17.629  1.00  0.00     0.107 A 
ATOM      6  C   UNL     1       5.924   7.670 -16.418  1.00  0.00     0.134 A 
ATOM      7  C   UNL     1       6.380   6.351 -16.303  1.00  0.00     0.093 A 
ATOM      8  C   UNL     1       7.106   5.748 -17.328  1.00  0.00     0.123 A 
ATOM      9  C   UNL     1       7.382   6.461 -18.496  1.00  0.00     0.094 A 
ATOM     10  C   UNL     1       6.911   7.766 -18.655  1.00  0.00     0.146 A 
ATOM     11  O   UNL     1       7.181   8.406 -19.788  1.00  0.00    -0.456 OA
ENDROOT
BRANCH   1  12
ATOM     12  C   UNL     1       7.136  10.261 -21.346  1.00  0.00     0.021 A 
ATOM     13  C   UNL     1       8.382  10.900 -21.474  1.00  0.00     0.016 A 
ATOM     14  C   UNL     1       8.753  11.499 -22.680  1.00  0.00     0.051 A 
ATOM     15  C   UNL     1       7.882  11.479 -23.775  1.00  0.00     0.157 A 
ATOM     16  C   UNL     1       6.259  10.257 -22.449  1.00  0.00     0.062 A 
ATOM     17  C   UNL     1       6.632  10.859 -23.659  1.00  0.00     0.158 A 
BRANCH  15  18
ATOM     18  O   UNL     1       8.250  12.074 -24.981  1.00  0.00    -0.504 OA
ATOM     19  H   UNL     1       9.084  11.788 -25.480  1.00  0.00     0.293 HD
ENDBRANCH  15  18
BRANCH  17  20
ATOM     20  O   UNL     1       5.763  10.851 -24.749  1.00  0.00    -0.504 OA
ATOM     21  H   UNL     1       4.761  10.767 -24.628  1.00  0.00     0.293 HD
ENDBRANCH  17  20
ENDBRANCH   1  12
BRANCH   6  22
ATOM     22  O   UNL     1       5.283   8.208 -15.299  1.00  0.00    -0.507 OA
ATOM     23  H   UNL     1       5.319   9.178 -15.023  1.00  0.00     0.293 HD
ENDBRANCH   6  22
BRANCH   8  24
ATOM     24  O   UNL     1       7.558   4.438 -17.173  1.00  0.00    -0.508 OA
ATOM     25  H   UNL     1       8.252   4.040 -17.794  1.00  0.00     0.293 HD
ENDBRANCH   8  24
TORSDOF 5
ENDMDL
MODEL 8
REMARK VINA RESULT:    -6.396      1.949      7.235
REMARK INTER + INTRA:          -7.784
REMARK INTER:                  -7.515
REMARK INTRA:                  -0.269
REMARK UNBOUND:                -0.266
REMARK SMILES O=c1cc(-c2ccc(O)c(O)c2)oc2cc(O)cc(O)c12
REMARK SMILES IDX 4 1 3 2 2 3 1 4 21 5 19 6 18 7 16 8 15 9 14 10 13 11 5 12
REMARK SMILES IDX 6 13 7 14 8 15 12 16 10 17 9 18 11 20 20 22 17 24
REMARK H PARENT 9 19 11 21 20 23 17 25
REMARK Flexibility Score: inf
ROOT
ATOM      1  C   UNL     1       8.334   9.574 -20.433  1.00  0.00     0.138 A 
ATOM      2  C   UNL     1       9.358   8.642 -20.214  1.00  0.00     0.100 A 
ATOM      3  C   UNL     1       9.311   7.818 -19.088  1.00  0.00     0.197 A 
ATOM      4  O   UNL     1      10.276   7.035 -18.885  1.00  0.00    -0.289 OA
ATOM      5  C   UNL     1       8.216   7.905 -18.196  1.00  0.00     0.107 A 
ATOM      6  C   UNL     1       8.042   7.087 -17.039  1.00  0.00     0.134 A 
ATOM      7  C   UNL     1       6.978   7.344 -16.167  1.00  0.00     0.093 A 
ATOM      8  C   UNL     1       6.048   8.347 -16.439  1.00  0.00     0.123 A 
ATOM      9  C   UNL     1       6.178   9.118 -17.596  1.00  0.00     0.094 A 
ATOM     10  C   UNL     1       7.248   8.909 -18.468  1.00  0.00     0.146 A 
ATOM     11  O   UNL     1       7.345   9.674 -19.551  1.00  0.00    -0.456 OA
ENDROOT
BRANCH   1  12
ATOM     12  C   UNL     1       8.333  10.474 -21.613  1.00  0.00     0.021 A 
ATOM     13  C   UNL     1       9.278  11.513 -21.691  1.00  0.00     0.016 A 
ATOM     14  C   UNL     1       9.293  12.379 -22.787  1.00  0.00     0.051 A 
ATOM     15  C   UNL     1       8.360  12.228 -23.819  1.00  0.00     0.157 A 
ATOM     16  C   UNL     1       7.389  10.336 -22.650  1.00  0.00     0.062 A 
ATOM     17  C   UNL     1       7.404  11.207 -23.750  1.00  0.00     0.158 A 
BRANCH  15  18
ATOM     18  O   UNL     1       8.373  13.088 -24.916  1.00  0.00    -0.504 OA
ATOM     19  H   UNL     1       7.667  13.805 -25.035  1.00  0.00     0.293 HD
ENDBRANCH  15  18
BRANCH  17  20
ATOM     20  O   UNL     1       6.470  11.065 -24.774  1.00  0.00    -0.504 OA
ATOM     21  H   UNL     1       6.748  11.046 -25.748  1.00  0.00     0.293 HD
ENDBRANCH  17  20
ENDBRANCH   1  12
BRANCH   6  22
ATOM     22  O   UNL     1       8.864   6.004 -16.719  1.00  0.00    -0.507 OA
ATOM     23  H   UNL     1       9.752   6.072 -16.245  1.00  0.00     0.293 HD
ENDBRANCH   6  22
BRANCH   8  24
ATOM     24  O   UNL     1       4.993   8.565 -15.556  1.00  0.00    -0.508 OA
ATOM     25  H   UNL     1       4.351   9.339 -15.678  1.00  0.00     0.293 HD
ENDBRANCH   8  24
TORSDOF 5
ENDMDL
MODEL 9
REMARK VINA RESULT:    -6.369      2.144      3.053
REMARK INTER + INTRA:          -7.752
REMARK INTER:                  -7.443
REMARK INTRA:                  -0.308
REMARK UNBOUND:                -0.266
REMARK SMILES O=c1cc(-c2ccc(O)c(O)c2)oc2cc(O)cc(O)c12
REMARK SMILES IDX 4 1 3 2 2 3 1 4 21 5 19 6 18 7 16 8 15 9 14 10 13 11 5 12
REMARK SMILES IDX 6 13 7 14 8 15 12 16 10 17 9 18 11 20 20 22 17 24
REMARK H PARENT 9 19 11 21 20 23 17 25
REMARK Flexibility Score: inf
ROOT
ATOM      1  C   UNL     1       8.035  10.846 -20.654  1.00  0.00     0.138 A 
ATOM      2  C   UNL     1       8.389  10.049 -21.752  1.00  0.00     0.100 A 
ATOM      3  C   UNL     1       8.701  10.654 -22.971  1.00  0.00     0.197 A 
ATOM      4  O   UNL     1       8.955   9.910 -23.954  1.00  0.00    -0.289 OA
ATOM      5  C   UNL     1       8.691  12.064 -23.080  1.00  0.00     0.107 A 
ATOM      6  C   UNL     1       9.032  12.791 -24.260  1.00  0.00     0.134 A 
ATOM      7  C   UNL     1       8.873  14.182 -24.284  1.00  0.00     0.093 A 
ATOM      8  C   UNL     1       8.443  14.878 -23.154  1.00  0.00     0.123 A 
ATOM      9  C   UNL     1       8.157  14.183 -21.978  1.00  0.00     0.094 A 
ATOM     10  C   UNL     1       8.274  12.792 -21.933  1.00  0.00     0.146 A 
ATOM     11  O   UNL     1       7.979  12.165 -20.798  1.00  0.00    -0.456 OA
ENDROOT
BRANCH   1  12
ATOM     12  C   UNL     1       7.694  10.255 -19.335  1.00  0.00     0.021 A 
ATOM     13  C   UNL     1       7.190   8.943 -19.274  1.00  0.00     0.016 A 
ATOM     14  C   UNL     1       6.854   8.368 -18.046  1.00  0.00     0.051 A 
ATOM     15  C   UNL     1       7.006   9.095 -16.861  1.00  0.00     0.157 A 
ATOM     16  C   UNL     1       7.832  10.985 -18.138  1.00  0.00     0.062 A 
ATOM     17  C   UNL     1       7.493  10.407 -16.906  1.00  0.00     0.158 A 
BRANCH  15  18
ATOM     18  O   UNL     1       6.674   8.524 -15.633  1.00  0.00    -0.504 OA
ATOM     19  H   UNL     1       7.356   8.011 -15.086  1.00  0.00     0.293 HD
ENDBRANCH  15  18
BRANCH  17  20
ATOM     20  O   UNL     1       7.633  11.133 -15.724  1.00  0.00    -0.504 OA
ATOM     21  H   UNL     1       7.900  10.686 -14.855  1.00  0.00     0.293 HD
ENDBRANCH  17  20
ENDBRANCH   1  12
BRANCH   6  22
ATOM     22  O   UNL     1       9.552  12.203 -25.416  1.00  0.00    -0.507 OA
ATOM     23  H   UNL     1       9.341  11.269 -25.733  1.00  0.00     0.293 HD
ENDBRANCH   6  22
BRANCH   8  24
ATOM     24  O   UNL     1       8.310  16.264 -23.210  1.00  0.00    -0.508 OA
ATOM     25  H   UNL     1       9.100  16.878 -23.056  1.00  0.00     0.293 HD
ENDBRANCH   8  24
TORSDOF 5
ENDMDL
