MODEL 1
REMARK VINA RESULT:    -5.827      0.000      0.000
REMARK INTER + INTRA:         -16.385
REMARK INTER:                 -14.683
REMARK INTRA:                  -1.702
REMARK UNBOUND:                -1.702
REMARK SMILES CCCCCCCCCCCCCCCCCCCCCCCCCCCC(=O)[O-]
REMARK SMILES IDX 15 1 16 2 17 3 18 4 19 5 20 6 21 7 22 8 23 9 24 10 25 11
REMARK SMILES IDX 26 12 27 13 28 14 29 15 30 16 14 17 13 18 12 19 11 20 10 21
REMARK SMILES IDX 9 22 8 23 7 24 6 25 5 26 4 27 3 28 2 29 1 30
REMARK H PARENT
REMARK Flexibility Score: inf
ROOT
ATOM      1  C   UNL     1      10.796  10.639 -19.007  1.00  0.00     0.000 C 
ENDROOT
BRANCH   1   2
ATOM      2  C   UNL     1      11.409   9.286 -19.415  1.00  0.00     0.000 C 
BRANCH   2   3
ATOM      3  C   UNL     1      11.998   8.467 -18.249  1.00  0.00     0.000 C 
BRANCH   3   4
ATOM      4  C   UNL     1      13.003   7.384 -18.707  1.00  0.00     0.000 C 
BRANCH   4   5
ATOM      5  C   UNL     1      13.371   7.522 -20.197  1.00  0.00     0.000 C 
BRANCH   5   6
ATOM      6  C   UNL     1      14.683   6.794 -20.561  1.00  0.00     0.000 C 
BRANCH   6   7
ATOM      7  C   UNL     1      15.428   7.413 -21.756  1.00  0.00     0.000 C 
BRANCH   7   8
ATOM      8  C   UNL     1      16.444   8.481 -21.333  1.00  0.00     0.000 C 
BRANCH   8   9
ATOM      9  C   UNL     1      16.744   8.403 -19.831  1.00  0.00     0.000 C 
BRANCH   9  10
ATOM     10  C   UNL     1      17.917   9.310 -19.410  1.00  0.00     0.000 C 
BRANCH  10  11
ATOM     11  C   UNL     1      18.903   9.617 -20.555  1.00  0.00     0.000 C 
BRANCH  11  12
ATOM     12  C   UNL     1      19.042  11.128 -20.823  1.00  0.00     0.006 C 
BRANCH  12  13
ATOM     13  C   UNL     1      17.732  11.884 -20.576  1.00  0.00     0.053 C 
BRANCH  13  14
ATOM     14  C   UNL     1      17.959  13.174 -19.840  1.00  0.00     0.041 C 
ATOM     15  O   UNL     1      19.129  13.546 -19.561  1.00  0.00    -0.550 OA
ATOM     16  O   UNL     1      16.876  13.939 -19.428  1.00  0.00    -0.550 OA
ENDBRANCH  13  14
ENDBRANCH  12  13
ENDBRANCH  11  12
ENDBRANCH  10  11
ENDBRANCH   9  10
ENDBRANCH   8   9
ENDBRANCH   7   8
ENDBRANCH   6   7
ENDBRANCH   5   6
ENDBRANCH   4   5
ENDBRANCH   3   4
ENDBRANCH   2   3
ENDBRANCH   1   2
BRANCH   1  17
ATOM     17  C   UNL     1      10.027  11.370 -20.123  1.00  0.00     0.000 C 
BRANCH  17  18
ATOM     18  C   UNL     1       9.386  12.682 -19.639  1.00  0.00     0.000 C 
BRANCH  18  19
ATOM     19  C   UNL     1       9.177  13.704 -20.770  1.00  0.00     0.000 C 
BRANCH  19  20
ATOM     20  C   UNL     1       8.581  15.061 -20.337  1.00  0.00     0.000 C 
BRANCH  20  21
ATOM     21  C   UNL     1       7.176  15.369 -20.880  1.00  0.00     0.000 C 
BRANCH  21  22
ATOM     22  C   UNL     1       6.560  14.186 -21.643  1.00  0.00    -0.000 C 
BRANCH  22  23
ATOM     23  C   UNL     1       5.265  14.563 -22.383  1.00  0.00    -0.000 C 
BRANCH  23  24
ATOM     24  C   UNL     1       4.345  13.381 -22.740  1.00  0.00    -0.000 C 
BRANCH  24  25
ATOM     25  C   UNL     1       2.970  13.464 -22.054  1.00  0.00    -0.000 C 
BRANCH  25  26
ATOM     26  C   UNL     1       2.910  14.582 -20.999  1.00  0.00    -0.000 C 
BRANCH  26  27
ATOM     27  C   UNL     1       1.603  14.555 -20.194  1.00  0.00    -0.000 C 
BRANCH  27  28
ATOM     28  C   UNL     1       1.200  13.115 -19.836  1.00  0.00    -0.000 C 
BRANCH  28  29
ATOM     29  C   UNL     1       1.862  12.627 -18.538  1.00  0.00    -0.003 C 
ATOM     30  C   UNL     1       1.795  13.659 -17.415  1.00  0.00     0.004 C 
ENDBRANCH  28  29
ENDBRANCH  27  28
ENDBRANCH  26  27
ENDBRANCH  25  26
ENDBRANCH  24  25
ENDBRANCH  23  24
ENDBRANCH  22  23
ENDBRANCH  21  22
ENDBRANCH  20  21
ENDBRANCH  19  20
ENDBRANCH  18  19
ENDBRANCH  17  18
ENDBRANCH   1  17
TORSDOF 26
ENDMDL
MODEL 2
REMARK VINA RESULT:    -5.820      0.865      1.638
REMARK INTER + INTRA:         -16.369
REMARK INTER:                 -14.961
REMARK INTRA:                  -1.408
REMARK UNBOUND:                -1.702
REMARK SMILES CCCCCCCCCCCCCCCCCCCCCCCCCCCC(=O)[O-]
REMARK SMILES IDX 15 1 16 2 17 3 18 4 19 5 20 6 21 7 22 8 23 9 24 10 25 11
REMARK SMILES IDX 26 12 27 13 28 14 29 15 30 16 14 17 13 18 12 19 11 20 10 21
REMARK SMILES IDX 9 22 8 23 7 24 6 25 5 26 4 27 3 28 2 29 1 30
REMARK H PARENT
REMARK Flexibility Score: inf
ROOT
ATOM      1  C   UNL     1      10.698  11.707 -19.589  1.00  0.00     0.000 C 
ENDROOT
BRANCH   1   2
ATOM      2  C   UNL     1      10.762  10.426 -18.737  1.00  0.00     0.000 C 
BRANCH   2   3
ATOM      3  C   UNL     1      11.565   9.272 -19.368  1.00  0.00     0.000 C 
BRANCH   3   4
ATOM      4  C   UNL     1      12.338   8.424 -18.331  1.00  0.00     0.000 C 
BRANCH   4   5
ATOM      5  C   UNL     1      12.980   7.173 -18.961  1.00  0.00     0.000 C 
BRANCH   5   6
ATOM      6  C   UNL     1      13.519   7.429 -20.386  1.00  0.00     0.000 C 
BRANCH   6   7
ATOM      7  C   UNL     1      14.853   6.723 -20.682  1.00  0.00     0.000 C 
BRANCH   7   8
ATOM      8  C   UNL     1      15.573   7.305 -21.905  1.00  0.00     0.000 C 
BRANCH   8   9
ATOM      9  C   UNL     1      16.136   8.701 -21.609  1.00  0.00     0.000 C 
BRANCH   9  10
ATOM     10  C   UNL     1      17.194   8.692 -20.489  1.00  0.00     0.000 C 
BRANCH  10  11
ATOM     11  C   UNL     1      18.170   9.884 -20.552  1.00  0.00     0.000 C 
BRANCH  11  12
ATOM     12  C   UNL     1      17.523  11.144 -21.159  1.00  0.00     0.006 C 
BRANCH  12  13
ATOM     13  C   UNL     1      18.462  12.355 -21.118  1.00  0.00     0.053 C 
BRANCH  13  14
ATOM     14  C   UNL     1      18.093  13.313 -20.021  1.00  0.00     0.041 C 
ATOM     15  O   UNL     1      18.992  13.870 -19.338  1.00  0.00    -0.550 OA
ATOM     16  O   UNL     1      16.757  13.555 -19.730  1.00  0.00    -0.550 OA
ENDBRANCH  13  14
ENDBRANCH  12  13
ENDBRANCH  11  12
ENDBRANCH  10  11
ENDBRANCH   9  10
ENDBRANCH   8   9
ENDBRANCH   7   8
ENDBRANCH   6   7
ENDBRANCH   5   6
ENDBRANCH   4   5
ENDBRANCH   3   4
ENDBRANCH   2   3
ENDBRANCH   1   2
BRANCH   1  17
ATOM     17  C   UNL     1       9.410  11.877 -20.417  1.00  0.00     0.000 C 
BRANCH  17  18
ATOM     18  C   UNL     1       8.863  13.314 -20.374  1.00  0.00     0.000 C 
BRANCH  18  19
ATOM     19  C   UNL     1       7.563  13.489 -21.178  1.00  0.00     0.000 C 
BRANCH  19  20
ATOM     20  C   UNL     1       6.978  14.918 -21.193  1.00  0.00     0.000 C 
BRANCH  20  21
ATOM     21  C   UNL     1       5.562  15.045 -21.777  1.00  0.00     0.000 C 
BRANCH  21  22
ATOM     22  C   UNL     1       5.137  13.809 -22.586  1.00  0.00    -0.000 C 
BRANCH  22  23
ATOM     23  C   UNL     1       3.661  13.433 -22.370  1.00  0.00    -0.000 C 
BRANCH  23  24
ATOM     24  C   UNL     1       2.911  14.288 -21.332  1.00  0.00    -0.000 C 
BRANCH  24  25
ATOM     25  C   UNL     1       1.949  13.462 -20.460  1.00  0.00    -0.000 C 
BRANCH  25  26
ATOM     26  C   UNL     1       1.278  14.308 -19.365  1.00  0.00    -0.000 C 
BRANCH  26  27
ATOM     27  C   UNL     1       0.743  13.451 -18.209  1.00  0.00    -0.000 C 
BRANCH  27  28
ATOM     28  C   UNL     1       1.865  12.615 -17.573  1.00  0.00    -0.000 C 
BRANCH  28  29
ATOM     29  C   UNL     1       1.946  12.804 -16.050  1.00  0.00    -0.003 C 
ATOM     30  C   UNL     1       2.949  13.879 -15.639  1.00  0.00     0.004 C 
ENDBRANCH  28  29
ENDBRANCH  27  28
ENDBRANCH  26  27
ENDBRANCH  25  26
ENDBRANCH  24  25
ENDBRANCH  23  24
ENDBRANCH  22  23
ENDBRANCH  21  22
ENDBRANCH  20  21
ENDBRANCH  19  20
ENDBRANCH  18  19
ENDBRANCH  17  18
ENDBRANCH   1  17
TORSDOF 26
ENDMDL
MODEL 3
REMARK VINA RESULT:    -5.805      1.582      3.870
REMARK INTER + INTRA:         -16.330
REMARK INTER:                 -14.224
REMARK INTRA:                  -2.106
REMARK UNBOUND:                -1.702
REMARK SMILES CCCCCCCCCCCCCCCCCCCCCCCCCCCC(=O)[O-]
REMARK SMILES IDX 15 1 16 2 17 3 18 4 19 5 20 6 21 7 22 8 23 9 24 10 25 11
REMARK SMILES IDX 26 12 27 13 28 14 29 15 30 16 14 17 13 18 12 19 11 20 10 21
REMARK SMILES IDX 9 22 8 23 7 24 6 25 5 26 4 27 3 28 2 29 1 30
REMARK H PARENT
REMARK Flexibility Score: inf
ROOT
ATOM      1  C   UNL     1      11.838   8.832 -19.040  1.00  0.00     0.000 C 
ENDROOT
BRANCH   1   2
ATOM      2  C   UNL     1      12.840   8.251 -20.055  1.00  0.00     0.000 C 
BRANCH   2   3
ATOM      3  C   UNL     1      13.472   6.908 -19.640  1.00  0.00     0.000 C 
BRANCH   3   4
ATOM      4  C   UNL     1      14.733   6.545 -20.459  1.00  0.00     0.000 C 
BRANCH   4   5
ATOM      5  C   UNL     1      15.185   7.698 -21.376  1.00  0.00     0.000 C 
BRANCH   5   6
ATOM      6  C   UNL     1      16.573   8.258 -20.992  1.00  0.00     0.000 C 
BRANCH   6   7
ATOM      7  C   UNL     1      16.623   8.889 -19.590  1.00  0.00     0.000 C 
BRANCH   7   8
ATOM      8  C   UNL     1      18.049   9.244 -19.150  1.00  0.00     0.000 C 
BRANCH   8   9
ATOM      9  C   UNL     1      19.059   8.996 -20.277  1.00  0.00     0.000 C 
BRANCH   9  10
ATOM     10  C   UNL     1      19.963  10.215 -20.546  1.00  0.00     0.000 C 
BRANCH  10  11
ATOM     11  C   UNL     1      19.792  10.812 -21.957  1.00  0.00     0.000 C 
BRANCH  11  12
ATOM     12  C   UNL     1      19.123  12.200 -21.933  1.00  0.00     0.006 C 
BRANCH  12  13
ATOM     13  C   UNL     1      17.828  12.207 -21.113  1.00  0.00     0.053 C 
BRANCH  13  14
ATOM     14  C   UNL     1      17.894  13.178 -19.970  1.00  0.00     0.041 C 
ATOM     15  O   UNL     1      16.837  13.675 -19.499  1.00  0.00    -0.550 OA
ATOM     16  O   UNL     1      19.125  13.566 -19.456  1.00  0.00    -0.550 OA
ENDBRANCH  13  14
ENDBRANCH  12  13
ENDBRANCH  11  12
ENDBRANCH  10  11
ENDBRANCH   9  10
ENDBRANCH   8   9
ENDBRANCH   7   8
ENDBRANCH   6   7
ENDBRANCH   5   6
ENDBRANCH   4   5
ENDBRANCH   3   4
ENDBRANCH   2   3
ENDBRANCH   1   2
BRANCH   1  17
ATOM     17  C   UNL     1      10.788   9.790 -19.635  1.00  0.00     0.000 C 
BRANCH  17  18
ATOM     18  C   UNL     1      10.790  11.168 -18.952  1.00  0.00     0.000 C 
BRANCH  18  19
ATOM     19  C   UNL     1      10.840  11.081 -17.416  1.00  0.00     0.000 C 
BRANCH  19  20
ATOM     20  C   UNL     1      10.441  12.369 -16.665  1.00  0.00     0.000 C 
BRANCH  20  21
ATOM     21  C   UNL     1       9.786  13.460 -17.527  1.00  0.00     0.000 C 
BRANCH  21  22
ATOM     22  C   UNL     1       9.437  14.724 -16.725  1.00  0.00    -0.000 C 
BRANCH  22  23
ATOM     23  C   UNL     1       8.953  15.881 -17.617  1.00  0.00    -0.000 C 
BRANCH  23  24
ATOM     24  C   UNL     1       9.422  15.822 -19.082  1.00  0.00    -0.000 C 
BRANCH  24  25
ATOM     25  C   UNL     1       8.280  15.503 -20.063  1.00  0.00    -0.000 C 
BRANCH  25  26
ATOM     26  C   UNL     1       8.495  14.168 -20.796  1.00  0.00    -0.000 C 
BRANCH  26  27
ATOM     27  C   UNL     1       7.180  13.568 -21.313  1.00  0.00    -0.000 C 
BRANCH  27  28
ATOM     28  C   UNL     1       6.204  14.669 -21.757  1.00  0.00    -0.000 C 
BRANCH  28  29
ATOM     29  C   UNL     1       4.958  14.102 -22.456  1.00  0.00    -0.003 C 
ATOM     30  C   UNL     1       3.688  14.260 -21.623  1.00  0.00     0.004 C 
ENDBRANCH  28  29
ENDBRANCH  27  28
ENDBRANCH  26  27
ENDBRANCH  25  26
ENDBRANCH  24  25
ENDBRANCH  23  24
ENDBRANCH  22  23
ENDBRANCH  21  22
ENDBRANCH  20  21
ENDBRANCH  19  20
ENDBRANCH  18  19
ENDBRANCH  17  18
ENDBRANCH   1  17
TORSDOF 26
ENDMDL
MODEL 4
REMARK VINA RESULT:    -5.692      4.115     13.328
REMARK INTER + INTRA:         -16.047
REMARK INTER:                 -14.641
REMARK INTRA:                  -1.405
REMARK UNBOUND:                -1.702
REMARK SMILES CCCCCCCCCCCCCCCCCCCCCCCCCCCC(=O)[O-]
REMARK SMILES IDX 15 1 16 2 17 3 18 4 19 5 20 6 21 7 22 8 23 9 24 10 25 11
REMARK SMILES IDX 26 12 27 13 28 14 29 15 30 16 14 17 13 18 12 19 11 20 10 21
REMARK SMILES IDX 9 22 8 23 7 24 6 25 5 26 4 27 3 28 2 29 1 30
REMARK H PARENT
REMARK Flexibility Score: inf
ROOT
ATOM      1  C   UNL     1       9.274  11.698 -20.423  1.00  0.00     0.000 C 
ENDROOT
BRANCH   1   2
ATOM      2  C   UNL     1       8.800  13.161 -20.512  1.00  0.00     0.000 C 
BRANCH   2   3
ATOM      3  C   UNL     1       7.450  13.358 -21.231  1.00  0.00     0.000 C 
BRANCH   3   4
ATOM      4  C   UNL     1       6.956  14.824 -21.214  1.00  0.00     0.000 C 
BRANCH   4   5
ATOM      5  C   UNL     1       5.607  14.992 -21.939  1.00  0.00     0.000 C 
BRANCH   5   6
ATOM      6  C   UNL     1       5.063  13.664 -22.510  1.00  0.00     0.000 C 
BRANCH   6   7
ATOM      7  C   UNL     1       3.545  13.485 -22.331  1.00  0.00     0.000 C 
BRANCH   7   8
ATOM      8  C   UNL     1       2.999  14.239 -21.113  1.00  0.00     0.000 C 
BRANCH   8   9
ATOM      9  C   UNL     1       1.814  13.497 -20.482  1.00  0.00     0.000 C 
BRANCH   9  10
ATOM     10  C   UNL     1       1.835  13.542 -18.941  1.00  0.00     0.000 C 
BRANCH  10  11
ATOM     11  C   UNL     1       1.502  12.190 -18.279  1.00  0.00     0.000 C 
BRANCH  11  12
ATOM     12  C   UNL     1       1.477  12.277 -16.741  1.00  0.00     0.006 C 
BRANCH  12  13
ATOM     13  C   UNL     1       1.427  10.894 -16.082  1.00  0.00     0.053 C 
BRANCH  13  14
ATOM     14  C   UNL     1       2.795  10.407 -15.697  1.00  0.00     0.041 C 
ATOM     15  O   UNL     1       3.260   9.355 -16.210  1.00  0.00    -0.550 OA
ATOM     16  O   UNL     1       3.534  11.094 -14.743  1.00  0.00    -0.550 OA
ENDBRANCH  13  14
ENDBRANCH  12  13
ENDBRANCH  11  12
ENDBRANCH  10  11
ENDBRANCH   9  10
ENDBRANCH   8   9
ENDBRANCH   7   8
ENDBRANCH   6   7
ENDBRANCH   5   6
ENDBRANCH   4   5
ENDBRANCH   3   4
ENDBRANCH   2   3
ENDBRANCH   1   2
BRANCH   1  17
ATOM     17  C   UNL     1      10.661  11.499 -19.783  1.00  0.00     0.000 C 
BRANCH  17  18
ATOM     18  C   UNL     1      10.732  10.240 -18.903  1.00  0.00     0.000 C 
BRANCH  18  19
ATOM     19  C   UNL     1      11.738   9.198 -19.422  1.00  0.00     0.000 C 
BRANCH  19  20
ATOM     20  C   UNL     1      12.258   8.195 -18.369  1.00  0.00     0.000 C 
BRANCH  20  21
ATOM     21  C   UNL     1      13.370   7.249 -18.852  1.00  0.00     0.000 C 
BRANCH  21  22
ATOM     22  C   UNL     1      13.465   7.173 -20.384  1.00  0.00    -0.000 C 
BRANCH  22  23
ATOM     23  C   UNL     1      14.725   6.435 -20.867  1.00  0.00    -0.000 C 
BRANCH  23  24
ATOM     24  C   UNL     1      15.611   7.222 -21.849  1.00  0.00    -0.000 C 
BRANCH  24  25
ATOM     25  C   UNL     1      16.042   8.593 -21.298  1.00  0.00    -0.000 C 
BRANCH  25  26
ATOM     26  C   UNL     1      16.882   8.470 -20.016  1.00  0.00    -0.000 C 
BRANCH  26  27
ATOM     27  C   UNL     1      17.910   9.602 -19.881  1.00  0.00    -0.000 C 
BRANCH  27  28
ATOM     28  C   UNL     1      17.943  10.476 -21.145  1.00  0.00    -0.000 C 
BRANCH  28  29
ATOM     29  C   UNL     1      19.298  11.173 -21.341  1.00  0.00    -0.003 C 
ATOM     30  C   UNL     1      19.418  11.865 -22.697  1.00  0.00     0.004 C 
ENDBRANCH  28  29
ENDBRANCH  27  28
ENDBRANCH  26  27
ENDBRANCH  25  26
ENDBRANCH  24  25
ENDBRANCH  23  24
ENDBRANCH  22  23
ENDBRANCH  21  22
ENDBRANCH  20  21
ENDBRANCH  19  20
ENDBRANCH  18  19
ENDBRANCH  17  18
ENDBRANCH   1  17
TORSDOF 26
ENDMDL
MODEL 5
REMARK VINA RESULT:    -5.688      1.009      1.749
REMARK INTER + INTRA:         -16.036
REMARK INTER:                 -14.416
REMARK INTRA:                  -1.620
REMARK UNBOUND:                -1.702
REMARK SMILES CCCCCCCCCCCCCCCCCCCCCCCCCCCC(=O)[O-]
REMARK SMILES IDX 15 1 16 2 17 3 18 4 19 5 20 6 21 7 22 8 23 9 24 10 25 11
REMARK SMILES IDX 26 12 27 13 28 14 29 15 30 16 14 17 13 18 12 19 11 20 10 21
REMARK SMILES IDX 9 22 8 23 7 24 6 25 5 26 4 27 3 28 2 29 1 30
REMARK H PARENT
REMARK Flexibility Score: inf
ROOT
ATOM      1  C   UNL     1      11.022   9.798 -19.396  1.00  0.00     0.000 C 
ENDROOT
BRANCH   1   2
ATOM      2  C   UNL     1      11.956   8.677 -18.901  1.00  0.00     0.000 C 
BRANCH   2   3
ATOM      3  C   UNL     1      12.663   7.887 -20.020  1.00  0.00     0.000 C 
BRANCH   3   4
ATOM      4  C   UNL     1      13.679   6.849 -19.489  1.00  0.00     0.000 C 
BRANCH   4   5
ATOM      5  C   UNL     1      14.730   6.466 -20.549  1.00  0.00     0.000 C 
BRANCH   5   6
ATOM      6  C   UNL     1      14.893   7.540 -21.646  1.00  0.00     0.000 C 
BRANCH   6   7
ATOM      7  C   UNL     1      16.049   8.523 -21.387  1.00  0.00     0.000 C 
BRANCH   7   8
ATOM      8  C   UNL     1      16.970   8.068 -20.248  1.00  0.00     0.000 C 
BRANCH   8   9
ATOM      9  C   UNL     1      17.655   9.263 -19.574  1.00  0.00     0.000 C 
BRANCH   9  10
ATOM     10  C   UNL     1      19.077   9.516 -20.113  1.00  0.00     0.000 C 
BRANCH  10  11
ATOM     11  C   UNL     1      19.223  10.854 -20.866  1.00  0.00     0.000 C 
BRANCH  11  12
ATOM     12  C   UNL     1      17.927  11.687 -20.846  1.00  0.00     0.006 C 
BRANCH  12  13
ATOM     13  C   UNL     1      18.163  13.138 -21.278  1.00  0.00     0.053 C 
BRANCH  13  14
ATOM     14  C   UNL     1      17.420  14.110 -20.407  1.00  0.00     0.041 C 
ATOM     15  O   UNL     1      16.941  13.734 -19.305  1.00  0.00    -0.550 OA
ATOM     16  O   UNL     1      17.224  15.417 -20.834  1.00  0.00    -0.550 OA
ENDBRANCH  13  14
ENDBRANCH  12  13
ENDBRANCH  11  12
ENDBRANCH  10  11
ENDBRANCH   9  10
ENDBRANCH   8   9
ENDBRANCH   7   8
ENDBRANCH   6   7
ENDBRANCH   5   6
ENDBRANCH   4   5
ENDBRANCH   3   4
ENDBRANCH   2   3
ENDBRANCH   1   2
BRANCH   1  17
ATOM     17  C   UNL     1      10.746  10.916 -18.374  1.00  0.00     0.000 C 
BRANCH  17  18
ATOM     18  C   UNL     1      10.470  12.274 -19.042  1.00  0.00     0.000 C 
BRANCH  18  19
ATOM     19  C   UNL     1       9.681  13.240 -18.141  1.00  0.00     0.000 C 
BRANCH  19  20
ATOM     20  C   UNL     1       9.232  14.557 -18.811  1.00  0.00     0.000 C 
BRANCH  20  21
ATOM     21  C   UNL     1       9.130  14.515 -20.345  1.00  0.00     0.000 C 
BRANCH  21  22
ATOM     22  C   UNL     1       7.745  14.068 -20.837  1.00  0.00    -0.000 C 
BRANCH  22  23
ATOM     23  C   UNL     1       6.943  15.213 -21.480  1.00  0.00    -0.000 C 
BRANCH  23  24
ATOM     24  C   UNL     1       5.427  14.968 -21.596  1.00  0.00    -0.000 C 
BRANCH  24  25
ATOM     25  C   UNL     1       5.082  13.778 -22.509  1.00  0.00    -0.000 C 
BRANCH  25  26
ATOM     26  C   UNL     1       3.575  13.477 -22.534  1.00  0.00    -0.000 C 
BRANCH  26  27
ATOM     27  C   UNL     1       2.810  14.234 -21.438  1.00  0.00    -0.000 C 
BRANCH  27  28
ATOM     28  C   UNL     1       1.964  13.274 -20.588  1.00  0.00    -0.000 C 
BRANCH  28  29
ATOM     29  C   UNL     1       1.170  14.004 -19.493  1.00  0.00    -0.003 C 
ATOM     30  C   UNL     1       1.268  15.523 -19.604  1.00  0.00     0.004 C 
ENDBRANCH  28  29
ENDBRANCH  27  28
ENDBRANCH  26  27
ENDBRANCH  25  26
ENDBRANCH  24  25
ENDBRANCH  23  24
ENDBRANCH  22  23
ENDBRANCH  21  22
ENDBRANCH  20  21
ENDBRANCH  19  20
ENDBRANCH  18  19
ENDBRANCH  17  18
ENDBRANCH   1  17
TORSDOF 26
ENDMDL
MODEL 6
REMARK VINA RESULT:    -5.651      4.283     12.723
REMARK INTER + INTRA:         -15.942
REMARK INTER:                 -14.115
REMARK INTRA:                  -1.827
REMARK UNBOUND:                -1.702
REMARK SMILES CCCCCCCCCCCCCCCCCCCCCCCCCCCC(=O)[O-]
REMARK SMILES IDX 15 1 16 2 17 3 18 4 19 5 20 6 21 7 22 8 23 9 24 10 25 11
REMARK SMILES IDX 26 12 27 13 28 14 29 15 30 16 14 17 13 18 12 19 11 20 10 21
REMARK SMILES IDX 9 22 8 23 7 24 6 25 5 26 4 27 3 28 2 29 1 30
REMARK H PARENT
REMARK Flexibility Score: inf
ROOT
ATOM      1  C   UNL     1      10.416  12.194 -17.167  1.00  0.00     0.000 C 
ENDROOT
BRANCH   1   2
ATOM      2  C   UNL     1      10.007  13.073 -18.364  1.00  0.00     0.000 C 
BRANCH   2   3
ATOM      3  C   UNL     1       9.529  14.490 -17.989  1.00  0.00     0.000 C 
BRANCH   3   4
ATOM      4  C   UNL     1       8.980  15.290 -19.193  1.00  0.00     0.000 C 
BRANCH   4   5
ATOM      5  C   UNL     1       8.933  14.446 -20.481  1.00  0.00     0.000 C 
BRANCH   5   6
ATOM      6  C   UNL     1       7.494  14.222 -20.997  1.00  0.00     0.000 C 
BRANCH   6   7
ATOM      7  C   UNL     1       6.761  15.519 -21.380  1.00  0.00     0.000 C 
BRANCH   7   8
ATOM      8  C   UNL     1       5.272  15.295 -21.670  1.00  0.00     0.000 C 
BRANCH   8   9
ATOM      9  C   UNL     1       5.012  13.877 -22.193  1.00  0.00     0.000 C 
BRANCH   9  10
ATOM     10  C   UNL     1       3.533  13.460 -22.075  1.00  0.00     0.000 C 
BRANCH  10  11
ATOM     11  C   UNL     1       2.652  14.505 -21.360  1.00  0.00     0.000 C 
BRANCH  11  12
ATOM     12  C   UNL     1       1.551  13.857 -20.498  1.00  0.00     0.006 C 
BRANCH  12  13
ATOM     13  C   UNL     1       2.109  12.782 -19.558  1.00  0.00     0.053 C 
BRANCH  13  14
ATOM     14  C   UNL     1       1.391  12.765 -18.238  1.00  0.00     0.041 C 
ATOM     15  O   UNL     1       2.018  12.495 -17.180  1.00  0.00    -0.550 OA
ATOM     16  O   UNL     1       0.024  13.005 -18.187  1.00  0.00    -0.550 OA
ENDBRANCH  13  14
ENDBRANCH  12  13
ENDBRANCH  11  12
ENDBRANCH  10  11
ENDBRANCH   9  10
ENDBRANCH   8   9
ENDBRANCH   7   8
ENDBRANCH   6   7
ENDBRANCH   5   6
ENDBRANCH   4   5
ENDBRANCH   3   4
ENDBRANCH   2   3
ENDBRANCH   1   2
BRANCH   1  17
ATOM     17  C   UNL     1      11.024  10.828 -17.539  1.00  0.00     0.000 C 
BRANCH  17  18
ATOM     18  C   UNL     1      10.752  10.437 -19.001  1.00  0.00     0.000 C 
BRANCH  18  19
ATOM     19  C   UNL     1      11.496   9.161 -19.433  1.00  0.00     0.000 C 
BRANCH  19  20
ATOM     20  C   UNL     1      12.346   8.484 -18.336  1.00  0.00     0.000 C 
BRANCH  20  21
ATOM     21  C   UNL     1      13.116   7.229 -18.778  1.00  0.00     0.000 C 
BRANCH  21  22
ATOM     22  C   UNL     1      13.479   7.248 -20.271  1.00  0.00    -0.000 C 
BRANCH  22  23
ATOM     23  C   UNL     1      14.849   6.609 -20.559  1.00  0.00    -0.000 C 
BRANCH  23  24
ATOM     24  C   UNL     1      15.606   7.194 -21.765  1.00  0.00    -0.000 C 
BRANCH  24  25
ATOM     25  C   UNL     1      15.164   8.627 -22.110  1.00  0.00    -0.000 C 
BRANCH  25  26
ATOM     26  C   UNL     1      16.288   9.654 -21.894  1.00  0.00    -0.000 C 
BRANCH  26  27
ATOM     27  C   UNL     1      17.303   9.195 -20.838  1.00  0.00    -0.000 C 
BRANCH  27  28
ATOM     28  C   UNL     1      18.317  10.307 -20.524  1.00  0.00    -0.000 C 
BRANCH  28  29
ATOM     29  C   UNL     1      17.956  11.638 -21.200  1.00  0.00    -0.003 C 
ATOM     30  C   UNL     1      17.513  12.708 -20.204  1.00  0.00     0.004 C 
ENDBRANCH  28  29
ENDBRANCH  27  28
ENDBRANCH  26  27
ENDBRANCH  25  26
ENDBRANCH  24  25
ENDBRANCH  23  24
ENDBRANCH  22  23
ENDBRANCH  21  22
ENDBRANCH  20  21
ENDBRANCH  19  20
ENDBRANCH  18  19
ENDBRANCH  17  18
ENDBRANCH   1  17
TORSDOF 26
ENDMDL
MODEL 7
REMARK VINA RESULT:    -5.628      4.273     12.979
REMARK INTER + INTRA:         -15.886
REMARK INTER:                 -14.490
REMARK INTRA:                  -1.396
REMARK UNBOUND:                -1.702
REMARK SMILES CCCCCCCCCCCCCCCCCCCCCCCCCCCC(=O)[O-]
REMARK SMILES IDX 15 1 16 2 17 3 18 4 19 5 20 6 21 7 22 8 23 9 24 10 25 11
REMARK SMILES IDX 26 12 27 13 28 14 29 15 30 16 14 17 13 18 12 19 11 20 10 21
REMARK SMILES IDX 9 22 8 23 7 24 6 25 5 26 4 27 3 28 2 29 1 30
REMARK H PARENT
REMARK Flexibility Score: inf
ROOT
ATOM      1  C   UNL     1       5.939  14.205 -21.966  1.00  0.00     0.000 C 
ENDROOT
BRANCH   1   2
ATOM      2  C   UNL     1       4.934  13.337 -22.747  1.00  0.00     0.000 C 
BRANCH   2   3
ATOM      3  C   UNL     1       3.468  13.480 -22.292  1.00  0.00     0.000 C 
BRANCH   3   4
ATOM      4  C   UNL     1       3.258  14.601 -21.247  1.00  0.00     0.000 C 
BRANCH   4   5
ATOM      5  C   UNL     1       1.958  14.410 -20.441  1.00  0.00     0.000 C 
BRANCH   5   6
ATOM      6  C   UNL     1       1.831  12.994 -19.837  1.00  0.00     0.000 C 
BRANCH   6   7
ATOM      7  C   UNL     1       1.779  12.976 -18.299  1.00  0.00     0.000 C 
BRANCH   7   8
ATOM      8  C   UNL     1       1.435  14.346 -17.701  1.00  0.00     0.000 C 
BRANCH   8   9
ATOM      9  C   UNL     1       1.686  14.373 -16.188  1.00  0.00     0.000 C 
BRANCH   9  10
ATOM     10  C   UNL     1       2.690  13.296 -15.732  1.00  0.00     0.000 C 
BRANCH  10  11
ATOM     11  C   UNL     1       2.027  12.084 -15.046  1.00  0.00     0.000 C 
BRANCH  11  12
ATOM     12  C   UNL     1       2.972  10.871 -14.950  1.00  0.00     0.006 C 
BRANCH  12  13
ATOM     13  C   UNL     1       2.232   9.542 -15.139  1.00  0.00     0.053 C 
BRANCH  13  14
ATOM     14  C   UNL     1       3.181   8.384 -15.256  1.00  0.00     0.041 C 
ATOM     15  O   UNL     1       2.822   7.232 -14.895  1.00  0.00    -0.550 OA
ATOM     16  O   UNL     1       4.474   8.589 -15.723  1.00  0.00    -0.550 OA
ENDBRANCH  13  14
ENDBRANCH  12  13
ENDBRANCH  11  12
ENDBRANCH  10  11
ENDBRANCH   9  10
ENDBRANCH   8   9
ENDBRANCH   7   8
ENDBRANCH   6   7
ENDBRANCH   5   6
ENDBRANCH   4   5
ENDBRANCH   3   4
ENDBRANCH   2   3
ENDBRANCH   1   2
BRANCH   1  17
ATOM     17  C   UNL     1       7.147  13.444 -21.388  1.00  0.00     0.000 C 
BRANCH  17  18
ATOM     18  C   UNL     1       8.142  14.372 -20.670  1.00  0.00     0.000 C 
BRANCH  18  19
ATOM     19  C   UNL     1       9.193  13.607 -19.846  1.00  0.00     0.000 C 
BRANCH  19  20
ATOM     20  C   UNL     1       9.368  12.117 -20.212  1.00  0.00     0.000 C 
BRANCH  20  21
ATOM     21  C   UNL     1      10.751  11.521 -19.905  1.00  0.00     0.000 C 
BRANCH  21  22
ATOM     22  C   UNL     1      10.684  10.318 -18.951  1.00  0.00    -0.000 C 
BRANCH  22  23
ATOM     23  C   UNL     1      11.516   9.121 -19.442  1.00  0.00    -0.000 C 
BRANCH  23  24
ATOM     24  C   UNL     1      12.346   8.411 -18.357  1.00  0.00    -0.000 C 
BRANCH  24  25
ATOM     25  C   UNL     1      13.168   7.232 -18.909  1.00  0.00    -0.000 C 
BRANCH  25  26
ATOM     26  C   UNL     1      13.534   7.418 -20.391  1.00  0.00    -0.000 C 
BRANCH  26  27
ATOM     27  C   UNL     1      14.849   6.716 -20.760  1.00  0.00    -0.000 C 
BRANCH  27  28
ATOM     28  C   UNL     1      15.565   7.448 -21.907  1.00  0.00    -0.000 C 
BRANCH  28  29
ATOM     29  C   UNL     1      16.248   8.743 -21.440  1.00  0.00    -0.003 C 
ATOM     30  C   UNL     1      17.015   8.570 -20.131  1.00  0.00     0.004 C 
ENDBRANCH  28  29
ENDBRANCH  27  28
ENDBRANCH  26  27
ENDBRANCH  25  26
ENDBRANCH  24  25
ENDBRANCH  23  24
ENDBRANCH  22  23
ENDBRANCH  21  22
ENDBRANCH  20  21
ENDBRANCH  19  20
ENDBRANCH  18  19
ENDBRANCH  17  18
ENDBRANCH   1  17
TORSDOF 26
ENDMDL
MODEL 8
REMARK VINA RESULT:    -5.626      6.907     12.109
REMARK INTER + INTRA:         -15.879
REMARK INTER:                 -12.820
REMARK INTRA:                  -3.058
REMARK UNBOUND:                -1.702
REMARK SMILES CCCCCCCCCCCCCCCCCCCCCCCCCCCC(=O)[O-]
REMARK SMILES IDX 15 1 16 2 17 3 18 4 19 5 20 6 21 7 22 8 23 9 24 10 25 11
REMARK SMILES IDX 26 12 27 13 28 14 29 15 30 16 14 17 13 18 12 19 11 20 10 21
REMARK SMILES IDX 9 22 8 23 7 24 6 25 5 26 4 27 3 28 2 29 1 30
REMARK H PARENT
REMARK Flexibility Score: inf
ROOT
ATOM      1  C   UNL     1       1.902  13.126 -17.722  1.00  0.00     0.000 C 
ENDROOT
BRANCH   1   2
ATOM      2  C   UNL     1       1.587  14.583 -17.334  1.00  0.00     0.000 C 
BRANCH   2   3
ATOM      3  C   UNL     1       1.500  14.842 -15.817  1.00  0.00     0.000 C 
BRANCH   3   4
ATOM      4  C   UNL     1       2.807  15.408 -15.216  1.00  0.00     0.000 C 
BRANCH   4   5
ATOM      5  C   UNL     1       3.318  14.565 -14.031  1.00  0.00     0.000 C 
BRANCH   5   6
ATOM      6  C   UNL     1       4.246  13.412 -14.472  1.00  0.00     0.000 C 
BRANCH   6   7
ATOM      7  C   UNL     1       3.597  12.020 -14.378  1.00  0.00     0.000 C 
BRANCH   7   8
ATOM      8  C   UNL     1       2.608  11.905 -13.211  1.00  0.00     0.000 C 
BRANCH   8   9
ATOM      9  C   UNL     1       1.442  10.972 -13.559  1.00  0.00     0.000 C 
BRANCH   9  10
ATOM     10  C   UNL     1       0.712  11.387 -14.852  1.00  0.00     0.000 C 
BRANCH  10  11
ATOM     11  C   UNL     1       0.164  10.195 -15.661  1.00  0.00     0.000 C 
BRANCH  11  12
ATOM     12  C   UNL     1       0.777   8.851 -15.221  1.00  0.00     0.006 C 
BRANCH  12  13
ATOM     13  C   UNL     1       1.851   8.357 -16.197  1.00  0.00     0.053 C 
BRANCH  13  14
ATOM     14  C   UNL     1       3.170   8.135 -15.513  1.00  0.00     0.041 C 
ATOM     15  O   UNL     1       4.227   8.610 -16.007  1.00  0.00    -0.550 OA
ATOM     16  O   UNL     1       3.234   7.370 -14.356  1.00  0.00    -0.550 OA
ENDBRANCH  13  14
ENDBRANCH  12  13
ENDBRANCH  11  12
ENDBRANCH  10  11
ENDBRANCH   9  10
ENDBRANCH   8   9
ENDBRANCH   7   8
ENDBRANCH   6   7
ENDBRANCH   5   6
ENDBRANCH   4   5
ENDBRANCH   3   4
ENDBRANCH   2   3
ENDBRANCH   1   2
BRANCH   1  17
ATOM     17  C   UNL     1       1.879  12.834 -19.234  1.00  0.00     0.000 C 
BRANCH  17  18
ATOM     18  C   UNL     1       1.596  14.089 -20.076  1.00  0.00     0.000 C 
BRANCH  18  19
ATOM     19  C   UNL     1       2.790  14.512 -20.949  1.00  0.00     0.000 C 
BRANCH  19  20
ATOM     20  C   UNL     1       3.180  13.520 -22.066  1.00  0.00     0.000 C 
BRANCH  20  21
ATOM     21  C   UNL     1       4.685  13.427 -22.369  1.00  0.00     0.000 C 
BRANCH  21  22
ATOM     22  C   UNL     1       5.387  14.793 -22.329  1.00  0.00    -0.000 C 
BRANCH  22  23
ATOM     23  C   UNL     1       6.559  14.832 -21.333  1.00  0.00    -0.000 C 
BRANCH  23  24
ATOM     24  C   UNL     1       7.366  13.527 -21.218  1.00  0.00    -0.000 C 
BRANCH  24  25
ATOM     25  C   UNL     1       8.745  13.732 -20.566  1.00  0.00    -0.000 C 
BRANCH  25  26
ATOM     26  C   UNL     1       8.952  15.175 -20.077  1.00  0.00    -0.000 C 
BRANCH  26  27
ATOM     27  C   UNL     1       9.217  15.248 -18.567  1.00  0.00    -0.000 C 
BRANCH  27  28
ATOM     28  C   UNL     1       9.824  13.935 -18.046  1.00  0.00    -0.000 C 
BRANCH  28  29
ATOM     29  C   UNL     1       9.719  13.805 -16.519  1.00  0.00    -0.003 C 
ATOM     30  C   UNL     1       9.119  15.044 -15.859  1.00  0.00     0.004 C 
ENDBRANCH  28  29
ENDBRANCH  27  28
ENDBRANCH  26  27
ENDBRANCH  25  26
ENDBRANCH  24  25
ENDBRANCH  23  24
ENDBRANCH  22  23
ENDBRANCH  21  22
ENDBRANCH  20  21
ENDBRANCH  19  20
ENDBRANCH  18  19
ENDBRANCH  17  18
ENDBRANCH   1  17
TORSDOF 26
ENDMDL
MODEL 9
REMARK VINA RESULT:    -5.615      4.258     12.545
REMARK INTER + INTRA:         -15.853
REMARK INTER:                 -14.380
REMARK INTRA:                  -1.473
REMARK UNBOUND:                -1.702
REMARK SMILES CCCCCCCCCCCCCCCCCCCCCCCCCCCC(=O)[O-]
REMARK SMILES IDX 15 1 16 2 17 3 18 4 19 5 20 6 21 7 22 8 23 9 24 10 25 11
REMARK SMILES IDX 26 12 27 13 28 14 29 15 30 16 14 17 13 18 12 19 11 20 10 21
REMARK SMILES IDX 9 22 8 23 7 24 6 25 5 26 4 27 3 28 2 29 1 30
REMARK H PARENT
REMARK Flexibility Score: inf
ROOT
ATOM      1  C   UNL     1      10.875  10.866 -17.451  1.00  0.00     0.000 C 
ENDROOT
BRANCH   1   2
ATOM      2  C   UNL     1      10.407  12.257 -16.983  1.00  0.00     0.000 C 
BRANCH   2   3
ATOM      3  C   UNL     1      10.017  13.221 -18.120  1.00  0.00     0.000 C 
BRANCH   3   4
ATOM      4  C   UNL     1       9.551  14.607 -17.615  1.00  0.00     0.000 C 
BRANCH   4   5
ATOM      5  C   UNL     1       9.567  15.670 -18.731  1.00  0.00     0.000 C 
BRANCH   5   6
ATOM      6  C   UNL     1       8.315  15.610 -19.633  1.00  0.00     0.000 C 
BRANCH   6   7
ATOM      7  C   UNL     1       8.514  14.787 -20.918  1.00  0.00     0.000 C 
BRANCH   7   8
ATOM      8  C   UNL     1       8.136  13.311 -20.743  1.00  0.00     0.000 C 
BRANCH   8   9
ATOM      9  C   UNL     1       6.998  12.910 -21.689  1.00  0.00     0.000 C 
BRANCH   9  10
ATOM     10  C   UNL     1       5.860  13.949 -21.726  1.00  0.00     0.000 C 
BRANCH  10  11
ATOM     11  C   UNL     1       4.857  13.727 -22.877  1.00  0.00     0.000 C 
BRANCH  11  12
ATOM     12  C   UNL     1       3.428  13.456 -22.369  1.00  0.00     0.006 C 
BRANCH  12  13
ATOM     13  C   UNL     1       3.028  14.401 -21.230  1.00  0.00     0.053 C 
BRANCH  13  14
ATOM     14  C   UNL     1       1.887  13.852 -20.422  1.00  0.00     0.041 C 
ATOM     15  O   UNL     1       0.707  14.225 -20.658  1.00  0.00    -0.550 OA
ATOM     16  O   UNL     1       2.134  12.964 -19.383  1.00  0.00    -0.550 OA
ENDBRANCH  13  14
ENDBRANCH  12  13
ENDBRANCH  11  12
ENDBRANCH  10  11
ENDBRANCH   9  10
ENDBRANCH   8   9
ENDBRANCH   7   8
ENDBRANCH   6   7
ENDBRANCH   5   6
ENDBRANCH   4   5
ENDBRANCH   3   4
ENDBRANCH   2   3
ENDBRANCH   1   2
BRANCH   1  17
ATOM     17  C   UNL     1      10.731  10.602 -18.961  1.00  0.00     0.000 C 
BRANCH  17  18
ATOM     18  C   UNL     1      11.444   9.314 -19.409  1.00  0.00     0.000 C 
BRANCH  18  19
ATOM     19  C   UNL     1      12.168   8.594 -18.258  1.00  0.00     0.000 C 
BRANCH  19  20
ATOM     20  C   UNL     1      12.988   7.351 -18.664  1.00  0.00     0.000 C 
BRANCH  20  21
ATOM     21  C   UNL     1      13.387   7.279 -20.146  1.00  0.00     0.000 C 
BRANCH  21  22
ATOM     22  C   UNL     1      14.877   6.959 -20.348  1.00  0.00    -0.000 C 
BRANCH  22  23
ATOM     23  C   UNL     1      15.429   7.502 -21.678  1.00  0.00    -0.000 C 
BRANCH  23  24
ATOM     24  C   UNL     1      16.369   8.714 -21.551  1.00  0.00    -0.000 C 
BRANCH  24  25
ATOM     25  C   UNL     1      17.113   8.756 -20.205  1.00  0.00    -0.000 C 
BRANCH  25  26
ATOM     26  C   UNL     1      18.098   9.933 -20.117  1.00  0.00    -0.000 C 
BRANCH  26  27
ATOM     27  C   UNL     1      17.662  11.126 -20.980  1.00  0.00    -0.000 C 
BRANCH  27  28
ATOM     28  C   UNL     1      18.845  12.063 -21.270  1.00  0.00    -0.000 C 
BRANCH  28  29
ATOM     29  C   UNL     1      19.548  11.727 -22.595  1.00  0.00    -0.003 C 
ATOM     30  C   UNL     1      18.585  11.670 -23.778  1.00  0.00     0.004 C 
ENDBRANCH  28  29
ENDBRANCH  27  28
ENDBRANCH  26  27
ENDBRANCH  25  26
ENDBRANCH  24  25
ENDBRANCH  23  24
ENDBRANCH  22  23
ENDBRANCH  21  22
ENDBRANCH  20  21
ENDBRANCH  19  20
ENDBRANCH  18  19
ENDBRANCH  17  18
ENDBRANCH   1  17
TORSDOF 26
ENDMDL
