MODEL 1
REMARK VINA RESULT:    -5.149      0.000      0.000
REMARK INTER + INTRA:          -6.205
REMARK INTER:                  -6.052
REMARK INTRA:                  -0.153
REMARK UNBOUND:                -0.153
REMARK SMILES O=C([O-])C=Cc1ccc(O)c(O)c1
REMARK SMILES IDX 6 1 13 2 7 3 11 4 8 5 9 6 5 7 4 8 2 9 1 10 3 11 12 12 10 14
REMARK H PARENT 12 13 10 15
REMARK Flexibility Score: inf
ROOT
ATOM      1  C   UNL     1      -3.704  15.167   6.876  1.00  0.00    -0.022 A 
ATOM      2  C   UNL     1      -2.747  16.129   6.505  1.00  0.00     0.058 A 
ATOM      3  C   UNL     1      -3.460  14.370   8.004  1.00  0.00     0.012 A 
ATOM      4  C   UNL     1      -1.556  16.279   7.228  1.00  0.00     0.157 A 
ATOM      5  C   UNL     1      -2.275  14.510   8.729  1.00  0.00     0.051 A 
ATOM      6  C   UNL     1      -1.314  15.454   8.351  1.00  0.00     0.157 A 
ENDROOT
BRANCH   1   7
ATOM      7  C   UNL     1      -4.983  14.986   6.144  1.00  0.00     0.010 C 
ATOM      8  C   UNL     1      -5.812  13.950   6.338  1.00  0.00     0.025 C 
BRANCH   8   9
ATOM      9  C   UNL     1      -7.078  13.809   5.601  1.00  0.00     0.064 C 
ATOM     10  O   UNL     1      -7.837  12.821   5.790  1.00  0.00    -0.545 OA
ATOM     11  O   UNL     1      -7.444  14.783   4.681  1.00  0.00    -0.545 OA
ENDBRANCH   8   9
ENDBRANCH   1   7
BRANCH   4  12
ATOM     12  O   UNL     1      -0.652  17.254   6.802  1.00  0.00    -0.504 OA
ATOM     13  H   UNL     1       0.253  17.408   7.221  1.00  0.00     0.293 HD
ENDBRANCH   4  12
BRANCH   6  14
ATOM     14  O   UNL     1      -0.148  15.539   9.115  1.00  0.00    -0.504 OA
ATOM     15  H   UNL     1      -0.103  15.329  10.101  1.00  0.00     0.293 HD
ENDBRANCH   6  14
TORSDOF 4
ENDMDL
MODEL 2
REMARK VINA RESULT:    -5.076      1.259      6.064
REMARK INTER + INTRA:          -6.119
REMARK INTER:                  -5.991
REMARK INTRA:                  -0.128
REMARK UNBOUND:                -0.153
REMARK SMILES O=C([O-])C=Cc1ccc(O)c(O)c1
REMARK SMILES IDX 6 1 13 2 7 3 11 4 8 5 9 6 5 7 4 8 2 9 1 10 3 11 12 12 10 14
REMARK H PARENT 12 13 10 15
REMARK Flexibility Score: inf
ROOT
ATOM      1  C   UNL     1      -5.139  14.999   6.200  1.00  0.00    -0.022 A 
ATOM      2  C   UNL     1      -6.271  15.766   6.534  1.00  0.00     0.058 A 
ATOM      3  C   UNL     1      -5.316  13.806   5.487  1.00  0.00     0.012 A 
ATOM      4  C   UNL     1      -7.559  15.339   6.185  1.00  0.00     0.157 A 
ATOM      5  C   UNL     1      -6.596  13.371   5.137  1.00  0.00     0.051 A 
ATOM      6  C   UNL     1      -7.725  14.122   5.482  1.00  0.00     0.157 A 
ENDROOT
BRANCH   1   7
ATOM      7  C   UNL     1      -3.757  15.423   6.541  1.00  0.00     0.010 C 
ATOM      8  C   UNL     1      -3.192  15.225   7.741  1.00  0.00     0.025 C 
BRANCH   8   9
ATOM      9  C   UNL     1      -1.815  15.649   8.040  1.00  0.00     0.064 C 
ATOM     10  O   UNL     1      -1.176  16.395   7.251  1.00  0.00    -0.545 OA
ATOM     11  O   UNL     1      -1.209  15.219   9.214  1.00  0.00    -0.545 OA
ENDBRANCH   8   9
ENDBRANCH   1   7
BRANCH   4  12
ATOM     12  O   UNL     1      -8.636  16.150   6.548  1.00  0.00    -0.504 OA
ATOM     13  H   UNL     1      -9.560  16.076   6.148  1.00  0.00     0.293 HD
ENDBRANCH   4  12
BRANCH   6  14
ATOM     14  O   UNL     1      -8.976  13.628   5.109  1.00  0.00    -0.504 OA
ATOM     15  H   UNL     1      -9.806  13.705   5.680  1.00  0.00     0.293 HD
ENDBRANCH   6  14
TORSDOF 4
ENDMDL
MODEL 3
REMARK VINA RESULT:    -5.070      1.295      5.976
REMARK INTER + INTRA:          -6.112
REMARK INTER:                  -5.975
REMARK INTRA:                  -0.136
REMARK UNBOUND:                -0.153
REMARK SMILES O=C([O-])C=Cc1ccc(O)c(O)c1
REMARK SMILES IDX 6 1 13 2 7 3 11 4 8 5 9 6 5 7 4 8 2 9 1 10 3 11 12 12 10 14
REMARK H PARENT 12 13 10 15
REMARK Flexibility Score: inf
ROOT
ATOM      1  C   UNL     1      -4.485  15.345   6.657  1.00  0.00    -0.022 A 
ATOM      2  C   UNL     1      -4.928  14.337   5.779  1.00  0.00     0.058 A 
ATOM      3  C   UNL     1      -5.436  16.171   7.273  1.00  0.00     0.012 A 
ATOM      4  C   UNL     1      -6.291  14.172   5.500  1.00  0.00     0.157 A 
ATOM      5  C   UNL     1      -6.796  16.015   6.998  1.00  0.00     0.051 A 
ATOM      6  C   UNL     1      -7.237  15.026   6.113  1.00  0.00     0.157 A 
ENDROOT
BRANCH   1   7
ATOM      7  C   UNL     1      -3.052  15.543   6.989  1.00  0.00     0.010 C 
ATOM      8  C   UNL     1      -2.541  15.373   8.217  1.00  0.00     0.025 C 
BRANCH   8   9
ATOM      9  C   UNL     1      -1.112  15.568   8.507  1.00  0.00     0.064 C 
ATOM     10  O   UNL     1      -0.382  16.267   7.754  1.00  0.00    -0.545 OA
ATOM     11  O   UNL     1      -0.556  14.971   9.632  1.00  0.00    -0.545 OA
ENDBRANCH   8   9
ENDBRANCH   1   7
BRANCH   4  12
ATOM     12  O   UNL     1      -6.657  13.152   4.619  1.00  0.00    -0.504 OA
ATOM     13  H   UNL     1      -7.347  13.256   3.890  1.00  0.00     0.293 HD
ENDBRANCH   4  12
BRANCH   6  14
ATOM     14  O   UNL     1      -8.609  14.928   5.876  1.00  0.00    -0.504 OA
ATOM     15  H   UNL     1      -9.021  14.872   4.956  1.00  0.00     0.293 HD
ENDBRANCH   6  14
TORSDOF 4
ENDMDL
MODEL 4
REMARK VINA RESULT:    -5.069      1.557      2.362
REMARK INTER + INTRA:          -6.111
REMARK INTER:                  -5.991
REMARK INTRA:                  -0.120
REMARK UNBOUND:                -0.153
REMARK SMILES O=C([O-])C=Cc1ccc(O)c(O)c1
REMARK SMILES IDX 6 1 13 2 7 3 11 4 8 5 9 6 5 7 4 8 2 9 1 10 3 11 12 12 10 14
REMARK H PARENT 12 13 10 15
REMARK Flexibility Score: inf
ROOT
ATOM      1  C   UNL     1      -4.935  15.083   6.538  1.00  0.00    -0.022 A 
ATOM      2  C   UNL     1      -4.407  14.022   7.297  1.00  0.00     0.058 A 
ATOM      3  C   UNL     1      -4.228  16.293   6.482  1.00  0.00     0.012 A 
ATOM      4  C   UNL     1      -3.209  14.172   8.008  1.00  0.00     0.157 A 
ATOM      5  C   UNL     1      -3.035  16.451   7.190  1.00  0.00     0.051 A 
ATOM      6  C   UNL     1      -2.517  15.404   7.959  1.00  0.00     0.157 A 
ENDROOT
BRANCH   1   7
ATOM      7  C   UNL     1      -6.194  14.961   5.760  1.00  0.00     0.010 C 
ATOM      8  C   UNL     1      -7.338  14.478   6.267  1.00  0.00     0.025 C 
BRANCH   8   9
ATOM      9  C   UNL     1      -8.571  14.382   5.470  1.00  0.00     0.064 C 
ATOM     10  O   UNL     1      -8.983  13.273   5.035  1.00  0.00    -0.545 OA
ATOM     11  O   UNL     1      -9.295  15.534   5.191  1.00  0.00    -0.545 OA
ENDBRANCH   8   9
ENDBRANCH   1   7
BRANCH   4  12
ATOM     12  O   UNL     1      -2.745  13.077   8.741  1.00  0.00    -0.504 OA
ATOM     13  H   UNL     1      -3.082  12.133   8.621  1.00  0.00     0.293 HD
ENDBRANCH   4  12
BRANCH   6  14
ATOM     14  O   UNL     1      -1.324  15.630   8.648  1.00  0.00    -0.504 OA
ATOM     15  H   UNL     1      -0.490  15.073   8.530  1.00  0.00     0.293 HD
ENDBRANCH   6  14
TORSDOF 4
ENDMDL
MODEL 5
REMARK VINA RESULT:    -5.002      1.303      2.309
REMARK INTER + INTRA:          -6.032
REMARK INTER:                  -5.897
REMARK INTRA:                  -0.135
REMARK UNBOUND:                -0.153
REMARK SMILES O=C([O-])C=Cc1ccc(O)c(O)c1
REMARK SMILES IDX 6 1 13 2 7 3 11 4 8 5 9 6 5 7 4 8 2 9 1 10 3 11 12 12 10 14
REMARK H PARENT 12 13 10 15
REMARK Flexibility Score: inf
ROOT
ATOM      1  C   UNL     1      -2.745  15.182   7.858  1.00  0.00    -0.022 A 
ATOM      2  C   UNL     1      -1.966  14.581   8.865  1.00  0.00     0.058 A 
ATOM      3  C   UNL     1      -2.148  16.131   7.017  1.00  0.00     0.012 A 
ATOM      4  C   UNL     1      -0.624  14.937   9.047  1.00  0.00     0.157 A 
ATOM      5  C   UNL     1      -0.812  16.495   7.193  1.00  0.00     0.051 A 
ATOM      6  C   UNL     1      -0.040  15.912   8.204  1.00  0.00     0.157 A 
ENDROOT
BRANCH   1   7
ATOM      7  C   UNL     1      -4.167  14.822   7.625  1.00  0.00     0.010 C 
ATOM      8  C   UNL     1      -4.602  14.177   6.533  1.00  0.00     0.025 C 
BRANCH   8   9
ATOM      9  C   UNL     1      -6.018  13.826   6.340  1.00  0.00     0.064 C 
ATOM     10  O   UNL     1      -6.845  13.904   7.288  1.00  0.00    -0.545 OA
ATOM     11  O   UNL     1      -6.452  13.401   5.091  1.00  0.00    -0.545 OA
ENDBRANCH   8   9
ENDBRANCH   1   7
BRANCH   4  12
ATOM     12  O   UNL     1       0.088  14.300  10.066  1.00  0.00    -0.504 OA
ATOM     13  H   UNL     1       0.250  13.305  10.104  1.00  0.00     0.293 HD
ENDBRANCH   4  12
BRANCH   6  14
ATOM     14  O   UNL     1       1.288  16.324   8.331  1.00  0.00    -0.504 OA
ATOM     15  H   UNL     1       1.578  17.138   8.853  1.00  0.00     0.293 HD
ENDBRANCH   6  14
TORSDOF 4
ENDMDL
MODEL 6
REMARK VINA RESULT:    -4.943      1.466      6.080
REMARK INTER + INTRA:          -5.962
REMARK INTER:                  -5.840
REMARK INTRA:                  -0.123
REMARK UNBOUND:                -0.153
REMARK SMILES O=C([O-])C=Cc1ccc(O)c(O)c1
REMARK SMILES IDX 6 1 13 2 7 3 11 4 8 5 9 6 5 7 4 8 2 9 1 10 3 11 12 12 10 14
REMARK H PARENT 12 13 10 15
REMARK Flexibility Score: inf
ROOT
ATOM      1  C   UNL     1      -3.803  14.877   7.478  1.00  0.00    -0.022 A 
ATOM      2  C   UNL     1      -4.740  14.544   8.475  1.00  0.00     0.058 A 
ATOM      3  C   UNL     1      -4.151  14.691   6.133  1.00  0.00     0.012 A 
ATOM      4  C   UNL     1      -5.991  14.011   8.138  1.00  0.00     0.157 A 
ATOM      5  C   UNL     1      -5.394  14.158   5.789  1.00  0.00     0.051 A 
ATOM      6  C   UNL     1      -6.321  13.809   6.777  1.00  0.00     0.157 A 
ENDROOT
BRANCH   1   7
ATOM      7  C   UNL     1      -2.473  15.456   7.793  1.00  0.00     0.010 C 
ATOM      8  C   UNL     1      -1.687  15.018   8.788  1.00  0.00     0.025 C 
BRANCH   8   9
ATOM      9  C   UNL     1      -0.368  15.608   9.065  1.00  0.00     0.064 C 
ATOM     10  O   UNL     1       0.312  16.145   8.150  1.00  0.00    -0.545 OA
ATOM     11  O   UNL     1       0.138  15.572  10.358  1.00  0.00    -0.545 OA
ENDBRANCH   8   9
ENDBRANCH   1   7
BRANCH   4  12
ATOM     12  O   UNL     1      -6.871  13.703   9.179  1.00  0.00    -0.504 OA
ATOM     13  H   UNL     1      -7.601  13.009   9.115  1.00  0.00     0.293 HD
ENDBRANCH   4  12
BRANCH   6  14
ATOM     14  O   UNL     1      -7.543  13.275   6.366  1.00  0.00    -0.504 OA
ATOM     15  H   UNL     1      -8.145  13.706   5.679  1.00  0.00     0.293 HD
ENDBRANCH   6  14
TORSDOF 4
ENDMDL
MODEL 7
REMARK VINA RESULT:    -4.932      3.947      7.074
REMARK INTER + INTRA:          -5.950
REMARK INTER:                  -5.825
REMARK INTRA:                  -0.125
REMARK UNBOUND:                -0.153
REMARK SMILES O=C([O-])C=Cc1ccc(O)c(O)c1
REMARK SMILES IDX 6 1 13 2 7 3 11 4 8 5 9 6 5 7 4 8 2 9 1 10 3 11 12 12 10 14
REMARK H PARENT 12 13 10 15
REMARK Flexibility Score: inf
ROOT
ATOM      1  C   UNL     1      -8.619  15.747   6.363  1.00  0.00    -0.022 A 
ATOM      2  C   UNL     1      -8.710  16.614   7.468  1.00  0.00     0.058 A 
ATOM      3  C   UNL     1      -9.734  15.598   5.526  1.00  0.00     0.012 A 
ATOM      4  C   UNL     1      -9.899  17.299   7.750  1.00  0.00     0.157 A 
ATOM      5  C   UNL     1     -10.923  16.276   5.801  1.00  0.00     0.051 A 
ATOM      6  C   UNL     1     -11.023  17.124   6.909  1.00  0.00     0.157 A 
ENDROOT
BRANCH   1   7
ATOM      7  C   UNL     1      -7.374  15.013   6.023  1.00  0.00     0.010 C 
ATOM      8  C   UNL     1      -6.142  15.485   6.263  1.00  0.00     0.025 C 
BRANCH   8   9
ATOM      9  C   UNL     1      -4.929  14.724   5.923  1.00  0.00     0.064 C 
ATOM     10  O   UNL     1      -5.000  13.609   5.341  1.00  0.00    -0.545 OA
ATOM     11  O   UNL     1      -3.683  15.244   6.250  1.00  0.00    -0.545 OA
ENDBRANCH   8   9
ENDBRANCH   1   7
BRANCH   4  12
ATOM     12  O   UNL     1      -9.918  18.142   8.864  1.00  0.00    -0.504 OA
ATOM     13  H   UNL     1     -10.568  18.052   9.631  1.00  0.00     0.293 HD
ENDBRANCH   4  12
BRANCH   6  14
ATOM     14  O   UNL     1     -12.242  17.766   7.132  1.00  0.00    -0.504 OA
ATOM     15  H   UNL     1     -13.061  17.308   7.506  1.00  0.00     0.293 HD
ENDBRANCH   6  14
TORSDOF 4
ENDMDL
MODEL 8
REMARK VINA RESULT:    -4.704      3.687      5.601
REMARK INTER + INTRA:          -5.682
REMARK INTER:                  -5.557
REMARK INTRA:                  -0.124
REMARK UNBOUND:                -0.153
REMARK SMILES O=C([O-])C=Cc1ccc(O)c(O)c1
REMARK SMILES IDX 6 1 13 2 7 3 11 4 8 5 9 6 5 7 4 8 2 9 1 10 3 11 12 12 10 14
REMARK H PARENT 12 13 10 15
REMARK Flexibility Score: inf
ROOT
ATOM      1  C   UNL     1      -8.456  15.786   6.415  1.00  0.00    -0.022 A 
ATOM      2  C   UNL     1      -8.133  14.741   5.529  1.00  0.00     0.058 A 
ATOM      3  C   UNL     1      -7.426  16.396   7.145  1.00  0.00     0.012 A 
ATOM      4  C   UNL     1      -6.812  14.294   5.392  1.00  0.00     0.157 A 
ATOM      5  C   UNL     1      -6.107  15.956   7.017  1.00  0.00     0.051 A 
ATOM      6  C   UNL     1      -5.786  14.906   6.150  1.00  0.00     0.157 A 
ENDROOT
BRANCH   1   7
ATOM      7  C   UNL     1      -9.840  16.296   6.579  1.00  0.00     0.010 C 
ATOM      8  C   UNL     1     -10.937  15.561   6.344  1.00  0.00     0.025 C 
BRANCH   8   9
ATOM      9  C   UNL     1     -12.295  16.096   6.528  1.00  0.00     0.064 C 
ATOM     10  O   UNL     1     -12.499  17.145   7.195  1.00  0.00    -0.545 OA
ATOM     11  O   UNL     1     -13.374  15.432   5.957  1.00  0.00    -0.545 OA
ENDBRANCH   8   9
ENDBRANCH   1   7
BRANCH   4  12
ATOM     12  O   UNL     1      -6.565  13.253   4.494  1.00  0.00    -0.504 OA
ATOM     13  H   UNL     1      -6.985  13.184   3.579  1.00  0.00     0.293 HD
ENDBRANCH   4  12
BRANCH   6  14
ATOM     14  O   UNL     1      -4.450  14.509   6.074  1.00  0.00    -0.504 OA
ATOM     15  H   UNL     1      -3.991  13.935   6.766  1.00  0.00     0.293 HD
ENDBRANCH   6  14
TORSDOF 4
ENDMDL
