MODEL 1
REMARK VINA RESULT:    -3.492      0.000      0.000
REMARK INTER + INTRA:          -4.229
REMARK INTER:                  -4.105
REMARK INTRA:                  -0.125
REMARK UNBOUND:                -0.125
REMARK SMILES O=C([O-])C=Cc1ccc(O)c(O)c1
REMARK SMILES IDX 6 1 13 2 7 3 11 4 8 5 9 6 5 7 4 8 2 9 1 10 3 11 12 12 10 14
REMARK H PARENT 12 13 10 15
REMARK Flexibility Score: inf
ROOT
ATOM      1  C   UNL     1       0.448  28.003  31.948  1.00  0.00    -0.022 A 
ATOM      2  C   UNL     1       0.258  29.381  32.172  1.00  0.00     0.058 A 
ATOM      3  C   UNL     1       0.419  27.127  33.045  1.00  0.00     0.012 A 
ATOM      4  C   UNL     1       0.069  29.872  33.473  1.00  0.00     0.157 A 
ATOM      5  C   UNL     1       0.233  27.616  34.341  1.00  0.00     0.051 A 
ATOM      6  C   UNL     1       0.060  28.989  34.559  1.00  0.00     0.157 A 
ENDROOT
BRANCH   1   7
ATOM      7  C   UNL     1       0.640  27.434  30.591  1.00  0.00     0.010 C 
ATOM      8  C   UNL     1      -0.125  27.746  29.537  1.00  0.00     0.025 C 
BRANCH   8   9
ATOM      9  C   UNL     1       0.110  27.165  28.205  1.00  0.00     0.064 C 
ATOM     10  O   UNL     1      -0.114  25.942  28.013  1.00  0.00    -0.545 OA
ATOM     11  O   UNL     1       0.580  27.945  27.155  1.00  0.00    -0.545 OA
ENDBRANCH   8   9
ENDBRANCH   1   7
BRANCH   4  12
ATOM     12  O   UNL     1      -0.115  31.236  33.693  1.00  0.00    -0.504 OA
ATOM     13  H   UNL     1      -1.037  31.656  33.681  1.00  0.00     0.293 HD
ENDBRANCH   4  12
BRANCH   6  14
ATOM     14  O   UNL     1      -0.125  29.481  35.849  1.00  0.00    -0.504 OA
ATOM     15  H   UNL     1      -0.995  29.344  36.350  1.00  0.00     0.293 HD
ENDBRANCH   6  14
TORSDOF 4
ENDMDL
MODEL 2
REMARK VINA RESULT:    -3.471      1.020      2.195
REMARK INTER + INTRA:          -4.204
REMARK INTER:                  -4.051
REMARK INTRA:                  -0.153
REMARK UNBOUND:                -0.125
REMARK SMILES O=C([O-])C=Cc1ccc(O)c(O)c1
REMARK SMILES IDX 6 1 13 2 7 3 11 4 8 5 9 6 5 7 4 8 2 9 1 10 3 11 12 12 10 14
REMARK H PARENT 12 13 10 15
REMARK Flexibility Score: inf
ROOT
ATOM      1  C   UNL     1      -0.106  27.645  31.681  1.00  0.00    -0.022 A 
ATOM      2  C   UNL     1      -0.106  26.780  32.793  1.00  0.00     0.058 A 
ATOM      3  C   UNL     1      -0.082  29.032  31.901  1.00  0.00     0.012 A 
ATOM      4  C   UNL     1      -0.106  27.297  34.098  1.00  0.00     0.157 A 
ATOM      5  C   UNL     1      -0.083  29.547  33.200  1.00  0.00     0.051 A 
ATOM      6  C   UNL     1      -0.098  28.682  34.301  1.00  0.00     0.157 A 
ENDROOT
BRANCH   1   7
ATOM      7  C   UNL     1      -0.095  27.148  30.283  1.00  0.00     0.010 C 
ATOM      8  C   UNL     1      -0.099  27.948  29.209  1.00  0.00     0.025 C 
BRANCH   8   9
ATOM      9  C   UNL     1      -0.075  27.411  27.839  1.00  0.00     0.064 C 
ATOM     10  O   UNL     1      -0.013  28.202  26.862  1.00  0.00    -0.545 OA
ATOM     11  O   UNL     1      -0.124  26.041  27.604  1.00  0.00    -0.545 OA
ENDBRANCH   8   9
ENDBRANCH   1   7
BRANCH   4  12
ATOM     12  O   UNL     1      -0.109  26.440  35.197  1.00  0.00    -0.504 OA
ATOM     13  H   UNL     1      -0.137  25.433  35.085  1.00  0.00     0.293 HD
ENDBRANCH   4  12
BRANCH   6  14
ATOM     14  O   UNL     1      -0.101  29.192  35.598  1.00  0.00    -0.504 OA
ATOM     15  H   UNL     1       0.759  29.340  36.112  1.00  0.00     0.293 HD
ENDBRANCH   6  14
TORSDOF 4
ENDMDL
MODEL 3
REMARK VINA RESULT:    -3.257      1.051      5.855
REMARK INTER + INTRA:          -3.953
REMARK INTER:                  -3.828
REMARK INTRA:                  -0.124
REMARK UNBOUND:                -0.125
REMARK SMILES O=C([O-])C=Cc1ccc(O)c(O)c1
REMARK SMILES IDX 6 1 13 2 7 3 11 4 8 5 9 6 5 7 4 8 2 9 1 10 3 11 12 12 10 14
REMARK H PARENT 12 13 10 15
REMARK Flexibility Score: inf
ROOT
ATOM      1  C   UNL     1      -0.074  27.577  30.709  1.00  0.00    -0.022 A 
ATOM      2  C   UNL     1      -0.037  28.488  29.635  1.00  0.00     0.058 A 
ATOM      3  C   UNL     1      -0.105  26.200  30.430  1.00  0.00     0.012 A 
ATOM      4  C   UNL     1      -0.054  28.027  28.309  1.00  0.00     0.157 A 
ATOM      5  C   UNL     1      -0.125  25.743  29.110  1.00  0.00     0.051 A 
ATOM      6  C   UNL     1      -0.102  26.653  28.047  1.00  0.00     0.157 A 
ENDROOT
BRANCH   1   7
ATOM      7  C   UNL     1      -0.046  28.012  32.127  1.00  0.00     0.010 C 
ATOM      8  C   UNL     1      -0.074  29.295  32.512  1.00  0.00     0.025 C 
BRANCH   8   9
ATOM      9  C   UNL     1      -0.057  29.681  33.933  1.00  0.00     0.064 C 
ATOM     10  O   UNL     1      -0.011  30.900  34.244  1.00  0.00    -0.545 OA
ATOM     11  O   UNL     1      -0.086  28.721  34.938  1.00  0.00    -0.545 OA
ENDBRANCH   8   9
ENDBRANCH   1   7
BRANCH   4  12
ATOM     12  O   UNL     1      -0.020  28.931  27.248  1.00  0.00    -0.504 OA
ATOM     13  H   UNL     1       0.560  29.761  27.277  1.00  0.00     0.293 HD
ENDBRANCH   4  12
BRANCH   6  14
ATOM     14  O   UNL     1      -0.123  26.201  26.729  1.00  0.00    -0.504 OA
ATOM     15  H   UNL     1       0.189  26.784  25.962  1.00  0.00     0.293 HD
ENDBRANCH   6  14
TORSDOF 4
ENDMDL
MODEL 4
REMARK VINA RESULT:    -1.972      3.035      4.110
REMARK INTER + INTRA:          -2.443
REMARK INTER:                  -2.290
REMARK INTRA:                  -0.153
REMARK UNBOUND:                -0.125
REMARK SMILES O=C([O-])C=Cc1ccc(O)c(O)c1
REMARK SMILES IDX 6 1 13 2 7 3 11 4 8 5 9 6 5 7 4 8 2 9 1 10 3 11 12 12 10 14
REMARK H PARENT 12 13 10 15
REMARK Flexibility Score: inf
ROOT
ATOM      1  C   UNL     1      -0.001  25.753  29.860  1.00  0.00    -0.022 A 
ATOM      2  C   UNL     1      -0.049  27.004  29.213  1.00  0.00     0.058 A 
ATOM      3  C   UNL     1       0.003  25.715  31.264  1.00  0.00     0.012 A 
ATOM      4  C   UNL     1      -0.068  28.192  29.960  1.00  0.00     0.157 A 
ATOM      5  C   UNL     1      -0.014  26.899  32.007  1.00  0.00     0.051 A 
ATOM      6  C   UNL     1      -0.048  28.139  31.359  1.00  0.00     0.157 A 
ENDROOT
BRANCH   1   7
ATOM      7  C   UNL     1       0.010  24.469  29.117  1.00  0.00     0.010 C 
ATOM      8  C   UNL     1      -0.101  23.269  29.701  1.00  0.00     0.025 C 
BRANCH   8   9
ATOM      9  C   UNL     1      -0.097  22.021  28.922  1.00  0.00     0.064 C 
ATOM     10  O   UNL     1      -0.088  20.914  29.522  1.00  0.00    -0.545 OA
ATOM     11  O   UNL     1      -0.101  22.042  27.532  1.00  0.00    -0.545 OA
ENDBRANCH   8   9
ENDBRANCH   1   7
BRANCH   4  12
ATOM     12  O   UNL     1      -0.113  29.428  29.318  1.00  0.00    -0.504 OA
ATOM     13  H   UNL     1       0.557  29.679  28.601  1.00  0.00     0.293 HD
ENDBRANCH   4  12
BRANCH   6  14
ATOM     14  O   UNL     1      -0.063  29.321  32.096  1.00  0.00    -0.504 OA
ATOM     15  H   UNL     1       0.534  29.451  32.904  1.00  0.00     0.293 HD
ENDBRANCH   6  14
TORSDOF 4
ENDMDL
MODEL 5
REMARK VINA RESULT:    -1.626      2.717      3.711
REMARK INTER + INTRA:          -2.036
REMARK INTER:                  -1.910
REMARK INTRA:                  -0.126
REMARK UNBOUND:                -0.125
REMARK SMILES O=C([O-])C=Cc1ccc(O)c(O)c1
REMARK SMILES IDX 6 1 13 2 7 3 11 4 8 5 9 6 5 7 4 8 2 9 1 10 3 11 12 12 10 14
REMARK H PARENT 12 13 10 15
REMARK Flexibility Score: inf
ROOT
ATOM      1  C   UNL     1       0.080  26.117  30.494  1.00  0.00    -0.022 A 
ATOM      2  C   UNL     1       0.010  26.027  31.898  1.00  0.00     0.058 A 
ATOM      3  C   UNL     1       0.389  27.356  29.908  1.00  0.00     0.012 A 
ATOM      4  C   UNL     1       0.222  27.161  32.696  1.00  0.00     0.157 A 
ATOM      5  C   UNL     1       0.598  28.486  30.703  1.00  0.00     0.051 A 
ATOM      6  C   UNL     1       0.513  28.393  32.098  1.00  0.00     0.157 A 
ENDROOT
BRANCH   1   7
ATOM      7  C   UNL     1      -0.125  24.945  29.607  1.00  0.00     0.010 C 
ATOM      8  C   UNL     1       0.316  23.712  29.889  1.00  0.00     0.025 C 
BRANCH   8   9
ATOM      9  C   UNL     1       0.079  22.575  28.985  1.00  0.00     0.064 C 
ATOM     10  O   UNL     1       0.064  21.405  29.448  1.00  0.00    -0.545 OA
ATOM     11  O   UNL     1      -0.124  22.772  27.623  1.00  0.00    -0.545 OA
ENDBRANCH   8   9
ENDBRANCH   1   7
BRANCH   4  12
ATOM     12  O   UNL     1       0.149  27.070  34.085  1.00  0.00    -0.504 OA
ATOM     13  H   UNL     1       0.919  27.361  34.677  1.00  0.00     0.293 HD
ENDBRANCH   4  12
BRANCH   6  14
ATOM     14  O   UNL     1       0.719  29.518  32.894  1.00  0.00    -0.504 OA
ATOM     15  H   UNL     1       1.531  29.602  33.494  1.00  0.00     0.293 HD
ENDBRANCH   6  14
TORSDOF 4
ENDMDL
