MODEL 1
REMARK VINA RESULT:    -5.606      0.000      0.000
REMARK INTER + INTRA:          -6.289
REMARK INTER:                  -6.097
REMARK INTRA:                  -0.192
REMARK UNBOUND:                -0.192
REMARK SMILES CC1(C)CC[C@]2(C(=O)[O-])CC[C@@]3(C)C(=CC[C@H]4[C@@]5(C)CC[C@H](O)C(C)(C)[C@H]5CC[C@]43C)[C@@H]2C1
REMARK SMILES IDX 6 1 5 2 10 3 32 4 4 5 11 6 14 7 33 8 2 9 12 10 15 11 1 12
REMARK SMILES IDX 3 13 13 14 30 15 16 16 17 17 29 18 31 19 18 20 28 21 27 22
REMARK SMILES IDX 20 23 19 24 24 25 21 26 22 27 25 28 26 29 7 30 8 31 9 32
REMARK SMILES IDX 23 33
REMARK H PARENT 23 34
REMARK Flexibility Score: inf
ROOT
ATOM      1  C   UNL     1       9.707  16.266  63.692  1.00  0.00     0.017 C 
ATOM      2  C   UNL     1       9.666  17.772  63.166  1.00  0.00     0.014 C 
ATOM      3  C   UNL     1      10.730  15.463  62.841  1.00  0.00     0.014 C 
ATOM      4  C   UNL     1       8.337  15.446  63.629  1.00  0.00     0.028 C 
ATOM      5  C   UNL     1       8.426  18.302  62.451  1.00  0.00     0.007 C 
ATOM      6  C   UNL     1      10.992  14.019  63.364  1.00  0.00     0.013 C 
ATOM      7  C   UNL     1       8.520  13.926  63.227  1.00  0.00    -0.064 C 
ATOM      8  C   UNL     1       7.270  16.149  62.740  1.00  0.00     0.015 C 
ATOM      9  C   UNL     1       7.111  17.662  62.927  1.00  0.00    -0.035 C 
ATOM     10  C   UNL     1       9.724  13.142  63.784  1.00  0.00    -0.006 C 
ATOM     11  C   UNL     1       7.673  13.336  62.341  1.00  0.00    -0.027 C 
ATOM     12  C   UNL     1       6.802  18.036  64.393  1.00  0.00     0.011 C 
ATOM     13  C   UNL     1       5.954  18.161  62.032  1.00  0.00     0.011 C 
ATOM     14  C   UNL     1       9.621  13.240  65.335  1.00  0.00     0.017 C 
ATOM     15  C   UNL     1       9.792  11.520  63.381  1.00  0.00    -0.020 C 
ATOM     16  C   UNL     1       7.549  11.880  62.163  1.00  0.00     0.032 C 
ATOM     17  C   UNL     1       8.893  11.137  62.130  1.00  0.00     0.006 C 
ATOM     18  C   UNL     1      11.251  11.001  63.148  1.00  0.00     0.008 C 
ATOM     19  C   UNL     1       9.239  10.602  64.558  1.00  0.00     0.012 C 
ATOM     20  C   UNL     1       9.615  10.800  60.747  1.00  0.00    -0.025 C 
ATOM     21  C   UNL     1      11.318   9.648  62.420  1.00  0.00     0.005 C 
ATOM     22  C   UNL     1      10.584   9.562  61.019  1.00  0.00     0.003 C 
ATOM     23  C   UNL     1      10.411  11.985  60.139  1.00  0.00     0.010 C 
ATOM     24  C   UNL     1       8.501  10.421  59.715  1.00  0.00     0.012 C 
ATOM     25  C   UNL     1      11.546   9.148  59.810  1.00  0.00    -0.006 C 
ATOM     26  C   UNL     1      11.287  11.583  58.941  1.00  0.00     0.033 C 
ATOM     27  C   UNL     1      12.269  10.428  59.265  1.00  0.00     0.120 C 
ATOM     28  C   UNL     1      10.744   8.423  58.678  1.00  0.00     0.014 C 
ATOM     29  C   UNL     1      12.633   8.102  60.256  1.00  0.00     0.014 C 
ENDROOT
BRANCH   1  30
ATOM     30  C   UNL     1      10.251  16.424  65.106  1.00  0.00     0.048 C 
ATOM     31  O   UNL     1       9.485  16.480  66.104  1.00  0.00    -0.550 OA
ATOM     32  O   UNL     1      11.618  16.633  65.309  1.00  0.00    -0.550 OA
ENDBRANCH   1  30
BRANCH  27  33
ATOM     33  O   UNL     1      13.021  10.110  58.123  1.00  0.00    -0.393 OA
ATOM     34  H   UNL     1      13.664  10.858  57.965  1.00  0.00     0.210 HD
ENDBRANCH  27  33
TORSDOF 2
ENDMDL
MODEL 2
REMARK VINA RESULT:    -5.327     11.311     14.761
REMARK INTER + INTRA:          -5.986
REMARK INTER:                  -5.794
REMARK INTRA:                  -0.192
REMARK UNBOUND:                -0.192
REMARK SMILES CC1(C)CC[C@]2(C(=O)[O-])CC[C@@]3(C)C(=CC[C@H]4[C@@]5(C)CC[C@H](O)C(C)(C)[C@H]5CC[C@]43C)[C@@H]2C1
REMARK SMILES IDX 6 1 5 2 10 3 32 4 4 5 11 6 14 7 33 8 2 9 12 10 15 11 1 12
REMARK SMILES IDX 3 13 13 14 30 15 16 16 17 17 29 18 31 19 18 20 28 21 27 22
REMARK SMILES IDX 20 23 19 24 24 25 21 26 22 27 25 28 26 29 7 30 8 31 9 32
REMARK SMILES IDX 23 33
REMARK H PARENT 23 34
REMARK Flexibility Score: inf
ROOT
ATOM      1  C   UNL     1       0.833  10.984  73.796  1.00  0.00     0.017 C 
ATOM      2  C   UNL     1       0.374   9.663  73.027  1.00  0.00     0.014 C 
ATOM      3  C   UNL     1       1.695  11.851  72.837  1.00  0.00     0.014 C 
ATOM      4  C   UNL     1       1.708  10.778  75.116  1.00  0.00     0.028 C 
ATOM      5  C   UNL     1       0.936   8.303  73.433  1.00  0.00     0.007 C 
ATOM      6  C   UNL     1       2.064  13.252  73.411  1.00  0.00     0.013 C 
ATOM      7  C   UNL     1       2.856  11.853  75.296  1.00  0.00    -0.064 C 
ATOM      8  C   UNL     1       2.259   9.327  75.238  1.00  0.00     0.015 C 
ATOM      9  C   UNL     1       1.277   8.192  74.929  1.00  0.00    -0.035 C 
ATOM     10  C   UNL     1       2.573  13.321  74.924  1.00  0.00    -0.006 C 
ATOM     11  C   UNL     1       4.100  11.480  75.701  1.00  0.00    -0.027 C 
ATOM     12  C   UNL     1       0.005   8.272  75.803  1.00  0.00     0.011 C 
ATOM     13  C   UNL     1       1.974   6.837  75.189  1.00  0.00     0.011 C 
ATOM     14  C   UNL     1       1.345  13.753  75.778  1.00  0.00     0.017 C 
ATOM     15  C   UNL     1       3.810  14.406  75.229  1.00  0.00    -0.020 C 
ATOM     16  C   UNL     1       5.115  12.413  76.214  1.00  0.00     0.032 C 
ATOM     17  C   UNL     1       5.229  13.718  75.410  1.00  0.00     0.006 C 
ATOM     18  C   UNL     1       3.918  15.539  74.153  1.00  0.00     0.008 C 
ATOM     19  C   UNL     1       3.576  15.190  76.594  1.00  0.00     0.012 C 
ATOM     20  C   UNL     1       6.308  13.878  74.245  1.00  0.00    -0.025 C 
ATOM     21  C   UNL     1       5.249  16.307  74.195  1.00  0.00     0.005 C 
ATOM     22  C   UNL     1       6.570  15.441  74.066  1.00  0.00     0.003 C 
ATOM     23  C   UNL     1       5.885  13.243  72.894  1.00  0.00     0.010 C 
ATOM     24  C   UNL     1       7.611  13.143  74.707  1.00  0.00     0.012 C 
ATOM     25  C   UNL     1       7.499  15.858  72.832  1.00  0.00    -0.006 C 
ATOM     26  C   UNL     1       6.820  13.606  71.728  1.00  0.00     0.033 C 
ATOM     27  C   UNL     1       6.990  15.134  71.537  1.00  0.00     0.120 C 
ATOM     28  C   UNL     1       8.998  15.520  73.119  1.00  0.00     0.014 C 
ATOM     29  C   UNL     1       7.483  17.412  72.584  1.00  0.00     0.014 C 
ENDROOT
BRANCH   1  30
ATOM     30  C   UNL     1      -0.491  11.692  74.054  1.00  0.00     0.048 C 
ATOM     31  O   UNL     1      -1.107  11.560  75.145  1.00  0.00    -0.550 OA
ATOM     32  O   UNL     1      -1.108  12.413  73.028  1.00  0.00    -0.550 OA
ENDBRANCH   1  30
BRANCH  27  33
ATOM     33  O   UNL     1       7.865  15.385  70.468  1.00  0.00    -0.393 OA
ATOM     34  H   UNL     1       8.477  16.124  70.745  1.00  0.00     0.210 HD
ENDBRANCH  27  33
TORSDOF 2
ENDMDL
MODEL 3
REMARK VINA RESULT:    -5.281      3.302      4.882
REMARK INTER + INTRA:          -5.935
REMARK INTER:                  -5.752
REMARK INTRA:                  -0.183
REMARK UNBOUND:                -0.192
REMARK SMILES CC1(C)CC[C@]2(C(=O)[O-])CC[C@@]3(C)C(=CC[C@H]4[C@@]5(C)CC[C@H](O)C(C)(C)[C@H]5CC[C@]43C)[C@@H]2C1
REMARK SMILES IDX 6 1 5 2 10 3 32 4 4 5 11 6 14 7 33 8 2 9 12 10 15 11 1 12
REMARK SMILES IDX 3 13 13 14 30 15 16 16 17 17 29 18 31 19 18 20 28 21 27 22
REMARK SMILES IDX 20 23 19 24 24 25 21 26 22 27 25 28 26 29 7 30 8 31 9 32
REMARK SMILES IDX 23 33
REMARK H PARENT 23 34
REMARK Flexibility Score: inf
ROOT
ATOM      1  C   UNL     1       4.532  14.056  64.292  1.00  0.00     0.017 C 
ATOM      2  C   UNL     1       3.151  13.502  64.867  1.00  0.00     0.014 C 
ATOM      3  C   UNL     1       5.029  13.102  63.171  1.00  0.00     0.014 C 
ATOM      4  C   UNL     1       5.740  14.189  65.330  1.00  0.00     0.028 C 
ATOM      5  C   UNL     1       3.080  12.937  66.284  1.00  0.00     0.007 C 
ATOM      6  C   UNL     1       6.284  13.624  62.407  1.00  0.00     0.013 C 
ATOM      7  C   UNL     1       7.150  13.804  64.721  1.00  0.00    -0.064 C 
ATOM      8  C   UNL     1       5.463  13.425  66.658  1.00  0.00     0.015 C 
ATOM      9  C   UNL     1       4.066  13.593  67.266  1.00  0.00    -0.035 C 
ATOM     10  C   UNL     1       7.483  14.224  63.277  1.00  0.00    -0.006 C 
ATOM     11  C   UNL     1       8.030  13.049  65.433  1.00  0.00    -0.027 C 
ATOM     12  C   UNL     1       3.713  15.077  67.510  1.00  0.00     0.011 C 
ATOM     13  C   UNL     1       4.010  12.840  68.615  1.00  0.00     0.011 C 
ATOM     14  C   UNL     1       7.323  15.772  63.229  1.00  0.00     0.017 C 
ATOM     15  C   UNL     1       9.026  13.856  62.744  1.00  0.00    -0.020 C 
ATOM     16  C   UNL     1       9.461  12.925  65.108  1.00  0.00     0.032 C 
ATOM     17  C   UNL     1       9.749  12.740  63.610  1.00  0.00     0.006 C 
ATOM     18  C   UNL     1       9.079  13.453  61.232  1.00  0.00     0.008 C 
ATOM     19  C   UNL     1       9.993  15.116  62.841  1.00  0.00     0.012 C 
ATOM     20  C   UNL     1       9.932  11.285  62.980  1.00  0.00    -0.025 C 
ATOM     21  C   UNL     1      10.387  12.756  60.823  1.00  0.00     0.005 C 
ATOM     22  C   UNL     1      10.787  11.462  61.644  1.00  0.00     0.003 C 
ATOM     23  C   UNL     1       8.599  10.551  62.673  1.00  0.00     0.010 C 
ATOM     24  C   UNL     1      10.704  10.413  64.025  1.00  0.00     0.012 C 
ATOM     25  C   UNL     1      10.957  10.151  60.743  1.00  0.00    -0.006 C 
ATOM     26  C   UNL     1       8.784   9.262  61.856  1.00  0.00     0.033 C 
ATOM     27  C   UNL     1       9.553   9.487  60.530  1.00  0.00     0.120 C 
ATOM     28  C   UNL     1      11.966   9.149  61.396  1.00  0.00     0.014 C 
ATOM     29  C   UNL     1      11.582  10.482  59.338  1.00  0.00     0.014 C 
ENDROOT
BRANCH   1  30
ATOM     30  C   UNL     1       4.123  15.385  63.671  1.00  0.00     0.048 C 
ATOM     31  O   UNL     1       4.315  16.478  64.267  1.00  0.00    -0.550 OA
ATOM     32  O   UNL     1       3.410  15.403  62.468  1.00  0.00    -0.550 OA
ENDBRANCH   1  30
BRANCH  27  33
ATOM     33  O   UNL     1       9.694   8.267  59.849  1.00  0.00    -0.393 OA
ATOM     34  H   UNL     1       9.366   8.402  58.915  1.00  0.00     0.210 HD
ENDBRANCH  27  33
TORSDOF 2
ENDMDL
MODEL 4
REMARK VINA RESULT:    -5.266      1.430      1.889
REMARK INTER + INTRA:          -5.920
REMARK INTER:                  -5.728
REMARK INTRA:                  -0.191
REMARK UNBOUND:                -0.192
REMARK SMILES CC1(C)CC[C@]2(C(=O)[O-])CC[C@@]3(C)C(=CC[C@H]4[C@@]5(C)CC[C@H](O)C(C)(C)[C@H]5CC[C@]43C)[C@@H]2C1
REMARK SMILES IDX 6 1 5 2 10 3 32 4 4 5 11 6 14 7 33 8 2 9 12 10 15 11 1 12
REMARK SMILES IDX 3 13 13 14 30 15 16 16 17 17 29 18 31 19 18 20 28 21 27 22
REMARK SMILES IDX 20 23 19 24 24 25 21 26 22 27 25 28 26 29 7 30 8 31 9 32
REMARK SMILES IDX 23 33
REMARK H PARENT 23 34
REMARK Flexibility Score: inf
ROOT
ATOM      1  C   UNL     1       7.565  17.054  63.465  1.00  0.00     0.017 C 
ATOM      2  C   UNL     1       6.949  18.332  62.737  1.00  0.00     0.014 C 
ATOM      3  C   UNL     1       8.770  16.533  62.635  1.00  0.00     0.014 C 
ATOM      4  C   UNL     1       6.591  15.803  63.666  1.00  0.00     0.028 C 
ATOM      5  C   UNL     1       5.569  18.257  62.088  1.00  0.00     0.007 C 
ATOM      6  C   UNL     1       9.569  15.388  63.328  1.00  0.00     0.013 C 
ATOM      7  C   UNL     1       7.301  14.402  63.467  1.00  0.00    -0.064 C 
ATOM      8  C   UNL     1       5.300  15.917  62.803  1.00  0.00     0.015 C 
ATOM      9  C   UNL     1       4.605  17.283  62.787  1.00  0.00    -0.035 C 
ATOM     10  C   UNL     1       8.732  14.205  64.001  1.00  0.00    -0.006 C 
ATOM     11  C   UNL     1       6.689  13.407  62.770  1.00  0.00    -0.027 C 
ATOM     12  C   UNL     1       4.247  17.769  64.209  1.00  0.00     0.011 C 
ATOM     13  C   UNL     1       3.305  17.177  61.957  1.00  0.00     0.011 C 
ATOM     14  C   UNL     1       8.673  14.524  65.524  1.00  0.00     0.017 C 
ATOM     15  C   UNL     1       9.373  12.669  63.830  1.00  0.00    -0.020 C 
ATOM     16  C   UNL     1       7.101  11.994  62.816  1.00  0.00     0.032 C 
ATOM     17  C   UNL     1       8.622  11.783  62.748  1.00  0.00     0.006 C 
ATOM     18  C   UNL     1      10.909  12.670  63.521  1.00  0.00     0.008 C 
ATOM     19  C   UNL     1       9.251  11.831  65.177  1.00  0.00     0.012 C 
ATOM     20  C   UNL     1       9.352  11.493  61.359  1.00  0.00    -0.025 C 
ATOM     21  C   UNL     1      11.434  11.326  62.991  1.00  0.00     0.005 C 
ATOM     22  C   UNL     1      10.720  10.746  61.701  1.00  0.00     0.003 C 
ATOM     23  C   UNL     1       9.628  12.760  60.508  1.00  0.00     0.010 C 
ATOM     24  C   UNL     1       8.409  10.572  60.515  1.00  0.00     0.012 C 
ATOM     25  C   UNL     1      11.710  10.499  60.469  1.00  0.00    -0.006 C 
ATOM     26  C   UNL     1      10.534  12.496  59.293  1.00  0.00     0.033 C 
ATOM     27  C   UNL     1      11.885  11.839  59.674  1.00  0.00     0.120 C 
ATOM     28  C   UNL     1      11.179   9.355  59.544  1.00  0.00     0.014 C 
ATOM     29  C   UNL     1      13.125  10.001  60.944  1.00  0.00     0.014 C 
ENDROOT
BRANCH   1  30
ATOM     30  C   UNL     1       8.077  17.634  64.777  1.00  0.00     0.048 C 
ATOM     31  O   UNL     1       7.391  17.584  65.832  1.00  0.00    -0.550 OA
ATOM     32  O   UNL     1       9.278  18.348  64.802  1.00  0.00    -0.550 OA
ENDBRANCH   1  30
BRANCH  27  33
ATOM     33  O   UNL     1      12.649  11.618  58.516  1.00  0.00    -0.393 OA
ATOM     34  H   UNL     1      12.183  12.068  57.755  1.00  0.00     0.210 HD
ENDBRANCH  27  33
TORSDOF 2
ENDMDL
MODEL 5
REMARK VINA RESULT:    -5.214     11.776     16.329
REMARK INTER + INTRA:          -5.862
REMARK INTER:                  -5.686
REMARK INTRA:                  -0.177
REMARK UNBOUND:                -0.192
REMARK SMILES CC1(C)CC[C@]2(C(=O)[O-])CC[C@@]3(C)C(=CC[C@H]4[C@@]5(C)CC[C@H](O)C(C)(C)[C@H]5CC[C@]43C)[C@@H]2C1
REMARK SMILES IDX 6 1 5 2 10 3 32 4 4 5 11 6 14 7 33 8 2 9 12 10 15 11 1 12
REMARK SMILES IDX 3 13 13 14 30 15 16 16 17 17 29 18 31 19 18 20 28 21 27 22
REMARK SMILES IDX 20 23 19 24 24 25 21 26 22 27 25 28 26 29 7 30 8 31 9 32
REMARK SMILES IDX 23 33
REMARK H PARENT 23 34
REMARK Flexibility Score: inf
ROOT
ATOM      1  C   UNL     1       4.345  12.693  74.895  1.00  0.00     0.017 C 
ATOM      2  C   UNL     1       4.032  11.135  75.034  1.00  0.00     0.014 C 
ATOM      3  C   UNL     1       3.438  13.480  75.880  1.00  0.00     0.014 C 
ATOM      4  C   UNL     1       4.110  13.346  73.456  1.00  0.00     0.028 C 
ATOM      5  C   UNL     1       3.342  10.385  73.897  1.00  0.00     0.007 C 
ATOM      6  C   UNL     1       3.767  15.001  75.966  1.00  0.00     0.013 C 
ATOM      7  C   UNL     1       3.509  14.810  73.509  1.00  0.00    -0.064 C 
ATOM      8  C   UNL     1       3.280  12.421  72.517  1.00  0.00     0.015 C 
ATOM      9  C   UNL     1       3.667  10.939  72.499  1.00  0.00    -0.035 C 
ATOM     10  C   UNL     1       4.005  15.785  74.594  1.00  0.00    -0.006 C 
ATOM     11  C   UNL     1       2.514  15.183  72.660  1.00  0.00    -0.027 C 
ATOM     12  C   UNL     1       5.156  10.732  72.144  1.00  0.00     0.011 C 
ATOM     13  C   UNL     1       2.799  10.205  71.452  1.00  0.00     0.011 C 
ATOM     14  C   UNL     1       5.548  15.884  74.412  1.00  0.00     0.017 C 
ATOM     15  C   UNL     1       3.385  17.337  74.523  1.00  0.00    -0.020 C 
ATOM     16  C   UNL     1       2.131  16.581  72.402  1.00  0.00     0.032 C 
ATOM     17  C   UNL     1       2.055  17.453  73.666  1.00  0.00     0.006 C 
ATOM     18  C   UNL     1       3.148  17.973  75.935  1.00  0.00     0.008 C 
ATOM     19  C   UNL     1       4.398  18.339  73.814  1.00  0.00     0.012 C 
ATOM     20  C   UNL     1       0.672  17.678  74.430  1.00  0.00    -0.025 C 
ATOM     21  C   UNL     1       2.243  19.216  75.909  1.00  0.00     0.005 C 
ATOM     22  C   UNL     1       0.812  19.037  75.254  1.00  0.00     0.003 C 
ATOM     23  C   UNL     1       0.270  16.514  75.374  1.00  0.00     0.010 C 
ATOM     24  C   UNL     1      -0.451  17.795  73.346  1.00  0.00     0.012 C 
ATOM     25  C   UNL     1      -0.399  19.387  76.238  1.00  0.00    -0.006 C 
ATOM     26  C   UNL     1      -0.933  16.844  76.274  1.00  0.00     0.033 C 
ATOM     27  C   UNL     1      -0.729  18.130  77.115  1.00  0.00     0.120 C 
ATOM     28  C   UNL     1      -1.654  19.864  75.436  1.00  0.00     0.014 C 
ATOM     29  C   UNL     1      -0.054  20.593  77.188  1.00  0.00     0.014 C 
ENDROOT
BRANCH   1  30
ATOM     30  C   UNL     1       5.790  12.783  75.368  1.00  0.00     0.048 C 
ATOM     31  O   UNL     1       6.746  12.873  74.552  1.00  0.00    -0.550 OA
ATOM     32  O   UNL     1       6.090  12.645  76.726  1.00  0.00    -0.550 OA
ENDBRANCH   1  30
BRANCH  27  33
ATOM     33  O   UNL     1      -1.870  18.372  77.898  1.00  0.00    -0.393 OA
ATOM     34  H   UNL     1      -2.665  18.329  77.294  1.00  0.00     0.210 HD
ENDBRANCH  27  33
TORSDOF 2
ENDMDL
MODEL 6
REMARK VINA RESULT:    -5.075     10.958     15.219
REMARK INTER + INTRA:          -5.712
REMARK INTER:                  -5.547
REMARK INTRA:                  -0.165
REMARK UNBOUND:                -0.192
REMARK SMILES CC1(C)CC[C@]2(C(=O)[O-])CC[C@@]3(C)C(=CC[C@H]4[C@@]5(C)CC[C@H](O)C(C)(C)[C@H]5CC[C@]43C)[C@@H]2C1
REMARK SMILES IDX 6 1 5 2 10 3 32 4 4 5 11 6 14 7 33 8 2 9 12 10 15 11 1 12
REMARK SMILES IDX 3 13 13 14 30 15 16 16 17 17 29 18 31 19 18 20 28 21 27 22
REMARK SMILES IDX 20 23 19 24 24 25 21 26 22 27 25 28 26 29 7 30 8 31 9 32
REMARK SMILES IDX 23 33
REMARK H PARENT 23 34
REMARK Flexibility Score: inf
ROOT
ATOM      1  C   UNL     1       6.118  11.686  74.469  1.00  0.00     0.017 C 
ATOM      2  C   UNL     1       6.354  10.108  74.465  1.00  0.00     0.014 C 
ATOM      3  C   UNL     1       4.862  12.005  75.325  1.00  0.00     0.014 C 
ATOM      4  C   UNL     1       5.876  12.377  73.049  1.00  0.00     0.028 C 
ATOM      5  C   UNL     1       6.141   9.301  73.186  1.00  0.00     0.007 C 
ATOM      6  C   UNL     1       4.620  13.528  75.551  1.00  0.00     0.013 C 
ATOM      7  C   UNL     1       4.798  13.537  73.080  1.00  0.00    -0.064 C 
ATOM      8  C   UNL     1       5.565  11.338  71.932  1.00  0.00     0.015 C 
ATOM      9  C   UNL     1       6.446  10.085  71.899  1.00  0.00    -0.035 C 
ATOM     10  C   UNL     1       4.762  14.495  74.286  1.00  0.00    -0.006 C 
ATOM     11  C   UNL     1       3.867  13.646  72.094  1.00  0.00    -0.027 C 
ATOM     12  C   UNL     1       7.948  10.433  71.794  1.00  0.00     0.011 C 
ATOM     13  C   UNL     1       6.050   9.223  70.678  1.00  0.00     0.011 C 
ATOM     14  C   UNL     1       6.181  15.128  74.378  1.00  0.00     0.017 C 
ATOM     15  C   UNL     1       3.653  15.745  74.196  1.00  0.00    -0.020 C 
ATOM     16  C   UNL     1       3.059  14.852  71.852  1.00  0.00     0.032 C 
ATOM     17  C   UNL     1       2.503  15.500  73.130  1.00  0.00     0.006 C 
ATOM     18  C   UNL     1       3.009  16.101  75.579  1.00  0.00     0.008 C 
ATOM     19  C   UNL     1       4.340  17.102  73.729  1.00  0.00     0.012 C 
ATOM     20  C   UNL     1       1.036  15.159  73.656  1.00  0.00    -0.025 C 
ATOM     21  C   UNL     1       1.740  16.962  75.466  1.00  0.00     0.005 C 
ATOM     22  C   UNL     1       0.571  16.385  74.565  1.00  0.00     0.003 C 
ATOM     23  C   UNL     1       0.937  13.830  74.451  1.00  0.00     0.010 C 
ATOM     24  C   UNL     1       0.109  15.011  72.403  1.00  0.00     0.012 C 
ATOM     25  C   UNL     1      -0.812  16.194  75.344  1.00  0.00    -0.006 C 
ATOM     26  C   UNL     1      -0.420  13.632  75.147  1.00  0.00     0.033 C 
ATOM     27  C   UNL     1      -0.801  14.809  76.081  1.00  0.00     0.120 C 
ATOM     28  C   UNL     1      -2.027  16.307  74.366  1.00  0.00     0.014 C 
ATOM     29  C   UNL     1      -1.051  17.331  76.405  1.00  0.00     0.014 C 
ENDROOT
BRANCH   1  30
ATOM     30  C   UNL     1       7.357  12.204  75.188  1.00  0.00     0.048 C 
ATOM     31  O   UNL     1       8.310  12.734  74.558  1.00  0.00    -0.550 OA
ATOM     32  O   UNL     1       7.508  11.987  76.560  1.00  0.00    -0.550 OA
ENDBRANCH   1  30
BRANCH  27  33
ATOM     33  O   UNL     1      -2.054  14.564  76.667  1.00  0.00    -0.393 OA
ATOM     34  H   UNL     1      -1.947  14.652  77.657  1.00  0.00     0.210 HD
ENDBRANCH  27  33
TORSDOF 2
ENDMDL
MODEL 7
REMARK VINA RESULT:    -4.999      2.482      4.127
REMARK INTER + INTRA:          -5.628
REMARK INTER:                  -5.437
REMARK INTRA:                  -0.191
REMARK UNBOUND:                -0.192
REMARK SMILES CC1(C)CC[C@]2(C(=O)[O-])CC[C@@]3(C)C(=CC[C@H]4[C@@]5(C)CC[C@H](O)C(C)(C)[C@H]5CC[C@]43C)[C@@H]2C1
REMARK SMILES IDX 6 1 5 2 10 3 32 4 4 5 11 6 14 7 33 8 2 9 12 10 15 11 1 12
REMARK SMILES IDX 3 13 13 14 30 15 16 16 17 17 29 18 31 19 18 20 28 21 27 22
REMARK SMILES IDX 20 23 19 24 24 25 21 26 22 27 25 28 26 29 7 30 8 31 9 32
REMARK SMILES IDX 23 33
REMARK H PARENT 23 34
REMARK Flexibility Score: inf
ROOT
ATOM      1  C   UNL     1       8.193  19.407  62.342  1.00  0.00     0.017 C 
ATOM      2  C   UNL     1       8.307  20.363  61.070  1.00  0.00     0.014 C 
ATOM      3  C   UNL     1       9.147  18.196  62.149  1.00  0.00     0.014 C 
ATOM      4  C   UNL     1       6.751  18.791  62.649  1.00  0.00     0.028 C 
ATOM      5  C   UNL     1       7.137  20.492  60.098  1.00  0.00     0.007 C 
ATOM      6  C   UNL     1       9.258  17.272  63.400  1.00  0.00     0.013 C 
ATOM      7  C   UNL     1       6.792  17.296  63.168  1.00  0.00    -0.064 C 
ATOM      8  C   UNL     1       5.772  18.954  61.449  1.00  0.00     0.015 C 
ATOM      9  C   UNL     1       5.758  20.321  60.757  1.00  0.00    -0.035 C 
ATOM     10  C   UNL     1       7.903  16.872  64.146  1.00  0.00    -0.006 C 
ATOM     11  C   UNL     1       5.906  16.375  62.701  1.00  0.00    -0.027 C 
ATOM     12  C   UNL     1       5.461  21.470  61.747  1.00  0.00     0.011 C 
ATOM     13  C   UNL     1       4.670  20.319  59.659  1.00  0.00     0.011 C 
ATOM     14  C   UNL     1       7.784  17.823  65.373  1.00  0.00     0.017 C 
ATOM     15  C   UNL     1       7.820  15.300  64.713  1.00  0.00    -0.020 C 
ATOM     16  C   UNL     1       5.644  15.080  63.349  1.00  0.00     0.032 C 
ATOM     17  C   UNL     1       6.910  14.350  63.824  1.00  0.00     0.006 C 
ATOM     18  C   UNL     1       9.226  14.637  64.906  1.00  0.00     0.008 C 
ATOM     19  C   UNL     1       7.160  15.235  66.160  1.00  0.00     0.012 C 
ATOM     20  C   UNL     1       7.620  13.250  62.912  1.00  0.00    -0.025 C 
ATOM     21  C   UNL     1       9.173  13.107  65.054  1.00  0.00     0.005 C 
ATOM     22  C   UNL     1       8.459  12.308  63.888  1.00  0.00     0.003 C 
ATOM     23  C   UNL     1       8.538  13.836  61.806  1.00  0.00     0.010 C 
ATOM     24  C   UNL     1       6.492  12.441  62.188  1.00  0.00     0.012 C 
ATOM     25  C   UNL     1       9.396  11.223  63.178  1.00  0.00    -0.006 C 
ATOM     26  C   UNL     1       9.391  12.774  61.093  1.00  0.00     0.033 C 
ATOM     27  C   UNL     1      10.250  11.928  62.068  1.00  0.00     0.120 C 
ATOM     28  C   UNL     1       8.548  10.051  62.584  1.00  0.00     0.014 C 
ATOM     29  C   UNL     1      10.369  10.528  64.202  1.00  0.00     0.014 C 
ENDROOT
BRANCH   1  30
ATOM     30  C   UNL     1       8.724  20.286  63.466  1.00  0.00     0.048 C 
ATOM     31  O   UNL     1       7.950  20.951  64.205  1.00  0.00    -0.550 OA
ATOM     32  O   UNL     1      10.102  20.465  63.620  1.00  0.00    -0.550 OA
ENDBRANCH   1  30
BRANCH  27  33
ATOM     33  O   UNL     1      10.987  10.975  61.347  1.00  0.00    -0.393 OA
ATOM     34  H   UNL     1      11.953  11.222  61.417  1.00  0.00     0.210 HD
ENDBRANCH  27  33
TORSDOF 2
ENDMDL
MODEL 8
REMARK VINA RESULT:    -4.941     10.627     13.665
REMARK INTER + INTRA:          -5.566
REMARK INTER:                  -5.377
REMARK INTRA:                  -0.189
REMARK UNBOUND:                -0.192
REMARK SMILES CC1(C)CC[C@]2(C(=O)[O-])CC[C@@]3(C)C(=CC[C@H]4[C@@]5(C)CC[C@H](O)C(C)(C)[C@H]5CC[C@]43C)[C@@H]2C1
REMARK SMILES IDX 6 1 5 2 10 3 32 4 4 5 11 6 14 7 33 8 2 9 12 10 15 11 1 12
REMARK SMILES IDX 3 13 13 14 30 15 16 16 17 17 29 18 31 19 18 20 28 21 27 22
REMARK SMILES IDX 20 23 19 24 24 25 21 26 22 27 25 28 26 29 7 30 8 31 9 32
REMARK SMILES IDX 23 33
REMARK H PARENT 23 34
REMARK Flexibility Score: inf
ROOT
ATOM      1  C   UNL     1       5.967  16.365  71.963  1.00  0.00     0.017 C 
ATOM      2  C   UNL     1       5.632  17.488  70.880  1.00  0.00     0.014 C 
ATOM      3  C   UNL     1       5.074  15.123  71.693  1.00  0.00     0.014 C 
ATOM      4  C   UNL     1       5.735  16.754  73.495  1.00  0.00     0.028 C 
ATOM      5  C   UNL     1       4.928  18.776  71.301  1.00  0.00     0.007 C 
ATOM      6  C   UNL     1       5.425  13.888  72.577  1.00  0.00     0.013 C 
ATOM      7  C   UNL     1       5.155  15.572  74.374  1.00  0.00    -0.064 C 
ATOM      8  C   UNL     1       4.889  18.052  73.652  1.00  0.00     0.015 C 
ATOM      9  C   UNL     1       5.254  19.224  72.735  1.00  0.00    -0.035 C 
ATOM     10  C   UNL     1       5.669  14.139  74.136  1.00  0.00    -0.006 C 
ATOM     11  C   UNL     1       4.162  15.799  75.275  1.00  0.00    -0.027 C 
ATOM     12  C   UNL     1       6.739  19.628  72.874  1.00  0.00     0.011 C 
ATOM     13  C   UNL     1       4.373  20.441  73.097  1.00  0.00     0.011 C 
ATOM     14  C   UNL     1       7.213  14.197  74.331  1.00  0.00     0.017 C 
ATOM     15  C   UNL     1       5.071  12.965  75.167  1.00  0.00    -0.020 C 
ATOM     16  C   UNL     1       3.797  14.867  76.354  1.00  0.00     0.032 C 
ATOM     17  C   UNL     1       3.739  13.395  75.915  1.00  0.00     0.006 C 
ATOM     18  C   UNL     1       4.847  11.582  74.466  1.00  0.00     0.008 C 
ATOM     19  C   UNL     1       6.094  12.642  76.341  1.00  0.00     0.012 C 
ATOM     20  C   UNL     1       2.362  12.722  75.469  1.00  0.00    -0.025 C 
ATOM     21  C   UNL     1       3.960  10.618  75.271  1.00  0.00     0.005 C 
ATOM     22  C   UNL     1       2.524  11.149  75.677  1.00  0.00     0.003 C 
ATOM     23  C   UNL     1       1.947  13.032  74.006  1.00  0.00     0.010 C 
ATOM     24  C   UNL     1       1.236  13.295  76.394  1.00  0.00     0.012 C 
ATOM     25  C   UNL     1       1.322  10.243  75.136  1.00  0.00    -0.006 C 
ATOM     26  C   UNL     1       0.753  12.195  73.518  1.00  0.00     0.033 C 
ATOM     27  C   UNL     1       0.978  10.669  73.666  1.00  0.00     0.120 C 
ATOM     28  C   UNL     1       0.071  10.357  76.068  1.00  0.00     0.014 C 
ATOM     29  C   UNL     1       1.688   8.713  75.149  1.00  0.00     0.014 C 
ENDROOT
BRANCH   1  30
ATOM     30  C   UNL     1       7.415  16.018  71.643  1.00  0.00     0.048 C 
ATOM     31  O   UNL     1       8.373  16.546  72.267  1.00  0.00    -0.550 OA
ATOM     32  O   UNL     1       7.710  15.189  70.556  1.00  0.00    -0.550 OA
ENDBRANCH   1  30
BRANCH  27  33
ATOM     33  O   UNL     1      -0.156   9.975  73.215  1.00  0.00    -0.393 OA
ATOM     34  H   UNL     1      -0.940  10.588  73.300  1.00  0.00     0.210 HD
ENDBRANCH  27  33
TORSDOF 2
ENDMDL
MODEL 9
REMARK VINA RESULT:    -4.850     12.536     15.548
REMARK INTER + INTRA:          -5.466
REMARK INTER:                  -5.275
REMARK INTRA:                  -0.191
REMARK UNBOUND:                -0.192
REMARK SMILES CC1(C)CC[C@]2(C(=O)[O-])CC[C@@]3(C)C(=CC[C@H]4[C@@]5(C)CC[C@H](O)C(C)(C)[C@H]5CC[C@]43C)[C@@H]2C1
REMARK SMILES IDX 6 1 5 2 10 3 32 4 4 5 11 6 14 7 33 8 2 9 12 10 15 11 1 12
REMARK SMILES IDX 3 13 13 14 30 15 16 16 17 17 29 18 31 19 18 20 28 21 27 22
REMARK SMILES IDX 20 23 19 24 24 25 21 26 22 27 25 28 26 29 7 30 8 31 9 32
REMARK SMILES IDX 23 33
REMARK H PARENT 23 34
REMARK Flexibility Score: inf
ROOT
ATOM      1  C   UNL     1      -0.175   8.115  75.019  1.00  0.00     0.017 C 
ATOM      2  C   UNL     1      -1.173   7.927  76.249  1.00  0.00     0.014 C 
ATOM      3  C   UNL     1       1.253   8.392  75.566  1.00  0.00     0.014 C 
ATOM      4  C   UNL     1      -0.501   9.307  74.007  1.00  0.00     0.028 C 
ATOM      5  C   UNL     1      -2.246   8.975  76.536  1.00  0.00     0.007 C 
ATOM      6  C   UNL     1       2.357   8.424  74.466  1.00  0.00     0.013 C 
ATOM      7  C   UNL     1       0.785  10.060  73.470  1.00  0.00    -0.064 C 
ATOM      8  C   UNL     1      -1.546  10.304  74.587  1.00  0.00     0.015 C 
ATOM      9  C   UNL     1      -2.768   9.691  75.279  1.00  0.00    -0.035 C 
ATOM     10  C   UNL     1       2.044   9.241  73.129  1.00  0.00    -0.006 C 
ATOM     11  C   UNL     1       0.808  11.417  73.381  1.00  0.00    -0.027 C 
ATOM     12  C   UNL     1      -3.531   8.717  74.353  1.00  0.00     0.011 C 
ATOM     13  C   UNL     1      -3.728  10.825  75.707  1.00  0.00     0.011 C 
ATOM     14  C   UNL     1       1.602   8.189  72.069  1.00  0.00     0.017 C 
ATOM     15  C   UNL     1       3.326  10.102  72.484  1.00  0.00    -0.020 C 
ATOM     16  C   UNL     1       1.797  12.175  72.598  1.00  0.00     0.032 C 
ATOM     17  C   UNL     1       3.239  11.665  72.749  1.00  0.00     0.006 C 
ATOM     18  C   UNL     1       4.724   9.575  72.953  1.00  0.00     0.008 C 
ATOM     19  C   UNL     1       3.377   9.975  70.899  1.00  0.00     0.012 C 
ATOM     20  C   UNL     1       4.237  12.315  73.811  1.00  0.00    -0.025 C 
ATOM     21  C   UNL     1       5.876  10.559  72.691  1.00  0.00     0.005 C 
ATOM     22  C   UNL     1       5.719  12.012  73.303  1.00  0.00     0.003 C 
ATOM     23  C   UNL     1       4.048  11.797  75.262  1.00  0.00     0.010 C 
ATOM     24  C   UNL     1       3.959  13.855  73.837  1.00  0.00     0.012 C 
ATOM     25  C   UNL     1       6.899  12.425  74.301  1.00  0.00    -0.006 C 
ATOM     26  C   UNL     1       5.159  12.250  76.223  1.00  0.00     0.033 C 
ATOM     27  C   UNL     1       6.579  11.871  75.733  1.00  0.00     0.120 C 
ATOM     28  C   UNL     1       7.097  13.976  74.323  1.00  0.00     0.014 C 
ATOM     29  C   UNL     1       8.289  11.855  73.834  1.00  0.00     0.014 C 
ENDROOT
BRANCH   1  30
ATOM     30  C   UNL     1      -0.199   6.742  74.360  1.00  0.00     0.048 C 
ATOM     31  O   UNL     1      -0.955   6.492  73.385  1.00  0.00    -0.550 OA
ATOM     32  O   UNL     1       0.539   5.690  74.912  1.00  0.00    -0.550 OA
ENDBRANCH   1  30
BRANCH  27  33
ATOM     33  O   UNL     1       7.537  12.328  76.652  1.00  0.00    -0.393 OA
ATOM     34  H   UNL     1       7.408  13.313  76.759  1.00  0.00     0.210 HD
ENDBRANCH  27  33
TORSDOF 2
ENDMDL
