MODEL 1
REMARK VINA RESULT:    -3.452      0.000      0.000
REMARK INTER + INTRA:          -7.338
REMARK INTER:                  -5.874
REMARK INTRA:                  -1.464
REMARK UNBOUND:                -1.464
REMARK SMILES CCCCCCCCCCCCCC(=O)[O-]
REMARK SMILES IDX 8 1 9 2 10 3 11 4 12 5 13 6 14 7 15 8 16 9 7 10 6 11 5 12
REMARK SMILES IDX 4 13 3 14 2 15 1 16
REMARK H PARENT
REMARK Flexibility Score: inf
ROOT
ATOM      1  C   UNL     1      -3.839  -7.842  36.005  1.00  0.00     0.000 C 
ENDROOT
BRANCH   1   2
ATOM      2  C   UNL     1      -3.088  -6.750  36.785  1.00  0.00     0.000 C 
BRANCH   2   3
ATOM      3  C   UNL     1      -2.524  -7.262  38.122  1.00  0.00     0.000 C 
BRANCH   3   4
ATOM      4  C   UNL     1      -1.305  -8.187  37.942  1.00  0.00     0.000 C 
BRANCH   4   5
ATOM      5  C   UNL     1      -0.582  -8.576  39.244  1.00  0.00     0.006 C 
BRANCH   5   6
ATOM      6  C   UNL     1      -1.425  -8.313  40.499  1.00  0.00     0.053 C 
BRANCH   6   7
ATOM      7  C   UNL     1      -1.983  -9.594  41.033  1.00  0.00     0.041 C 
ATOM      8  O   UNL     1      -1.254 -10.617  41.113  1.00  0.00    -0.550 OA
ATOM      9  O   UNL     1      -3.293  -9.645  41.490  1.00  0.00    -0.550 OA
ENDBRANCH   6   7
ENDBRANCH   5   6
ENDBRANCH   4   5
ENDBRANCH   3   4
ENDBRANCH   2   3
ENDBRANCH   1   2
BRANCH   1  10
ATOM     10  C   UNL     1      -3.446  -7.888  34.522  1.00  0.00     0.000 C 
BRANCH  10  11
ATOM     11  C   UNL     1      -2.097  -7.196  34.290  1.00  0.00    -0.000 C 
BRANCH  11  12
ATOM     12  C   UNL     1      -2.167  -6.230  33.101  1.00  0.00    -0.000 C 
BRANCH  12  13
ATOM     13  C   UNL     1      -3.497  -5.464  33.091  1.00  0.00    -0.000 C 
BRANCH  13  14
ATOM     14  C   UNL     1      -3.484  -4.225  34.003  1.00  0.00    -0.000 C 
BRANCH  14  15
ATOM     15  C   UNL     1      -4.770  -4.010  34.820  1.00  0.00    -0.003 C 
ATOM     16  C   UNL     1      -5.875  -5.007  34.472  1.00  0.00     0.004 C 
ENDBRANCH  14  15
ENDBRANCH  13  14
ENDBRANCH  12  13
ENDBRANCH  11  12
ENDBRANCH  10  11
ENDBRANCH   1  10
TORSDOF 12
ENDMDL
MODEL 2
REMARK VINA RESULT:    -3.443      1.135      2.507
REMARK INTER + INTRA:          -7.322
REMARK INTER:                  -5.571
REMARK INTRA:                  -1.751
REMARK UNBOUND:                -1.464
REMARK SMILES CCCCCCCCCCCCCC(=O)[O-]
REMARK SMILES IDX 8 1 9 2 10 3 11 4 12 5 13 6 14 7 15 8 16 9 7 10 6 11 5 12
REMARK SMILES IDX 4 13 3 14 2 15 1 16
REMARK H PARENT
REMARK Flexibility Score: inf
ROOT
ATOM      1  C   UNL     1      -5.090  -6.520  36.153  1.00  0.00     0.000 C 
ENDROOT
BRANCH   1   2
ATOM      2  C   UNL     1      -4.252  -7.268  37.204  1.00  0.00     0.000 C 
BRANCH   2   3
ATOM      3  C   UNL     1      -2.884  -6.607  37.446  1.00  0.00     0.000 C 
BRANCH   3   4
ATOM      4  C   UNL     1      -1.702  -7.523  37.076  1.00  0.00     0.000 C 
BRANCH   4   5
ATOM      5  C   UNL     1      -1.259  -8.497  38.182  1.00  0.00     0.006 C 
BRANCH   5   6
ATOM      6  C   UNL     1      -1.496  -7.947  39.594  1.00  0.00     0.053 C 
BRANCH   6   7
ATOM      7  C   UNL     1      -2.355  -8.885  40.384  1.00  0.00     0.041 C 
ATOM      8  O   UNL     1      -3.603  -8.890  40.219  1.00  0.00    -0.550 OA
ATOM      9  O   UNL     1      -1.773  -9.788  41.263  1.00  0.00    -0.550 OA
ENDBRANCH   6   7
ENDBRANCH   5   6
ENDBRANCH   4   5
ENDBRANCH   3   4
ENDBRANCH   2   3
ENDBRANCH   1   2
BRANCH   1  10
ATOM     10  C   UNL     1      -4.988  -4.993  36.291  1.00  0.00     0.000 C 
BRANCH  10  11
ATOM     11  C   UNL     1      -5.052  -4.313  34.918  1.00  0.00    -0.000 C 
BRANCH  11  12
ATOM     12  C   UNL     1      -3.648  -4.097  34.341  1.00  0.00    -0.000 C 
BRANCH  12  13
ATOM     13  C   UNL     1      -3.349  -5.106  33.223  1.00  0.00    -0.000 C 
BRANCH  13  14
ATOM     14  C   UNL     1      -2.248  -6.112  33.600  1.00  0.00    -0.000 C 
BRANCH  14  15
ATOM     15  C   UNL     1      -2.646  -7.591  33.456  1.00  0.00    -0.003 C 
ATOM     16  C   UNL     1      -4.047  -7.780  32.874  1.00  0.00     0.004 C 
ENDBRANCH  14  15
ENDBRANCH  13  14
ENDBRANCH  12  13
ENDBRANCH  11  12
ENDBRANCH  10  11
ENDBRANCH   1  10
TORSDOF 12
ENDMDL
MODEL 3
REMARK VINA RESULT:    -3.410      1.178      2.438
REMARK INTER + INTRA:          -7.267
REMARK INTER:                  -5.870
REMARK INTRA:                  -1.397
REMARK UNBOUND:                -1.464
REMARK SMILES CCCCCCCCCCCCCC(=O)[O-]
REMARK SMILES IDX 8 1 9 2 10 3 11 4 12 5 13 6 14 7 15 8 16 9 7 10 6 11 5 12
REMARK SMILES IDX 4 13 3 14 2 15 1 16
REMARK H PARENT
REMARK Flexibility Score: inf
ROOT
ATOM      1  C   UNL     1      -2.875  -6.600  37.417  1.00  0.00     0.000 C 
ENDROOT
BRANCH   1   2
ATOM      2  C   UNL     1      -1.634  -7.437  37.062  1.00  0.00     0.000 C 
BRANCH   2   3
ATOM      3  C   UNL     1      -1.516  -8.708  37.920  1.00  0.00     0.000 C 
BRANCH   3   4
ATOM      4  C   UNL     1      -0.727  -8.480  39.223  1.00  0.00     0.000 C 
BRANCH   4   5
ATOM      5  C   UNL     1      -1.571  -8.502  40.509  1.00  0.00     0.006 C 
BRANCH   5   6
ATOM      6  C   UNL     1      -2.961  -9.116  40.304  1.00  0.00     0.053 C 
BRANCH   6   7
ATOM      7  C   UNL     1      -3.090 -10.391  41.076  1.00  0.00     0.041 C 
ATOM      8  O   UNL     1      -2.332 -10.617  42.056  1.00  0.00    -0.550 OA
ATOM      9  O   UNL     1      -4.080 -11.308  40.746  1.00  0.00    -0.550 OA
ENDBRANCH   6   7
ENDBRANCH   5   6
ENDBRANCH   4   5
ENDBRANCH   3   4
ENDBRANCH   2   3
ENDBRANCH   1   2
BRANCH   1  10
ATOM     10  C   UNL     1      -4.188  -7.366  37.201  1.00  0.00     0.000 C 
BRANCH  10  11
ATOM     11  C   UNL     1      -5.196  -6.516  36.417  1.00  0.00    -0.000 C 
BRANCH  11  12
ATOM     12  C   UNL     1      -4.813  -5.032  36.450  1.00  0.00    -0.000 C 
BRANCH  12  13
ATOM     13  C   UNL     1      -5.056  -4.369  35.087  1.00  0.00    -0.000 C 
BRANCH  13  14
ATOM     14  C   UNL     1      -3.754  -4.057  34.330  1.00  0.00    -0.000 C 
BRANCH  14  15
ATOM     15  C   UNL     1      -3.399  -5.055  33.213  1.00  0.00    -0.003 C 
ATOM     16  C   UNL     1      -2.448  -6.159  33.678  1.00  0.00     0.004 C 
ENDBRANCH  14  15
ENDBRANCH  13  14
ENDBRANCH  12  13
ENDBRANCH  11  12
ENDBRANCH  10  11
ENDBRANCH   1  10
TORSDOF 12
ENDMDL
MODEL 4
REMARK VINA RESULT:    -3.372      1.673      3.174
REMARK INTER + INTRA:          -7.202
REMARK INTER:                  -6.519
REMARK INTRA:                  -0.683
REMARK UNBOUND:                -1.464
REMARK SMILES CCCCCCCCCCCCCC(=O)[O-]
REMARK SMILES IDX 8 1 9 2 10 3 11 4 12 5 13 6 14 7 15 8 16 9 7 10 6 11 5 12
REMARK SMILES IDX 4 13 3 14 2 15 1 16
REMARK H PARENT
REMARK Flexibility Score: inf
ROOT
ATOM      1  C   UNL     1      -1.090  -8.138  37.807  1.00  0.00     0.000 C 
ENDROOT
BRANCH   1   2
ATOM      2  C   UNL     1      -0.543  -8.776  39.095  1.00  0.00     0.000 C 
BRANCH   2   3
ATOM      3  C   UNL     1      -1.317  -8.330  40.349  1.00  0.00     0.000 C 
BRANCH   3   4
ATOM      4  C   UNL     1      -2.057  -9.491  41.040  1.00  0.00     0.000 C 
BRANCH   4   5
ATOM      5  C   UNL     1      -1.365 -10.861  40.934  1.00  0.00     0.006 C 
BRANCH   5   6
ATOM      6  C   UNL     1      -1.460 -11.683  42.226  1.00  0.00     0.053 C 
BRANCH   6   7
ATOM      7  C   UNL     1      -2.657 -12.580  42.189  1.00  0.00     0.041 C 
ATOM      8  O   UNL     1      -2.534 -13.785  41.847  1.00  0.00    -0.550 OA
ATOM      9  O   UNL     1      -3.899 -12.100  42.583  1.00  0.00    -0.550 OA
ENDBRANCH   6   7
ENDBRANCH   5   6
ENDBRANCH   4   5
ENDBRANCH   3   4
ENDBRANCH   2   3
ENDBRANCH   1   2
BRANCH   1  10
ATOM     10  C   UNL     1      -2.394  -7.359  38.039  1.00  0.00     0.000 C 
BRANCH  10  11
ATOM     11  C   UNL     1      -2.866  -6.684  36.745  1.00  0.00    -0.000 C 
BRANCH  11  12
ATOM     12  C   UNL     1      -4.182  -5.928  36.965  1.00  0.00    -0.000 C 
BRANCH  12  13
ATOM     13  C   UNL     1      -4.968  -5.796  35.652  1.00  0.00    -0.000 C 
BRANCH  13  14
ATOM     14  C   UNL     1      -5.071  -4.343  35.158  1.00  0.00    -0.000 C 
BRANCH  14  15
ATOM     15  C   UNL     1      -3.850  -3.841  34.367  1.00  0.00    -0.003 C 
ATOM     16  C   UNL     1      -3.257  -4.904  33.443  1.00  0.00     0.004 C 
ENDBRANCH  14  15
ENDBRANCH  13  14
ENDBRANCH  12  13
ENDBRANCH  11  12
ENDBRANCH  10  11
ENDBRANCH   1  10
TORSDOF 12
ENDMDL
MODEL 5
REMARK VINA RESULT:    -3.334      1.179      2.317
REMARK INTER + INTRA:          -7.136
REMARK INTER:                  -5.602
REMARK INTRA:                  -1.534
REMARK UNBOUND:                -1.464
REMARK SMILES CCCCCCCCCCCCCC(=O)[O-]
REMARK SMILES IDX 8 1 9 2 10 3 11 4 12 5 13 6 14 7 15 8 16 9 7 10 6 11 5 12
REMARK SMILES IDX 4 13 3 14 2 15 1 16
REMARK H PARENT
REMARK Flexibility Score: inf
ROOT
ATOM      1  C   UNL     1      -2.322  -7.712  33.706  1.00  0.00     0.000 C 
ENDROOT
BRANCH   1   2
ATOM      2  C   UNL     1      -1.848  -8.344  35.026  1.00  0.00     0.000 C 
BRANCH   2   3
ATOM      3  C   UNL     1      -1.726  -7.314  36.162  1.00  0.00     0.000 C 
BRANCH   3   4
ATOM      4  C   UNL     1      -1.165  -7.920  37.462  1.00  0.00     0.000 C 
BRANCH   4   5
ATOM      5  C   UNL     1      -2.101  -7.832  38.681  1.00  0.00     0.006 C 
BRANCH   5   6
ATOM      6  C   UNL     1      -1.382  -8.096  40.010  1.00  0.00     0.053 C 
BRANCH   6   7
ATOM      7  C   UNL     1      -1.732  -9.454  40.533  1.00  0.00     0.041 C 
ATOM      8  O   UNL     1      -2.508  -9.572  41.517  1.00  0.00    -0.550 OA
ATOM      9  O   UNL     1      -1.242 -10.590  39.903  1.00  0.00    -0.550 OA
ENDBRANCH   6   7
ENDBRANCH   5   6
ENDBRANCH   4   5
ENDBRANCH   3   4
ENDBRANCH   2   3
ENDBRANCH   1   2
BRANCH   1  10
ATOM     10  C   UNL     1      -2.168  -6.184  33.691  1.00  0.00     0.000 C 
BRANCH  10  11
ATOM     11  C   UNL     1      -3.500  -5.502  33.358  1.00  0.00    -0.000 C 
BRANCH  11  12
ATOM     12  C   UNL     1      -3.700  -4.236  34.200  1.00  0.00    -0.000 C 
BRANCH  12  13
ATOM     13  C   UNL     1      -4.852  -4.414  35.199  1.00  0.00    -0.000 C 
BRANCH  13  14
ATOM     14  C   UNL     1      -4.437  -5.184  36.464  1.00  0.00    -0.000 C 
BRANCH  14  15
ATOM     15  C   UNL     1      -5.408  -6.299  36.891  1.00  0.00    -0.003 C 
ATOM     16  C   UNL     1      -5.428  -7.480  35.920  1.00  0.00     0.004 C 
ENDBRANCH  14  15
ENDBRANCH  13  14
ENDBRANCH  12  13
ENDBRANCH  11  12
ENDBRANCH  10  11
ENDBRANCH   1  10
TORSDOF 12
ENDMDL
MODEL 6
REMARK VINA RESULT:    -3.332      3.655      7.040
REMARK INTER + INTRA:          -7.134
REMARK INTER:                  -5.955
REMARK INTRA:                  -1.179
REMARK UNBOUND:                -1.464
REMARK SMILES CCCCCCCCCCCCCC(=O)[O-]
REMARK SMILES IDX 8 1 9 2 10 3 11 4 12 5 13 6 14 7 15 8 16 9 7 10 6 11 5 12
REMARK SMILES IDX 4 13 3 14 2 15 1 16
REMARK H PARENT
REMARK Flexibility Score: inf
ROOT
ATOM      1  C   UNL     1      -1.531  -8.156  38.716  1.00  0.00     0.000 C 
ENDROOT
BRANCH   1   2
ATOM      2  C   UNL     1      -0.999  -7.937  37.289  1.00  0.00     0.000 C 
BRANCH   2   3
ATOM      3  C   UNL     1      -1.950  -7.087  36.429  1.00  0.00     0.000 C 
BRANCH   3   4
ATOM      4  C   UNL     1      -3.279  -6.768  37.142  1.00  0.00     0.000 C 
BRANCH   4   5
ATOM      5  C   UNL     1      -4.017  -5.524  36.619  1.00  0.00     0.006 C 
BRANCH   5   6
ATOM      6  C   UNL     1      -4.484  -5.669  35.165  1.00  0.00     0.053 C 
BRANCH   6   7
ATOM      7  C   UNL     1      -3.798  -4.667  34.292  1.00  0.00     0.041 C 
ATOM      8  O   UNL     1      -3.008  -5.050  33.389  1.00  0.00    -0.550 OA
ATOM      9  O   UNL     1      -4.069  -3.313  34.440  1.00  0.00    -0.550 OA
ENDBRANCH   6   7
ENDBRANCH   5   6
ENDBRANCH   4   5
ENDBRANCH   3   4
ENDBRANCH   2   3
ENDBRANCH   1   2
BRANCH   1  10
ATOM     10  C   UNL     1      -0.484  -8.782  39.649  1.00  0.00     0.000 C 
BRANCH  10  11
ATOM     11  C   UNL     1      -0.532 -10.313  39.577  1.00  0.00    -0.000 C 
BRANCH  11  12
ATOM     12  C   UNL     1      -1.904 -10.845  40.010  1.00  0.00    -0.000 C 
BRANCH  12  13
ATOM     13  C   UNL     1      -2.239 -10.406  41.442  1.00  0.00    -0.000 C 
BRANCH  13  14
ATOM     14  C   UNL     1      -3.612  -9.722  41.555  1.00  0.00    -0.000 C 
BRANCH  14  15
ATOM     15  C   UNL     1      -4.513  -9.872  40.316  1.00  0.00    -0.003 C 
ATOM     16  C   UNL     1      -5.089  -8.541  39.831  1.00  0.00     0.004 C 
ENDBRANCH  14  15
ENDBRANCH  13  14
ENDBRANCH  12  13
ENDBRANCH  11  12
ENDBRANCH  10  11
ENDBRANCH   1  10
TORSDOF 12
ENDMDL
MODEL 7
REMARK VINA RESULT:    -3.326      5.111      7.328
REMARK INTER + INTRA:          -7.123
REMARK INTER:                  -5.183
REMARK INTRA:                  -1.940
REMARK UNBOUND:                -1.464
REMARK SMILES CCCCCCCCCCCCCC(=O)[O-]
REMARK SMILES IDX 8 1 9 2 10 3 11 4 12 5 13 6 14 7 15 8 16 9 7 10 6 11 5 12
REMARK SMILES IDX 4 13 3 14 2 15 1 16
REMARK H PARENT
REMARK Flexibility Score: inf
ROOT
ATOM      1  C   UNL     1      -4.721 -13.115  41.597  1.00  0.00     0.000 C 
ENDROOT
BRANCH   1   2
ATOM      2  C   UNL     1      -3.264 -13.110  41.104  1.00  0.00     0.000 C 
BRANCH   2   3
ATOM      3  C   UNL     1      -2.251 -13.060  42.260  1.00  0.00     0.000 C 
BRANCH   3   4
ATOM      4  C   UNL     1      -1.437 -11.752  42.288  1.00  0.00     0.000 C 
BRANCH   4   5
ATOM      5  C   UNL     1      -1.397 -10.980  40.957  1.00  0.00     0.006 C 
BRANCH   5   6
ATOM      6  C   UNL     1      -1.625  -9.474  41.130  1.00  0.00     0.053 C 
BRANCH   6   7
ATOM      7  C   UNL     1      -1.202  -8.735  39.900  1.00  0.00     0.041 C 
ATOM      8  O   UNL     1      -0.154  -9.072  39.288  1.00  0.00    -0.550 OA
ATOM      9  O   UNL     1      -1.991  -7.708  39.399  1.00  0.00    -0.550 OA
ENDBRANCH   6   7
ENDBRANCH   5   6
ENDBRANCH   4   5
ENDBRANCH   3   4
ENDBRANCH   2   3
ENDBRANCH   1   2
BRANCH   1  10
ATOM     10  C   UNL     1      -4.840 -12.808  43.097  1.00  0.00     0.000 C 
BRANCH  10  11
ATOM     11  C   UNL     1      -5.626 -11.512  43.331  1.00  0.00    -0.000 C 
BRANCH  11  12
ATOM     12  C   UNL     1      -4.826 -10.289  42.866  1.00  0.00    -0.000 C 
BRANCH  12  13
ATOM     13  C   UNL     1      -5.756  -9.199  42.316  1.00  0.00    -0.000 C 
BRANCH  13  14
ATOM     14  C   UNL     1      -6.056  -9.367  40.816  1.00  0.00    -0.000 C 
BRANCH  14  15
ATOM     15  C   UNL     1      -4.851  -9.794  39.959  1.00  0.00    -0.003 C 
ATOM     16  C   UNL     1      -5.230 -10.750  38.828  1.00  0.00     0.004 C 
ENDBRANCH  14  15
ENDBRANCH  13  14
ENDBRANCH  12  13
ENDBRANCH  11  12
ENDBRANCH  10  11
ENDBRANCH   1  10
TORSDOF 12
ENDMDL
MODEL 8
REMARK VINA RESULT:    -3.285      3.490      6.603
REMARK INTER + INTRA:          -7.054
REMARK INTER:                  -5.333
REMARK INTRA:                  -1.721
REMARK UNBOUND:                -1.464
REMARK SMILES CCCCCCCCCCCCCC(=O)[O-]
REMARK SMILES IDX 8 1 9 2 10 3 11 4 12 5 13 6 14 7 15 8 16 9 7 10 6 11 5 12
REMARK SMILES IDX 4 13 3 14 2 15 1 16
REMARK H PARENT
REMARK Flexibility Score: inf
ROOT
ATOM      1  C   UNL     1      -1.085  -9.149  37.932  1.00  0.00     0.000 C 
ENDROOT
BRANCH   1   2
ATOM      2  C   UNL     1      -0.692  -8.010  36.977  1.00  0.00     0.000 C 
BRANCH   2   3
ATOM      3  C   UNL     1      -1.913  -7.357  36.304  1.00  0.00     0.000 C 
BRANCH   3   4
ATOM      4  C   UNL     1      -2.838  -6.641  37.306  1.00  0.00     0.000 C 
BRANCH   4   5
ATOM      5  C   UNL     1      -4.297  -6.476  36.845  1.00  0.00     0.006 C 
BRANCH   5   6
ATOM      6  C   UNL     1      -4.643  -5.034  36.454  1.00  0.00     0.053 C 
BRANCH   6   7
ATOM      7  C   UNL     1      -4.295  -4.782  35.020  1.00  0.00     0.041 C 
ATOM      8  O   UNL     1      -3.962  -3.628  34.643  1.00  0.00    -0.550 OA
ATOM      9  O   UNL     1      -4.287  -5.833  34.111  1.00  0.00    -0.550 OA
ENDBRANCH   6   7
ENDBRANCH   5   6
ENDBRANCH   4   5
ENDBRANCH   3   4
ENDBRANCH   2   3
ENDBRANCH   1   2
BRANCH   1  10
ATOM     10  C   UNL     1      -0.503  -8.968  39.342  1.00  0.00     0.000 C 
BRANCH  10  11
ATOM     11  C   UNL     1      -1.559  -8.414  40.306  1.00  0.00    -0.000 C 
BRANCH  11  12
ATOM     12  C   UNL     1      -2.276  -9.547  41.051  1.00  0.00    -0.000 C 
BRANCH  12  13
ATOM     13  C   UNL     1      -3.793  -9.311  41.085  1.00  0.00    -0.000 C 
BRANCH  13  14
ATOM     14  C   UNL     1      -4.404  -9.132  39.685  1.00  0.00    -0.000 C 
BRANCH  14  15
ATOM     15  C   UNL     1      -4.441 -10.408  38.827  1.00  0.00    -0.003 C 
ATOM     16  C   UNL     1      -4.554 -10.120  37.329  1.00  0.00     0.004 C 
ENDBRANCH  14  15
ENDBRANCH  13  14
ENDBRANCH  12  13
ENDBRANCH  11  12
ENDBRANCH  10  11
ENDBRANCH   1  10
TORSDOF 12
ENDMDL
MODEL 9
REMARK VINA RESULT:    -3.263      3.649      5.394
REMARK INTER + INTRA:          -7.016
REMARK INTER:                  -5.020
REMARK INTRA:                  -1.996
REMARK UNBOUND:                -1.464
REMARK SMILES CCCCCCCCCCCCCC(=O)[O-]
REMARK SMILES IDX 8 1 9 2 10 3 11 4 12 5 13 6 14 7 15 8 16 9 7 10 6 11 5 12
REMARK SMILES IDX 4 13 3 14 2 15 1 16
REMARK H PARENT
REMARK Flexibility Score: inf
ROOT
ATOM      1  C   UNL     1      -0.754  -9.220  37.721  1.00  0.00     0.000 C 
ENDROOT
BRANCH   1   2
ATOM      2  C   UNL     1      -0.229  -9.274  39.165  1.00  0.00     0.000 C 
BRANCH   2   3
ATOM      3  C   UNL     1      -0.594 -10.588  39.877  1.00  0.00     0.000 C 
BRANCH   3   4
ATOM      4  C   UNL     1      -1.537 -10.378  41.077  1.00  0.00     0.000 C 
BRANCH   4   5
ATOM      5  C   UNL     1      -1.540 -11.518  42.112  1.00  0.00     0.006 C 
BRANCH   5   6
ATOM      6  C   UNL     1      -2.894 -12.233  42.211  1.00  0.00     0.053 C 
BRANCH   6   7
ATOM      7  C   UNL     1      -2.730 -13.700  41.965  1.00  0.00     0.041 C 
ATOM      8  O   UNL     1      -1.980 -14.386  42.708  1.00  0.00    -0.550 OA
ATOM      9  O   UNL     1      -3.446 -14.318  40.949  1.00  0.00    -0.550 OA
ENDBRANCH   6   7
ENDBRANCH   5   6
ENDBRANCH   4   5
ENDBRANCH   3   4
ENDBRANCH   2   3
ENDBRANCH   1   2
BRANCH   1  10
ATOM     10  C   UNL     1      -1.423  -7.880  37.383  1.00  0.00     0.000 C 
BRANCH  10  11
ATOM     11  C   UNL     1      -2.317  -7.406  38.535  1.00  0.00    -0.000 C 
BRANCH  11  12
ATOM     12  C   UNL     1      -3.765  -7.870  38.339  1.00  0.00    -0.000 C 
BRANCH  12  13
ATOM     13  C   UNL     1      -4.300  -8.558  39.603  1.00  0.00    -0.000 C 
BRANCH  13  14
ATOM     14  C   UNL     1      -4.724 -10.017  39.359  1.00  0.00    -0.000 C 
BRANCH  14  15
ATOM     15  C   UNL     1      -4.206 -10.629  38.046  1.00  0.00    -0.003 C 
ATOM     16  C   UNL     1      -3.515 -11.979  38.247  1.00  0.00     0.004 C 
ENDBRANCH  14  15
ENDBRANCH  13  14
ENDBRANCH  12  13
ENDBRANCH  11  12
ENDBRANCH  10  11
ENDBRANCH   1  10
TORSDOF 12
ENDMDL
