MODEL 1
REMARK VINA RESULT:    -3.193      0.000      0.000
REMARK INTER + INTRA:          -4.359
REMARK INTER:                  -4.127
REMARK INTRA:                  -0.233
REMARK UNBOUND:                -0.233
REMARK SMILES CCOC(=O)C=Cc1ccc(O)c(O)c1
REMARK SMILES IDX 6 1 7 2 4 3 5 4 3 5 2 6 1 7 8 8 15 9 9 10 13 11 10 12 11 13
REMARK SMILES IDX 14 14 12 16
REMARK H PARENT 14 15 12 17
REMARK Flexibility Score: inf
ROOT
ATOM      1  C   UNL     1      19.173  65.259  15.962  1.00  0.00     0.094 C 
ATOM      2  C   UNL     1      18.137  66.106  15.894  1.00  0.00     0.016 C 
ENDROOT
BRANCH   1   3
ATOM      3  C   UNL     1      20.530  65.655  15.553  1.00  0.00     0.330 C 
ATOM      4  O   UNL     1      20.746  65.948  14.345  1.00  0.00    -0.247 OA
BRANCH   3   5
ATOM      5  O   UNL     1      21.568  65.706  16.491  1.00  0.00    -0.463 OA
BRANCH   5   6
ATOM      6  C   UNL     1      22.772  64.961  16.346  1.00  0.00     0.230 C 
ATOM      7  C   UNL     1      23.936  65.913  16.123  1.00  0.00     0.049 C 
ENDBRANCH   5   6
ENDBRANCH   3   5
ENDBRANCH   1   3
BRANCH   2   8
ATOM      8  C   UNL     1      16.751  65.747  16.283  1.00  0.00    -0.021 A 
ATOM      9  C   UNL     1      15.628  66.113  15.513  1.00  0.00     0.058 A 
ATOM     10  C   UNL     1      16.557  64.981  17.443  1.00  0.00     0.012 A 
ATOM     11  C   UNL     1      14.339  65.741  15.911  1.00  0.00     0.157 A 
ATOM     12  C   UNL     1      15.271  64.611  17.844  1.00  0.00     0.051 A 
ATOM     13  C   UNL     1      14.157  64.990  17.084  1.00  0.00     0.157 A 
BRANCH  11  14
ATOM     14  O   UNL     1      13.251  66.124  15.127  1.00  0.00    -0.504 OA
ATOM     15  H   UNL     1      12.334  65.708  15.238  1.00  0.00     0.293 HD
ENDBRANCH  11  14
BRANCH  13  16
ATOM     16  O   UNL     1      12.875  64.621  17.488  1.00  0.00    -0.504 OA
ATOM     17  H   UNL     1      12.606  64.617  18.465  1.00  0.00     0.293 HD
ENDBRANCH  13  16
ENDBRANCH   2   8
TORSDOF 6
ENDMDL
MODEL 2
REMARK VINA RESULT:    -3.060     14.640     16.238
REMARK INTER + INTRA:          -4.187
REMARK INTER:                  -3.914
REMARK INTRA:                  -0.274
REMARK UNBOUND:                -0.233
REMARK SMILES CCOC(=O)C=Cc1ccc(O)c(O)c1
REMARK SMILES IDX 6 1 7 2 4 3 5 4 3 5 2 6 1 7 8 8 15 9 9 10 13 11 10 12 11 13
REMARK SMILES IDX 14 14 12 16
REMARK H PARENT 14 15 12 17
REMARK Flexibility Score: inf
ROOT
ATOM      1  C   UNL     1      33.125  63.384  18.276  1.00  0.00     0.094 C 
ATOM      2  C   UNL     1      32.461  62.803  19.286  1.00  0.00     0.016 C 
ENDROOT
BRANCH   1   3
ATOM      3  C   UNL     1      33.104  62.833  16.913  1.00  0.00     0.330 C 
ATOM      4  O   UNL     1      33.092  61.581  16.757  1.00  0.00    -0.247 OA
BRANCH   3   5
ATOM      5  O   UNL     1      33.097  63.684  15.802  1.00  0.00    -0.463 OA
BRANCH   5   6
ATOM      6  C   UNL     1      32.595  63.286  14.531  1.00  0.00     0.230 C 
ATOM      7  C   UNL     1      31.081  63.410  14.520  1.00  0.00     0.049 C 
ENDBRANCH   5   6
ENDBRANCH   3   5
ENDBRANCH   1   3
BRANCH   2   8
ATOM      8  C   UNL     1      32.464  63.316  20.678  1.00  0.00    -0.021 A 
ATOM      9  C   UNL     1      32.794  62.507  21.784  1.00  0.00     0.058 A 
ATOM     10  C   UNL     1      32.162  64.670  20.895  1.00  0.00     0.012 A 
ATOM     11  C   UNL     1      32.796  63.036  23.080  1.00  0.00     0.157 A 
ATOM     12  C   UNL     1      32.161  65.200  22.188  1.00  0.00     0.051 A 
ATOM     13  C   UNL     1      32.475  64.388  23.285  1.00  0.00     0.157 A 
BRANCH  11  14
ATOM     14  O   UNL     1      33.125  62.205  24.151  1.00  0.00    -0.504 OA
ATOM     15  H   UNL     1      32.619  61.349  24.342  1.00  0.00     0.293 HD
ENDBRANCH  11  14
BRANCH  13  16
ATOM     16  O   UNL     1      32.471  64.920  24.573  1.00  0.00    -0.504 OA
ATOM     17  H   UNL     1      33.249  64.781  25.208  1.00  0.00     0.293 HD
ENDBRANCH  13  16
ENDBRANCH   2   8
TORSDOF 6
ENDMDL
MODEL 3
REMARK VINA RESULT:    -2.996     13.511     15.585
REMARK INTER + INTRA:          -4.104
REMARK INTER:                  -3.714
REMARK INTRA:                  -0.390
REMARK UNBOUND:                -0.233
REMARK SMILES CCOC(=O)C=Cc1ccc(O)c(O)c1
REMARK SMILES IDX 6 1 7 2 4 3 5 4 3 5 2 6 1 7 8 8 15 9 9 10 13 11 10 12 11 13
REMARK SMILES IDX 14 14 12 16
REMARK H PARENT 14 15 12 17
REMARK Flexibility Score: inf
ROOT
ATOM      1  C   UNL     1      32.727  63.339  21.263  1.00  0.00     0.094 C 
ATOM      2  C   UNL     1      32.134  64.195  20.419  1.00  0.00     0.016 C 
ENDROOT
BRANCH   1   3
ATOM      3  C   UNL     1      32.816  63.606  22.707  1.00  0.00     0.330 C 
ATOM      4  O   UNL     1      32.858  62.634  23.510  1.00  0.00    -0.247 OA
BRANCH   3   5
ATOM      5  O   UNL     1      32.854  64.921  23.184  1.00  0.00    -0.463 OA
BRANCH   5   6
ATOM      6  C   UNL     1      32.093  65.353  24.307  1.00  0.00     0.230 C 
ATOM      7  C   UNL     1      30.618  65.380  23.942  1.00  0.00     0.049 C 
ENDBRANCH   5   6
ENDBRANCH   3   5
ENDBRANCH   1   3
BRANCH   2   8
ATOM      8  C   UNL     1      32.031  63.972  18.956  1.00  0.00    -0.021 A 
ATOM      9  C   UNL     1      31.017  64.557  18.169  1.00  0.00     0.058 A 
ATOM     10  C   UNL     1      33.003  63.178  18.328  1.00  0.00     0.012 A 
ATOM     11  C   UNL     1      30.966  64.330  16.789  1.00  0.00     0.157 A 
ATOM     12  C   UNL     1      32.952  62.948  16.951  1.00  0.00     0.051 A 
ATOM     13  C   UNL     1      31.935  63.518  16.176  1.00  0.00     0.157 A 
BRANCH  11  14
ATOM     14  O   UNL     1      29.947  64.922  16.043  1.00  0.00    -0.504 OA
ATOM     15  H   UNL     1      29.217  64.376  15.600  1.00  0.00     0.293 HD
ENDBRANCH  11  14
BRANCH  13  16
ATOM     16  O   UNL     1      31.886  63.285  14.802  1.00  0.00    -0.504 OA
ATOM     17  H   UNL     1      32.193  63.982  14.134  1.00  0.00     0.293 HD
ENDBRANCH  13  16
ENDBRANCH   2   8
TORSDOF 6
ENDMDL
MODEL 4
REMARK VINA RESULT:    -2.993     10.958     15.429
REMARK INTER + INTRA:          -4.101
REMARK INTER:                  -3.846
REMARK INTRA:                  -0.255
REMARK UNBOUND:                -0.233
REMARK SMILES CCOC(=O)C=Cc1ccc(O)c(O)c1
REMARK SMILES IDX 6 1 7 2 4 3 5 4 3 5 2 6 1 7 8 8 15 9 9 10 13 11 10 12 11 13
REMARK SMILES IDX 14 14 12 16
REMARK H PARENT 14 15 12 17
REMARK Flexibility Score: inf
ROOT
ATOM      1  C   UNL     1      30.705  64.413  18.862  1.00  0.00     0.094 C 
ATOM      2  C   UNL     1      31.934  64.002  19.210  1.00  0.00     0.016 C 
ENDROOT
BRANCH   1   3
ATOM      3  C   UNL     1      30.437  65.050  17.564  1.00  0.00     0.330 C 
ATOM      4  O   UNL     1      31.107  64.694  16.556  1.00  0.00    -0.247 OA
BRANCH   3   5
ATOM      5  O   UNL     1      29.454  66.039  17.448  1.00  0.00    -0.463 OA
BRANCH   5   6
ATOM      6  C   UNL     1      28.135  65.761  16.989  1.00  0.00     0.230 C 
ATOM      7  C   UNL     1      27.236  65.459  18.176  1.00  0.00     0.049 C 
ENDBRANCH   5   6
ENDBRANCH   3   5
ENDBRANCH   1   3
BRANCH   2   8
ATOM      8  C   UNL     1      32.253  63.367  20.512  1.00  0.00    -0.021 A 
ATOM      9  C   UNL     1      32.383  64.105  21.706  1.00  0.00     0.058 A 
ATOM     10  C   UNL     1      32.394  61.971  20.560  1.00  0.00     0.012 A 
ATOM     11  C   UNL     1      32.673  63.462  22.915  1.00  0.00     0.157 A 
ATOM     12  C   UNL     1      32.685  61.327  21.766  1.00  0.00     0.051 A 
ATOM     13  C   UNL     1      32.829  62.067  22.946  1.00  0.00     0.157 A 
BRANCH  11  14
ATOM     14  O   UNL     1      32.797  64.226  24.075  1.00  0.00    -0.504 OA
ATOM     15  H   UNL     1      33.696  64.541  24.418  1.00  0.00     0.293 HD
ENDBRANCH  11  14
BRANCH  13  16
ATOM     16  O   UNL     1      33.122  61.421  24.146  1.00  0.00    -0.504 OA
ATOM     17  H   UNL     1      33.015  60.419  24.250  1.00  0.00     0.293 HD
ENDBRANCH  13  16
ENDBRANCH   2   8
TORSDOF 6
ENDMDL
MODEL 5
REMARK VINA RESULT:    -2.876     10.105     14.436
REMARK INTER + INTRA:          -3.949
REMARK INTER:                  -3.674
REMARK INTRA:                  -0.276
REMARK UNBOUND:                -0.233
REMARK SMILES CCOC(=O)C=Cc1ccc(O)c(O)c1
REMARK SMILES IDX 6 1 7 2 4 3 5 4 3 5 2 6 1 7 8 8 15 9 9 10 13 11 10 12 11 13
REMARK SMILES IDX 14 14 12 16
REMARK H PARENT 14 15 12 17
REMARK Flexibility Score: inf
ROOT
ATOM      1  C   UNL     1      29.891  65.251  18.459  1.00  0.00     0.094 C 
ATOM      2  C   UNL     1      31.008  64.978  19.149  1.00  0.00     0.016 C 
ENDROOT
BRANCH   1   3
ATOM      3  C   UNL     1      29.836  65.140  16.993  1.00  0.00     0.330 C 
ATOM      4  O   UNL     1      30.803  64.609  16.382  1.00  0.00    -0.247 OA
BRANCH   3   5
ATOM      5  O   UNL     1      28.727  65.617  16.286  1.00  0.00    -0.463 OA
BRANCH   5   6
ATOM      6  C   UNL     1      27.450  64.992  16.348  1.00  0.00     0.230 C 
ATOM      7  C   UNL     1      26.422  65.982  16.870  1.00  0.00     0.049 C 
ENDBRANCH   5   6
ENDBRANCH   3   5
ENDBRANCH   1   3
BRANCH   2   8
ATOM      8  C   UNL     1      31.113  65.088  20.624  1.00  0.00    -0.021 A 
ATOM      9  C   UNL     1      32.079  64.382  21.371  1.00  0.00     0.058 A 
ATOM     10  C   UNL     1      30.240  65.958  21.297  1.00  0.00     0.012 A 
ATOM     11  C   UNL     1      32.150  64.526  22.762  1.00  0.00     0.157 A 
ATOM     12  C   UNL     1      30.309  66.101  22.685  1.00  0.00     0.051 A 
ATOM     13  C   UNL     1      31.259  65.386  23.424  1.00  0.00     0.157 A 
BRANCH  11  14
ATOM     14  O   UNL     1      33.116  63.809  23.468  1.00  0.00    -0.504 OA
ATOM     15  H   UNL     1      32.901  62.944  23.947  1.00  0.00     0.293 HD
ENDBRANCH  11  14
BRANCH  13  16
ATOM     16  O   UNL     1      31.323  65.530  24.809  1.00  0.00    -0.504 OA
ATOM     17  H   UNL     1      31.892  64.917  25.381  1.00  0.00     0.293 HD
ENDBRANCH  13  16
ENDBRANCH   2   8
TORSDOF 6
ENDMDL
MODEL 6
REMARK VINA RESULT:    -2.853      9.564     14.445
REMARK INTER + INTRA:          -3.919
REMARK INTER:                  -3.660
REMARK INTRA:                  -0.260
REMARK UNBOUND:                -0.233
REMARK SMILES CCOC(=O)C=Cc1ccc(O)c(O)c1
REMARK SMILES IDX 6 1 7 2 4 3 5 4 3 5 2 6 1 7 8 8 15 9 9 10 13 11 10 12 11 13
REMARK SMILES IDX 14 14 12 16
REMARK H PARENT 14 15 12 17
REMARK Flexibility Score: inf
ROOT
ATOM      1  C   UNL     1      29.688  65.004  17.954  1.00  0.00     0.094 C 
ATOM      2  C   UNL     1      30.949  64.624  18.200  1.00  0.00     0.016 C 
ENDROOT
BRANCH   1   3
ATOM      3  C   UNL     1      29.200  65.241  16.586  1.00  0.00     0.330 C 
ATOM      4  O   UNL     1      29.750  64.635  15.625  1.00  0.00    -0.247 OA
BRANCH   3   5
ATOM      5  O   UNL     1      28.141  66.125  16.352  1.00  0.00    -0.463 OA
BRANCH   5   6
ATOM      6  C   UNL     1      26.947  66.116  17.127  1.00  0.00     0.230 C 
ATOM      7  C   UNL     1      25.856  65.375  16.373  1.00  0.00     0.049 C 
ENDBRANCH   5   6
ENDBRANCH   3   5
ENDBRANCH   1   3
BRANCH   2   8
ATOM      8  C   UNL     1      31.488  64.386  19.562  1.00  0.00    -0.021 A 
ATOM      9  C   UNL     1      31.256  65.271  20.635  1.00  0.00     0.058 A 
ATOM     10  C   UNL     1      32.227  63.216  19.797  1.00  0.00     0.012 A 
ATOM     11  C   UNL     1      31.773  65.001  21.907  1.00  0.00     0.157 A 
ATOM     12  C   UNL     1      32.746  62.945  21.065  1.00  0.00     0.051 A 
ATOM     13  C   UNL     1      32.525  63.835  22.124  1.00  0.00     0.157 A 
BRANCH  11  14
ATOM     14  O   UNL     1      31.525  65.900  22.944  1.00  0.00    -0.504 OA
ATOM     15  H   UNL     1      31.651  65.648  23.916  1.00  0.00     0.293 HD
ENDBRANCH  11  14
BRANCH  13  16
ATOM     16  O   UNL     1      33.046  63.562  23.388  1.00  0.00    -0.504 OA
ATOM     17  H   UNL     1      32.651  62.842  23.981  1.00  0.00     0.293 HD
ENDBRANCH  13  16
ENDBRANCH   2   8
TORSDOF 6
ENDMDL
MODEL 7
REMARK VINA RESULT:    -2.848     12.517     14.739
REMARK INTER + INTRA:          -3.913
REMARK INTER:                  -3.655
REMARK INTRA:                  -0.258
REMARK UNBOUND:                -0.233
REMARK SMILES CCOC(=O)C=Cc1ccc(O)c(O)c1
REMARK SMILES IDX 6 1 7 2 4 3 5 4 3 5 2 6 1 7 8 8 15 9 9 10 13 11 10 12 11 13
REMARK SMILES IDX 14 14 12 16
REMARK H PARENT 14 15 12 17
REMARK Flexibility Score: inf
ROOT
ATOM      1  C   UNL     1      30.498  64.920  18.612  1.00  0.00     0.094 C 
ATOM      2  C   UNL     1      30.301  65.685  19.696  1.00  0.00     0.016 C 
ENDROOT
BRANCH   1   3
ATOM      3  C   UNL     1      29.900  65.249  17.309  1.00  0.00     0.330 C 
ATOM      4  O   UNL     1      28.969  66.099  17.258  1.00  0.00    -0.247 OA
BRANCH   3   5
ATOM      5  O   UNL     1      30.357  64.628  16.141  1.00  0.00    -0.463 OA
BRANCH   5   6
ATOM      6  C   UNL     1      31.558  63.866  16.095  1.00  0.00     0.230 C 
ATOM      7  C   UNL     1      31.636  63.118  14.775  1.00  0.00     0.049 C 
ENDBRANCH   5   6
ENDBRANCH   3   5
ENDBRANCH   1   3
BRANCH   2   8
ATOM      8  C   UNL     1      30.873  65.386  21.031  1.00  0.00    -0.021 A 
ATOM      9  C   UNL     1      30.317  65.889  22.225  1.00  0.00     0.058 A 
ATOM     10  C   UNL     1      31.989  64.539  21.109  1.00  0.00     0.012 A 
ATOM     11  C   UNL     1      30.882  65.570  23.465  1.00  0.00     0.157 A 
ATOM     12  C   UNL     1      32.557  64.221  22.346  1.00  0.00     0.051 A 
ATOM     13  C   UNL     1      32.010  64.736  23.527  1.00  0.00     0.157 A 
BRANCH  11  14
ATOM     14  O   UNL     1      30.306  66.089  24.625  1.00  0.00    -0.504 OA
ATOM     15  H   UNL     1      30.644  66.939  25.060  1.00  0.00     0.293 HD
ENDBRANCH  11  14
BRANCH  13  16
ATOM     16  O   UNL     1      32.579  64.418  24.759  1.00  0.00    -0.504 OA
ATOM     17  H   UNL     1      32.077  63.876  25.453  1.00  0.00     0.293 HD
ENDBRANCH  13  16
ENDBRANCH   2   8
TORSDOF 6
ENDMDL
MODEL 8
REMARK VINA RESULT:    -2.811     10.480     13.459
REMARK INTER + INTRA:          -3.866
REMARK INTER:                  -3.531
REMARK INTRA:                  -0.335
REMARK UNBOUND:                -0.233
REMARK SMILES CCOC(=O)C=Cc1ccc(O)c(O)c1
REMARK SMILES IDX 6 1 7 2 4 3 5 4 3 5 2 6 1 7 8 8 15 9 9 10 13 11 10 12 11 13
REMARK SMILES IDX 14 14 12 16
REMARK H PARENT 14 15 12 17
REMARK Flexibility Score: inf
ROOT
ATOM      1  C   UNL     1      30.309  65.559  21.740  1.00  0.00     0.094 C 
ATOM      2  C   UNL     1      30.688  65.798  20.477  1.00  0.00     0.016 C 
ENDROOT
BRANCH   1   3
ATOM      3  C   UNL     1      31.261  65.613  22.861  1.00  0.00     0.330 C 
ATOM      4  O   UNL     1      30.848  65.963  24.000  1.00  0.00    -0.247 OA
BRANCH   3   5
ATOM      5  O   UNL     1      32.607  65.282  22.666  1.00  0.00    -0.463 OA
BRANCH   5   6
ATOM      6  C   UNL     1      33.125  63.983  22.931  1.00  0.00     0.230 C 
ATOM      7  C   UNL     1      32.799  63.058  21.771  1.00  0.00     0.049 C 
ENDBRANCH   5   6
ENDBRANCH   3   5
ENDBRANCH   1   3
BRANCH   2   8
ATOM      8  C   UNL     1      29.766  65.743  19.316  1.00  0.00    -0.021 A 
ATOM      9  C   UNL     1      30.177  65.299  18.042  1.00  0.00     0.058 A 
ATOM     10  C   UNL     1      28.426  66.113  19.504  1.00  0.00     0.012 A 
ATOM     11  C   UNL     1      29.270  65.251  16.977  1.00  0.00     0.157 A 
ATOM     12  C   UNL     1      27.519  66.068  18.442  1.00  0.00     0.051 A 
ATOM     13  C   UNL     1      27.935  65.641  17.175  1.00  0.00     0.157 A 
BRANCH  11  14
ATOM     14  O   UNL     1      29.712  64.810  15.730  1.00  0.00    -0.504 OA
ATOM     15  H   UNL     1      30.693  64.662  15.528  1.00  0.00     0.293 HD
ENDBRANCH  11  14
BRANCH  13  16
ATOM     16  O   UNL     1      27.028  65.600  16.117  1.00  0.00    -0.504 OA
ATOM     17  H   UNL     1      27.183  66.125  15.265  1.00  0.00     0.293 HD
ENDBRANCH  13  16
ENDBRANCH   2   8
TORSDOF 6
ENDMDL
