MODEL 1
REMARK VINA RESULT:    -5.469      0.000      0.000
REMARK INTER + INTRA:         -14.738
REMARK INTER:                 -12.502
REMARK INTRA:                  -2.236
REMARK UNBOUND:                -2.236
REMARK SMILES CCCCCCCCCCCCCCCCCCCCCCCC(=O)[O-]
REMARK SMILES IDX 13 1 14 2 15 3 16 4 17 5 18 6 19 7 20 8 21 9 22 10 23 11
REMARK SMILES IDX 24 12 25 13 26 14 12 15 11 16 10 17 9 18 8 19 7 20 6 21 5 22
REMARK SMILES IDX 4 23 3 24 2 25 1 26
REMARK H PARENT
REMARK Flexibility Score: inf
ROOT
ATOM      1  C   UNL     1      -0.534  12.511  26.451  1.00  0.00     0.000 C 
ENDROOT
BRANCH   1   2
ATOM      2  C   UNL     1      -1.725  12.667  25.495  1.00  0.00     0.000 C 
BRANCH   2   3
ATOM      3  C   UNL     1      -2.689  11.480  25.623  1.00  0.00     0.000 C 
BRANCH   3   4
ATOM      4  C   UNL     1      -3.529  11.238  24.356  1.00  0.00     0.000 C 
BRANCH   4   5
ATOM      5  C   UNL     1      -2.963  11.835  23.049  1.00  0.00     0.000 C 
BRANCH   5   6
ATOM      6  C   UNL     1      -3.671  11.393  21.749  1.00  0.00     0.000 C 
BRANCH   6   7
ATOM      7  C   UNL     1      -4.409  10.045  21.854  1.00  0.00     0.000 C 
BRANCH   7   8
ATOM      8  C   UNL     1      -3.998   9.023  20.775  1.00  0.00     0.000 C 
BRANCH   8   9
ATOM      9  C   UNL     1      -2.473   8.857  20.690  1.00  0.00     0.000 C 
BRANCH   9  10
ATOM     10  C   UNL     1      -1.921   8.188  21.957  1.00  0.00     0.006 C 
BRANCH  10  11
ATOM     11  C   UNL     1      -0.696   8.924  22.515  1.00  0.00     0.053 C 
BRANCH  11  12
ATOM     12  C   UNL     1      -0.682   8.923  24.013  1.00  0.00     0.041 C 
ATOM     13  O   UNL     1       0.214   9.550  24.638  1.00  0.00    -0.550 OA
ATOM     14  O   UNL     1      -1.675   8.258  24.719  1.00  0.00    -0.550 OA
ENDBRANCH  11  12
ENDBRANCH  10  11
ENDBRANCH   9  10
ENDBRANCH   8   9
ENDBRANCH   7   8
ENDBRANCH   6   7
ENDBRANCH   5   6
ENDBRANCH   4   5
ENDBRANCH   3   4
ENDBRANCH   2   3
ENDBRANCH   1   2
BRANCH   1  15
ATOM     15  C   UNL     1       0.448  13.695  26.385  1.00  0.00     0.000 C 
BRANCH  15  16
ATOM     16  C   UNL     1       1.733  13.436  25.570  1.00  0.00     0.000 C 
BRANCH  16  17
ATOM     17  C   UNL     1       2.073  14.517  24.530  1.00  0.00     0.000 C 
BRANCH  17  18
ATOM     18  C   UNL     1       1.788  15.941  25.037  1.00  0.00    -0.000 C 
BRANCH  18  19
ATOM     19  C   UNL     1       2.193  17.025  24.025  1.00  0.00    -0.000 C 
BRANCH  19  20
ATOM     20  C   UNL     1       3.702  17.010  23.721  1.00  0.00    -0.000 C 
BRANCH  20  21
ATOM     21  C   UNL     1       4.203  18.327  23.100  1.00  0.00    -0.000 C 
BRANCH  21  22
ATOM     22  C   UNL     1       3.493  19.603  23.590  1.00  0.00    -0.000 C 
BRANCH  22  23
ATOM     23  C   UNL     1       3.184  20.594  22.455  1.00  0.00    -0.000 C 
BRANCH  23  24
ATOM     24  C   UNL     1       1.696  20.611  22.062  1.00  0.00    -0.000 C 
BRANCH  24  25
ATOM     25  C   UNL     1       0.732  20.047  23.123  1.00  0.00    -0.003 C 
ATOM     26  C   UNL     1      -0.341  19.134  22.534  1.00  0.00     0.004 C 
ENDBRANCH  24  25
ENDBRANCH  23  24
ENDBRANCH  22  23
ENDBRANCH  21  22
ENDBRANCH  20  21
ENDBRANCH  19  20
ENDBRANCH  18  19
ENDBRANCH  17  18
ENDBRANCH  16  17
ENDBRANCH  15  16
ENDBRANCH   1  15
TORSDOF 22
ENDMDL
MODEL 2
REMARK VINA RESULT:    -5.426      3.437      8.988
REMARK INTER + INTRA:         -14.642
REMARK INTER:                 -11.704
REMARK INTRA:                  -2.938
REMARK UNBOUND:                -2.236
REMARK SMILES CCCCCCCCCCCCCCCCCCCCCCCC(=O)[O-]
REMARK SMILES IDX 13 1 14 2 15 3 16 4 17 5 18 6 19 7 20 8 21 9 22 10 23 11
REMARK SMILES IDX 24 12 25 13 26 14 12 15 11 16 10 17 9 18 8 19 7 20 6 21 5 22
REMARK SMILES IDX 4 23 3 24 2 25 1 26
REMARK H PARENT
REMARK Flexibility Score: inf
ROOT
ATOM      1  C   UNL     1      -4.027  10.368  27.356  1.00  0.00     0.000 C 
ENDROOT
BRANCH   1   2
ATOM      2  C   UNL     1      -2.808  10.641  28.248  1.00  0.00     0.000 C 
BRANCH   2   3
ATOM      3  C   UNL     1      -1.660  11.256  27.436  1.00  0.00     0.000 C 
BRANCH   3   4
ATOM      4  C   UNL     1      -1.725  12.792  27.355  1.00  0.00     0.000 C 
BRANCH   4   5
ATOM      5  C   UNL     1      -1.089  13.427  26.099  1.00  0.00     0.000 C 
BRANCH   5   6
ATOM      6  C   UNL     1       0.445  13.288  25.983  1.00  0.00     0.000 C 
BRANCH   6   7
ATOM      7  C   UNL     1       1.194  14.623  25.813  1.00  0.00     0.000 C 
BRANCH   7   8
ATOM      8  C   UNL     1       1.490  14.989  24.345  1.00  0.00     0.000 C 
BRANCH   8   9
ATOM      9  C   UNL     1       2.982  14.853  24.008  1.00  0.00     0.000 C 
BRANCH   9  10
ATOM     10  C   UNL     1       3.654  16.232  23.918  1.00  0.00     0.006 C 
BRANCH  10  11
ATOM     11  C   UNL     1       2.633  17.377  23.952  1.00  0.00     0.053 C 
BRANCH  11  12
ATOM     12  C   UNL     1       3.229  18.666  23.477  1.00  0.00     0.041 C 
ATOM     13  O   UNL     1       2.664  19.760  23.742  1.00  0.00    -0.550 OA
ATOM     14  O   UNL     1       4.425  18.664  22.771  1.00  0.00    -0.550 OA
ENDBRANCH  11  12
ENDBRANCH  10  11
ENDBRANCH   9  10
ENDBRANCH   8   9
ENDBRANCH   7   8
ENDBRANCH   6   7
ENDBRANCH   5   6
ENDBRANCH   4   5
ENDBRANCH   3   4
ENDBRANCH   2   3
ENDBRANCH   1   2
BRANCH   1  15
ATOM     15  C   UNL     1      -3.642   9.901  25.941  1.00  0.00     0.000 C 
BRANCH  15  16
ATOM     16  C   UNL     1      -4.280  10.706  24.788  1.00  0.00     0.000 C 
BRANCH  16  17
ATOM     17  C   UNL     1      -3.295  11.545  23.957  1.00  0.00     0.000 C 
BRANCH  17  18
ATOM     18  C   UNL     1      -3.673  11.602  22.466  1.00  0.00    -0.000 C 
BRANCH  18  19
ATOM     19  C   UNL     1      -4.857  10.686  22.119  1.00  0.00    -0.000 C 
BRANCH  19  20
ATOM     20  C   UNL     1      -4.444   9.510  21.214  1.00  0.00    -0.000 C 
BRANCH  20  21
ATOM     21  C   UNL     1      -2.947   9.527  20.853  1.00  0.00    -0.000 C 
BRANCH  21  22
ATOM     22  C   UNL     1      -2.127   8.328  21.369  1.00  0.00    -0.000 C 
BRANCH  22  23
ATOM     23  C   UNL     1      -1.872   8.382  22.885  1.00  0.00    -0.000 C 
BRANCH  23  24
ATOM     24  C   UNL     1      -0.601   9.169  23.253  1.00  0.00    -0.000 C 
BRANCH  24  25
ATOM     25  C   UNL     1      -0.297   9.252  24.760  1.00  0.00    -0.003 C 
ATOM     26  C   UNL     1       1.134   9.698  25.059  1.00  0.00     0.004 C 
ENDBRANCH  24  25
ENDBRANCH  23  24
ENDBRANCH  22  23
ENDBRANCH  21  22
ENDBRANCH  20  21
ENDBRANCH  19  20
ENDBRANCH  18  19
ENDBRANCH  17  18
ENDBRANCH  16  17
ENDBRANCH  15  16
ENDBRANCH   1  15
TORSDOF 22
ENDMDL
MODEL 3
REMARK VINA RESULT:    -5.400      1.795      3.743
REMARK INTER + INTRA:         -14.583
REMARK INTER:                 -12.175
REMARK INTRA:                  -2.407
REMARK UNBOUND:                -2.236
REMARK SMILES CCCCCCCCCCCCCCCCCCCCCCCC(=O)[O-]
REMARK SMILES IDX 13 1 14 2 15 3 16 4 17 5 18 6 19 7 20 8 21 9 22 10 23 11
REMARK SMILES IDX 24 12 25 13 26 14 12 15 11 16 10 17 9 18 8 19 7 20 6 21 5 22
REMARK SMILES IDX 4 23 3 24 2 25 1 26
REMARK H PARENT
REMARK Flexibility Score: inf
ROOT
ATOM      1  C   UNL     1       2.542  13.726  24.861  1.00  0.00     0.000 C 
ENDROOT
BRANCH   1   2
ATOM      2  C   UNL     1       1.281  14.252  25.560  1.00  0.00     0.000 C 
BRANCH   2   3
ATOM      3  C   UNL     1       0.508  13.107  26.230  1.00  0.00     0.000 C 
BRANCH   3   4
ATOM      4  C   UNL     1      -0.989  13.092  25.874  1.00  0.00     0.000 C 
BRANCH   4   5
ATOM      5  C   UNL     1      -1.960  12.897  27.059  1.00  0.00     0.000 C 
BRANCH   5   6
ATOM      6  C   UNL     1      -1.756  11.608  27.886  1.00  0.00     0.000 C 
BRANCH   6   7
ATOM      7  C   UNL     1      -2.812  10.516  27.634  1.00  0.00     0.000 C 
BRANCH   7   8
ATOM      8  C   UNL     1      -2.216   9.148  27.251  1.00  0.00     0.000 C 
BRANCH   8   9
ATOM      9  C   UNL     1      -1.049   9.284  26.262  1.00  0.00     0.000 C 
BRANCH   9  10
ATOM     10  C   UNL     1      -1.408   8.674  24.900  1.00  0.00     0.006 C 
BRANCH  10  11
ATOM     11  C   UNL     1      -1.284   9.692  23.758  1.00  0.00     0.053 C 
BRANCH  11  12
ATOM     12  C   UNL     1      -2.624  10.183  23.304  1.00  0.00     0.041 C 
ATOM     13  O   UNL     1      -3.579   9.375  23.161  1.00  0.00    -0.550 OA
ATOM     14  O   UNL     1      -2.828  11.537  23.072  1.00  0.00    -0.550 OA
ENDBRANCH  11  12
ENDBRANCH  10  11
ENDBRANCH   9  10
ENDBRANCH   8   9
ENDBRANCH   7   8
ENDBRANCH   6   7
ENDBRANCH   5   6
ENDBRANCH   4   5
ENDBRANCH   3   4
ENDBRANCH   2   3
ENDBRANCH   1   2
BRANCH   1  15
ATOM     15  C   UNL     1       3.333  14.831  24.139  1.00  0.00     0.000 C 
BRANCH  15  16
ATOM     16  C   UNL     1       2.483  16.004  23.605  1.00  0.00     0.000 C 
BRANCH  16  17
ATOM     17  C   UNL     1       2.985  17.404  23.997  1.00  0.00     0.000 C 
BRANCH  17  18
ATOM     18  C   UNL     1       4.250  17.820  23.226  1.00  0.00    -0.000 C 
BRANCH  18  19
ATOM     19  C   UNL     1       4.864  19.126  23.755  1.00  0.00    -0.000 C 
BRANCH  19  20
ATOM     20  C   UNL     1       5.269  20.085  22.620  1.00  0.00    -0.000 C 
BRANCH  20  21
ATOM     21  C   UNL     1       4.198  20.201  21.520  1.00  0.00    -0.000 C 
BRANCH  21  22
ATOM     22  C   UNL     1       3.117  21.272  21.759  1.00  0.00    -0.000 C 
BRANCH  22  23
ATOM     23  C   UNL     1       1.720  20.675  21.997  1.00  0.00    -0.000 C 
BRANCH  23  24
ATOM     24  C   UNL     1       1.297  20.707  23.477  1.00  0.00    -0.000 C 
BRANCH  24  25
ATOM     25  C   UNL     1       0.078  19.834  23.828  1.00  0.00    -0.003 C 
ATOM     26  C   UNL     1      -0.291  18.848  22.721  1.00  0.00     0.004 C 
ENDBRANCH  24  25
ENDBRANCH  23  24
ENDBRANCH  22  23
ENDBRANCH  21  22
ENDBRANCH  20  21
ENDBRANCH  19  20
ENDBRANCH  18  19
ENDBRANCH  17  18
ENDBRANCH  16  17
ENDBRANCH  15  16
ENDBRANCH   1  15
TORSDOF 22
ENDMDL
MODEL 4
REMARK VINA RESULT:    -5.376      1.808      2.916
REMARK INTER + INTRA:         -14.526
REMARK INTER:                 -12.119
REMARK INTRA:                  -2.408
REMARK UNBOUND:                -2.236
REMARK SMILES CCCCCCCCCCCCCCCCCCCCCCCC(=O)[O-]
REMARK SMILES IDX 13 1 14 2 15 3 16 4 17 5 18 6 19 7 20 8 21 9 22 10 23 11
REMARK SMILES IDX 24 12 25 13 26 14 12 15 11 16 10 17 9 18 8 19 7 20 6 21 5 22
REMARK SMILES IDX 4 23 3 24 2 25 1 26
REMARK H PARENT
REMARK Flexibility Score: inf
ROOT
ATOM      1  C   UNL     1      -0.372  13.058  26.926  1.00  0.00     0.000 C 
ENDROOT
BRANCH   1   2
ATOM      2  C   UNL     1      -1.695  12.787  26.195  1.00  0.00     0.000 C 
BRANCH   2   3
ATOM      3  C   UNL     1      -2.676  12.031  27.100  1.00  0.00     0.000 C 
BRANCH   3   4
ATOM      4  C   UNL     1      -2.009  10.915  27.924  1.00  0.00     0.000 C 
BRANCH   4   5
ATOM      5  C   UNL     1      -2.266   9.473  27.435  1.00  0.00     0.000 C 
BRANCH   5   6
ATOM      6  C   UNL     1      -1.373   8.993  26.268  1.00  0.00     0.000 C 
BRANCH   6   7
ATOM      7  C   UNL     1      -1.976   9.224  24.870  1.00  0.00     0.000 C 
BRANCH   7   8
ATOM      8  C   UNL     1      -3.517   9.191  24.841  1.00  0.00     0.000 C 
BRANCH   8   9
ATOM      9  C   UNL     1      -4.090  10.040  23.696  1.00  0.00     0.000 C 
BRANCH   9  10
ATOM     10  C   UNL     1      -2.965  10.648  22.846  1.00  0.00     0.006 C 
BRANCH  10  11
ATOM     11  C   UNL     1      -3.235  10.507  21.342  1.00  0.00     0.053 C 
BRANCH  11  12
ATOM     12  C   UNL     1      -3.149   9.081  20.892  1.00  0.00     0.041 C 
ATOM     13  O   UNL     1      -4.103   8.558  20.259  1.00  0.00    -0.550 OA
ATOM     14  O   UNL     1      -2.001   8.340  21.142  1.00  0.00    -0.550 OA
ENDBRANCH  11  12
ENDBRANCH  10  11
ENDBRANCH   9  10
ENDBRANCH   8   9
ENDBRANCH   7   8
ENDBRANCH   6   7
ENDBRANCH   5   6
ENDBRANCH   4   5
ENDBRANCH   3   4
ENDBRANCH   2   3
ENDBRANCH   1   2
BRANCH   1  15
ATOM     15  C   UNL     1       0.822  13.213  25.968  1.00  0.00     0.000 C 
BRANCH  15  16
ATOM     16  C   UNL     1       1.191  14.669  25.610  1.00  0.00     0.000 C 
BRANCH  16  17
ATOM     17  C   UNL     1       2.022  14.834  24.325  1.00  0.00     0.000 C 
BRANCH  17  18
ATOM     18  C   UNL     1       1.968  16.264  23.761  1.00  0.00    -0.000 C 
BRANCH  18  19
ATOM     19  C   UNL     1       3.054  17.177  24.353  1.00  0.00    -0.000 C 
BRANCH  19  20
ATOM     20  C   UNL     1       3.969  17.778  23.270  1.00  0.00    -0.000 C 
BRANCH  20  21
ATOM     21  C   UNL     1       4.047  19.315  23.334  1.00  0.00    -0.000 C 
BRANCH  21  22
ATOM     22  C   UNL     1       3.019  19.992  24.261  1.00  0.00    -0.000 C 
BRANCH  22  23
ATOM     23  C   UNL     1       2.074  20.949  23.514  1.00  0.00    -0.000 C 
BRANCH  23  24
ATOM     24  C   UNL     1       1.337  20.273  22.344  1.00  0.00    -0.000 C 
BRANCH  24  25
ATOM     25  C   UNL     1       0.149  19.379  22.748  1.00  0.00    -0.003 C 
ATOM     26  C   UNL     1      -0.599  19.896  23.975  1.00  0.00     0.004 C 
ENDBRANCH  24  25
ENDBRANCH  23  24
ENDBRANCH  22  23
ENDBRANCH  21  22
ENDBRANCH  20  21
ENDBRANCH  19  20
ENDBRANCH  18  19
ENDBRANCH  17  18
ENDBRANCH  16  17
ENDBRANCH  15  16
ENDBRANCH   1  15
TORSDOF 22
ENDMDL
MODEL 5
REMARK VINA RESULT:    -5.349      3.759      9.750
REMARK INTER + INTRA:         -14.464
REMARK INTER:                 -12.005
REMARK INTRA:                  -2.459
REMARK UNBOUND:                -2.236
REMARK SMILES CCCCCCCCCCCCCCCCCCCCCCCC(=O)[O-]
REMARK SMILES IDX 13 1 14 2 15 3 16 4 17 5 18 6 19 7 20 8 21 9 22 10 23 11
REMARK SMILES IDX 24 12 25 13 26 14 12 15 11 16 10 17 9 18 8 19 7 20 6 21 5 22
REMARK SMILES IDX 4 23 3 24 2 25 1 26
REMARK H PARENT
REMARK Flexibility Score: inf
ROOT
ATOM      1  C   UNL     1       1.988  12.897  25.475  1.00  0.00     0.000 C 
ENDROOT
BRANCH   1   2
ATOM      2  C   UNL     1       3.161  13.726  24.933  1.00  0.00     0.000 C 
BRANCH   2   3
ATOM      3  C   UNL     1       2.656  14.904  24.089  1.00  0.00     0.000 C 
BRANCH   3   4
ATOM      4  C   UNL     1       3.778  15.855  23.637  1.00  0.00     0.000 C 
BRANCH   4   5
ATOM      5  C   UNL     1       3.390  17.345  23.517  1.00  0.00     0.000 C 
BRANCH   5   6
ATOM      6  C   UNL     1       2.924  18.022  24.825  1.00  0.00     0.000 C 
BRANCH   6   7
ATOM      7  C   UNL     1       1.532  18.675  24.742  1.00  0.00     0.000 C 
BRANCH   7   8
ATOM      8  C   UNL     1       0.734  18.286  23.483  1.00  0.00     0.000 C 
BRANCH   8   9
ATOM      9  C   UNL     1       0.426  19.503  22.597  1.00  0.00     0.000 C 
BRANCH   9  10
ATOM     10  C   UNL     1       1.420  20.643  22.863  1.00  0.00     0.006 C 
BRANCH  10  11
ATOM     11  C   UNL     1       2.295  20.945  21.639  1.00  0.00     0.053 C 
BRANCH  11  12
ATOM     12  C   UNL     1       3.732  20.603  21.885  1.00  0.00     0.041 C 
ATOM     13  O   UNL     1       4.445  20.154  20.949  1.00  0.00    -0.550 OA
ATOM     14  O   UNL     1       4.294  20.812  23.137  1.00  0.00    -0.550 OA
ENDBRANCH  11  12
ENDBRANCH  10  11
ENDBRANCH   9  10
ENDBRANCH   8   9
ENDBRANCH   7   8
ENDBRANCH   6   7
ENDBRANCH   5   6
ENDBRANCH   4   5
ENDBRANCH   3   4
ENDBRANCH   2   3
ENDBRANCH   1   2
BRANCH   1  15
ATOM     15  C   UNL     1       0.721  13.736  25.718  1.00  0.00     0.000 C 
BRANCH  15  16
ATOM     16  C   UNL     1      -0.326  13.088  26.650  1.00  0.00     0.000 C 
BRANCH  16  17
ATOM     17  C   UNL     1      -1.732  12.937  26.043  1.00  0.00     0.000 C 
BRANCH  17  18
ATOM     18  C   UNL     1      -1.963  11.551  25.415  1.00  0.00    -0.000 C 
BRANCH  18  19
ATOM     19  C   UNL     1      -1.133  10.448  26.091  1.00  0.00    -0.000 C 
BRANCH  19  20
ATOM     20  C   UNL     1      -1.173   9.122  25.309  1.00  0.00    -0.000 C 
BRANCH  20  21
ATOM     21  C   UNL     1      -0.457   9.205  23.948  1.00  0.00    -0.000 C 
BRANCH  21  22
ATOM     22  C   UNL     1      -1.298   8.781  22.730  1.00  0.00    -0.000 C 
BRANCH  22  23
ATOM     23  C   UNL     1      -2.751   8.432  23.094  1.00  0.00    -0.000 C 
BRANCH  23  24
ATOM     24  C   UNL     1      -3.783   9.238  22.285  1.00  0.00    -0.000 C 
BRANCH  24  25
ATOM     25  C   UNL     1      -3.191  10.327  21.371  1.00  0.00    -0.003 C 
ATOM     26  C   UNL     1      -3.391  11.740  21.916  1.00  0.00     0.004 C 
ENDBRANCH  24  25
ENDBRANCH  23  24
ENDBRANCH  22  23
ENDBRANCH  21  22
ENDBRANCH  20  21
ENDBRANCH  19  20
ENDBRANCH  18  19
ENDBRANCH  17  18
ENDBRANCH  16  17
ENDBRANCH  15  16
ENDBRANCH   1  15
TORSDOF 22
ENDMDL
MODEL 6
REMARK VINA RESULT:    -5.340      3.248      8.929
REMARK INTER + INTRA:         -14.445
REMARK INTER:                 -11.767
REMARK INTRA:                  -2.678
REMARK UNBOUND:                -2.236
REMARK SMILES CCCCCCCCCCCCCCCCCCCCCCCC(=O)[O-]
REMARK SMILES IDX 13 1 14 2 15 3 16 4 17 5 18 6 19 7 20 8 21 9 22 10 23 11
REMARK SMILES IDX 24 12 25 13 26 14 12 15 11 16 10 17 9 18 8 19 7 20 6 21 5 22
REMARK SMILES IDX 4 23 3 24 2 25 1 26
REMARK H PARENT
REMARK Flexibility Score: inf
ROOT
ATOM      1  C   UNL     1      -2.155  13.368  27.193  1.00  0.00     0.000 C 
ENDROOT
BRANCH   1   2
ATOM      2  C   UNL     1      -1.180  13.127  26.032  1.00  0.00     0.000 C 
BRANCH   2   3
ATOM      3  C   UNL     1       0.273  13.316  26.489  1.00  0.00     0.000 C 
BRANCH   3   4
ATOM      4  C   UNL     1       1.245  12.297  25.869  1.00  0.00     0.000 C 
BRANCH   4   5
ATOM      5  C   UNL     1       2.551  12.881  25.287  1.00  0.00     0.000 C 
BRANCH   5   6
ATOM      6  C   UNL     1       2.385  14.127  24.389  1.00  0.00     0.000 C 
BRANCH   6   7
ATOM      7  C   UNL     1       2.874  15.440  25.028  1.00  0.00     0.000 C 
BRANCH   7   8
ATOM      8  C   UNL     1       2.653  16.684  24.144  1.00  0.00     0.000 C 
BRANCH   8   9
ATOM      9  C   UNL     1       1.229  16.735  23.569  1.00  0.00     0.000 C 
BRANCH   9  10
ATOM     10  C   UNL     1       0.730  18.184  23.463  1.00  0.00     0.006 C 
BRANCH  10  11
ATOM     11  C   UNL     1       1.616  19.160  24.247  1.00  0.00     0.053 C 
BRANCH  11  12
ATOM     12  C   UNL     1       0.973  19.586  25.532  1.00  0.00     0.041 C 
ATOM     13  O   UNL     1       1.259  18.998  26.608  1.00  0.00    -0.550 OA
ATOM     14  O   UNL     1       0.085  20.653  25.546  1.00  0.00    -0.550 OA
ENDBRANCH  11  12
ENDBRANCH  10  11
ENDBRANCH   9  10
ENDBRANCH   8   9
ENDBRANCH   7   8
ENDBRANCH   6   7
ENDBRANCH   5   6
ENDBRANCH   4   5
ENDBRANCH   3   4
ENDBRANCH   2   3
ENDBRANCH   1   2
BRANCH   1  15
ATOM     15  C   UNL     1      -2.955  12.110  27.575  1.00  0.00     0.000 C 
BRANCH  15  16
ATOM     16  C   UNL     1      -2.142  11.007  28.287  1.00  0.00     0.000 C 
BRANCH  16  17
ATOM     17  C   UNL     1      -2.373   9.582  27.755  1.00  0.00     0.000 C 
BRANCH  17  18
ATOM     18  C   UNL     1      -2.263   9.495  26.222  1.00  0.00    -0.000 C 
BRANCH  18  19
ATOM     19  C   UNL     1      -0.809   9.382  25.737  1.00  0.00    -0.000 C 
BRANCH  19  20
ATOM     20  C   UNL     1      -0.714   9.154  24.216  1.00  0.00    -0.000 C 
BRANCH  20  21
ATOM     21  C   UNL     1      -1.835   8.249  23.673  1.00  0.00    -0.000 C 
BRANCH  21  22
ATOM     22  C   UNL     1      -2.172   8.435  22.182  1.00  0.00    -0.000 C 
BRANCH  22  23
ATOM     23  C   UNL     1      -3.460   9.244  21.952  1.00  0.00    -0.000 C 
BRANCH  23  24
ATOM     24  C   UNL     1      -3.249  10.460  21.031  1.00  0.00    -0.000 C 
BRANCH  24  25
ATOM     25  C   UNL     1      -3.253  11.826  21.742  1.00  0.00    -0.003 C 
ATOM     26  C   UNL     1      -3.268  11.709  23.265  1.00  0.00     0.004 C 
ENDBRANCH  24  25
ENDBRANCH  23  24
ENDBRANCH  22  23
ENDBRANCH  21  22
ENDBRANCH  20  21
ENDBRANCH  19  20
ENDBRANCH  18  19
ENDBRANCH  17  18
ENDBRANCH  16  17
ENDBRANCH  15  16
ENDBRANCH   1  15
TORSDOF 22
ENDMDL
MODEL 7
REMARK VINA RESULT:    -5.328      2.446      4.762
REMARK INTER + INTRA:         -14.417
REMARK INTER:                 -11.848
REMARK INTRA:                  -2.569
REMARK UNBOUND:                -2.236
REMARK SMILES CCCCCCCCCCCCCCCCCCCCCCCC(=O)[O-]
REMARK SMILES IDX 13 1 14 2 15 3 16 4 17 5 18 6 19 7 20 8 21 9 22 10 23 11
REMARK SMILES IDX 24 12 25 13 26 14 12 15 11 16 10 17 9 18 8 19 7 20 6 21 5 22
REMARK SMILES IDX 4 23 3 24 2 25 1 26
REMARK H PARENT
REMARK Flexibility Score: inf
ROOT
ATOM      1  C   UNL     1       3.087  16.413  23.533  1.00  0.00     0.000 C 
ENDROOT
BRANCH   1   2
ATOM      2  C   UNL     1       3.746  15.234  24.262  1.00  0.00     0.000 C 
BRANCH   2   3
ATOM      3  C   UNL     1       2.709  14.160  24.617  1.00  0.00     0.000 C 
BRANCH   3   4
ATOM      4  C   UNL     1       1.411  14.739  25.208  1.00  0.00     0.000 C 
BRANCH   4   5
ATOM      5  C   UNL     1       0.688  13.848  26.243  1.00  0.00     0.000 C 
BRANCH   5   6
ATOM      6  C   UNL     1      -0.747  13.415  25.866  1.00  0.00     0.000 C 
BRANCH   6   7
ATOM      7  C   UNL     1      -1.655  13.108  27.071  1.00  0.00     0.000 C 
BRANCH   7   8
ATOM      8  C   UNL     1      -2.903  12.276  26.716  1.00  0.00     0.000 C 
BRANCH   8   9
ATOM      9  C   UNL     1      -2.540  10.987  25.962  1.00  0.00     0.000 C 
BRANCH   9  10
ATOM     10  C   UNL     1      -1.918   9.952  26.910  1.00  0.00     0.006 C 
BRANCH  10  11
ATOM     11  C   UNL     1      -1.073   8.914  26.160  1.00  0.00     0.053 C 
BRANCH  11  12
ATOM     12  C   UNL     1      -0.241   9.545  25.087  1.00  0.00     0.041 C 
ATOM     13  O   UNL     1      -0.512   9.343  23.874  1.00  0.00    -0.550 OA
ATOM     14  O   UNL     1       0.813  10.384  25.424  1.00  0.00    -0.550 OA
ENDBRANCH  11  12
ENDBRANCH  10  11
ENDBRANCH   9  10
ENDBRANCH   8   9
ENDBRANCH   7   8
ENDBRANCH   6   7
ENDBRANCH   5   6
ENDBRANCH   4   5
ENDBRANCH   3   4
ENDBRANCH   2   3
ENDBRANCH   1   2
BRANCH   1  15
ATOM     15  C   UNL     1       3.686  17.774  23.929  1.00  0.00     0.000 C 
BRANCH  15  16
ATOM     16  C   UNL     1       3.129  18.381  25.234  1.00  0.00     0.000 C 
BRANCH  16  17
ATOM     17  C   UNL     1       1.598  18.332  25.374  1.00  0.00     0.000 C 
BRANCH  17  18
ATOM     18  C   UNL     1       0.985  19.708  25.689  1.00  0.00    -0.000 C 
BRANCH  18  19
ATOM     19  C   UNL     1       0.175  20.280  24.514  1.00  0.00    -0.000 C 
BRANCH  19  20
ATOM     20  C   UNL     1       0.306  19.425  23.239  1.00  0.00    -0.000 C 
BRANCH  20  21
ATOM     21  C   UNL     1       1.176  20.090  22.157  1.00  0.00    -0.000 C 
BRANCH  21  22
ATOM     22  C   UNL     1       1.895  21.383  22.586  1.00  0.00    -0.000 C 
BRANCH  22  23
ATOM     23  C   UNL     1       3.427  21.263  22.543  1.00  0.00    -0.000 C 
BRANCH  23  24
ATOM     24  C   UNL     1       3.925  20.331  21.423  1.00  0.00    -0.000 C 
BRANCH  24  25
ATOM     25  C   UNL     1       4.372  21.042  20.132  1.00  0.00    -0.003 C 
ATOM     26  C   UNL     1       3.777  20.419  18.869  1.00  0.00     0.004 C 
ENDBRANCH  24  25
ENDBRANCH  23  24
ENDBRANCH  22  23
ENDBRANCH  21  22
ENDBRANCH  20  21
ENDBRANCH  19  20
ENDBRANCH  18  19
ENDBRANCH  17  18
ENDBRANCH  16  17
ENDBRANCH  15  16
ENDBRANCH   1  15
TORSDOF 22
ENDMDL
MODEL 8
REMARK VINA RESULT:    -5.309      1.658      3.066
REMARK INTER + INTRA:         -14.374
REMARK INTER:                 -12.059
REMARK INTRA:                  -2.315
REMARK UNBOUND:                -2.236
REMARK SMILES CCCCCCCCCCCCCCCCCCCCCCCC(=O)[O-]
REMARK SMILES IDX 13 1 14 2 15 3 16 4 17 5 18 6 19 7 20 8 21 9 22 10 23 11
REMARK SMILES IDX 24 12 25 13 26 14 12 15 11 16 10 17 9 18 8 19 7 20 6 21 5 22
REMARK SMILES IDX 4 23 3 24 2 25 1 26
REMARK H PARENT
REMARK Flexibility Score: inf
ROOT
ATOM      1  C   UNL     1       1.595  13.713  25.537  1.00  0.00     0.000 C 
ENDROOT
BRANCH   1   2
ATOM      2  C   UNL     1       0.207  13.460  26.143  1.00  0.00     0.000 C 
BRANCH   2   3
ATOM      3  C   UNL     1       0.032  11.981  26.514  1.00  0.00     0.000 C 
BRANCH   3   4
ATOM      4  C   UNL     1       0.812  11.025  25.594  1.00  0.00     0.000 C 
BRANCH   4   5
ATOM      5  C   UNL     1       0.263   9.584  25.501  1.00  0.00     0.000 C 
BRANCH   5   6
ATOM      6  C   UNL     1      -0.530   9.252  24.218  1.00  0.00     0.000 C 
BRANCH   6   7
ATOM      7  C   UNL     1      -1.766   8.362  24.446  1.00  0.00     0.000 C 
BRANCH   7   8
ATOM      8  C   UNL     1      -2.486   7.949  23.148  1.00  0.00     0.000 C 
BRANCH   8   9
ATOM      9  C   UNL     1      -1.753   8.456  21.897  1.00  0.00     0.000 C 
BRANCH   9  10
ATOM     10  C   UNL     1      -2.718   9.188  20.952  1.00  0.00     0.006 C 
BRANCH  10  11
ATOM     11  C   UNL     1      -3.816   9.940  21.715  1.00  0.00     0.053 C 
BRANCH  11  12
ATOM     12  C   UNL     1      -3.362  11.302  22.145  1.00  0.00     0.041 C 
ATOM     13  O   UNL     1      -3.179  12.207  21.289  1.00  0.00    -0.550 OA
ATOM     14  O   UNL     1      -3.173  11.580  23.492  1.00  0.00    -0.550 OA
ENDBRANCH  11  12
ENDBRANCH  10  11
ENDBRANCH   9  10
ENDBRANCH   8   9
ENDBRANCH   7   8
ENDBRANCH   6   7
ENDBRANCH   5   6
ENDBRANCH   4   5
ENDBRANCH   3   4
ENDBRANCH   2   3
ENDBRANCH   1   2
BRANCH   1  15
ATOM     15  C   UNL     1       1.952  15.207  25.458  1.00  0.00     0.000 C 
BRANCH  15  16
ATOM     16  C   UNL     1       1.559  15.907  24.139  1.00  0.00     0.000 C 
BRANCH  16  17
ATOM     17  C   UNL     1       2.741  16.344  23.256  1.00  0.00     0.000 C 
BRANCH  17  18
ATOM     18  C   UNL     1       3.724  17.269  23.995  1.00  0.00    -0.000 C 
BRANCH  18  19
ATOM     19  C   UNL     1       4.296  18.372  23.089  1.00  0.00    -0.000 C 
BRANCH  19  20
ATOM     20  C   UNL     1       5.083  19.433  23.881  1.00  0.00    -0.000 C 
BRANCH  20  21
ATOM     21  C   UNL     1       4.312  20.756  24.043  1.00  0.00    -0.000 C 
BRANCH  21  22
ATOM     22  C   UNL     1       3.653  21.300  22.761  1.00  0.00    -0.000 C 
BRANCH  22  23
ATOM     23  C   UNL     1       2.138  21.519  22.909  1.00  0.00    -0.000 C 
BRANCH  23  24
ATOM     24  C   UNL     1       1.302  20.458  22.170  1.00  0.00    -0.000 C 
BRANCH  24  25
ATOM     25  C   UNL     1       0.643  19.400  23.074  1.00  0.00    -0.003 C 
ATOM     26  C   UNL     1       0.693  19.763  24.557  1.00  0.00     0.004 C 
ENDBRANCH  24  25
ENDBRANCH  23  24
ENDBRANCH  22  23
ENDBRANCH  21  22
ENDBRANCH  20  21
ENDBRANCH  19  20
ENDBRANCH  18  19
ENDBRANCH  17  18
ENDBRANCH  16  17
ENDBRANCH  15  16
ENDBRANCH   1  15
TORSDOF 22
ENDMDL
MODEL 9
REMARK VINA RESULT:    -5.277      1.902      3.350
REMARK INTER + INTRA:         -14.301
REMARK INTER:                 -11.854
REMARK INTRA:                  -2.448
REMARK UNBOUND:                -2.236
REMARK SMILES CCCCCCCCCCCCCCCCCCCCCCCC(=O)[O-]
REMARK SMILES IDX 13 1 14 2 15 3 16 4 17 5 18 6 19 7 20 8 21 9 22 10 23 11
REMARK SMILES IDX 24 12 25 13 26 14 12 15 11 16 10 17 9 18 8 19 7 20 6 21 5 22
REMARK SMILES IDX 4 23 3 24 2 25 1 26
REMARK H PARENT
REMARK Flexibility Score: inf
ROOT
ATOM      1  C   UNL     1      -1.491  12.981  25.918  1.00  0.00     0.000 C 
ENDROOT
BRANCH   1   2
ATOM      2  C   UNL     1      -2.170  13.090  27.291  1.00  0.00     0.000 C 
BRANCH   2   3
ATOM      3  C   UNL     1      -3.122  11.910  27.527  1.00  0.00     0.000 C 
BRANCH   3   4
ATOM      4  C   UNL     1      -2.458  10.729  28.258  1.00  0.00     0.000 C 
BRANCH   4   5
ATOM      5  C   UNL     1      -2.442   9.387  27.493  1.00  0.00     0.000 C 
BRANCH   5   6
ATOM      6  C   UNL     1      -1.347   9.247  26.412  1.00  0.00     0.000 C 
BRANCH   6   7
ATOM      7  C   UNL     1      -1.884   8.987  24.992  1.00  0.00     0.000 C 
BRANCH   7   8
ATOM      8  C   UNL     1      -3.404   9.202  24.851  1.00  0.00     0.000 C 
BRANCH   8   9
ATOM      9  C   UNL     1      -3.735  10.484  24.073  1.00  0.00     0.000 C 
BRANCH   9  10
ATOM     10  C   UNL     1      -2.732  10.709  22.932  1.00  0.00     0.006 C 
BRANCH  10  11
ATOM     11  C   UNL     1      -3.385  10.565  21.550  1.00  0.00     0.053 C 
BRANCH  11  12
ATOM     12  C   UNL     1      -3.248   9.173  21.014  1.00  0.00     0.041 C 
ATOM     13  O   UNL     1      -4.143   8.689  20.273  1.00  0.00    -0.550 OA
ATOM     14  O   UNL     1      -2.116   8.422  21.305  1.00  0.00    -0.550 OA
ENDBRANCH  11  12
ENDBRANCH  10  11
ENDBRANCH   9  10
ENDBRANCH   8   9
ENDBRANCH   7   8
ENDBRANCH   6   7
ENDBRANCH   5   6
ENDBRANCH   4   5
ENDBRANCH   3   4
ENDBRANCH   2   3
ENDBRANCH   1   2
BRANCH   1  15
ATOM     15  C   UNL     1       0.032  12.784  26.016  1.00  0.00     0.000 C 
BRANCH  15  16
ATOM     16  C   UNL     1       0.840  14.062  26.331  1.00  0.00     0.000 C 
BRANCH  16  17
ATOM     17  C   UNL     1       1.207  14.918  25.107  1.00  0.00     0.000 C 
BRANCH  17  18
ATOM     18  C   UNL     1       1.998  16.183  25.482  1.00  0.00    -0.000 C 
BRANCH  18  19
ATOM     19  C   UNL     1       2.797  16.756  24.300  1.00  0.00    -0.000 C 
BRANCH  19  20
ATOM     20  C   UNL     1       2.523  18.255  24.077  1.00  0.00    -0.000 C 
BRANCH  20  21
ATOM     21  C   UNL     1       1.082  18.540  23.613  1.00  0.00    -0.000 C 
BRANCH  21  22
ATOM     22  C   UNL     1       0.880  19.868  22.860  1.00  0.00    -0.000 C 
BRANCH  22  23
ATOM     23  C   UNL     1       2.187  20.653  22.661  1.00  0.00    -0.000 C 
BRANCH  23  24
ATOM     24  C   UNL     1       2.507  20.924  21.180  1.00  0.00    -0.000 C 
BRANCH  24  25
ATOM     25  C   UNL     1       3.986  20.751  20.788  1.00  0.00    -0.003 C 
ATOM     26  C   UNL     1       4.857  20.255  21.941  1.00  0.00     0.004 C 
ENDBRANCH  24  25
ENDBRANCH  23  24
ENDBRANCH  22  23
ENDBRANCH  21  22
ENDBRANCH  20  21
ENDBRANCH  19  20
ENDBRANCH  18  19
ENDBRANCH  17  18
ENDBRANCH  16  17
ENDBRANCH  15  16
ENDBRANCH   1  15
TORSDOF 22
ENDMDL
