MODEL 1
REMARK VINA RESULT:    -2.958      0.000      0.000
REMARK INTER + INTRA:          -6.160
REMARK INTER:                  -4.688
REMARK INTRA:                  -1.472
REMARK UNBOUND:                -1.472
REMARK SMILES CCCCCCCCCCCC(=O)[O-]
REMARK SMILES IDX 7 1 8 2 9 3 10 4 11 5 12 6 13 7 14 8 6 9 5 10 4 11 3 12 2 13
REMARK SMILES IDX 1 14
REMARK H PARENT
REMARK Flexibility Score: inf
ROOT
ATOM      1  C   UNL     1      10.536  43.372 151.186  1.00  0.00     0.000 C 
ENDROOT
BRANCH   1   2
ATOM      2  C   UNL     1      10.497  44.160 152.504  1.00  0.00     0.000 C 
BRANCH   2   3
ATOM      3  C   UNL     1      11.703  43.811 153.389  1.00  0.00     0.000 C 
BRANCH   3   4
ATOM      4  C   UNL     1      11.375  42.769 154.473  1.00  0.00     0.006 C 
BRANCH   4   5
ATOM      5  C   UNL     1       9.889  42.730 154.873  1.00  0.00     0.053 C 
BRANCH   5   6
ATOM      6  C   UNL     1       9.692  42.809 156.358  1.00  0.00     0.041 C 
ATOM      7  O   UNL     1      10.352  42.059 157.125  1.00  0.00    -0.550 OA
ATOM      8  O   UNL     1       8.807  43.734 156.898  1.00  0.00    -0.550 OA
ENDBRANCH   5   6
ENDBRANCH   4   5
ENDBRANCH   3   4
ENDBRANCH   2   3
ENDBRANCH   1   2
BRANCH   1   9
ATOM      9  C   UNL     1      11.964  42.984 150.771  1.00  0.00     0.000 C 
BRANCH   9  10
ATOM     10  C   UNL     1      12.076  41.510 150.343  1.00  0.00    -0.000 C 
BRANCH  10  11
ATOM     11  C   UNL     1      12.000  40.542 151.534  1.00  0.00    -0.000 C 
BRANCH  11  12
ATOM     12  C   UNL     1      10.778  39.614 151.463  1.00  0.00    -0.000 C 
BRANCH  12  13
ATOM     13  C   UNL     1       9.774  39.947 152.573  1.00  0.00    -0.003 C 
ATOM     14  C   UNL     1       8.419  40.340 151.990  1.00  0.00     0.004 C 
ENDBRANCH  12  13
ENDBRANCH  11  12
ENDBRANCH  10  11
ENDBRANCH   9  10
ENDBRANCH   1   9
TORSDOF 10
ENDMDL
MODEL 2
REMARK VINA RESULT:    -2.848      4.073      5.979
REMARK INTER + INTRA:          -5.984
REMARK INTER:                  -4.998
REMARK INTRA:                  -0.987
REMARK UNBOUND:                -1.472
REMARK SMILES CCCCCCCCCCCC(=O)[O-]
REMARK SMILES IDX 7 1 8 2 9 3 10 4 11 5 12 6 13 7 14 8 6 9 5 10 4 11 3 12 2 13
REMARK SMILES IDX 1 14
REMARK H PARENT
REMARK Flexibility Score: inf
ROOT
ATOM      1  C   UNL     1      11.253  41.534 150.541  1.00  0.00     0.000 C 
ENDROOT
BRANCH   1   2
ATOM      2  C   UNL     1      11.255  40.138 151.179  1.00  0.00     0.000 C 
BRANCH   2   3
ATOM      3  C   UNL     1       9.823  39.610 151.354  1.00  0.00     0.000 C 
BRANCH   3   4
ATOM      4  C   UNL     1       9.397  38.639 150.239  1.00  0.00     0.006 C 
BRANCH   4   5
ATOM      5  C   UNL     1      10.415  37.519 149.962  1.00  0.00     0.053 C 
BRANCH   5   6
ATOM      6  C   UNL     1       9.779  36.163 149.914  1.00  0.00     0.041 C 
ATOM      7  O   UNL     1       8.578  36.039 149.554  1.00  0.00    -0.550 OA
ATOM      8  O   UNL     1      10.519  35.030 150.231  1.00  0.00    -0.550 OA
ENDBRANCH   5   6
ENDBRANCH   4   5
ENDBRANCH   3   4
ENDBRANCH   2   3
ENDBRANCH   1   2
BRANCH   1   9
ATOM      9  C   UNL     1      11.950  42.586 151.418  1.00  0.00     0.000 C 
BRANCH   9  10
ATOM     10  C   UNL     1      12.150  42.108 152.868  1.00  0.00    -0.000 C 
BRANCH  10  11
ATOM     11  C   UNL     1      11.962  43.238 153.893  1.00  0.00    -0.000 C 
BRANCH  11  12
ATOM     12  C   UNL     1      10.524  43.318 154.426  1.00  0.00    -0.000 C 
BRANCH  12  13
ATOM     13  C   UNL     1       9.884  41.926 154.488  1.00  0.00    -0.003 C 
ATOM     14  C   UNL     1       8.488  41.933 153.872  1.00  0.00     0.004 C 
ENDBRANCH  12  13
ENDBRANCH  11  12
ENDBRANCH  10  11
ENDBRANCH   9  10
ENDBRANCH   1   9
TORSDOF 10
ENDMDL
MODEL 3
REMARK VINA RESULT:    -2.840     14.380     15.458
REMARK INTER + INTRA:          -5.972
REMARK INTER:                  -4.591
REMARK INTRA:                  -1.380
REMARK UNBOUND:                -1.472
REMARK SMILES CCCCCCCCCCCC(=O)[O-]
REMARK SMILES IDX 7 1 8 2 9 3 10 4 11 5 12 6 13 7 14 8 6 9 5 10 4 11 3 12 2 13
REMARK SMILES IDX 1 14
REMARK H PARENT
REMARK Flexibility Score: inf
ROOT
ATOM      1  C   UNL     1      12.587  38.337 139.561  1.00  0.00     0.000 C 
ENDROOT
BRANCH   1   2
ATOM      2  C   UNL     1      11.170  38.903 139.737  1.00  0.00     0.000 C 
BRANCH   2   3
ATOM      3  C   UNL     1      10.454  39.025 138.383  1.00  0.00     0.000 C 
BRANCH   3   4
ATOM      4  C   UNL     1       8.994  39.494 138.512  1.00  0.00     0.006 C 
BRANCH   4   5
ATOM      5  C   UNL     1       8.043  38.428 139.083  1.00  0.00     0.053 C 
BRANCH   5   6
ATOM      6  C   UNL     1       7.191  37.793 138.026  1.00  0.00     0.041 C 
ATOM      7  O   UNL     1       6.569  38.510 137.198  1.00  0.00    -0.550 OA
ATOM      8  O   UNL     1       7.111  36.409 137.929  1.00  0.00    -0.550 OA
ENDBRANCH   5   6
ENDBRANCH   4   5
ENDBRANCH   3   4
ENDBRANCH   2   3
ENDBRANCH   1   2
BRANCH   1   9
ATOM      9  C   UNL     1      12.616  37.080 138.677  1.00  0.00     0.000 C 
BRANCH   9  10
ATOM     10  C   UNL     1      13.117  35.837 139.433  1.00  0.00    -0.000 C 
BRANCH  10  11
ATOM     11  C   UNL     1      11.973  34.901 139.855  1.00  0.00    -0.000 C 
BRANCH  11  12
ATOM     12  C   UNL     1      10.661  35.202 139.115  1.00  0.00    -0.000 C 
BRANCH  12  13
ATOM     13  C   UNL     1       9.459  35.070 140.057  1.00  0.00    -0.003 C 
ATOM     14  C   UNL     1       9.621  35.962 141.285  1.00  0.00     0.004 C 
ENDBRANCH  12  13
ENDBRANCH  11  12
ENDBRANCH  10  11
ENDBRANCH   9  10
ENDBRANCH   1   9
TORSDOF 10
ENDMDL
MODEL 4
REMARK VINA RESULT:    -2.798      3.537      4.999
REMARK INTER + INTRA:          -5.906
REMARK INTER:                  -4.343
REMARK INTRA:                  -1.563
REMARK UNBOUND:                -1.472
REMARK SMILES CCCCCCCCCCCC(=O)[O-]
REMARK SMILES IDX 7 1 8 2 9 3 10 4 11 5 12 6 13 7 14 8 6 9 5 10 4 11 3 12 2 13
REMARK SMILES IDX 1 14
REMARK H PARENT
REMARK Flexibility Score: inf
ROOT
ATOM      1  C   UNL     1      10.390  43.660 150.900  1.00  0.00     0.000 C 
ENDROOT
BRANCH   1   2
ATOM      2  C   UNL     1      10.513  42.159 150.597  1.00  0.00     0.000 C 
BRANCH   2   3
ATOM      3  C   UNL     1      11.930  41.650 150.906  1.00  0.00     0.000 C 
BRANCH   3   4
ATOM      4  C   UNL     1      11.942  40.259 151.563  1.00  0.00     0.006 C 
BRANCH   4   5
ATOM      5  C   UNL     1      10.704  39.403 151.240  1.00  0.00     0.053 C 
BRANCH   5   6
ATOM      6  C   UNL     1      10.973  38.384 150.174  1.00  0.00     0.041 C 
ATOM      7  O   UNL     1      10.196  37.404 150.025  1.00  0.00    -0.550 OA
ATOM      8  O   UNL     1      12.059  38.533 149.320  1.00  0.00    -0.550 OA
ENDBRANCH   5   6
ENDBRANCH   4   5
ENDBRANCH   3   4
ENDBRANCH   2   3
ENDBRANCH   1   2
BRANCH   1   9
ATOM      9  C   UNL     1      11.341  44.117 152.018  1.00  0.00     0.000 C 
BRANCH   9  10
ATOM     10  C   UNL     1      10.673  44.103 153.404  1.00  0.00    -0.000 C 
BRANCH  10  11
ATOM     11  C   UNL     1      11.241  43.010 154.323  1.00  0.00    -0.000 C 
BRANCH  11  12
ATOM     12  C   UNL     1      10.159  42.047 154.833  1.00  0.00    -0.000 C 
BRANCH  12  13
ATOM     13  C   UNL     1       8.836  42.269 154.093  1.00  0.00    -0.003 C 
ATOM     14  C   UNL     1       8.338  40.976 153.453  1.00  0.00     0.004 C 
ENDBRANCH  12  13
ENDBRANCH  11  12
ENDBRANCH  10  11
ENDBRANCH   9  10
ENDBRANCH   1   9
TORSDOF 10
ENDMDL
MODEL 5
REMARK VINA RESULT:    -2.790     13.694     15.621
REMARK INTER + INTRA:          -5.893
REMARK INTER:                  -4.381
REMARK INTRA:                  -1.512
REMARK UNBOUND:                -1.472
REMARK SMILES CCCCCCCCCCCC(=O)[O-]
REMARK SMILES IDX 7 1 8 2 9 3 10 4 11 5 12 6 13 7 14 8 6 9 5 10 4 11 3 12 2 13
REMARK SMILES IDX 1 14
REMARK H PARENT
REMARK Flexibility Score: inf
ROOT
ATOM      1  C   UNL     1      10.286  35.229 140.360  1.00  0.00     0.000 C 
ENDROOT
BRANCH   1   2
ATOM      2  C   UNL     1       8.877  35.682 140.770  1.00  0.00     0.000 C 
BRANCH   2   3
ATOM      3  C   UNL     1       7.907  35.605 139.582  1.00  0.00     0.000 C 
BRANCH   3   4
ATOM      4  C   UNL     1       7.075  36.886 139.397  1.00  0.00     0.006 C 
BRANCH   4   5
ATOM      5  C   UNL     1       7.102  37.448 137.964  1.00  0.00     0.053 C 
BRANCH   5   6
ATOM      6  C   UNL     1       6.492  38.814 137.871  1.00  0.00     0.041 C 
ATOM      7  O   UNL     1       7.103  39.813 138.334  1.00  0.00    -0.550 OA
ATOM      8  O   UNL     1       5.266  38.992 137.241  1.00  0.00    -0.550 OA
ENDBRANCH   5   6
ENDBRANCH   4   5
ENDBRANCH   3   4
ENDBRANCH   2   3
ENDBRANCH   1   2
BRANCH   1   9
ATOM      9  C   UNL     1      10.643  35.639 138.923  1.00  0.00     0.000 C 
BRANCH   9  10
ATOM     10  C   UNL     1      12.055  36.243 138.814  1.00  0.00    -0.000 C 
BRANCH  10  11
ATOM     11  C   UNL     1      12.061  37.769 138.995  1.00  0.00    -0.000 C 
BRANCH  11  12
ATOM     12  C   UNL     1      10.720  38.414 138.613  1.00  0.00    -0.000 C 
BRANCH  12  13
ATOM     13  C   UNL     1      10.430  39.635 139.493  1.00  0.00    -0.003 C 
ATOM     14  C   UNL     1       9.744  39.227 140.793  1.00  0.00     0.004 C 
ENDBRANCH  12  13
ENDBRANCH  11  12
ENDBRANCH  10  11
ENDBRANCH   9  10
ENDBRANCH   1   9
TORSDOF 10
ENDMDL
MODEL 6
REMARK VINA RESULT:    -2.784     14.302     15.459
REMARK INTER + INTRA:          -5.884
REMARK INTER:                  -4.745
REMARK INTRA:                  -1.139
REMARK UNBOUND:                -1.472
REMARK SMILES CCCCCCCCCCCC(=O)[O-]
REMARK SMILES IDX 7 1 8 2 9 3 10 4 11 5 12 6 13 7 14 8 6 9 5 10 4 11 3 12 2 13
REMARK SMILES IDX 1 14
REMARK H PARENT
REMARK Flexibility Score: inf
ROOT
ATOM      1  C   UNL     1      10.754  35.751 138.792  1.00  0.00     0.000 C 
ENDROOT
BRANCH   1   2
ATOM      2  C   UNL     1      12.111  36.468 138.754  1.00  0.00     0.000 C 
BRANCH   2   3
ATOM      3  C   UNL     1      11.936  37.987 138.905  1.00  0.00     0.000 C 
BRANCH   3   4
ATOM      4  C   UNL     1      10.463  38.415 139.032  1.00  0.00     0.006 C 
BRANCH   4   5
ATOM      5  C   UNL     1      10.057  39.550 138.075  1.00  0.00     0.053 C 
BRANCH   5   6
ATOM      6  C   UNL     1      10.430  40.904 138.600  1.00  0.00     0.041 C 
ATOM      7  O   UNL     1      10.535  41.881 137.812  1.00  0.00    -0.550 OA
ATOM      8  O   UNL     1      10.626  41.098 139.962  1.00  0.00    -0.550 OA
ENDBRANCH   5   6
ENDBRANCH   4   5
ENDBRANCH   3   4
ENDBRANCH   2   3
ENDBRANCH   1   2
BRANCH   1   9
ATOM      9  C   UNL     1      10.526  34.986 140.105  1.00  0.00     0.000 C 
BRANCH   9  10
ATOM     10  C   UNL     1       9.234  35.416 140.823  1.00  0.00    -0.000 C 
BRANCH  10  11
ATOM     11  C   UNL     1       7.978  35.180 139.970  1.00  0.00    -0.000 C 
BRANCH  11  12
ATOM     12  C   UNL     1       7.274  36.489 139.582  1.00  0.00    -0.000 C 
BRANCH  12  13
ATOM     13  C   UNL     1       7.223  36.652 138.059  1.00  0.00    -0.003 C 
ATOM     14  C   UNL     1       6.675  38.022 137.669  1.00  0.00     0.004 C 
ENDBRANCH  12  13
ENDBRANCH  11  12
ENDBRANCH  10  11
ENDBRANCH   9  10
ENDBRANCH   1   9
TORSDOF 10
ENDMDL
MODEL 7
REMARK VINA RESULT:    -2.755      2.056      4.052
REMARK INTER + INTRA:          -5.837
REMARK INTER:                  -4.318
REMARK INTRA:                  -1.519
REMARK UNBOUND:                -1.472
REMARK SMILES CCCCCCCCCCCC(=O)[O-]
REMARK SMILES IDX 7 1 8 2 9 3 10 4 11 5 12 6 13 7 14 8 6 9 5 10 4 11 3 12 2 13
REMARK SMILES IDX 1 14
REMARK H PARENT
REMARK Flexibility Score: inf
ROOT
ATOM      1  C   UNL     1      11.982  40.132 150.980  1.00  0.00     0.000 C 
ENDROOT
BRANCH   1   2
ATOM      2  C   UNL     1      10.798  39.794 151.897  1.00  0.00     0.000 C 
BRANCH   2   3
ATOM      3  C   UNL     1       9.497  39.660 151.090  1.00  0.00     0.000 C 
BRANCH   3   4
ATOM      4  C   UNL     1       8.345  40.510 151.656  1.00  0.00     0.006 C 
BRANCH   4   5
ATOM      5  C   UNL     1       8.062  40.264 153.149  1.00  0.00     0.053 C 
BRANCH   5   6
ATOM      6  C   UNL     1       6.850  41.003 153.632  1.00  0.00     0.041 C 
ATOM      7  O   UNL     1       6.895  42.251 153.801  1.00  0.00    -0.550 OA
ATOM      8  O   UNL     1       5.661  40.323 153.861  1.00  0.00    -0.550 OA
ENDBRANCH   5   6
ENDBRANCH   4   5
ENDBRANCH   3   4
ENDBRANCH   2   3
ENDBRANCH   1   2
BRANCH   1   9
ATOM      9  C   UNL     1      11.950  41.587 150.486  1.00  0.00     0.000 C 
BRANCH   9  10
ATOM     10  C   UNL     1      12.184  42.601 151.620  1.00  0.00    -0.000 C 
BRANCH  10  11
ATOM     11  C   UNL     1      11.025  43.600 151.768  1.00  0.00    -0.000 C 
BRANCH  11  12
ATOM     12  C   UNL     1      10.214  43.376 153.053  1.00  0.00    -0.000 C 
BRANCH  12  13
ATOM     13  C   UNL     1      11.095  42.791 154.162  1.00  0.00    -0.003 C 
ATOM     14  C   UNL     1      10.255  42.332 155.350  1.00  0.00     0.004 C 
ENDBRANCH  12  13
ENDBRANCH  11  12
ENDBRANCH  10  11
ENDBRANCH   9  10
ENDBRANCH   1   9
TORSDOF 10
ENDMDL
MODEL 8
REMARK VINA RESULT:    -2.754      1.207      2.361
REMARK INTER + INTRA:          -5.836
REMARK INTER:                  -4.363
REMARK INTRA:                  -1.473
REMARK UNBOUND:                -1.472
REMARK SMILES CCCCCCCCCCCC(=O)[O-]
REMARK SMILES IDX 7 1 8 2 9 3 10 4 11 5 12 6 13 7 14 8 6 9 5 10 4 11 3 12 2 13
REMARK SMILES IDX 1 14
REMARK H PARENT
REMARK Flexibility Score: inf
ROOT
ATOM      1  C   UNL     1      11.518  41.758 150.330  1.00  0.00     0.000 C 
ENDROOT
BRANCH   1   2
ATOM      2  C   UNL     1      12.627  42.821 150.330  1.00  0.00     0.000 C 
BRANCH   2   3
ATOM      3  C   UNL     1      12.683  43.558 151.677  1.00  0.00     0.000 C 
BRANCH   3   4
ATOM      4  C   UNL     1      11.418  43.356 152.529  1.00  0.00     0.006 C 
BRANCH   4   5
ATOM      5  C   UNL     1      11.688  42.742 153.914  1.00  0.00     0.053 C 
BRANCH   5   6
ATOM      6  C   UNL     1      10.577  43.006 154.886  1.00  0.00     0.041 C 
ATOM      7  O   UNL     1       9.747  43.926 154.664  1.00  0.00    -0.550 OA
ATOM      8  O   UNL     1      10.436  42.214 156.019  1.00  0.00    -0.550 OA
ENDBRANCH   5   6
ENDBRANCH   4   5
ENDBRANCH   3   4
ENDBRANCH   2   3
ENDBRANCH   1   2
BRANCH   1   9
ATOM      9  C   UNL     1      12.056  40.345 150.607  1.00  0.00     0.000 C 
BRANCH   9  10
ATOM     10  C   UNL     1      11.014  39.438 151.285  1.00  0.00    -0.000 C 
BRANCH  10  11
ATOM     11  C   UNL     1       9.681  40.159 151.541  1.00  0.00    -0.000 C 
BRANCH  11  12
ATOM     12  C   UNL     1       9.268  40.127 153.020  1.00  0.00    -0.000 C 
BRANCH  12  13
ATOM     13  C   UNL     1       7.986  40.936 153.247  1.00  0.00    -0.003 C 
ATOM     14  C   UNL     1       7.860  42.068 152.231  1.00  0.00     0.004 C 
ENDBRANCH  12  13
ENDBRANCH  11  12
ENDBRANCH  10  11
ENDBRANCH   9  10
ENDBRANCH   1   9
TORSDOF 10
ENDMDL
MODEL 9
REMARK VINA RESULT:    -2.745      3.576      5.394
REMARK INTER + INTRA:          -5.822
REMARK INTER:                  -4.263
REMARK INTRA:                  -1.559
REMARK UNBOUND:                -1.472
REMARK SMILES CCCCCCCCCCCC(=O)[O-]
REMARK SMILES IDX 7 1 8 2 9 3 10 4 11 5 12 6 13 7 14 8 6 9 5 10 4 11 3 12 2 13
REMARK SMILES IDX 1 14
REMARK H PARENT
REMARK Flexibility Score: inf
ROOT
ATOM      1  C   UNL     1       8.963  42.605 154.358  1.00  0.00     0.000 C 
ENDROOT
BRANCH   1   2
ATOM      2  C   UNL     1       8.457  41.345 153.640  1.00  0.00     0.000 C 
BRANCH   2   3
ATOM      3  C   UNL     1       9.626  40.429 153.249  1.00  0.00     0.000 C 
BRANCH   3   4
ATOM      4  C   UNL     1       9.641  40.074 151.751  1.00  0.00     0.006 C 
BRANCH   4   5
ATOM      5  C   UNL     1      10.927  39.367 151.289  1.00  0.00     0.053 C 
BRANCH   5   6
ATOM      6  C   UNL     1      10.746  38.637 149.991  1.00  0.00     0.041 C 
ATOM      7  O   UNL     1      10.700  39.276 148.907  1.00  0.00    -0.550 OA
ATOM      8  O   UNL     1      10.665  37.250 149.973  1.00  0.00    -0.550 OA
ENDBRANCH   5   6
ENDBRANCH   4   5
ENDBRANCH   3   4
ENDBRANCH   2   3
ENDBRANCH   1   2
BRANCH   1   9
ATOM      9  C   UNL     1      10.419  42.471 154.832  1.00  0.00     0.000 C 
BRANCH   9  10
ATOM     10  C   UNL     1      11.342  43.536 154.214  1.00  0.00    -0.000 C 
BRANCH  10  11
ATOM     11  C   UNL     1      12.451  42.924 153.344  1.00  0.00    -0.000 C 
BRANCH  11  12
ATOM     12  C   UNL     1      12.085  42.899 151.853  1.00  0.00    -0.000 C 
BRANCH  12  13
ATOM     13  C   UNL     1      11.127  44.044 151.505  1.00  0.00    -0.003 C 
ATOM     14  C   UNL     1       9.909  43.531 150.742  1.00  0.00     0.004 C 
ENDBRANCH  12  13
ENDBRANCH  11  12
ENDBRANCH  10  11
ENDBRANCH   9  10
ENDBRANCH   1   9
TORSDOF 10
ENDMDL
