MODEL 1
REMARK VINA RESULT:    -7.159      0.000      0.000
REMARK INTER + INTRA:         -12.920
REMARK INTER:                 -12.181
REMARK INTRA:                  -0.739
REMARK UNBOUND:                -0.739
REMARK SMILES CCCCCCCCCCCCCC(=O)[O-]
REMARK SMILES IDX 8 1 9 2 10 3 11 4 12 5 13 6 14 7 15 8 16 9 7 10 6 11 5 12
REMARK SMILES IDX 4 13 3 14 2 15 1 16
REMARK H PARENT
REMARK Flexibility Score: inf
ROOT
ATOM      1  C   UNL     1      -7.587  -2.753 -19.434  1.00  0.00     0.000 C 
ENDROOT
BRANCH   1   2
ATOM      2  C   UNL     1      -7.096  -2.480 -20.867  1.00  0.00     0.000 C 
BRANCH   2   3
ATOM      3  C   UNL     1      -5.781  -3.180 -21.253  1.00  0.00     0.000 C 
BRANCH   3   4
ATOM      4  C   UNL     1      -4.542  -2.303 -21.020  1.00  0.00     0.000 C 
BRANCH   4   5
ATOM      5  C   UNL     1      -4.147  -2.291 -19.539  1.00  0.00     0.006 C 
BRANCH   5   6
ATOM      6  C   UNL     1      -4.338  -0.899 -18.930  1.00  0.00     0.053 C 
BRANCH   6   7
ATOM      7  C   UNL     1      -3.189  -0.556 -18.036  1.00  0.00     0.041 C 
ATOM      8  O   UNL     1      -3.228   0.480 -17.323  1.00  0.00    -0.550 OA
ATOM      9  O   UNL     1      -2.052  -1.355 -18.028  1.00  0.00    -0.550 OA
ENDBRANCH   6   7
ENDBRANCH   5   6
ENDBRANCH   4   5
ENDBRANCH   3   4
ENDBRANCH   2   3
ENDBRANCH   1   2
BRANCH   1  10
ATOM     10  C   UNL     1      -7.536  -4.243 -19.056  1.00  0.00     0.000 C 
BRANCH  10  11
ATOM     11  C   UNL     1      -8.934  -4.874 -18.954  1.00  0.00    -0.000 C 
BRANCH  11  12
ATOM     12  C   UNL     1      -9.111  -6.080 -19.891  1.00  0.00    -0.000 C 
BRANCH  12  13
ATOM     13  C   UNL     1      -7.937  -7.057 -19.755  1.00  0.00    -0.000 C 
BRANCH  13  14
ATOM     14  C   UNL     1      -8.438  -8.505 -19.637  1.00  0.00    -0.000 C 
BRANCH  14  15
ATOM     15  C   UNL     1      -8.173  -9.327 -20.907  1.00  0.00    -0.003 C 
ATOM     16  C   UNL     1      -7.732 -10.759 -20.603  1.00  0.00     0.004 C 
ENDBRANCH  14  15
ENDBRANCH  13  14
ENDBRANCH  12  13
ENDBRANCH  11  12
ENDBRANCH  10  11
ENDBRANCH   1  10
TORSDOF 12
ENDMDL
MODEL 2
REMARK VINA RESULT:    -7.145      0.784      1.709
REMARK INTER + INTRA:         -12.896
REMARK INTER:                 -12.226
REMARK INTRA:                  -0.670
REMARK UNBOUND:                -0.739
REMARK SMILES CCCCCCCCCCCCCC(=O)[O-]
REMARK SMILES IDX 8 1 9 2 10 3 11 4 12 5 13 6 14 7 15 8 16 9 7 10 6 11 5 12
REMARK SMILES IDX 4 13 3 14 2 15 1 16
REMARK H PARENT
REMARK Flexibility Score: inf
ROOT
ATOM      1  C   UNL     1      -7.093  -2.422 -20.978  1.00  0.00     0.000 C 
ENDROOT
BRANCH   1   2
ATOM      2  C   UNL     1      -5.658  -2.892 -21.277  1.00  0.00     0.000 C 
BRANCH   2   3
ATOM      3  C   UNL     1      -4.547  -2.095 -20.568  1.00  0.00     0.000 C 
BRANCH   3   4
ATOM      4  C   UNL     1      -4.137  -2.707 -19.220  1.00  0.00     0.000 C 
BRANCH   4   5
ATOM      5  C   UNL     1      -3.342  -1.701 -18.379  1.00  0.00     0.006 C 
BRANCH   5   6
ATOM      6  C   UNL     1      -3.852  -0.275 -18.601  1.00  0.00     0.053 C 
BRANCH   6   7
ATOM      7  C   UNL     1      -2.934   0.716 -17.958  1.00  0.00     0.041 C 
ATOM      8  O   UNL     1      -2.103   0.341 -17.091  1.00  0.00    -0.550 OA
ATOM      9  O   UNL     1      -3.030   2.065 -18.282  1.00  0.00    -0.550 OA
ENDBRANCH   6   7
ENDBRANCH   5   6
ENDBRANCH   4   5
ENDBRANCH   3   4
ENDBRANCH   2   3
ENDBRANCH   1   2
BRANCH   1  10
ATOM     10  C   UNL     1      -7.559  -2.784 -19.558  1.00  0.00     0.000 C 
BRANCH  10  11
ATOM     11  C   UNL     1      -7.433  -4.287 -19.261  1.00  0.00    -0.000 C 
BRANCH  11  12
ATOM     12  C   UNL     1      -8.765  -4.920 -18.829  1.00  0.00    -0.000 C 
BRANCH  12  13
ATOM     13  C   UNL     1      -9.145  -6.082 -19.755  1.00  0.00    -0.000 C 
BRANCH  13  14
ATOM     14  C   UNL     1      -8.039  -7.148 -19.782  1.00  0.00    -0.000 C 
BRANCH  14  15
ATOM     15  C   UNL     1      -8.583  -8.569 -19.572  1.00  0.00    -0.003 C 
ATOM     16  C   UNL     1      -7.910  -9.600 -20.478  1.00  0.00     0.004 C 
ENDBRANCH  14  15
ENDBRANCH  13  14
ENDBRANCH  12  13
ENDBRANCH  11  12
ENDBRANCH  10  11
ENDBRANCH   1  10
TORSDOF 12
ENDMDL
MODEL 3
REMARK VINA RESULT:    -6.937      1.271      1.842
REMARK INTER + INTRA:         -12.543
REMARK INTER:                 -11.841
REMARK INTRA:                  -0.702
REMARK UNBOUND:                -0.739
REMARK SMILES CCCCCCCCCCCCCC(=O)[O-]
REMARK SMILES IDX 8 1 9 2 10 3 11 4 12 5 13 6 14 7 15 8 16 9 7 10 6 11 5 12
REMARK SMILES IDX 4 13 3 14 2 15 1 16
REMARK H PARENT
REMARK Flexibility Score: inf
ROOT
ATOM      1  C   UNL     1      -7.397  -4.226 -20.756  1.00  0.00     0.000 C 
ENDROOT
BRANCH   1   2
ATOM      2  C   UNL     1      -7.319  -2.690 -20.792  1.00  0.00     0.000 C 
BRANCH   2   3
ATOM      3  C   UNL     1      -7.436  -1.997 -19.422  1.00  0.00     0.000 C 
BRANCH   3   4
ATOM      4  C   UNL     1      -6.951  -0.539 -19.442  1.00  0.00     0.000 C 
BRANCH   4   5
ATOM      5  C   UNL     1      -5.604  -0.399 -18.726  1.00  0.00     0.006 C 
BRANCH   5   6
ATOM      6  C   UNL     1      -4.493  -1.114 -19.499  1.00  0.00     0.053 C 
BRANCH   6   7
ATOM      7  C   UNL     1      -3.795  -2.104 -18.620  1.00  0.00     0.041 C 
ATOM      8  O   UNL     1      -4.389  -3.148 -18.247  1.00  0.00    -0.550 OA
ATOM      9  O   UNL     1      -2.505  -1.847 -18.171  1.00  0.00    -0.550 OA
ENDBRANCH   6   7
ENDBRANCH   5   6
ENDBRANCH   4   5
ENDBRANCH   3   4
ENDBRANCH   2   3
ENDBRANCH   1   2
BRANCH   1  10
ATOM     10  C   UNL     1      -7.074  -4.812 -19.371  1.00  0.00     0.000 C 
BRANCH  10  11
ATOM     11  C   UNL     1      -8.271  -5.546 -18.746  1.00  0.00    -0.000 C 
BRANCH  11  12
ATOM     12  C   UNL     1      -8.954  -6.511 -19.728  1.00  0.00    -0.000 C 
BRANCH  12  13
ATOM     13  C   UNL     1      -8.028  -7.680 -20.081  1.00  0.00    -0.000 C 
BRANCH  13  14
ATOM     14  C   UNL     1      -8.544  -8.993 -19.472  1.00  0.00    -0.000 C 
BRANCH  14  15
ATOM     15  C   UNL     1      -7.961 -10.235 -20.164  1.00  0.00    -0.003 C 
ATOM     16  C   UNL     1      -8.079 -10.172 -21.687  1.00  0.00     0.004 C 
ENDBRANCH  14  15
ENDBRANCH  13  14
ENDBRANCH  12  13
ENDBRANCH  11  12
ENDBRANCH  10  11
ENDBRANCH   1  10
TORSDOF 12
ENDMDL
MODEL 4
REMARK VINA RESULT:    -6.892      4.240      8.251
REMARK INTER + INTRA:         -12.465
REMARK INTER:                 -11.916
REMARK INTRA:                  -0.549
REMARK UNBOUND:                -0.739
REMARK SMILES CCCCCCCCCCCCCC(=O)[O-]
REMARK SMILES IDX 8 1 9 2 10 3 11 4 12 5 13 6 14 7 15 8 16 9 7 10 6 11 5 12
REMARK SMILES IDX 4 13 3 14 2 15 1 16
REMARK H PARENT
REMARK Flexibility Score: inf
ROOT
ATOM      1  C   UNL     1      -7.417  -3.570 -21.140  1.00  0.00     0.000 C 
ENDROOT
BRANCH   1   2
ATOM      2  C   UNL     1      -7.112  -4.696 -20.136  1.00  0.00     0.000 C 
BRANCH   2   3
ATOM      3  C   UNL     1      -8.296  -5.119 -19.247  1.00  0.00     0.000 C 
BRANCH   3   4
ATOM      4  C   UNL     1      -8.973  -6.413 -19.724  1.00  0.00     0.000 C 
BRANCH   4   5
ATOM      5  C   UNL     1      -7.936  -7.512 -19.982  1.00  0.00     0.006 C 
BRANCH   5   6
ATOM      6  C   UNL     1      -8.481  -8.886 -19.583  1.00  0.00     0.053 C 
BRANCH   6   7
ATOM      7  C   UNL     1      -8.055  -9.926 -20.571  1.00  0.00     0.041 C 
ATOM      8  O   UNL     1      -7.454 -10.960 -20.182  1.00  0.00    -0.550 OA
ATOM      9  O   UNL     1      -8.278  -9.728 -21.928  1.00  0.00    -0.550 OA
ENDBRANCH   6   7
ENDBRANCH   5   6
ENDBRANCH   4   5
ENDBRANCH   3   4
ENDBRANCH   2   3
ENDBRANCH   1   2
BRANCH   1  10
ATOM     10  C   UNL     1      -7.128  -2.168 -20.576  1.00  0.00     0.000 C 
BRANCH  10  11
ATOM     11  C   UNL     1      -6.115  -2.194 -19.420  1.00  0.00    -0.000 C 
BRANCH  11  12
ATOM     12  C   UNL     1      -4.659  -2.104 -19.904  1.00  0.00    -0.000 C 
BRANCH  12  13
ATOM     13  C   UNL     1      -3.767  -1.455 -18.839  1.00  0.00    -0.000 C 
BRANCH  13  14
ATOM     14  C   UNL     1      -4.289  -0.061 -18.459  1.00  0.00    -0.000 C 
BRANCH  14  15
ATOM     15  C   UNL     1      -3.161   0.973 -18.316  1.00  0.00    -0.003 C 
ATOM     16  C   UNL     1      -2.095   0.548 -17.306  1.00  0.00     0.004 C 
ENDBRANCH  14  15
ENDBRANCH  13  14
ENDBRANCH  12  13
ENDBRANCH  11  12
ENDBRANCH  10  11
ENDBRANCH   1  10
TORSDOF 12
ENDMDL
MODEL 5
REMARK VINA RESULT:    -6.794      3.957      8.184
REMARK INTER + INTRA:         -12.299
REMARK INTER:                 -11.682
REMARK INTRA:                  -0.617
REMARK UNBOUND:                -0.739
REMARK SMILES CCCCCCCCCCCCCC(=O)[O-]
REMARK SMILES IDX 8 1 9 2 10 3 11 4 12 5 13 6 14 7 15 8 16 9 7 10 6 11 5 12
REMARK SMILES IDX 4 13 3 14 2 15 1 16
REMARK H PARENT
REMARK Flexibility Score: inf
ROOT
ATOM      1  C   UNL     1      -7.416  -2.394 -20.595  1.00  0.00     0.000 C 
ENDROOT
BRANCH   1   2
ATOM      2  C   UNL     1      -6.853  -3.652 -21.280  1.00  0.00     0.000 C 
BRANCH   2   3
ATOM      3  C   UNL     1      -6.836  -4.921 -20.408  1.00  0.00     0.000 C 
BRANCH   3   4
ATOM      4  C   UNL     1      -8.019  -4.994 -19.432  1.00  0.00     0.000 C 
BRANCH   4   5
ATOM      5  C   UNL     1      -8.302  -6.443 -19.019  1.00  0.00     0.006 C 
BRANCH   5   6
ATOM      6  C   UNL     1      -8.546  -7.327 -20.245  1.00  0.00     0.053 C 
BRANCH   6   7
ATOM      7  C   UNL     1      -8.316  -8.767 -19.907  1.00  0.00     0.041 C 
ATOM      8  O   UNL     1      -8.704  -9.229 -18.804  1.00  0.00    -0.550 OA
ATOM      9  O   UNL     1      -7.628  -9.587 -20.794  1.00  0.00    -0.550 OA
ENDBRANCH   6   7
ENDBRANCH   5   6
ENDBRANCH   4   5
ENDBRANCH   3   4
ENDBRANCH   2   3
ENDBRANCH   1   2
BRANCH   1  10
ATOM     10  C   UNL     1      -6.384  -1.685 -19.701  1.00  0.00     0.000 C 
BRANCH  10  11
ATOM     11  C   UNL     1      -4.937  -2.054 -20.063  1.00  0.00    -0.000 C 
BRANCH  11  12
ATOM     12  C   UNL     1      -3.902  -1.334 -19.183  1.00  0.00    -0.000 C 
BRANCH  12  13
ATOM     13  C   UNL     1      -4.592  -0.413 -18.169  1.00  0.00    -0.000 C 
BRANCH  13  14
ATOM     14  C   UNL     1      -3.558   0.377 -17.352  1.00  0.00    -0.000 C 
BRANCH  14  15
ATOM     15  C   UNL     1      -2.672   1.274 -18.231  1.00  0.00    -0.003 C 
ATOM     16  C   UNL     1      -2.420   2.647 -17.607  1.00  0.00     0.004 C 
ENDBRANCH  14  15
ENDBRANCH  13  14
ENDBRANCH  12  13
ENDBRANCH  11  12
ENDBRANCH  10  11
ENDBRANCH   1  10
TORSDOF 12
ENDMDL
MODEL 6
REMARK VINA RESULT:    -6.345      3.728      8.182
REMARK INTER + INTRA:         -11.535
REMARK INTER:                 -10.695
REMARK INTRA:                  -0.840
REMARK UNBOUND:                -0.739
REMARK SMILES CCCCCCCCCCCCCC(=O)[O-]
REMARK SMILES IDX 8 1 9 2 10 3 11 4 12 5 13 6 14 7 15 8 16 9 7 10 6 11 5 12
REMARK SMILES IDX 4 13 3 14 2 15 1 16
REMARK H PARENT
REMARK Flexibility Score: inf
ROOT
ATOM      1  C   UNL     1      -6.000  -1.850 -18.522  1.00  0.00     0.000 C 
ENDROOT
BRANCH   1   2
ATOM      2  C   UNL     1      -7.131  -1.890 -19.565  1.00  0.00     0.000 C 
BRANCH   2   3
ATOM      3  C   UNL     1      -6.698  -2.307 -20.983  1.00  0.00     0.000 C 
BRANCH   3   4
ATOM      4  C   UNL     1      -7.130  -3.736 -21.347  1.00  0.00     0.000 C 
BRANCH   4   5
ATOM      5  C   UNL     1      -7.912  -4.383 -20.199  1.00  0.00     0.006 C 
BRANCH   5   6
ATOM      6  C   UNL     1      -7.310  -5.737 -19.818  1.00  0.00     0.053 C 
BRANCH   6   7
ATOM      7  C   UNL     1      -8.352  -6.810 -19.877  1.00  0.00     0.041 C 
ATOM      8  O   UNL     1      -9.573  -6.507 -19.882  1.00  0.00    -0.550 OA
ATOM      9  O   UNL     1      -7.974  -8.147 -19.876  1.00  0.00    -0.550 OA
ENDBRANCH   6   7
ENDBRANCH   5   6
ENDBRANCH   4   5
ENDBRANCH   3   4
ENDBRANCH   2   3
ENDBRANCH   1   2
BRANCH   1  10
ATOM     10  C   UNL     1      -4.869  -2.848 -18.823  1.00  0.00     0.000 C 
BRANCH  10  11
ATOM     11  C   UNL     1      -3.497  -2.167 -18.944  1.00  0.00    -0.000 C 
BRANCH  11  12
ATOM     12  C   UNL     1      -3.586  -0.634 -18.871  1.00  0.00    -0.000 C 
BRANCH  12  13
ATOM     13  C   UNL     1      -2.560  -0.073 -17.879  1.00  0.00    -0.000 C 
BRANCH  13  14
ATOM     14  C   UNL     1      -3.021   1.283 -17.320  1.00  0.00    -0.000 C 
BRANCH  14  15
ATOM     15  C   UNL     1      -1.977   2.391 -17.524  1.00  0.00    -0.003 C 
ATOM     16  C   UNL     1      -2.603   3.784 -17.609  1.00  0.00     0.004 C 
ENDBRANCH  14  15
ENDBRANCH  13  14
ENDBRANCH  12  13
ENDBRANCH  11  12
ENDBRANCH  10  11
ENDBRANCH   1  10
TORSDOF 12
ENDMDL
MODEL 7
REMARK VINA RESULT:    -6.285      2.944      5.143
REMARK INTER + INTRA:         -11.433
REMARK INTER:                 -10.671
REMARK INTRA:                  -0.762
REMARK UNBOUND:                -0.739
REMARK SMILES CCCCCCCCCCCCCC(=O)[O-]
REMARK SMILES IDX 8 1 9 2 10 3 11 4 12 5 13 6 14 7 15 8 16 9 7 10 6 11 5 12
REMARK SMILES IDX 4 13 3 14 2 15 1 16
REMARK H PARENT
REMARK Flexibility Score: inf
ROOT
ATOM      1  C   UNL     1      -4.743  -0.622 -18.993  1.00  0.00     0.000 C 
ENDROOT
BRANCH   1   2
ATOM      2  C   UNL     1      -4.007  -0.238 -17.696  1.00  0.00     0.000 C 
BRANCH   2   3
ATOM      3  C   UNL     1      -2.473  -0.175 -17.809  1.00  0.00     0.000 C 
BRANCH   3   4
ATOM      4  C   UNL     1      -1.960   1.202 -18.257  1.00  0.00     0.000 C 
BRANCH   4   5
ATOM      5  C   UNL     1      -2.774   2.328 -17.612  1.00  0.00     0.006 C 
BRANCH   5   6
ATOM      6  C   UNL     1      -1.932   3.598 -17.458  1.00  0.00     0.053 C 
BRANCH   6   7
ATOM      7  C   UNL     1      -2.803   4.814 -17.509  1.00  0.00     0.041 C 
ATOM      8  O   UNL     1      -3.731   4.964 -16.674  1.00  0.00    -0.550 OA
ATOM      9  O   UNL     1      -2.619   5.759 -18.512  1.00  0.00    -0.550 OA
ENDBRANCH   6   7
ENDBRANCH   5   6
ENDBRANCH   4   5
ENDBRANCH   3   4
ENDBRANCH   2   3
ENDBRANCH   1   2
BRANCH   1  10
ATOM     10  C   UNL     1      -4.353  -2.016 -19.514  1.00  0.00     0.000 C 
BRANCH  10  11
ATOM     11  C   UNL     1      -4.637  -2.185 -21.015  1.00  0.00    -0.000 C 
BRANCH  11  12
ATOM     12  C   UNL     1      -5.739  -3.219 -21.297  1.00  0.00    -0.000 C 
BRANCH  12  13
ATOM     13  C   UNL     1      -7.127  -2.632 -21.018  1.00  0.00    -0.000 C 
BRANCH  13  14
ATOM     14  C   UNL     1      -7.770  -3.298 -19.791  1.00  0.00    -0.000 C 
BRANCH  14  15
ATOM     15  C   UNL     1      -7.409  -4.787 -19.671  1.00  0.00    -0.003 C 
ATOM     16  C   UNL     1      -8.167  -5.489 -18.545  1.00  0.00     0.004 C 
ENDBRANCH  14  15
ENDBRANCH  13  14
ENDBRANCH  12  13
ENDBRANCH  11  12
ENDBRANCH  10  11
ENDBRANCH   1  10
TORSDOF 12
ENDMDL
MODEL 8
REMARK VINA RESULT:    -6.265      3.518      8.896
REMARK INTER + INTRA:         -11.399
REMARK INTER:                 -10.562
REMARK INTRA:                  -0.837
REMARK UNBOUND:                -0.739
REMARK SMILES CCCCCCCCCCCCCC(=O)[O-]
REMARK SMILES IDX 8 1 9 2 10 3 11 4 12 5 13 6 14 7 15 8 16 9 7 10 6 11 5 12
REMARK SMILES IDX 4 13 3 14 2 15 1 16
REMARK H PARENT
REMARK Flexibility Score: inf
ROOT
ATOM      1  C   UNL     1      -4.760  -0.445 -18.756  1.00  0.00     0.000 C 
ENDROOT
BRANCH   1   2
ATOM      2  C   UNL     1      -4.241  -1.695 -19.488  1.00  0.00     0.000 C 
BRANCH   2   3
ATOM      3  C   UNL     1      -4.442  -3.024 -18.736  1.00  0.00     0.000 C 
BRANCH   3   4
ATOM      4  C   UNL     1      -5.921  -3.364 -18.502  1.00  0.00     0.000 C 
BRANCH   4   5
ATOM      5  C   UNL     1      -6.358  -4.546 -19.375  1.00  0.00     0.006 C 
BRANCH   5   6
ATOM      6  C   UNL     1      -7.527  -4.157 -20.284  1.00  0.00     0.053 C 
BRANCH   6   7
ATOM      7  C   UNL     1      -7.099  -3.118 -21.272  1.00  0.00     0.041 C 
ATOM      8  O   UNL     1      -6.321  -3.421 -22.213  1.00  0.00    -0.550 OA
ATOM      9  O   UNL     1      -7.522  -1.802 -21.125  1.00  0.00    -0.550 OA
ENDBRANCH   6   7
ENDBRANCH   5   6
ENDBRANCH   4   5
ENDBRANCH   3   4
ENDBRANCH   2   3
ENDBRANCH   1   2
BRANCH   1  10
ATOM     10  C   UNL     1      -3.885  -0.046 -17.555  1.00  0.00     0.000 C 
BRANCH  10  11
ATOM     11  C   UNL     1      -2.390   0.009 -17.906  1.00  0.00    -0.000 C 
BRANCH  11  12
ATOM     12  C   UNL     1      -1.890   1.441 -18.154  1.00  0.00    -0.000 C 
BRANCH  12  13
ATOM     13  C   UNL     1      -2.908   2.471 -17.652  1.00  0.00    -0.000 C 
BRANCH  13  14
ATOM     14  C   UNL     1      -2.267   3.862 -17.528  1.00  0.00    -0.000 C 
BRANCH  14  15
ATOM     15  C   UNL     1      -3.270   4.999 -17.780  1.00  0.00    -0.003 C 
ATOM     16  C   UNL     1      -3.730   5.677 -16.490  1.00  0.00     0.004 C 
ENDBRANCH  14  15
ENDBRANCH  13  14
ENDBRANCH  12  13
ENDBRANCH  11  12
ENDBRANCH  10  11
ENDBRANCH   1  10
TORSDOF 12
ENDMDL
MODEL 9
REMARK VINA RESULT:    -6.132      4.046      9.166
REMARK INTER + INTRA:         -11.172
REMARK INTER:                 -10.569
REMARK INTRA:                  -0.603
REMARK UNBOUND:                -0.739
REMARK SMILES CCCCCCCCCCCCCC(=O)[O-]
REMARK SMILES IDX 8 1 9 2 10 3 11 4 12 5 13 6 14 7 15 8 16 9 7 10 6 11 5 12
REMARK SMILES IDX 4 13 3 14 2 15 1 16
REMARK H PARENT
REMARK Flexibility Score: inf
ROOT
ATOM      1  C   UNL     1      -4.591  -0.883 -18.797  1.00  0.00     0.000 C 
ENDROOT
BRANCH   1   2
ATOM      2  C   UNL     1      -4.314  -2.383 -18.590  1.00  0.00     0.000 C 
BRANCH   2   3
ATOM      3  C   UNL     1      -5.492  -3.317 -18.920  1.00  0.00     0.000 C 
BRANCH   3   4
ATOM      4  C   UNL     1      -6.643  -2.601 -19.642  1.00  0.00     0.000 C 
BRANCH   4   5
ATOM      5  C   UNL     1      -7.408  -3.568 -20.552  1.00  0.00     0.006 C 
BRANCH   5   6
ATOM      6  C   UNL     1      -7.189  -5.020 -20.119  1.00  0.00     0.053 C 
BRANCH   6   7
ATOM      7  C   UNL     1      -8.457  -5.603 -19.578  1.00  0.00     0.041 C 
ATOM      8  O   UNL     1      -9.058  -5.040 -18.626  1.00  0.00    -0.550 OA
ATOM      9  O   UNL     1      -8.948  -6.797 -20.092  1.00  0.00    -0.550 OA
ENDBRANCH   6   7
ENDBRANCH   5   6
ENDBRANCH   4   5
ENDBRANCH   3   4
ENDBRANCH   2   3
ENDBRANCH   1   2
BRANCH   1  10
ATOM     10  C   UNL     1      -4.046  -0.009 -17.654  1.00  0.00     0.000 C 
BRANCH  10  11
ATOM     11  C   UNL     1      -2.510   0.029 -17.620  1.00  0.00    -0.000 C 
BRANCH  11  12
ATOM     12  C   UNL     1      -1.940   1.401 -18.013  1.00  0.00    -0.000 C 
BRANCH  12  13
ATOM     13  C   UNL     1      -2.891   2.529 -17.595  1.00  0.00    -0.000 C 
BRANCH  13  14
ATOM     14  C   UNL     1      -2.158   3.879 -17.553  1.00  0.00    -0.000 C 
BRANCH  14  15
ATOM     15  C   UNL     1      -3.098   5.069 -17.800  1.00  0.00    -0.003 C 
ATOM     16  C   UNL     1      -3.959   5.403 -16.582  1.00  0.00     0.004 C 
ENDBRANCH  14  15
ENDBRANCH  13  14
ENDBRANCH  12  13
ENDBRANCH  11  12
ENDBRANCH  10  11
ENDBRANCH   1  10
TORSDOF 12
ENDMDL
