MODEL 1
REMARK VINA RESULT:    -6.362      0.000      0.000
REMARK INTER + INTRA:          -6.548
REMARK INTER:                  -6.548
REMARK INTRA:                   0.000
REMARK UNBOUND:                 0.000
REMARK SMILES O=c1ccc2ccc(O)cc2o1
REMARK SMILES IDX 6 1 7 2 8 3 10 4 11 5 5 6 4 7 3 8 2 9 1 10 12 11 9 12
REMARK H PARENT 9 13
REMARK Flexibility Score: inf
ROOT
ATOM      1  C   UNL     1      49.841 -48.427 165.309  1.00  0.00     0.016 A 
ATOM      2  C   UNL     1      48.623 -47.947 164.815  1.00  0.00     0.047 A 
ATOM      3  C   UNL     1      48.492 -46.606 164.435  1.00  0.00     0.119 A 
ATOM      4  C   UNL     1      49.588 -45.738 164.548  1.00  0.00     0.094 A 
ATOM      5  C   UNL     1      50.810 -46.208 165.040  1.00  0.00     0.142 A 
ATOM      6  C   UNL     1      50.938 -47.562 165.424  1.00  0.00     0.018 A 
ATOM      7  C   UNL     1      52.172 -48.003 165.912  1.00  0.00     0.019 A 
ATOM      8  C   UNL     1      53.231 -47.102 166.007  1.00  0.00     0.094 A 
ATOM      9  C   UNL     1      53.032 -45.775 165.609  1.00  0.00     0.336 A 
ATOM     10  O   UNL     1      53.977 -44.947 165.687  1.00  0.00    -0.246 OA
ATOM     11  O   UNL     1      51.848 -45.382 165.147  1.00  0.00    -0.423 OA
ENDROOT
BRANCH   3  12
ATOM     12  O   UNL     1      47.272 -46.148 163.946  1.00  0.00    -0.508 OA
ATOM     13  H   UNL     1      46.477 -46.768 163.839  1.00  0.00     0.293 HD
ENDBRANCH   3  12
TORSDOF 1
ENDMDL
MODEL 2
REMARK VINA RESULT:    -6.280     10.006     13.159
REMARK INTER + INTRA:          -6.464
REMARK INTER:                  -6.464
REMARK INTRA:                   0.000
REMARK UNBOUND:                 0.000
REMARK SMILES O=c1ccc2ccc(O)cc2o1
REMARK SMILES IDX 6 1 7 2 8 3 10 4 11 5 5 6 4 7 3 8 2 9 1 10 12 11 9 12
REMARK H PARENT 9 13
REMARK Flexibility Score: inf
ROOT
ATOM      1  C   UNL     1      39.763 -49.230 162.900  1.00  0.00     0.016 A 
ATOM      2  C   UNL     1      41.020 -48.617 162.934  1.00  0.00     0.047 A 
ATOM      3  C   UNL     1      41.252 -47.435 162.219  1.00  0.00     0.119 A 
ATOM      4  C   UNL     1      40.219 -46.861 161.465  1.00  0.00     0.094 A 
ATOM      5  C   UNL     1      38.957 -47.466 161.424  1.00  0.00     0.142 A 
ATOM      6  C   UNL     1      38.728 -48.659 162.145  1.00  0.00     0.018 A 
ATOM      7  C   UNL     1      37.457 -49.240 162.086  1.00  0.00     0.019 A 
ATOM      8  C   UNL     1      36.463 -48.633 161.321  1.00  0.00     0.094 A 
ATOM      9  C   UNL     1      36.762 -47.452 160.632  1.00  0.00     0.336 A 
ATOM     10  O   UNL     1      35.877 -46.889 159.936  1.00  0.00    -0.246 OA
ATOM     11  O   UNL     1      37.979 -46.919 160.706  1.00  0.00    -0.423 OA
ENDROOT
BRANCH   3  12
ATOM     12  O   UNL     1      42.510 -46.841 162.267  1.00  0.00    -0.508 OA
ATOM     13  H   UNL     1      42.698 -45.960 161.803  1.00  0.00     0.293 HD
ENDBRANCH   3  12
TORSDOF 1
ENDMDL
MODEL 3
REMARK VINA RESULT:    -6.268      1.716      2.361
REMARK INTER + INTRA:          -6.451
REMARK INTER:                  -6.451
REMARK INTRA:                   0.000
REMARK UNBOUND:                 0.000
REMARK SMILES O=c1ccc2ccc(O)cc2o1
REMARK SMILES IDX 6 1 7 2 8 3 10 4 11 5 5 6 4 7 3 8 2 9 1 10 12 11 9 12
REMARK H PARENT 9 13
REMARK Flexibility Score: inf
ROOT
ATOM      1  C   UNL     1      49.746 -46.103 164.796  1.00  0.00     0.016 A 
ATOM      2  C   UNL     1      48.641 -46.956 164.695  1.00  0.00     0.047 A 
ATOM      3  C   UNL     1      48.748 -48.300 165.076  1.00  0.00     0.119 A 
ATOM      4  C   UNL     1      49.966 -48.794 165.562  1.00  0.00     0.094 A 
ATOM      5  C   UNL     1      51.077 -47.948 165.667  1.00  0.00     0.142 A 
ATOM      6  C   UNL     1      50.966 -46.594 165.281  1.00  0.00     0.018 A 
ATOM      7  C   UNL     1      52.092 -45.773 165.398  1.00  0.00     0.019 A 
ATOM      8  C   UNL     1      53.282 -46.311 165.886  1.00  0.00     0.094 A 
ATOM      9  C   UNL     1      53.319 -47.662 166.249  1.00  0.00     0.336 A 
ATOM     10  O   UNL     1      54.384 -48.165 166.692  1.00  0.00    -0.246 OA
ATOM     11  O   UNL     1      52.232 -48.421 166.128  1.00  0.00    -0.423 OA
ENDROOT
BRANCH   3  12
ATOM     12  O   UNL     1      47.637 -49.132 164.967  1.00  0.00    -0.508 OA
ATOM     13  H   UNL     1      46.926 -49.163 165.688  1.00  0.00     0.293 HD
ENDBRANCH   3  12
TORSDOF 1
ENDMDL
MODEL 4
REMARK VINA RESULT:    -6.127      9.919     13.125
REMARK INTER + INTRA:          -6.306
REMARK INTER:                  -6.306
REMARK INTRA:                   0.000
REMARK UNBOUND:                 0.000
REMARK SMILES O=c1ccc2ccc(O)cc2o1
REMARK SMILES IDX 6 1 7 2 8 3 10 4 11 5 5 6 4 7 3 8 2 9 1 10 12 11 9 12
REMARK H PARENT 9 13
REMARK Flexibility Score: inf
ROOT
ATOM      1  C   UNL     1      40.455 -47.374 161.744  1.00  0.00     0.016 A 
ATOM      2  C   UNL     1      41.513 -47.910 162.488  1.00  0.00     0.047 A 
ATOM      3  C   UNL     1      41.325 -49.070 163.250  1.00  0.00     0.119 A 
ATOM      4  C   UNL     1      40.072 -49.699 163.269  1.00  0.00     0.094 A 
ATOM      5  C   UNL     1      39.008 -49.170 162.529  1.00  0.00     0.142 A 
ATOM      6  C   UNL     1      39.200 -48.000 161.762  1.00  0.00     0.018 A 
ATOM      7  C   UNL     1      38.119 -47.495 161.033  1.00  0.00     0.019 A 
ATOM      8  C   UNL     1      36.892 -48.155 161.085  1.00  0.00     0.094 A 
ATOM      9  C   UNL     1      36.775 -49.309 161.867  1.00  0.00     0.336 A 
ATOM     10  O   UNL     1      35.675 -49.920 161.926  1.00  0.00    -0.246 OA
ATOM     11  O   UNL     1      37.820 -49.769 162.551  1.00  0.00    -0.423 OA
ENDROOT
BRANCH   3  12
ATOM     12  O   UNL     1      42.390 -49.587 163.982  1.00  0.00    -0.508 OA
ATOM     13  H   UNL     1      43.323 -49.646 163.591  1.00  0.00     0.293 HD
ENDBRANCH   3  12
TORSDOF 1
ENDMDL
MODEL 5
REMARK VINA RESULT:    -6.049      3.568      5.460
REMARK INTER + INTRA:          -6.226
REMARK INTER:                  -6.226
REMARK INTRA:                   0.000
REMARK UNBOUND:                 0.000
REMARK SMILES O=c1ccc2ccc(O)cc2o1
REMARK SMILES IDX 6 1 7 2 8 3 10 4 11 5 5 6 4 7 3 8 2 9 1 10 12 11 9 12
REMARK H PARENT 9 13
REMARK Flexibility Score: inf
ROOT
ATOM      1  C   UNL     1      44.404 -46.875 164.727  1.00  0.00     0.016 A 
ATOM      2  C   UNL     1      43.470 -47.885 164.471  1.00  0.00     0.047 A 
ATOM      3  C   UNL     1      43.894 -49.194 164.216  1.00  0.00     0.119 A 
ATOM      4  C   UNL     1      45.264 -49.498 164.219  1.00  0.00     0.094 A 
ATOM      5  C   UNL     1      46.206 -48.495 164.474  1.00  0.00     0.142 A 
ATOM      6  C   UNL     1      45.774 -47.175 164.729  1.00  0.00     0.018 A 
ATOM      7  C   UNL     1      46.738 -46.194 164.981  1.00  0.00     0.019 A 
ATOM      8  C   UNL     1      48.088 -46.544 164.972  1.00  0.00     0.094 A 
ATOM      9  C   UNL     1      48.443 -47.873 164.711  1.00  0.00     0.336 A 
ATOM     10  O   UNL     1      49.656 -48.208 164.698  1.00  0.00    -0.246 OA
ATOM     11  O   UNL     1      47.505 -48.786 164.475  1.00  0.00    -0.423 OA
ENDROOT
BRANCH   3  12
ATOM     12  O   UNL     1      42.949 -50.184 163.964  1.00  0.00    -0.508 OA
ATOM     13  H   UNL     1      42.731 -50.897 164.651  1.00  0.00     0.293 HD
ENDBRANCH   3  12
TORSDOF 1
ENDMDL
MODEL 6
REMARK VINA RESULT:    -6.049      5.119      7.275
REMARK INTER + INTRA:          -6.226
REMARK INTER:                  -6.226
REMARK INTRA:                   0.000
REMARK UNBOUND:                 0.000
REMARK SMILES O=c1ccc2ccc(O)cc2o1
REMARK SMILES IDX 6 1 7 2 8 3 10 4 11 5 5 6 4 7 3 8 2 9 1 10 12 11 9 12
REMARK H PARENT 9 13
REMARK Flexibility Score: inf
ROOT
ATOM      1  C   UNL     1      42.677 -47.995 162.867  1.00  0.00     0.016 A 
ATOM      2  C   UNL     1      41.697 -48.568 163.686  1.00  0.00     0.047 A 
ATOM      3  C   UNL     1      41.861 -48.590 165.077  1.00  0.00     0.119 A 
ATOM      4  C   UNL     1      43.012 -48.035 165.654  1.00  0.00     0.094 A 
ATOM      5  C   UNL     1      43.998 -47.459 164.843  1.00  0.00     0.142 A 
ATOM      6  C   UNL     1      43.829 -47.440 163.441  1.00  0.00     0.018 A 
ATOM      7  C   UNL     1      44.830 -46.857 162.657  1.00  0.00     0.019 A 
ATOM      8  C   UNL     1      45.957 -46.319 163.276  1.00  0.00     0.094 A 
ATOM      9  C   UNL     1      46.057 -46.375 164.671  1.00  0.00     0.336 A 
ATOM     10  O   UNL     1      47.067 -45.894 165.249  1.00  0.00    -0.246 OA
ATOM     11  O   UNL     1      45.089 -46.934 165.393  1.00  0.00    -0.423 OA
ENDROOT
BRANCH   3  12
ATOM     12  O   UNL     1      40.875 -49.165 165.874  1.00  0.00    -0.508 OA
ATOM     13  H   UNL     1      39.894 -48.948 165.742  1.00  0.00     0.293 HD
ENDBRANCH   3  12
TORSDOF 1
ENDMDL
MODEL 7
REMARK VINA RESULT:    -6.027      5.835      9.107
REMARK INTER + INTRA:          -6.203
REMARK INTER:                  -6.203
REMARK INTRA:                   0.000
REMARK UNBOUND:                 0.000
REMARK SMILES O=c1ccc2ccc(O)cc2o1
REMARK SMILES IDX 6 1 7 2 8 3 10 4 11 5 5 6 4 7 3 8 2 9 1 10 12 11 9 12
REMARK H PARENT 9 13
REMARK Flexibility Score: inf
ROOT
ATOM      1  C   UNL     1      44.898 -47.373 162.616  1.00  0.00     0.016 A 
ATOM      2  C   UNL     1      45.931 -47.896 163.402  1.00  0.00     0.047 A 
ATOM      3  C   UNL     1      45.664 -48.890 164.352  1.00  0.00     0.119 A 
ATOM      4  C   UNL     1      44.356 -49.366 164.516  1.00  0.00     0.094 A 
ATOM      5  C   UNL     1      43.316 -48.850 163.734  1.00  0.00     0.142 A 
ATOM      6  C   UNL     1      43.588 -47.846 162.779  1.00  0.00     0.018 A 
ATOM      7  C   UNL     1      42.529 -47.350 162.012  1.00  0.00     0.019 A 
ATOM      8  C   UNL     1      41.245 -47.854 162.213  1.00  0.00     0.094 A 
ATOM      9  C   UNL     1      41.049 -48.848 163.178  1.00  0.00     0.336 A 
ATOM     10  O   UNL     1      39.897 -49.316 163.374  1.00  0.00    -0.246 OA
ATOM     11  O   UNL     1      42.075 -49.303 163.893  1.00  0.00    -0.423 OA
ENDROOT
BRANCH   3  12
ATOM     12  O   UNL     1      46.706 -49.397 165.124  1.00  0.00    -0.508 OA
ATOM     13  H   UNL     1      46.898 -50.391 165.166  1.00  0.00     0.293 HD
ENDBRANCH   3  12
TORSDOF 1
ENDMDL
MODEL 8
REMARK VINA RESULT:    -5.966      3.279      5.047
REMARK INTER + INTRA:          -6.140
REMARK INTER:                  -6.140
REMARK INTRA:                   0.000
REMARK UNBOUND:                 0.000
REMARK SMILES O=c1ccc2ccc(O)cc2o1
REMARK SMILES IDX 6 1 7 2 8 3 10 4 11 5 5 6 4 7 3 8 2 9 1 10 12 11 9 12
REMARK H PARENT 9 13
REMARK Flexibility Score: inf
ROOT
ATOM      1  C   UNL     1      45.317 -49.523 164.194  1.00  0.00     0.016 A 
ATOM      2  C   UNL     1      43.958 -49.224 164.344  1.00  0.00     0.047 A 
ATOM      3  C   UNL     1      43.551 -47.926 164.674  1.00  0.00     0.119 A 
ATOM      4  C   UNL     1      44.509 -46.918 164.856  1.00  0.00     0.094 A 
ATOM      5  C   UNL     1      45.870 -47.207 164.708  1.00  0.00     0.142 A 
ATOM      6  C   UNL     1      46.277 -48.518 164.376  1.00  0.00     0.018 A 
ATOM      7  C   UNL     1      47.644 -48.776 164.234  1.00  0.00     0.019 A 
ATOM      8  C   UNL     1      48.559 -47.742 164.426  1.00  0.00     0.094 A 
ATOM      9  C   UNL     1      48.083 -46.467 164.754  1.00  0.00     0.336 A 
ATOM     10  O   UNL     1      48.893 -45.520 164.931  1.00  0.00    -0.246 OA
ATOM     11  O   UNL     1      46.777 -46.248 164.882  1.00  0.00    -0.423 OA
ENDROOT
BRANCH   3  12
ATOM     12  O   UNL     1      42.194 -47.650 164.819  1.00  0.00    -0.508 OA
ATOM     13  H   UNL     1      41.498 -48.387 164.802  1.00  0.00     0.293 HD
ENDBRANCH   3  12
TORSDOF 1
ENDMDL
MODEL 9
REMARK VINA RESULT:    -5.949      5.465      8.773
REMARK INTER + INTRA:          -6.123
REMARK INTER:                  -6.123
REMARK INTRA:                   0.000
REMARK UNBOUND:                 0.000
REMARK SMILES O=c1ccc2ccc(O)cc2o1
REMARK SMILES IDX 6 1 7 2 8 3 10 4 11 5 5 6 4 7 3 8 2 9 1 10 12 11 9 12
REMARK H PARENT 9 13
REMARK Flexibility Score: inf
ROOT
ATOM      1  C   UNL     1      44.445 -48.555 164.734  1.00  0.00     0.016 A 
ATOM      2  C   UNL     1      45.614 -47.793 164.616  1.00  0.00     0.047 A 
ATOM      3  C   UNL     1      45.709 -46.788 163.647  1.00  0.00     0.119 A 
ATOM      4  C   UNL     1      44.628 -46.540 162.788  1.00  0.00     0.094 A 
ATOM      5  C   UNL     1      43.455 -47.296 162.898  1.00  0.00     0.142 A 
ATOM      6  C   UNL     1      43.363 -48.310 163.877  1.00  0.00     0.018 A 
ATOM      7  C   UNL     1      42.178 -49.048 163.963  1.00  0.00     0.019 A 
ATOM      8  C   UNL     1      41.132 -48.766 163.087  1.00  0.00     0.094 A 
ATOM      9  C   UNL     1      41.293 -47.747 162.142  1.00  0.00     0.336 A 
ATOM     10  O   UNL     1      40.359 -47.476 161.342  1.00  0.00    -0.246 OA
ATOM     11  O   UNL     1      42.431 -47.059 162.082  1.00  0.00    -0.423 OA
ENDROOT
BRANCH   3  12
ATOM     12  O   UNL     1      46.880 -46.042 163.546  1.00  0.00    -0.508 OA
ATOM     13  H   UNL     1      47.336 -45.659 164.366  1.00  0.00     0.293 HD
ENDBRANCH   3  12
TORSDOF 1
ENDMDL
