MODEL 1
REMARK VINA RESULT:    -6.867      0.000      0.000
REMARK INTER + INTRA:          -8.712
REMARK INTER:                  -8.272
REMARK INTRA:                  -0.439
REMARK UNBOUND:                -0.439
REMARK SMILES O=c1c(O)c(-c2ccc(O)cc2O)oc2cc(O)cc(O)c12
REMARK SMILES IDX 5 1 3 2 2 3 1 4 22 5 20 6 19 7 17 8 16 9 15 10 14 11 6 12
REMARK SMILES IDX 8 13 7 14 9 15 11 16 12 17 10 18 13 20 4 22 21 24 18 26
REMARK H PARENT 10 19 13 21 4 23 21 25 18 27
REMARK Flexibility Score: inf
ROOT
ATOM      1  C   UNL     1       2.732  -0.267 -12.074  1.00  0.00     0.184 A 
ATOM      2  C   UNL     1       1.643   0.621 -12.097  1.00  0.00     0.208 A 
ATOM      3  C   UNL     1       1.412   1.385 -13.252  1.00  0.00     0.238 A 
ATOM      4  O   UNL     1       0.469   2.219 -13.247  1.00  0.00    -0.285 OA
ATOM      5  C   UNL     1       2.260   1.237 -14.377  1.00  0.00     0.111 A 
ATOM      6  C   UNL     1       2.097   1.931 -15.613  1.00  0.00     0.134 A 
ATOM      7  C   UNL     1       3.070   1.802 -16.611  1.00  0.00     0.093 A 
ATOM      8  C   UNL     1       4.168   0.955 -16.442  1.00  0.00     0.123 A 
ATOM      9  C   UNL     1       4.306   0.228 -15.262  1.00  0.00     0.094 A 
ATOM     10  C   UNL     1       3.370   0.364 -14.233  1.00  0.00     0.146 A 
ATOM     11  O   UNL     1       3.545  -0.338 -13.120  1.00  0.00    -0.451 OA
ENDROOT
BRANCH   1  12
ATOM     12  C   UNL     1       3.019  -1.120 -10.897  1.00  0.00     0.063 A 
ATOM     13  C   UNL     1       2.407  -2.961  -9.428  1.00  0.00     0.047 A 
ATOM     14  C   UNL     1       2.125  -2.138 -10.520  1.00  0.00     0.020 A 
ATOM     15  C   UNL     1       3.590  -2.789  -8.704  1.00  0.00     0.119 A 
ATOM     16  C   UNL     1       4.494  -1.788  -9.079  1.00  0.00     0.093 A 
ATOM     17  C   UNL     1       4.217  -0.955 -10.173  1.00  0.00     0.130 A 
BRANCH  15  18
ATOM     18  O   UNL     1       3.858  -3.618  -7.617  1.00  0.00    -0.508 OA
ATOM     19  H   UNL     1       3.155  -3.816  -6.915  1.00  0.00     0.293 HD
ENDBRANCH  15  18
BRANCH  17  20
ATOM     20  O   UNL     1       5.124   0.043 -10.531  1.00  0.00    -0.507 OA
ATOM     21  H   UNL     1       4.978   0.628 -11.346  1.00  0.00     0.293 HD
ENDBRANCH  17  20
ENDBRANCH   1  12
BRANCH   2  22
ATOM     22  O   UNL     1       0.826   0.759 -10.972  1.00  0.00    -0.502 OA
ATOM     23  H   UNL     1       0.387   1.637 -10.723  1.00  0.00     0.293 HD
ENDBRANCH   2  22
BRANCH   6  24
ATOM     24  O   UNL     1       0.991   2.730 -15.919  1.00  0.00    -0.507 OA
ATOM     25  H   UNL     1       1.006   3.736 -15.971  1.00  0.00     0.293 HD
ENDBRANCH   6  24
BRANCH   8  26
ATOM     26  O   UNL     1       5.125   0.821 -17.447  1.00  0.00    -0.508 OA
ATOM     27  H   UNL     1       5.644   1.620 -17.793  1.00  0.00     0.293 HD
ENDBRANCH   8  26
TORSDOF 6
ENDMDL
MODEL 2
REMARK VINA RESULT:    -6.698      1.741      6.759
REMARK INTER + INTRA:          -8.508
REMARK INTER:                  -8.274
REMARK INTRA:                  -0.234
REMARK UNBOUND:                -0.439
REMARK SMILES O=c1c(O)c(-c2ccc(O)cc2O)oc2cc(O)cc(O)c12
REMARK SMILES IDX 5 1 3 2 2 3 1 4 22 5 20 6 19 7 17 8 16 9 15 10 14 11 6 12
REMARK SMILES IDX 8 13 7 14 9 15 11 16 12 17 10 18 13 20 4 22 21 24 18 26
REMARK H PARENT 10 19 13 21 4 23 21 25 18 27
REMARK Flexibility Score: inf
ROOT
ATOM      1  C   UNL     1       2.882  -0.703 -11.610  1.00  0.00     0.184 A 
ATOM      2  C   UNL     1       2.324  -0.112 -10.464  1.00  0.00     0.208 A 
ATOM      3  C   UNL     1       2.226  -0.871  -9.287  1.00  0.00     0.238 A 
ATOM      4  O   UNL     1       1.674  -0.355  -8.279  1.00  0.00    -0.285 OA
ATOM      5  C   UNL     1       2.707  -2.202  -9.264  1.00  0.00     0.111 A 
ATOM      6  C   UNL     1       2.695  -3.050  -8.115  1.00  0.00     0.134 A 
ATOM      7  C   UNL     1       3.079  -4.390  -8.242  1.00  0.00     0.093 A 
ATOM      8  C   UNL     1       3.534  -4.897  -9.462  1.00  0.00     0.123 A 
ATOM      9  C   UNL     1       3.605  -4.063 -10.575  1.00  0.00     0.094 A 
ATOM     10  C   UNL     1       3.195  -2.730 -10.488  1.00  0.00     0.146 A 
ATOM     11  O   UNL     1       3.268  -1.972 -11.576  1.00  0.00    -0.451 OA
ENDROOT
BRANCH   1  12
ATOM     12  C   UNL     1       3.037   0.047 -12.879  1.00  0.00     0.063 A 
ATOM     13  C   UNL     1       4.462   0.970 -14.623  1.00  0.00     0.047 A 
ATOM     14  C   UNL     1       4.316   0.288 -13.413  1.00  0.00     0.020 A 
ATOM     15  C   UNL     1       3.337   1.412 -15.322  1.00  0.00     0.119 A 
ATOM     16  C   UNL     1       2.058   1.167 -14.807  1.00  0.00     0.093 A 
ATOM     17  C   UNL     1       1.902   0.484 -13.591  1.00  0.00     0.130 A 
BRANCH  15  18
ATOM     18  O   UNL     1       3.499   2.091 -16.528  1.00  0.00    -0.508 OA
ATOM     19  H   UNL     1       4.415   2.241 -16.932  1.00  0.00     0.293 HD
ENDBRANCH  15  18
BRANCH  17  20
ATOM     20  O   UNL     1       0.622   0.252 -13.086  1.00  0.00    -0.507 OA
ATOM     21  H   UNL     1      -0.209   0.535 -13.591  1.00  0.00     0.293 HD
ENDBRANCH  17  20
ENDBRANCH   1  12
BRANCH   2  22
ATOM     22  O   UNL     1       1.844   1.199 -10.513  1.00  0.00    -0.502 OA
ATOM     23  H   UNL     1       2.436   1.987 -10.747  1.00  0.00     0.293 HD
ENDBRANCH   2  22
BRANCH   6  24
ATOM     24  O   UNL     1       2.345  -2.619  -6.831  1.00  0.00    -0.507 OA
ATOM     25  H   UNL     1       1.400  -2.540  -6.490  1.00  0.00     0.293 HD
ENDBRANCH   6  24
BRANCH   8  26
ATOM     26  O   UNL     1       3.928  -6.229  -9.576  1.00  0.00    -0.508 OA
ATOM     27  H   UNL     1       4.616  -6.521 -10.260  1.00  0.00     0.293 HD
ENDBRANCH   8  26
TORSDOF 6
ENDMDL
MODEL 3
REMARK VINA RESULT:    -6.491      2.753      7.348
REMARK INTER + INTRA:          -8.259
REMARK INTER:                  -7.833
REMARK INTRA:                  -0.426
REMARK UNBOUND:                -0.439
REMARK SMILES O=c1c(O)c(-c2ccc(O)cc2O)oc2cc(O)cc(O)c12
REMARK SMILES IDX 5 1 3 2 2 3 1 4 22 5 20 6 19 7 17 8 16 9 15 10 14 11 6 12
REMARK SMILES IDX 8 13 7 14 9 15 11 16 12 17 10 18 13 20 4 22 21 24 18 26
REMARK H PARENT 10 19 13 21 4 23 21 25 18 27
REMARK Flexibility Score: inf
ROOT
ATOM      1  C   UNL     1       2.498  -0.705 -10.455  1.00  0.00     0.184 A 
ATOM      2  C   UNL     1       2.463  -2.071 -10.127  1.00  0.00     0.208 A 
ATOM      3  C   UNL     1       2.094  -2.448  -8.826  1.00  0.00     0.238 A 
ATOM      4  O   UNL     1       2.119  -3.670  -8.521  1.00  0.00    -0.285 OA
ATOM      5  C   UNL     1       1.745  -1.458  -7.876  1.00  0.00     0.111 A 
ATOM      6  C   UNL     1       1.317  -1.728  -6.541  1.00  0.00     0.134 A 
ATOM      7  C   UNL     1       1.121  -0.666  -5.651  1.00  0.00     0.093 A 
ATOM      8  C   UNL     1       1.274   0.659  -6.065  1.00  0.00     0.123 A 
ATOM      9  C   UNL     1       1.633   0.936  -7.382  1.00  0.00     0.094 A 
ATOM     10  C   UNL     1       1.872  -0.104  -8.284  1.00  0.00     0.146 A 
ATOM     11  O   UNL     1       2.225   0.203  -9.527  1.00  0.00    -0.451 OA
ENDROOT
BRANCH   1  12
ATOM     12  C   UNL     1       2.856  -0.238 -11.815  1.00  0.00     0.063 A 
ATOM     13  C   UNL     1       4.533   0.167 -13.533  1.00  0.00     0.047 A 
ATOM     14  C   UNL     1       4.197  -0.247 -12.242  1.00  0.00     0.020 A 
ATOM     15  C   UNL     1       3.537   0.585 -14.419  1.00  0.00     0.119 A 
ATOM     16  C   UNL     1       2.198   0.586 -14.010  1.00  0.00     0.093 A 
ATOM     17  C   UNL     1       1.852   0.174 -12.714  1.00  0.00     0.130 A 
BRANCH  15  18
ATOM     18  O   UNL     1       3.888   0.995 -15.704  1.00  0.00    -0.508 OA
ATOM     19  H   UNL     1       3.337   1.677 -16.211  1.00  0.00     0.293 HD
ENDBRANCH  15  18
BRANCH  17  20
ATOM     20  O   UNL     1       0.514   0.186 -12.317  1.00  0.00    -0.507 OA
ATOM     21  H   UNL     1      -0.229  -0.104 -12.941  1.00  0.00     0.293 HD
ENDBRANCH  17  20
ENDBRANCH   1  12
BRANCH   2  22
ATOM     22  O   UNL     1       2.824  -3.030 -11.076  1.00  0.00    -0.502 OA
ATOM     23  H   UNL     1       2.941  -4.009 -10.843  1.00  0.00     0.293 HD
ENDBRANCH   2  22
BRANCH   6  24
ATOM     24  O   UNL     1       1.047  -3.010  -6.053  1.00  0.00    -0.507 OA
ATOM     25  H   UNL     1       1.719  -3.603  -5.592  1.00  0.00     0.293 HD
ENDBRANCH   6  24
BRANCH   8  26
ATOM     26  O   UNL     1       1.062   1.712  -5.176  1.00  0.00    -0.508 OA
ATOM     27  H   UNL     1       1.810   2.343  -4.914  1.00  0.00     0.293 HD
ENDBRANCH   8  26
TORSDOF 6
ENDMDL
MODEL 4
REMARK VINA RESULT:    -6.454      1.637      6.494
REMARK INTER + INTRA:          -8.214
REMARK INTER:                  -7.975
REMARK INTRA:                  -0.239
REMARK UNBOUND:                -0.439
REMARK SMILES O=c1c(O)c(-c2ccc(O)cc2O)oc2cc(O)cc(O)c12
REMARK SMILES IDX 5 1 3 2 2 3 1 4 22 5 20 6 19 7 17 8 16 9 15 10 14 11 6 12
REMARK SMILES IDX 8 13 7 14 9 15 11 16 12 17 10 18 13 20 4 22 21 24 18 26
REMARK H PARENT 10 19 13 21 4 23 21 25 18 27
REMARK Flexibility Score: inf
ROOT
ATOM      1  C   UNL     1       2.461   0.064 -11.892  1.00  0.00     0.184 A 
ATOM      2  C   UNL     1       1.726   0.888 -11.023  1.00  0.00     0.208 A 
ATOM      3  C   UNL     1       1.509   0.462  -9.703  1.00  0.00     0.238 A 
ATOM      4  O   UNL     1       0.802   1.178  -8.945  1.00  0.00    -0.285 OA
ATOM      5  C   UNL     1       2.046  -0.772  -9.263  1.00  0.00     0.111 A 
ATOM      6  C   UNL     1       1.921  -1.284  -7.936  1.00  0.00     0.134 A 
ATOM      7  C   UNL     1       2.382  -2.574  -7.648  1.00  0.00     0.093 A 
ATOM      8  C   UNL     1       3.021  -3.345  -8.622  1.00  0.00     0.123 A 
ATOM      9  C   UNL     1       3.200  -2.832  -9.904  1.00  0.00     0.094 A 
ATOM     10  C   UNL     1       2.718  -1.562 -10.232  1.00  0.00     0.146 A 
ATOM     11  O   UNL     1       2.899  -1.115 -11.469  1.00  0.00    -0.451 OA
ENDROOT
BRANCH   1  12
ATOM     12  C   UNL     1       2.748   0.463 -13.290  1.00  0.00     0.063 A 
ATOM     13  C   UNL     1       1.977   1.279 -15.450  1.00  0.00     0.047 A 
ATOM     14  C   UNL     1       1.706   0.876 -14.141  1.00  0.00     0.020 A 
ATOM     15  C   UNL     1       3.291   1.285 -15.927  1.00  0.00     0.119 A 
ATOM     16  C   UNL     1       4.337   0.889 -15.084  1.00  0.00     0.093 A 
ATOM     17  C   UNL     1       4.073   0.481 -13.768  1.00  0.00     0.130 A 
BRANCH  15  18
ATOM     18  O   UNL     1       3.546   1.690 -17.235  1.00  0.00    -0.508 OA
ATOM     19  H   UNL     1       4.320   1.309 -17.765  1.00  0.00     0.293 HD
ENDBRANCH  15  18
BRANCH  17  20
ATOM     20  O   UNL     1       5.124   0.082 -12.942  1.00  0.00    -0.507 OA
ATOM     21  H   UNL     1       5.123   0.274 -11.948  1.00  0.00     0.293 HD
ENDBRANCH  17  20
ENDBRANCH   1  12
BRANCH   2  22
ATOM     22  O   UNL     1       1.195   2.096 -11.482  1.00  0.00    -0.502 OA
ATOM     23  H   UNL     1       1.761   2.803 -11.934  1.00  0.00     0.293 HD
ENDBRANCH   2  22
BRANCH   6  24
ATOM     24  O   UNL     1       1.383  -0.561  -6.868  1.00  0.00    -0.507 OA
ATOM     25  H   UNL     1       1.873   0.153  -6.353  1.00  0.00     0.293 HD
ENDBRANCH   6  24
BRANCH   8  26
ATOM     26  O   UNL     1       3.491  -4.624  -8.322  1.00  0.00    -0.508 OA
ATOM     27  H   UNL     1       2.858  -5.405  -8.202  1.00  0.00     0.293 HD
ENDBRANCH   8  26
TORSDOF 6
ENDMDL
MODEL 5
REMARK VINA RESULT:    -6.424      4.247      5.789
REMARK INTER + INTRA:          -8.178
REMARK INTER:                  -7.702
REMARK INTRA:                  -0.477
REMARK UNBOUND:                -0.439
REMARK SMILES O=c1c(O)c(-c2ccc(O)cc2O)oc2cc(O)cc(O)c12
REMARK SMILES IDX 5 1 3 2 2 3 1 4 22 5 20 6 19 7 17 8 16 9 15 10 14 11 6 12
REMARK SMILES IDX 8 13 7 14 9 15 11 16 12 17 10 18 13 20 4 22 21 24 18 26
REMARK H PARENT 10 19 13 21 4 23 21 25 18 27
REMARK Flexibility Score: inf
ROOT
ATOM      1  C   UNL     1       1.157   0.902  -8.132  1.00  0.00     0.184 A 
ATOM      2  C   UNL     1       2.111  -0.107  -8.348  1.00  0.00     0.208 A 
ATOM      3  C   UNL     1       2.506  -0.399  -9.663  1.00  0.00     0.238 A 
ATOM      4  O   UNL     1       3.319  -1.343  -9.854  1.00  0.00    -0.285 OA
ATOM      5  C   UNL     1       1.960   0.334 -10.743  1.00  0.00     0.111 A 
ATOM      6  C   UNL     1       2.318   0.150 -12.113  1.00  0.00     0.134 A 
ATOM      7  C   UNL     1       1.619   0.844 -13.108  1.00  0.00     0.093 A 
ATOM      8  C   UNL     1       0.620   1.763 -12.779  1.00  0.00     0.123 A 
ATOM      9  C   UNL     1       0.303   1.994 -11.443  1.00  0.00     0.094 A 
ATOM     10  C   UNL     1       0.957   1.290 -10.429  1.00  0.00     0.146 A 
ATOM     11  O   UNL     1       0.618   1.531  -9.169  1.00  0.00    -0.451 OA
ENDROOT
BRANCH   1  12
ATOM     12  C   UNL     1       0.712   1.278  -6.769  1.00  0.00     0.063 A 
ATOM     13  C   UNL     1       1.132   2.392  -4.646  1.00  0.00     0.047 A 
ATOM     14  C   UNL     1       1.560   2.013  -5.921  1.00  0.00     0.020 A 
ATOM     15  C   UNL     1      -0.150   2.053  -4.204  1.00  0.00     0.119 A 
ATOM     16  C   UNL     1      -1.006   1.333  -5.046  1.00  0.00     0.093 A 
ATOM     17  C   UNL     1      -0.584   0.946  -6.327  1.00  0.00     0.130 A 
BRANCH  15  18
ATOM     18  O   UNL     1      -0.563   2.439  -2.931  1.00  0.00    -0.508 OA
ATOM     19  H   UNL     1      -1.241   3.179  -2.796  1.00  0.00     0.293 HD
ENDBRANCH  15  18
BRANCH  17  20
ATOM     20  O   UNL     1      -1.446   0.223  -7.152  1.00  0.00    -0.507 OA
ATOM     21  H   UNL     1      -1.916   0.654  -7.939  1.00  0.00     0.293 HD
ENDBRANCH  17  20
ENDBRANCH   1  12
BRANCH   2  22
ATOM     22  O   UNL     1       2.627  -0.827  -7.268  1.00  0.00    -0.502 OA
ATOM     23  H   UNL     1       2.245  -1.718  -6.974  1.00  0.00     0.293 HD
ENDBRANCH   2  22
BRANCH   6  24
ATOM     24  O   UNL     1       3.362  -0.674 -12.542  1.00  0.00    -0.507 OA
ATOM     25  H   UNL     1       4.005  -0.447 -13.284  1.00  0.00     0.293 HD
ENDBRANCH   6  24
BRANCH   8  26
ATOM     26  O   UNL     1      -0.061   2.460 -13.777  1.00  0.00    -0.508 OA
ATOM     27  H   UNL     1      -0.993   2.192 -14.068  1.00  0.00     0.293 HD
ENDBRANCH   8  26
TORSDOF 6
ENDMDL
MODEL 6
REMARK VINA RESULT:    -6.388      4.777      7.263
REMARK INTER + INTRA:          -8.135
REMARK INTER:                  -7.658
REMARK INTRA:                  -0.477
REMARK UNBOUND:                -0.439
REMARK SMILES O=c1c(O)c(-c2ccc(O)cc2O)oc2cc(O)cc(O)c12
REMARK SMILES IDX 5 1 3 2 2 3 1 4 22 5 20 6 19 7 17 8 16 9 15 10 14 11 6 12
REMARK SMILES IDX 8 13 7 14 9 15 11 16 12 17 10 18 13 20 4 22 21 24 18 26
REMARK H PARENT 10 19 13 21 4 23 21 25 18 27
REMARK Flexibility Score: inf
ROOT
ATOM      1  C   UNL     1      -1.190   2.545  -9.581  1.00  0.00     0.184 A 
ATOM      2  C   UNL     1      -0.409   2.008  -8.543  1.00  0.00     0.208 A 
ATOM      3  C   UNL     1       0.755   1.293  -8.868  1.00  0.00     0.238 A 
ATOM      4  O   UNL     1       1.420   0.766  -7.938  1.00  0.00    -0.285 OA
ATOM      5  C   UNL     1       1.135   1.142 -10.224  1.00  0.00     0.111 A 
ATOM      6  C   UNL     1       2.315   0.472 -10.666  1.00  0.00     0.134 A 
ATOM      7  C   UNL     1       2.523   0.273 -12.036  1.00  0.00     0.093 A 
ATOM      8  C   UNL     1       1.627   0.776 -12.982  1.00  0.00     0.123 A 
ATOM      9  C   UNL     1       0.503   1.483 -12.563  1.00  0.00     0.094 A 
ATOM     10  C   UNL     1       0.248   1.666 -11.201  1.00  0.00     0.146 A 
ATOM     11  O   UNL     1      -0.841   2.336 -10.844  1.00  0.00    -0.451 OA
ENDROOT
BRANCH   1  12
ATOM     12  C   UNL     1      -2.417   3.330  -9.309  1.00  0.00     0.063 A 
ATOM     13  C   UNL     1      -3.482   5.388  -8.562  1.00  0.00     0.047 A 
ATOM     14  C   UNL     1      -2.327   4.636  -8.793  1.00  0.00     0.020 A 
ATOM     15  C   UNL     1      -4.739   4.853  -8.852  1.00  0.00     0.119 A 
ATOM     16  C   UNL     1      -4.839   3.560  -9.379  1.00  0.00     0.093 A 
ATOM     17  C   UNL     1      -3.685   2.797  -9.612  1.00  0.00     0.130 A 
BRANCH  15  18
ATOM     18  O   UNL     1      -5.882   5.615  -8.617  1.00  0.00    -0.508 OA
ATOM     19  H   UNL     1      -6.040   6.071  -7.726  1.00  0.00     0.293 HD
ENDBRANCH  15  18
BRANCH  17  20
ATOM     20  O   UNL     1      -3.800   1.507 -10.131  1.00  0.00    -0.507 OA
ATOM     21  H   UNL     1      -4.371   1.309 -10.944  1.00  0.00     0.293 HD
ENDBRANCH  17  20
ENDBRANCH   1  12
BRANCH   2  22
ATOM     22  O   UNL     1      -0.810   2.158  -7.213  1.00  0.00    -0.502 OA
ATOM     23  H   UNL     1      -0.940   1.369  -6.592  1.00  0.00     0.293 HD
ENDBRANCH   2  22
BRANCH   6  24
ATOM     24  O   UNL     1       3.319   0.012  -9.808  1.00  0.00    -0.507 OA
ATOM     25  H   UNL     1       4.163   0.517  -9.589  1.00  0.00     0.293 HD
ENDBRANCH   6  24
BRANCH   8  26
ATOM     26  O   UNL     1       1.850   0.586 -14.345  1.00  0.00    -0.508 OA
ATOM     27  H   UNL     1       1.782  -0.331 -14.770  1.00  0.00     0.293 HD
ENDBRANCH   8  26
TORSDOF 6
ENDMDL
MODEL 7
REMARK VINA RESULT:    -6.344      8.944     11.680
REMARK INTER + INTRA:          -8.081
REMARK INTER:                  -7.672
REMARK INTRA:                  -0.409
REMARK UNBOUND:                -0.439
REMARK SMILES O=c1c(O)c(-c2ccc(O)cc2O)oc2cc(O)cc(O)c12
REMARK SMILES IDX 5 1 3 2 2 3 1 4 22 5 20 6 19 7 17 8 16 9 15 10 14 11 6 12
REMARK SMILES IDX 8 13 7 14 9 15 11 16 12 17 10 18 13 20 4 22 21 24 18 26
REMARK H PARENT 10 19 13 21 4 23 21 25 18 27
REMARK Flexibility Score: inf
ROOT
ATOM      1  C   UNL     1      -6.058   4.223  -9.055  1.00  0.00     0.184 A 
ATOM      2  C   UNL     1      -5.580   3.420 -10.104  1.00  0.00     0.208 A 
ATOM      3  C   UNL     1      -4.240   3.001 -10.083  1.00  0.00     0.238 A 
ATOM      4  O   UNL     1      -3.802   2.329 -11.054  1.00  0.00    -0.285 OA
ATOM      5  C   UNL     1      -3.401   3.372  -9.004  1.00  0.00     0.111 A 
ATOM      6  C   UNL     1      -2.039   2.970  -8.859  1.00  0.00     0.134 A 
ATOM      7  C   UNL     1      -1.270   3.502  -7.818  1.00  0.00     0.093 A 
ATOM      8  C   UNL     1      -1.831   4.369  -6.878  1.00  0.00     0.123 A 
ATOM      9  C   UNL     1      -3.175   4.721  -6.975  1.00  0.00     0.094 A 
ATOM     10  C   UNL     1      -3.959   4.236  -8.025  1.00  0.00     0.146 A 
ATOM     11  O   UNL     1      -5.233   4.605  -8.088  1.00  0.00    -0.451 OA
ENDROOT
BRANCH   1  12
ATOM     12  C   UNL     1      -7.466   4.681  -9.002  1.00  0.00     0.063 A 
ATOM     13  C   UNL     1      -9.751   4.389  -8.213  1.00  0.00     0.047 A 
ATOM     14  C   UNL     1      -8.429   3.944  -8.287  1.00  0.00     0.020 A 
ATOM     15  C   UNL     1     -10.129   5.579  -8.839  1.00  0.00     0.119 A 
ATOM     16  C   UNL     1      -9.176   6.328  -9.541  1.00  0.00     0.093 A 
ATOM     17  C   UNL     1      -7.847   5.887  -9.623  1.00  0.00     0.130 A 
BRANCH  15  18
ATOM     18  O   UNL     1     -11.451   6.011  -8.755  1.00  0.00    -0.508 OA
ATOM     19  H   UNL     1     -12.201   5.510  -9.217  1.00  0.00     0.293 HD
ENDBRANCH  15  18
BRANCH  17  20
ATOM     20  O   UNL     1      -6.909   6.640 -10.331  1.00  0.00    -0.507 OA
ATOM     21  H   UNL     1      -6.489   7.474  -9.938  1.00  0.00     0.293 HD
ENDBRANCH  17  20
ENDBRANCH   1  12
BRANCH   2  22
ATOM     22  O   UNL     1      -6.421   3.077 -11.165  1.00  0.00    -0.502 OA
ATOM     23  H   UNL     1      -7.256   2.520 -11.039  1.00  0.00     0.293 HD
ENDBRANCH   2  22
BRANCH   6  24
ATOM     24  O   UNL     1      -1.408   2.039  -9.690  1.00  0.00    -0.507 OA
ATOM     25  H   UNL     1      -1.775   1.712 -10.570  1.00  0.00     0.293 HD
ENDBRANCH   6  24
BRANCH   8  26
ATOM     26  O   UNL     1      -1.061   4.882  -5.835  1.00  0.00    -0.508 OA
ATOM     27  H   UNL     1      -0.792   5.859  -5.806  1.00  0.00     0.293 HD
ENDBRANCH   8  26
TORSDOF 6
ENDMDL
MODEL 8
REMARK VINA RESULT:    -6.253      8.430     10.506
REMARK INTER + INTRA:          -7.972
REMARK INTER:                  -7.559
REMARK INTRA:                  -0.412
REMARK UNBOUND:                -0.439
REMARK SMILES O=c1c(O)c(-c2ccc(O)cc2O)oc2cc(O)cc(O)c12
REMARK SMILES IDX 5 1 3 2 2 3 1 4 22 5 20 6 19 7 17 8 16 9 15 10 14 11 6 12
REMARK SMILES IDX 8 13 7 14 9 15 11 16 12 17 10 18 13 20 4 22 21 24 18 26
REMARK H PARENT 10 19 13 21 4 23 21 25 18 27
REMARK Flexibility Score: inf
ROOT
ATOM      1  C   UNL     1      -4.025   3.926  -8.057  1.00  0.00     0.184 A 
ATOM      2  C   UNL     1      -4.054   5.046  -8.905  1.00  0.00     0.208 A 
ATOM      3  C   UNL     1      -5.295   5.534  -9.345  1.00  0.00     0.238 A 
ATOM      4  O   UNL     1      -5.312   6.503 -10.148  1.00  0.00    -0.285 OA
ATOM      5  C   UNL     1      -6.491   4.909  -8.916  1.00  0.00     0.111 A 
ATOM      6  C   UNL     1      -7.804   5.344  -9.267  1.00  0.00     0.134 A 
ATOM      7  C   UNL     1      -8.910   4.573  -8.889  1.00  0.00     0.093 A 
ATOM      8  C   UNL     1      -8.755   3.419  -8.118  1.00  0.00     0.123 A 
ATOM      9  C   UNL     1      -7.482   3.019  -7.720  1.00  0.00     0.094 A 
ATOM     10  C   UNL     1      -6.356   3.746  -8.112  1.00  0.00     0.146 A 
ATOM     11  O   UNL     1      -5.159   3.324  -7.721  1.00  0.00    -0.451 OA
ENDROOT
BRANCH   1  12
ATOM     12  C   UNL     1      -2.752   3.372  -7.537  1.00  0.00     0.063 A 
ATOM     13  C   UNL     1      -0.746   3.615  -6.179  1.00  0.00     0.047 A 
ATOM     14  C   UNL     1      -1.932   4.144  -6.693  1.00  0.00     0.020 A 
ATOM     15  C   UNL     1      -0.367   2.307  -6.490  1.00  0.00     0.119 A 
ATOM     16  C   UNL     1      -1.182   1.525  -7.317  1.00  0.00     0.093 A 
ATOM     17  C   UNL     1      -2.374   2.050  -7.840  1.00  0.00     0.130 A 
BRANCH  15  18
ATOM     18  O   UNL     1       0.818   1.792  -5.969  1.00  0.00    -0.508 OA
ATOM     19  H   UNL     1       1.003   1.793  -4.973  1.00  0.00     0.293 HD
ENDBRANCH  15  18
BRANCH  17  20
ATOM     20  O   UNL     1      -3.173   1.261  -8.669  1.00  0.00    -0.507 OA
ATOM     21  H   UNL     1      -3.685   1.657  -9.449  1.00  0.00     0.293 HD
ENDBRANCH  17  20
ENDBRANCH   1  12
BRANCH   2  22
ATOM     22  O   UNL     1      -2.861   5.639  -9.326  1.00  0.00    -0.502 OA
ATOM     23  H   UNL     1      -2.235   5.194  -9.986  1.00  0.00     0.293 HD
ENDBRANCH   2  22
BRANCH   6  24
ATOM     24  O   UNL     1      -8.076   6.530  -9.956  1.00  0.00    -0.507 OA
ATOM     25  H   UNL     1      -7.457   6.959 -10.626  1.00  0.00     0.293 HD
ENDBRANCH   6  24
BRANCH   8  26
ATOM     26  O   UNL     1      -9.863   2.666  -7.734  1.00  0.00    -0.508 OA
ATOM     27  H   UNL     1     -10.802   3.045  -7.776  1.00  0.00     0.293 HD
ENDBRANCH   8  26
TORSDOF 6
ENDMDL
MODEL 9
REMARK VINA RESULT:    -6.245      6.523      8.340
REMARK INTER + INTRA:          -7.962
REMARK INTER:                  -7.479
REMARK INTRA:                  -0.483
REMARK UNBOUND:                -0.439
REMARK SMILES O=c1c(O)c(-c2ccc(O)cc2O)oc2cc(O)cc(O)c12
REMARK SMILES IDX 5 1 3 2 2 3 1 4 22 5 20 6 19 7 17 8 16 9 15 10 14 11 6 12
REMARK SMILES IDX 8 13 7 14 9 15 11 16 12 17 10 18 13 20 4 22 21 24 18 26
REMARK H PARENT 10 19 13 21 4 23 21 25 18 27
REMARK Flexibility Score: inf
ROOT
ATOM      1  C   UNL     1      -1.399   2.391  -7.366  1.00  0.00     0.184 A 
ATOM      2  C   UNL     1      -2.539   1.653  -7.004  1.00  0.00     0.208 A 
ATOM      3  C   UNL     1      -3.807   2.153  -7.338  1.00  0.00     0.238 A 
ATOM      4  O   UNL     1      -4.826   1.515  -6.962  1.00  0.00    -0.285 OA
ATOM      5  C   UNL     1      -3.921   3.373  -8.048  1.00  0.00     0.111 A 
ATOM      6  C   UNL     1      -5.154   3.953  -8.473  1.00  0.00     0.134 A 
ATOM      7  C   UNL     1      -5.153   5.226  -9.055  1.00  0.00     0.093 A 
ATOM      8  C   UNL     1      -3.959   5.912  -9.285  1.00  0.00     0.123 A 
ATOM      9  C   UNL     1      -2.745   5.330  -8.928  1.00  0.00     0.094 A 
ATOM     10  C   UNL     1      -2.716   4.076  -8.312  1.00  0.00     0.146 A 
ATOM     11  O   UNL     1      -1.539   3.562  -7.976  1.00  0.00    -0.451 OA
ENDROOT
BRANCH   1  12
ATOM     12  C   UNL     1      -0.030   1.912  -7.065  1.00  0.00     0.063 A 
ATOM     13  C   UNL     1       1.880   0.506  -7.615  1.00  0.00     0.047 A 
ATOM     14  C   UNL     1       0.579   0.939  -7.880  1.00  0.00     0.020 A 
ATOM     15  C   UNL     1       2.596   1.044  -6.542  1.00  0.00     0.119 A 
ATOM     16  C   UNL     1       2.005   2.022  -5.734  1.00  0.00     0.093 A 
ATOM     17  C   UNL     1       0.698   2.461  -5.991  1.00  0.00     0.130 A 
BRANCH  15  18
ATOM     18  O   UNL     1       3.893   0.603  -6.291  1.00  0.00    -0.508 OA
ATOM     19  H   UNL     1       4.587   0.550  -7.028  1.00  0.00     0.293 HD
ENDBRANCH  15  18
BRANCH  17  20
ATOM     20  O   UNL     1       0.119   3.432  -5.173  1.00  0.00    -0.507 OA
ATOM     21  H   UNL     1      -0.865   3.409  -4.933  1.00  0.00     0.293 HD
ENDBRANCH  17  20
ENDBRANCH   1  12
BRANCH   2  22
ATOM     22  O   UNL     1      -2.404   0.458  -6.293  1.00  0.00    -0.502 OA
ATOM     23  H   UNL     1      -2.886  -0.391  -6.560  1.00  0.00     0.293 HD
ENDBRANCH   2  22
BRANCH   6  24
ATOM     24  O   UNL     1      -6.393   3.312  -8.373  1.00  0.00    -0.507 OA
ATOM     25  H   UNL     1      -6.575   2.500  -7.804  1.00  0.00     0.293 HD
ENDBRANCH   6  24
BRANCH   8  26
ATOM     26  O   UNL     1      -3.966   7.174  -9.879  1.00  0.00    -0.508 OA
ATOM     27  H   UNL     1      -3.639   7.994  -9.383  1.00  0.00     0.293 HD
ENDBRANCH   8  26
TORSDOF 6
ENDMDL
