MODEL 1
REMARK VINA RESULT:    74.978      0.000      0.000
REMARK INTER + INTRA:          99.429
REMARK INTER:                  99.086
REMARK INTRA:                   0.343
REMARK UNBOUND:                 0.343
REMARK SMILES CC[C@H](C=C[C@H](C)[C@H]1CC[C@H]2[C@H]3CC=C4C[C@H](O)CC[C@@]4(C)[C@H]3CC[C@]12C)C(C)C
REMARK SMILES IDX 6 1 7 2 5 3 4 4 3 5 2 6 1 7 28 8 29 9 30 10 8 11 9 12 26 13
REMARK SMILES IDX 10 14 11 15 25 16 27 17 12 18 24 19 23 20 13 21 21 22 14 23
REMARK SMILES IDX 15 24 20 25 22 26 16 27 19 28 17 29 18 30
REMARK H PARENT 18 31
REMARK Flexibility Score: inf
ROOT
ATOM      1  C   UNL     1      79.304  -1.659  66.751  1.00  0.00     0.012 C 
ATOM      2  C   UNL     1      77.999  -2.325  67.232  1.00  0.00     0.012 C 
ENDROOT
BRANCH   1   3
ATOM      3  C   UNL     1      79.011  -0.301  66.154  1.00  0.00    -0.028 C 
ATOM      4  C   UNL     1      79.064  -0.053  64.832  1.00  0.00    -0.027 C 
BRANCH   4   5
ATOM      5  C   UNL     1      78.784   1.334  64.275  1.00  0.00     0.014 C 
BRANCH   5   6
ATOM      6  C   UNL     1      79.895   1.832  63.301  1.00  0.00     0.004 C 
ATOM      7  C   UNL     1      79.446   2.178  61.876  1.00  0.00     0.004 C 
ENDBRANCH   5   6
BRANCH   5   8
ATOM      8  C   UNL     1      77.325   1.441  63.733  1.00  0.00    -0.011 C 
ATOM      9  C   UNL     1      77.096   2.749  62.964  1.00  0.00     0.008 C 
ATOM     10  C   UNL     1      76.876   0.240  62.886  1.00  0.00     0.008 C 
ENDBRANCH   5   8
ENDBRANCH   4   5
ENDBRANCH   1   3
BRANCH   1  11
ATOM     11  C   UNL     1      80.367  -1.573  67.889  1.00  0.00     0.002 C 
ATOM     12  C   UNL     1      79.798  -2.010  69.265  1.00  0.00     0.005 C 
ATOM     13  C   UNL     1      81.664  -2.429  67.732  1.00  0.00    -0.026 C 
ATOM     14  C   UNL     1      80.955  -2.632  70.061  1.00  0.00     0.005 C 
ATOM     15  C   UNL     1      82.173  -2.404  69.179  1.00  0.00    -0.001 C 
ATOM     16  C   UNL     1      82.769  -1.793  66.856  1.00  0.00     0.007 C 
ATOM     17  C   UNL     1      81.323  -3.855  67.206  1.00  0.00     0.012 C 
ATOM     18  C   UNL     1      83.480  -3.182  69.461  1.00  0.00     0.000 C 
ATOM     19  C   UNL     1      84.126  -2.523  67.016  1.00  0.00     0.005 C 
ATOM     20  C   UNL     1      84.617  -2.694  68.494  1.00  0.00     0.003 C 
ATOM     21  C   UNL     1      83.340  -4.731  69.585  1.00  0.00     0.031 C 
ATOM     22  C   UNL     1      85.889  -3.616  68.630  1.00  0.00    -0.008 C 
ATOM     23  C   UNL     1      84.294  -5.528  68.727  1.00  0.00    -0.027 C 
ATOM     24  C   UNL     1      85.487  -5.053  68.323  1.00  0.00    -0.065 C 
ATOM     25  C   UNL     1      87.026  -3.178  67.653  1.00  0.00     0.014 C 
ATOM     26  C   UNL     1      86.439  -3.534  70.081  1.00  0.00     0.016 C 
ATOM     27  C   UNL     1      86.351  -5.891  67.402  1.00  0.00     0.063 C 
ATOM     28  C   UNL     1      88.230  -4.145  67.628  1.00  0.00     0.033 C 
ATOM     29  C   UNL     1      87.846  -5.645  67.663  1.00  0.00     0.118 C 
BRANCH  29  30
ATOM     30  O   UNL     1      88.211  -6.192  68.904  1.00  0.00    -0.393 OA
ATOM     31  H   UNL     1      89.197  -6.123  68.974  1.00  0.00     0.210 HD
ENDBRANCH  29  30
ENDBRANCH   1  11
TORSDOF 6
ENDMDL
MODEL 2
REMARK VINA RESULT:    75.056      3.277      8.910
REMARK INTER + INTRA:          99.532
REMARK INTER:                 100.001
REMARK INTRA:                  -0.469
REMARK UNBOUND:                 0.343
REMARK SMILES CC[C@H](C=C[C@H](C)[C@H]1CC[C@H]2[C@H]3CC=C4C[C@H](O)CC[C@@]4(C)[C@H]3CC[C@]12C)C(C)C
REMARK SMILES IDX 6 1 7 2 5 3 4 4 3 5 2 6 1 7 28 8 29 9 30 10 8 11 9 12 26 13
REMARK SMILES IDX 10 14 11 15 25 16 27 17 12 18 24 19 23 20 13 21 21 22 14 23
REMARK SMILES IDX 15 24 20 25 22 26 16 27 19 28 17 29 18 30
REMARK H PARENT 18 31
REMARK Flexibility Score: inf
ROOT
ATOM      1  C   UNL     1      81.036  -2.029  69.510  1.00  0.00     0.012 C 
ATOM      2  C   UNL     1      80.408  -2.888  70.626  1.00  0.00     0.012 C 
ENDROOT
BRANCH   1   3
ATOM      3  C   UNL     1      82.538  -2.211  69.489  1.00  0.00    -0.028 C 
ATOM      4  C   UNL     1      83.141  -3.275  68.928  1.00  0.00    -0.027 C 
BRANCH   4   5
ATOM      5  C   UNL     1      84.653  -3.429  68.947  1.00  0.00     0.014 C 
BRANCH   5   6
ATOM      6  C   UNL     1      85.111  -4.886  69.260  1.00  0.00     0.004 C 
ATOM      7  C   UNL     1      85.832  -5.632  68.129  1.00  0.00     0.004 C 
ENDBRANCH   5   6
BRANCH   5   8
ATOM      8  C   UNL     1      85.304  -2.782  67.685  1.00  0.00    -0.011 C 
ATOM      9  C   UNL     1      84.864  -3.483  66.393  1.00  0.00     0.008 C 
ATOM     10  C   UNL     1      85.084  -1.266  67.569  1.00  0.00     0.008 C 
ENDBRANCH   5   8
ENDBRANCH   4   5
ENDBRANCH   1   3
BRANCH   1  11
ATOM     11  C   UNL     1      80.398  -2.327  68.118  1.00  0.00     0.002 C 
ATOM     12  C   UNL     1      79.104  -3.175  68.230  1.00  0.00     0.005 C 
ATOM     13  C   UNL     1      79.972  -1.105  67.244  1.00  0.00    -0.026 C 
ATOM     14  C   UNL     1      78.189  -2.766  67.066  1.00  0.00     0.005 C 
ATOM     15  C   UNL     1      79.040  -1.808  66.247  1.00  0.00    -0.001 C 
ATOM     16  C   UNL     1      81.109  -0.460  66.417  1.00  0.00     0.007 C 
ATOM     17  C   UNL     1      79.267  -0.023  68.114  1.00  0.00     0.012 C 
ATOM     18  C   UNL     1      78.372  -0.908  65.181  1.00  0.00     0.000 C 
ATOM     19  C   UNL     1      80.562   0.509  65.339  1.00  0.00     0.005 C 
ATOM     20  C   UNL     1      79.466  -0.097  64.398  1.00  0.00     0.003 C 
ATOM     21  C   UNL     1      77.148  -0.069  65.663  1.00  0.00     0.031 C 
ATOM     22  C   UNL     1      78.789   0.970  63.454  1.00  0.00    -0.008 C 
ATOM     23  C   UNL     1      77.218   1.404  65.338  1.00  0.00    -0.027 C 
ATOM     24  C   UNL     1      77.923   1.893  64.301  1.00  0.00    -0.065 C 
ATOM     25  C   UNL     1      79.853   1.818  62.688  1.00  0.00     0.014 C 
ATOM     26  C   UNL     1      77.900   0.247  62.404  1.00  0.00     0.016 C 
ATOM     27  C   UNL     1      77.999   3.392  64.090  1.00  0.00     0.063 C 
ATOM     28  C   UNL     1      79.249   2.986  61.876  1.00  0.00     0.033 C 
ATOM     29  C   UNL     1      78.105   3.741  62.596  1.00  0.00     0.118 C 
BRANCH  29  30
ATOM     30  O   UNL     1      76.886   3.466  61.954  1.00  0.00    -0.393 OA
ATOM     31  H   UNL     1      76.538   4.329  61.611  1.00  0.00     0.210 HD
ENDBRANCH  29  30
ENDBRANCH   1  11
TORSDOF 6
ENDMDL
MODEL 3
REMARK VINA RESULT:    75.737      1.914      4.745
REMARK INTER + INTRA:         100.431
REMARK INTER:                 100.304
REMARK INTRA:                   0.128
REMARK UNBOUND:                 0.343
REMARK SMILES CC[C@H](C=C[C@H](C)[C@H]1CC[C@H]2[C@H]3CC=C4C[C@H](O)CC[C@@]4(C)[C@H]3CC[C@]12C)C(C)C
REMARK SMILES IDX 6 1 7 2 5 3 4 4 3 5 2 6 1 7 28 8 29 9 30 10 8 11 9 12 26 13
REMARK SMILES IDX 10 14 11 15 25 16 27 17 12 18 24 19 23 20 13 21 21 22 14 23
REMARK SMILES IDX 15 24 20 25 22 26 16 27 19 28 17 29 18 30
REMARK H PARENT 18 31
REMARK Flexibility Score: inf
ROOT
ATOM      1  C   UNL     1      82.773  -3.257  68.224  1.00  0.00     0.012 C 
ATOM      2  C   UNL     1      82.816  -3.062  69.753  1.00  0.00     0.012 C 
ENDROOT
BRANCH   1   3
ATOM      3  C   UNL     1      81.802  -2.282  67.597  1.00  0.00    -0.028 C 
ATOM      4  C   UNL     1      80.520  -2.167  67.989  1.00  0.00    -0.027 C 
BRANCH   4   5
ATOM      5  C   UNL     1      79.571  -1.188  67.317  1.00  0.00     0.014 C 
BRANCH   5   6
ATOM      6  C   UNL     1      79.991  -0.841  65.856  1.00  0.00     0.004 C 
ATOM      7  C   UNL     1      79.047   0.084  65.077  1.00  0.00     0.004 C 
ENDBRANCH   5   6
BRANCH   5   8
ATOM      8  C   UNL     1      78.085  -1.627  67.497  1.00  0.00    -0.011 C 
ATOM      9  C   UNL     1      77.601  -2.498  66.330  1.00  0.00     0.008 C 
ATOM     10  C   UNL     1      77.789  -2.321  68.836  1.00  0.00     0.008 C 
ENDBRANCH   5   8
ENDBRANCH   4   5
ENDBRANCH   1   3
BRANCH   1  11
ATOM     11  C   UNL     1      84.192  -3.152  67.584  1.00  0.00     0.002 C 
ATOM     12  C   UNL     1      84.939  -1.861  68.012  1.00  0.00     0.005 C 
ATOM     13  C   UNL     1      85.211  -4.294  67.894  1.00  0.00    -0.026 C 
ATOM     14  C   UNL     1      86.440  -2.187  68.030  1.00  0.00     0.005 C 
ATOM     15  C   UNL     1      86.516  -3.603  67.479  1.00  0.00    -0.001 C 
ATOM     16  C   UNL     1      85.071  -5.557  67.011  1.00  0.00     0.007 C 
ATOM     17  C   UNL     1      85.155  -4.689  69.400  1.00  0.00     0.012 C 
ATOM     18  C   UNL     1      87.814  -4.426  67.654  1.00  0.00     0.000 C 
ATOM     19  C   UNL     1      86.299  -6.492  67.140  1.00  0.00     0.005 C 
ATOM     20  C   UNL     1      87.686  -5.801  66.906  1.00  0.00     0.003 C 
ATOM     21  C   UNL     1      88.377  -4.514  69.106  1.00  0.00     0.031 C 
ATOM     22  C   UNL     1      88.915  -6.728  67.246  1.00  0.00    -0.008 C 
ATOM     23  C   UNL     1      88.677  -5.914  69.588  1.00  0.00    -0.027 C 
ATOM     24  C   UNL     1      88.975  -6.928  68.755  1.00  0.00    -0.065 C 
ATOM     25  C   UNL     1      88.798  -8.119  66.546  1.00  0.00     0.014 C 
ATOM     26  C   UNL     1      90.228  -6.052  66.762  1.00  0.00     0.016 C 
ATOM     27  C   UNL     1      89.191  -8.318  69.318  1.00  0.00     0.063 C 
ATOM     28  C   UNL     1      89.890  -9.125  66.975  1.00  0.00     0.033 C 
ATOM     29  C   UNL     1      90.220  -9.103  68.488  1.00  0.00     0.118 C 
BRANCH  29  30
ATOM     30  O   UNL     1      91.501  -8.561  68.679  1.00  0.00    -0.393 OA
ATOM     31  H   UNL     1      91.431  -7.585  68.518  1.00  0.00     0.210 HD
ENDBRANCH  29  30
ENDBRANCH   1  11
TORSDOF 6
ENDMDL
MODEL 4
REMARK VINA RESULT:    76.066     11.470     13.694
REMARK INTER + INTRA:         100.867
REMARK INTER:                 100.929
REMARK INTRA:                  -0.062
REMARK UNBOUND:                 0.343
REMARK SMILES CC[C@H](C=C[C@H](C)[C@H]1CC[C@H]2[C@H]3CC=C4C[C@H](O)CC[C@@]4(C)[C@H]3CC[C@]12C)C(C)C
REMARK SMILES IDX 6 1 7 2 5 3 4 4 3 5 2 6 1 7 28 8 29 9 30 10 8 11 9 12 26 13
REMARK SMILES IDX 10 14 11 15 25 16 27 17 12 18 24 19 23 20 13 21 21 22 14 23
REMARK SMILES IDX 15 24 20 25 22 26 16 27 19 28 17 29 18 30
REMARK H PARENT 18 31
REMARK Flexibility Score: inf
ROOT
ATOM      1  C   UNL     1      83.086   3.860  75.336  1.00  0.00     0.012 C 
ATOM      2  C   UNL     1      83.359   3.274  73.936  1.00  0.00     0.012 C 
ENDROOT
BRANCH   1   3
ATOM      3  C   UNL     1      82.115   2.982  76.094  1.00  0.00    -0.028 C 
ATOM      4  C   UNL     1      80.876   2.702  75.649  1.00  0.00    -0.027 C 
BRANCH   4   5
ATOM      5  C   UNL     1      79.924   1.832  76.452  1.00  0.00     0.014 C 
BRANCH   5   6
ATOM      6  C   UNL     1      80.297   1.760  77.964  1.00  0.00     0.004 C 
ATOM      7  C   UNL     1      79.545   0.718  78.803  1.00  0.00     0.004 C 
ENDBRANCH   5   6
BRANCH   5   8
ATOM      8  C   UNL     1      78.437   2.191  76.148  1.00  0.00    -0.011 C 
ATOM      9  C   UNL     1      77.617   0.951  75.765  1.00  0.00     0.008 C 
ATOM     10  C   UNL     1      77.732   2.968  77.271  1.00  0.00     0.008 C 
ENDBRANCH   5   8
ENDBRANCH   4   5
ENDBRANCH   1   3
BRANCH   1  11
ATOM     11  C   UNL     1      84.405   4.090  76.138  1.00  0.00     0.002 C 
ATOM     12  C   UNL     1      85.392   2.900  76.005  1.00  0.00     0.005 C 
ATOM     13  C   UNL     1      85.268   5.337  75.765  1.00  0.00    -0.026 C 
ATOM     14  C   UNL     1      86.813   3.474  76.102  1.00  0.00     0.005 C 
ATOM     15  C   UNL     1      86.596   4.944  76.427  1.00  0.00    -0.001 C 
ATOM     16  C   UNL     1      84.818   6.666  76.416  1.00  0.00     0.007 C 
ATOM     17  C   UNL     1      85.357   5.505  74.220  1.00  0.00     0.012 C 
ATOM     18  C   UNL     1      87.764   5.946  76.269  1.00  0.00     0.000 C 
ATOM     19  C   UNL     1      85.895   7.771  76.278  1.00  0.00     0.005 C 
ATOM     20  C   UNL     1      87.326   7.368  76.771  1.00  0.00     0.003 C 
ATOM     21  C   UNL     1      88.498   5.929  74.892  1.00  0.00     0.031 C 
ATOM     22  C   UNL     1      88.433   8.437  76.426  1.00  0.00    -0.008 C 
ATOM     23  C   UNL     1      88.642   7.279  74.231  1.00  0.00    -0.027 C 
ATOM     24  C   UNL     1      88.666   8.434  74.921  1.00  0.00    -0.065 C 
ATOM     25  C   UNL     1      88.010   9.870  76.881  1.00  0.00     0.014 C 
ATOM     26  C   UNL     1      89.756   8.070  77.154  1.00  0.00     0.016 C 
ATOM     27  C   UNL     1      88.740   9.749  74.173  1.00  0.00     0.063 C 
ATOM     28  C   UNL     1      88.982  10.980  76.422  1.00  0.00     0.033 C 
ATOM     29  C   UNL     1      89.514  10.807  74.978  1.00  0.00     0.118 C 
BRANCH  29  30
ATOM     30  O   UNL     1      90.877  10.472  75.017  1.00  0.00    -0.393 OA
ATOM     31  H   UNL     1      91.105  10.295  75.966  1.00  0.00     0.210 HD
ENDBRANCH  29  30
ENDBRANCH   1  11
TORSDOF 6
ENDMDL
