MODEL 1
REMARK VINA RESULT:    -7.043      0.000      0.000
REMARK INTER + INTRA:          -8.879
REMARK INTER:                  -8.484
REMARK INTRA:                  -0.395
REMARK UNBOUND:                -0.395
REMARK SMILES O=c1c(O)c(-c2ccc(O)cc2O)oc2cc(O)cc(O)c12
REMARK SMILES IDX 5 1 3 2 2 3 1 4 22 5 20 6 19 7 17 8 16 9 15 10 14 11 6 12
REMARK SMILES IDX 8 13 7 14 9 15 11 16 12 17 10 18 13 20 4 22 21 24 18 26
REMARK H PARENT 10 19 13 21 4 23 21 25 18 27
REMARK Flexibility Score: inf
ROOT
ATOM      1  C   UNL     1     -15.887 -46.331  -1.576  1.00  0.00     0.184 A 
ATOM      2  C   UNL     1     -17.016 -45.597  -1.967  1.00  0.00     0.208 A 
ATOM      3  C   UNL     1     -17.823 -45.010  -0.980  1.00  0.00     0.238 A 
ATOM      4  O   UNL     1     -18.869 -44.405  -1.334  1.00  0.00    -0.285 OA
ATOM      5  C   UNL     1     -17.472 -45.143   0.385  1.00  0.00     0.111 A 
ATOM      6  C   UNL     1     -18.194 -44.557   1.469  1.00  0.00     0.134 A 
ATOM      7  C   UNL     1     -17.825 -44.857   2.786  1.00  0.00     0.093 A 
ATOM      8  C   UNL     1     -16.723 -45.667   3.060  1.00  0.00     0.123 A 
ATOM      9  C   UNL     1     -15.975 -46.197   2.009  1.00  0.00     0.094 A 
ATOM     10  C   UNL     1     -16.340 -45.947   0.685  1.00  0.00     0.146 A 
ATOM     11  O   UNL     1     -15.610 -46.483  -0.286  1.00  0.00    -0.451 OA
ENDROOT
BRANCH   1  12
ATOM     12  C   UNL     1     -14.988 -46.951  -2.573  1.00  0.00     0.063 A 
ATOM     13  C   UNL     1     -14.387 -48.890  -3.916  1.00  0.00     0.047 A 
ATOM     14  C   UNL     1     -15.187 -48.294  -2.937  1.00  0.00     0.020 A 
ATOM     15  C   UNL     1     -13.385 -48.153  -4.549  1.00  0.00     0.119 A 
ATOM     16  C   UNL     1     -13.179 -46.814  -4.195  1.00  0.00     0.093 A 
ATOM     17  C   UNL     1     -13.966 -46.207  -3.208  1.00  0.00     0.130 A 
BRANCH  15  18
ATOM     18  O   UNL     1     -12.599 -48.759  -5.526  1.00  0.00    -0.508 OA
ATOM     19  H   UNL     1     -12.429 -49.758  -5.524  1.00  0.00     0.293 HD
ENDBRANCH  15  18
BRANCH  17  20
ATOM     20  O   UNL     1     -13.693 -44.881  -2.868  1.00  0.00    -0.507 OA
ATOM     21  H   UNL     1     -12.782 -44.564  -2.566  1.00  0.00     0.293 HD
ENDBRANCH  17  20
ENDBRANCH   1  12
BRANCH   2  22
ATOM     22  O   UNL     1     -17.337 -45.479  -3.323  1.00  0.00    -0.502 OA
ATOM     23  H   UNL     1     -18.229 -45.778  -3.697  1.00  0.00     0.293 HD
ENDBRANCH   2  22
BRANCH   6  24
ATOM     24  O   UNL     1     -19.255 -43.662   1.308  1.00  0.00    -0.507 OA
ATOM     25  H   UNL     1     -19.211 -42.806   0.775  1.00  0.00     0.293 HD
ENDBRANCH   6  24
BRANCH   8  26
ATOM     26  O   UNL     1     -16.377 -45.930   4.384  1.00  0.00    -0.508 OA
ATOM     27  H   UNL     1     -16.479 -45.228   5.107  1.00  0.00     0.293 HD
ENDBRANCH   8  26
TORSDOF 6
ENDMDL
MODEL 2
REMARK VINA RESULT:    -7.037      6.842      9.517
REMARK INTER + INTRA:          -8.872
REMARK INTER:                  -8.476
REMARK INTRA:                  -0.397
REMARK UNBOUND:                -0.395
REMARK SMILES O=c1c(O)c(-c2ccc(O)cc2O)oc2cc(O)cc(O)c12
REMARK SMILES IDX 5 1 3 2 2 3 1 4 22 5 20 6 19 7 17 8 16 9 15 10 14 11 6 12
REMARK SMILES IDX 8 13 7 14 9 15 11 16 12 17 10 18 13 20 4 22 21 24 18 26
REMARK H PARENT 10 19 13 21 4 23 21 25 18 27
REMARK Flexibility Score: inf
ROOT
ATOM      1  C   UNL     1     -11.853 -43.398  -7.058  1.00  0.00     0.184 A 
ATOM      2  C   UNL     1     -11.216 -43.372  -8.307  1.00  0.00     0.208 A 
ATOM      3  C   UNL     1     -11.930 -42.918  -9.427  1.00  0.00     0.238 A 
ATOM      4  O   UNL     1     -11.373 -42.956 -10.555  1.00  0.00    -0.285 OA
ATOM      5  C   UNL     1     -13.264 -42.469  -9.275  1.00  0.00     0.111 A 
ATOM      6  C   UNL     1     -14.070 -41.950 -10.334  1.00  0.00     0.134 A 
ATOM      7  C   UNL     1     -15.417 -41.650 -10.092  1.00  0.00     0.093 A 
ATOM      8  C   UNL     1     -15.969 -41.787  -8.819  1.00  0.00     0.123 A 
ATOM      9  C   UNL     1     -15.175 -42.238  -7.764  1.00  0.00     0.094 A 
ATOM     10  C   UNL     1     -13.839 -42.581  -7.981  1.00  0.00     0.146 A 
ATOM     11  O   UNL     1     -13.122 -43.019  -6.953  1.00  0.00    -0.451 OA
ENDROOT
BRANCH   1  12
ATOM     12  C   UNL     1     -11.144 -43.844  -5.839  1.00  0.00     0.063 A 
ATOM     13  C   UNL     1      -9.497 -43.396  -4.105  1.00  0.00     0.047 A 
ATOM     14  C   UNL     1     -10.145 -43.025  -5.286  1.00  0.00     0.020 A 
ATOM     15  C   UNL     1      -9.842 -44.583  -3.457  1.00  0.00     0.119 A 
ATOM     16  C   UNL     1     -10.837 -45.407  -3.999  1.00  0.00     0.093 A 
ATOM     17  C   UNL     1     -11.487 -45.053  -5.188  1.00  0.00     0.130 A 
BRANCH  15  18
ATOM     18  O   UNL     1      -9.191 -44.937  -2.277  1.00  0.00    -0.508 OA
ATOM     19  H   UNL     1      -9.528 -44.630  -1.373  1.00  0.00     0.293 HD
ENDBRANCH  15  18
BRANCH  17  20
ATOM     20  O   UNL     1     -12.444 -45.928  -5.703  1.00  0.00    -0.507 OA
ATOM     21  H   UNL     1     -13.424 -45.692  -5.780  1.00  0.00     0.293 HD
ENDBRANCH  17  20
ENDBRANCH   1  12
BRANCH   2  22
ATOM     22  O   UNL     1      -9.897 -43.819  -8.426  1.00  0.00    -0.502 OA
ATOM     23  H   UNL     1      -9.274 -43.889  -7.631  1.00  0.00     0.293 HD
ENDBRANCH   2  22
BRANCH   6  24
ATOM     24  O   UNL     1     -13.595 -41.689 -11.622  1.00  0.00    -0.507 OA
ATOM     25  H   UNL     1     -14.150 -41.310 -12.375  1.00  0.00     0.293 HD
ENDBRANCH   6  24
BRANCH   8  26
ATOM     26  O   UNL     1     -17.309 -41.463  -8.613  1.00  0.00    -0.508 OA
ATOM     27  H   UNL     1     -17.985 -42.164  -8.332  1.00  0.00     0.293 HD
ENDBRANCH   8  26
TORSDOF 6
ENDMDL
MODEL 3
REMARK VINA RESULT:    -7.030      6.729      9.387
REMARK INTER + INTRA:          -8.864
REMARK INTER:                  -8.461
REMARK INTRA:                  -0.403
REMARK UNBOUND:                -0.395
REMARK SMILES O=c1c(O)c(-c2ccc(O)cc2O)oc2cc(O)cc(O)c12
REMARK SMILES IDX 5 1 3 2 2 3 1 4 22 5 20 6 19 7 17 8 16 9 15 10 14 11 6 12
REMARK SMILES IDX 8 13 7 14 9 15 11 16 12 17 10 18 13 20 4 22 21 24 18 26
REMARK H PARENT 10 19 13 21 4 23 21 25 18 27
REMARK Flexibility Score: inf
ROOT
ATOM      1  C   UNL     1     -12.524 -42.795  -6.403  1.00  0.00     0.184 A 
ATOM      2  C   UNL     1     -13.871 -43.184  -6.401  1.00  0.00     0.208 A 
ATOM      3  C   UNL     1     -14.713 -42.731  -7.429  1.00  0.00     0.238 A 
ATOM      4  O   UNL     1     -15.934 -43.034  -7.388  1.00  0.00    -0.285 OA
ATOM      5  C   UNL     1     -14.187 -41.918  -8.461  1.00  0.00     0.111 A 
ATOM      6  C   UNL     1     -14.938 -41.434  -9.575  1.00  0.00     0.134 A 
ATOM      7  C   UNL     1     -14.344 -40.536 -10.470  1.00  0.00     0.093 A 
ATOM      8  C   UNL     1     -13.010 -40.154 -10.331  1.00  0.00     0.123 A 
ATOM      9  C   UNL     1     -12.250 -40.667  -9.280  1.00  0.00     0.094 A 
ATOM     10  C   UNL     1     -12.824 -41.535  -8.349  1.00  0.00     0.146 A 
ATOM     11  O   UNL     1     -12.069 -41.989  -7.355  1.00  0.00    -0.451 OA
ENDROOT
BRANCH   1  12
ATOM     12  C   UNL     1     -11.585 -43.259  -5.359  1.00  0.00     0.063 A 
ATOM     13  C   UNL     1     -10.576 -42.931  -3.169  1.00  0.00     0.047 A 
ATOM     14  C   UNL     1     -11.414 -42.489  -4.196  1.00  0.00     0.020 A 
ATOM     15  C   UNL     1      -9.905 -44.149  -3.285  1.00  0.00     0.119 A 
ATOM     16  C   UNL     1     -10.069 -44.926  -4.439  1.00  0.00     0.093 A 
ATOM     17  C   UNL     1     -10.897 -44.490  -5.480  1.00  0.00     0.130 A 
BRANCH  15  18
ATOM     18  O   UNL     1      -9.075 -44.579  -2.251  1.00  0.00    -0.508 OA
ATOM     19  H   UNL     1      -9.417 -45.187  -1.516  1.00  0.00     0.293 HD
ENDBRANCH  15  18
BRANCH  17  20
ATOM     20  O   UNL     1     -10.996 -45.285  -6.623  1.00  0.00    -0.507 OA
ATOM     21  H   UNL     1     -11.380 -46.220  -6.614  1.00  0.00     0.293 HD
ENDBRANCH  17  20
ENDBRANCH   1  12
BRANCH   2  22
ATOM     22  O   UNL     1     -14.363 -43.992  -5.370  1.00  0.00    -0.502 OA
ATOM     23  H   UNL     1     -13.762 -44.390  -4.660  1.00  0.00     0.293 HD
ENDBRANCH   2  22
BRANCH   6  24
ATOM     24  O   UNL     1     -16.251 -41.821  -9.860  1.00  0.00    -0.507 OA
ATOM     25  H   UNL     1     -16.880 -41.320 -10.469  1.00  0.00     0.293 HD
ENDBRANCH   6  24
BRANCH   8  26
ATOM     26  O   UNL     1     -12.448 -39.271 -11.251  1.00  0.00    -0.508 OA
ATOM     27  H   UNL     1     -12.032 -39.600 -12.114  1.00  0.00     0.293 HD
ENDBRANCH   8  26
TORSDOF 6
ENDMDL
MODEL 4
REMARK VINA RESULT:    -7.004      5.032      8.991
REMARK INTER + INTRA:          -8.833
REMARK INTER:                  -8.468
REMARK INTRA:                  -0.365
REMARK UNBOUND:                -0.395
REMARK SMILES O=c1c(O)c(-c2ccc(O)cc2O)oc2cc(O)cc(O)c12
REMARK SMILES IDX 5 1 3 2 2 3 1 4 22 5 20 6 19 7 17 8 16 9 15 10 14 11 6 12
REMARK SMILES IDX 8 13 7 14 9 15 11 16 12 17 10 18 13 20 4 22 21 24 18 26
REMARK H PARENT 10 19 13 21 4 23 21 25 18 27
REMARK Flexibility Score: inf
ROOT
ATOM      1  C   UNL     1     -12.623 -46.336  -6.000  1.00  0.00     0.184 A 
ATOM      2  C   UNL     1     -12.864 -44.957  -5.920  1.00  0.00     0.208 A 
ATOM      3  C   UNL     1     -12.419 -44.126  -6.960  1.00  0.00     0.238 A 
ATOM      4  O   UNL     1     -12.584 -42.882  -6.853  1.00  0.00    -0.285 OA
ATOM      5  C   UNL     1     -11.765 -44.692  -8.081  1.00  0.00     0.111 A 
ATOM      6  C   UNL     1     -11.308 -43.950  -9.213  1.00  0.00     0.134 A 
ATOM      7  C   UNL     1     -10.565 -44.598 -10.207  1.00  0.00     0.093 A 
ATOM      8  C   UNL     1     -10.318 -45.969 -10.146  1.00  0.00     0.123 A 
ATOM      9  C   UNL     1     -10.811 -46.714  -9.075  1.00  0.00     0.094 A 
ATOM     10  C   UNL     1     -11.523 -46.091  -8.048  1.00  0.00     0.146 A 
ATOM     11  O   UNL     1     -11.962 -46.834  -7.039  1.00  0.00    -0.451 OA
ENDROOT
BRANCH   1  12
ATOM     12  C   UNL     1     -13.089 -47.263  -4.946  1.00  0.00     0.063 A 
ATOM     13  C   UNL     1     -12.917 -48.068  -2.655  1.00  0.00     0.047 A 
ATOM     14  C   UNL     1     -12.463 -47.242  -3.687  1.00  0.00     0.020 A 
ATOM     15  C   UNL     1     -14.005 -48.917  -2.863  1.00  0.00     0.119 A 
ATOM     16  C   UNL     1     -14.637 -48.945  -4.112  1.00  0.00     0.093 A 
ATOM     17  C   UNL     1     -14.185 -48.131  -5.158  1.00  0.00     0.130 A 
BRANCH  15  18
ATOM     18  O   UNL     1     -14.450 -49.731  -1.823  1.00  0.00    -0.508 OA
ATOM     19  H   UNL     1     -14.952 -49.350  -1.030  1.00  0.00     0.293 HD
ENDBRANCH  15  18
BRANCH  17  20
ATOM     20  O   UNL     1     -14.828 -48.226  -6.394  1.00  0.00    -0.507 OA
ATOM     21  H   UNL     1     -14.987 -47.430  -6.996  1.00  0.00     0.293 HD
ENDBRANCH  17  20
ENDBRANCH   1  12
BRANCH   2  22
ATOM     22  O   UNL     1     -13.516 -44.426  -4.803  1.00  0.00    -0.502 OA
ATOM     23  H   UNL     1     -13.241 -43.548  -4.381  1.00  0.00     0.293 HD
ENDBRANCH   2  22
BRANCH   6  24
ATOM     24  O   UNL     1     -11.576 -42.594  -9.419  1.00  0.00    -0.507 OA
ATOM     25  H   UNL     1     -11.682 -42.159 -10.323  1.00  0.00     0.293 HD
ENDBRANCH   6  24
BRANCH   8  26
ATOM     26  O   UNL     1      -9.588 -46.582 -11.163  1.00  0.00    -0.508 OA
ATOM     27  H   UNL     1      -9.896 -47.450 -11.585  1.00  0.00     0.293 HD
ENDBRANCH   8  26
TORSDOF 6
ENDMDL
MODEL 5
REMARK VINA RESULT:    -6.997      6.239      9.743
REMARK INTER + INTRA:          -8.824
REMARK INTER:                  -8.537
REMARK INTRA:                  -0.287
REMARK UNBOUND:                -0.395
REMARK SMILES O=c1c(O)c(-c2ccc(O)cc2O)oc2cc(O)cc(O)c12
REMARK SMILES IDX 5 1 3 2 2 3 1 4 22 5 20 6 19 7 17 8 16 9 15 10 14 11 6 12
REMARK SMILES IDX 8 13 7 14 9 15 11 16 12 17 10 18 13 20 4 22 21 24 18 26
REMARK H PARENT 10 19 13 21 4 23 21 25 18 27
REMARK Flexibility Score: inf
ROOT
ATOM      1  C   UNL     1     -11.483 -42.902  -5.716  1.00  0.00     0.184 A 
ATOM      2  C   UNL     1     -11.186 -43.924  -6.630  1.00  0.00     0.208 A 
ATOM      3  C   UNL     1     -11.474 -43.728  -7.989  1.00  0.00     0.238 A 
ATOM      4  O   UNL     1     -11.262 -44.672  -8.795  1.00  0.00    -0.285 OA
ATOM      5  C   UNL     1     -12.030 -42.499  -8.420  1.00  0.00     0.111 A 
ATOM      6  C   UNL     1     -12.325 -42.174  -9.779  1.00  0.00     0.134 A 
ATOM      7  C   UNL     1     -12.986 -40.976 -10.074  1.00  0.00     0.093 A 
ATOM      8  C   UNL     1     -13.304 -40.061  -9.070  1.00  0.00     0.123 A 
ATOM      9  C   UNL     1     -12.967 -40.342  -7.746  1.00  0.00     0.094 A 
ATOM     10  C   UNL     1     -12.341 -41.545  -7.415  1.00  0.00     0.146 A 
ATOM     11  O   UNL     1     -12.051 -41.779  -6.140  1.00  0.00    -0.451 OA
ENDROOT
BRANCH   1  12
ATOM     12  C   UNL     1     -11.180 -43.044  -4.276  1.00  0.00     0.063 A 
ATOM     13  C   UNL     1     -11.983 -43.339  -1.997  1.00  0.00     0.047 A 
ATOM     14  C   UNL     1     -12.239 -43.149  -3.358  1.00  0.00     0.020 A 
ATOM     15  C   UNL     1     -10.669 -43.434  -1.537  1.00  0.00     0.119 A 
ATOM     16  C   UNL     1      -9.605 -43.331  -2.443  1.00  0.00     0.093 A 
ATOM     17  C   UNL     1      -9.848 -43.130  -3.807  1.00  0.00     0.130 A 
BRANCH  15  18
ATOM     18  O   UNL     1     -10.428 -43.627  -0.178  1.00  0.00    -0.508 OA
ATOM     19  H   UNL     1     -11.172 -43.559   0.506  1.00  0.00     0.293 HD
ENDBRANCH  15  18
BRANCH  17  20
ATOM     20  O   UNL     1      -8.751 -42.999  -4.660  1.00  0.00    -0.507 OA
ATOM     21  H   UNL     1      -8.253 -43.789  -5.046  1.00  0.00     0.293 HD
ENDBRANCH  17  20
ENDBRANCH   1  12
BRANCH   2  22
ATOM     22  O   UNL     1     -10.635 -45.127  -6.176  1.00  0.00    -0.502 OA
ATOM     23  H   UNL     1     -10.464 -45.309  -5.196  1.00  0.00     0.293 HD
ENDBRANCH   2  22
BRANCH   6  24
ATOM     24  O   UNL     1     -11.971 -42.975 -10.869  1.00  0.00    -0.507 OA
ATOM     25  H   UNL     1     -12.449 -42.984 -11.757  1.00  0.00     0.293 HD
ENDBRANCH   6  24
BRANCH   8  26
ATOM     26  O   UNL     1     -13.948 -38.871  -9.404  1.00  0.00    -0.508 OA
ATOM     27  H   UNL     1     -14.272 -38.227  -8.691  1.00  0.00     0.293 HD
ENDBRANCH   8  26
TORSDOF 6
ENDMDL
MODEL 6
REMARK VINA RESULT:    -6.953      8.928     12.771
REMARK INTER + INTRA:          -8.771
REMARK INTER:                  -8.429
REMARK INTRA:                  -0.342
REMARK UNBOUND:                -0.395
REMARK SMILES O=c1c(O)c(-c2ccc(O)cc2O)oc2cc(O)cc(O)c12
REMARK SMILES IDX 5 1 3 2 2 3 1 4 22 5 20 6 19 7 17 8 16 9 15 10 14 11 6 12
REMARK SMILES IDX 8 13 7 14 9 15 11 16 12 17 10 18 13 20 4 22 21 24 18 26
REMARK H PARENT 10 19 13 21 4 23 21 25 18 27
REMARK Flexibility Score: inf
ROOT
ATOM      1  C   UNL     1     -11.722 -42.210 -10.179  1.00  0.00     0.184 A 
ATOM      2  C   UNL     1     -10.747 -41.217 -10.007  1.00  0.00     0.208 A 
ATOM      3  C   UNL     1      -9.427 -41.483 -10.403  1.00  0.00     0.238 A 
ATOM      4  O   UNL     1      -8.544 -40.611 -10.190  1.00  0.00    -0.285 OA
ATOM      5  C   UNL     1      -9.108 -42.729 -10.994  1.00  0.00     0.111 A 
ATOM      6  C   UNL     1      -7.812 -43.093 -11.471  1.00  0.00     0.134 A 
ATOM      7  C   UNL     1      -7.584 -44.398 -11.925  1.00  0.00     0.093 A 
ATOM      8  C   UNL     1      -8.618 -45.332 -11.981  1.00  0.00     0.123 A 
ATOM      9  C   UNL     1      -9.902 -44.970 -11.573  1.00  0.00     0.094 A 
ATOM     10  C   UNL     1     -10.152 -43.688 -11.080  1.00  0.00     0.146 A 
ATOM     11  O   UNL     1     -11.385 -43.389 -10.688  1.00  0.00    -0.451 OA
ENDROOT
BRANCH   1  12
ATOM     12  C   UNL     1     -13.133 -41.978  -9.801  1.00  0.00     0.063 A 
ATOM     13  C   UNL     1     -15.212 -40.761 -10.151  1.00  0.00     0.047 A 
ATOM     14  C   UNL     1     -13.862 -40.965 -10.448  1.00  0.00     0.020 A 
ATOM     15  C   UNL     1     -15.854 -41.568  -9.210  1.00  0.00     0.119 A 
ATOM     16  C   UNL     1     -15.138 -42.581  -8.559  1.00  0.00     0.093 A 
ATOM     17  C   UNL     1     -13.782 -42.789  -8.840  1.00  0.00     0.130 A 
BRANCH  15  18
ATOM     18  O   UNL     1     -17.201 -41.355  -8.926  1.00  0.00    -0.508 OA
ATOM     19  H   UNL     1     -17.623 -40.438  -9.018  1.00  0.00     0.293 HD
ENDBRANCH  15  18
BRANCH  17  20
ATOM     20  O   UNL     1     -13.108 -43.789  -8.136  1.00  0.00    -0.507 OA
ATOM     21  H   UNL     1     -12.115 -43.953  -8.225  1.00  0.00     0.293 HD
ENDBRANCH  17  20
ENDBRANCH   1  12
BRANCH   2  22
ATOM     22  O   UNL     1     -11.092 -39.994  -9.424  1.00  0.00    -0.502 OA
ATOM     23  H   UNL     1     -11.713 -39.334  -9.875  1.00  0.00     0.293 HD
ENDBRANCH   2  22
BRANCH   6  24
ATOM     24  O   UNL     1      -6.730 -42.210 -11.543  1.00  0.00    -0.507 OA
ATOM     25  H   UNL     1      -6.045 -42.078 -10.814  1.00  0.00     0.293 HD
ENDBRANCH   6  24
BRANCH   8  26
ATOM     26  O   UNL     1      -8.357 -46.617 -12.454  1.00  0.00    -0.508 OA
ATOM     27  H   UNL     1      -7.442 -47.041 -12.357  1.00  0.00     0.293 HD
ENDBRANCH   8  26
TORSDOF 6
ENDMDL
MODEL 7
REMARK VINA RESULT:    -6.890      1.673      6.925
REMARK INTER + INTRA:          -8.695
REMARK INTER:                  -8.291
REMARK INTRA:                  -0.404
REMARK UNBOUND:                -0.395
REMARK SMILES O=c1c(O)c(-c2ccc(O)cc2O)oc2cc(O)cc(O)c12
REMARK SMILES IDX 5 1 3 2 2 3 1 4 22 5 20 6 19 7 17 8 16 9 15 10 14 11 6 12
REMARK SMILES IDX 8 13 7 14 9 15 11 16 12 17 10 18 13 20 4 22 21 24 18 26
REMARK H PARENT 10 19 13 21 4 23 21 25 18 27
REMARK Flexibility Score: inf
ROOT
ATOM      1  C   UNL     1     -15.309 -45.758  -0.452  1.00  0.00     0.184 A 
ATOM      2  C   UNL     1     -14.056 -45.128  -0.440  1.00  0.00     0.208 A 
ATOM      3  C   UNL     1     -13.083 -45.530  -1.369  1.00  0.00     0.238 A 
ATOM      4  O   UNL     1     -11.941 -45.003  -1.313  1.00  0.00    -0.285 OA
ATOM      5  C   UNL     1     -13.389 -46.537  -2.316  1.00  0.00     0.111 A 
ATOM      6  C   UNL     1     -12.494 -46.994  -3.331  1.00  0.00     0.134 A 
ATOM      7  C   UNL     1     -12.859 -48.081  -4.134  1.00  0.00     0.093 A 
ATOM      8  C   UNL     1     -14.110 -48.684  -4.006  1.00  0.00     0.123 A 
ATOM      9  C   UNL     1     -15.015 -48.207  -3.058  1.00  0.00     0.094 A 
ATOM     10  C   UNL     1     -14.666 -47.150  -2.216  1.00  0.00     0.146 A 
ATOM     11  O   UNL     1     -15.552 -46.735  -1.317  1.00  0.00    -0.451 OA
ENDROOT
BRANCH   1  12
ATOM     12  C   UNL     1     -16.380 -45.362   0.488  1.00  0.00     0.063 A 
ATOM     13  C   UNL     1     -18.425 -44.111   0.909  1.00  0.00     0.047 A 
ATOM     14  C   UNL     1     -17.370 -44.460   0.061  1.00  0.00     0.020 A 
ATOM     15  C   UNL     1     -18.509 -44.661   2.189  1.00  0.00     0.119 A 
ATOM     16  C   UNL     1     -17.528 -45.561   2.625  1.00  0.00     0.093 A 
ATOM     17  C   UNL     1     -16.461 -45.911   1.789  1.00  0.00     0.130 A 
BRANCH  15  18
ATOM     18  O   UNL     1     -19.568 -44.306   3.022  1.00  0.00    -0.508 OA
ATOM     19  H   UNL     1     -20.245 -43.604   2.747  1.00  0.00     0.293 HD
ENDBRANCH  15  18
BRANCH  17  20
ATOM     20  O   UNL     1     -15.492 -46.784   2.287  1.00  0.00    -0.507 OA
ATOM     21  H   UNL     1     -15.712 -47.692   2.675  1.00  0.00     0.293 HD
ENDBRANCH  17  20
ENDBRANCH   1  12
BRANCH   2  22
ATOM     22  O   UNL     1     -13.784 -44.134   0.505  1.00  0.00    -0.502 OA
ATOM     23  H   UNL     1     -12.991 -44.185   1.132  1.00  0.00     0.293 HD
ENDBRANCH   2  22
BRANCH   6  24
ATOM     24  O   UNL     1     -11.256 -46.405  -3.604  1.00  0.00    -0.507 OA
ATOM     25  H   UNL     1     -10.361 -46.813  -3.379  1.00  0.00     0.293 HD
ENDBRANCH   6  24
BRANCH   8  26
ATOM     26  O   UNL     1     -14.445 -49.753  -4.835  1.00  0.00    -0.508 OA
ATOM     27  H   UNL     1     -14.061 -50.679  -4.685  1.00  0.00     0.293 HD
ENDBRANCH   8  26
TORSDOF 6
ENDMDL
MODEL 8
REMARK VINA RESULT:    -6.810      1.980      7.017
REMARK INTER + INTRA:          -8.599
REMARK INTER:                  -8.338
REMARK INTRA:                  -0.261
REMARK UNBOUND:                -0.395
REMARK SMILES O=c1c(O)c(-c2ccc(O)cc2O)oc2cc(O)cc(O)c12
REMARK SMILES IDX 5 1 3 2 2 3 1 4 22 5 20 6 19 7 17 8 16 9 15 10 14 11 6 12
REMARK SMILES IDX 8 13 7 14 9 15 11 16 12 17 10 18 13 20 4 22 21 24 18 26
REMARK H PARENT 10 19 13 21 4 23 21 25 18 27
REMARK Flexibility Score: inf
ROOT
ATOM      1  C   UNL     1     -16.670 -45.405   0.380  1.00  0.00     0.184 A 
ATOM      2  C   UNL     1     -15.873 -46.526   0.104  1.00  0.00     0.208 A 
ATOM      3  C   UNL     1     -15.485 -46.775  -1.222  1.00  0.00     0.238 A 
ATOM      4  O   UNL     1     -14.822 -47.816  -1.472  1.00  0.00    -0.285 OA
ATOM      5  C   UNL     1     -15.875 -45.882  -2.249  1.00  0.00     0.111 A 
ATOM      6  C   UNL     1     -15.505 -46.013  -3.622  1.00  0.00     0.134 A 
ATOM      7  C   UNL     1     -16.051 -45.139  -4.570  1.00  0.00     0.093 A 
ATOM      8  C   UNL     1     -16.899 -44.100  -4.189  1.00  0.00     0.123 A 
ATOM      9  C   UNL     1     -17.220 -43.926  -2.843  1.00  0.00     0.094 A 
ATOM     10  C   UNL     1     -16.723 -44.804  -1.878  1.00  0.00     0.146 A 
ATOM     11  O   UNL     1     -17.065 -44.612  -0.609  1.00  0.00    -0.451 OA
ENDROOT
BRANCH   1  12
ATOM     12  C   UNL     1     -17.090 -45.080   1.760  1.00  0.00     0.063 A 
ATOM     13  C   UNL     1     -16.479 -44.581   4.062  1.00  0.00     0.047 A 
ATOM     14  C   UNL     1     -16.115 -44.942   2.762  1.00  0.00     0.020 A 
ATOM     15  C   UNL     1     -17.818 -44.345   4.377  1.00  0.00     0.119 A 
ATOM     16  C   UNL     1     -18.799 -44.479   3.386  1.00  0.00     0.093 A 
ATOM     17  C   UNL     1     -18.449 -44.850   2.082  1.00  0.00     0.130 A 
BRANCH  15  18
ATOM     18  O   UNL     1     -18.165 -43.982   5.677  1.00  0.00    -0.508 OA
ATOM     19  H   UNL     1     -17.994 -43.047   6.029  1.00  0.00     0.293 HD
ENDBRANCH  15  18
BRANCH  17  20
ATOM     20  O   UNL     1     -19.470 -45.004   1.143  1.00  0.00    -0.507 OA
ATOM     21  H   UNL     1     -20.109 -44.261   0.894  1.00  0.00     0.293 HD
ENDBRANCH  17  20
ENDBRANCH   1  12
BRANCH   2  22
ATOM     22  O   UNL     1     -15.500 -47.389   1.139  1.00  0.00    -0.502 OA
ATOM     23  H   UNL     1     -14.936 -48.214   0.979  1.00  0.00     0.293 HD
ENDBRANCH   2  22
BRANCH   6  24
ATOM     24  O   UNL     1     -14.594 -46.961  -4.099  1.00  0.00    -0.507 OA
ATOM     25  H   UNL     1     -13.788 -47.292  -3.590  1.00  0.00     0.293 HD
ENDBRANCH   6  24
BRANCH   8  26
ATOM     26  O   UNL     1     -17.410 -43.240  -5.159  1.00  0.00    -0.508 OA
ATOM     27  H   UNL     1     -17.961 -43.586  -5.936  1.00  0.00     0.293 HD
ENDBRANCH   8  26
TORSDOF 6
ENDMDL
MODEL 9
REMARK VINA RESULT:    -6.791      1.750      6.538
REMARK INTER + INTRA:          -8.576
REMARK INTER:                  -8.272
REMARK INTRA:                  -0.304
REMARK UNBOUND:                -0.395
REMARK SMILES O=c1c(O)c(-c2ccc(O)cc2O)oc2cc(O)cc(O)c12
REMARK SMILES IDX 5 1 3 2 2 3 1 4 22 5 20 6 19 7 17 8 16 9 15 10 14 11 6 12
REMARK SMILES IDX 8 13 7 14 9 15 11 16 12 17 10 18 13 20 4 22 21 24 18 26
REMARK H PARENT 10 19 13 21 4 23 21 25 18 27
REMARK Flexibility Score: inf
ROOT
ATOM      1  C   UNL     1     -16.830 -45.000  -0.994  1.00  0.00     0.184 A 
ATOM      2  C   UNL     1     -16.925 -43.998  -1.971  1.00  0.00     0.208 A 
ATOM      3  C   UNL     1     -16.439 -44.257  -3.262  1.00  0.00     0.238 A 
ATOM      4  O   UNL     1     -16.472 -43.333  -4.116  1.00  0.00    -0.285 OA
ATOM      5  C   UNL     1     -15.890 -45.526  -3.565  1.00  0.00     0.111 A 
ATOM      6  C   UNL     1     -15.403 -45.914  -4.850  1.00  0.00     0.134 A 
ATOM      7  C   UNL     1     -14.769 -47.153  -5.003  1.00  0.00     0.093 A 
ATOM      8  C   UNL     1     -14.662 -48.045  -3.937  1.00  0.00     0.123 A 
ATOM      9  C   UNL     1     -15.186 -47.701  -2.691  1.00  0.00     0.094 A 
ATOM     10  C   UNL     1     -15.791 -46.457  -2.497  1.00  0.00     0.146 A 
ATOM     11  O   UNL     1     -16.264 -46.163  -1.291  1.00  0.00    -0.451 OA
ENDROOT
BRANCH   1  12
ATOM     12  C   UNL     1     -17.347 -44.792   0.376  1.00  0.00     0.063 A 
ATOM     13  C   UNL     1     -19.231 -44.328   1.845  1.00  0.00     0.047 A 
ATOM     14  C   UNL     1     -18.704 -44.476   0.559  1.00  0.00     0.020 A 
ATOM     15  C   UNL     1     -18.414 -44.502   2.964  1.00  0.00     0.119 A 
ATOM     16  C   UNL     1     -17.060 -44.818   2.793  1.00  0.00     0.093 A 
ATOM     17  C   UNL     1     -16.517 -44.958   1.510  1.00  0.00     0.130 A 
BRANCH  15  18
ATOM     18  O   UNL     1     -18.954 -44.356   4.240  1.00  0.00    -0.508 OA
ATOM     19  H   UNL     1     -18.650 -43.617   4.862  1.00  0.00     0.293 HD
ENDBRANCH  15  18
BRANCH  17  20
ATOM     20  O   UNL     1     -15.154 -45.238   1.397  1.00  0.00    -0.507 OA
ATOM     21  H   UNL     1     -14.436 -44.672   1.829  1.00  0.00     0.293 HD
ENDBRANCH  17  20
ENDBRANCH   1  12
BRANCH   2  22
ATOM     22  O   UNL     1     -17.476 -42.755  -1.644  1.00  0.00    -0.502 OA
ATOM     23  H   UNL     1     -18.378 -42.662  -1.195  1.00  0.00     0.293 HD
ENDBRANCH   2  22
BRANCH   6  24
ATOM     24  O   UNL     1     -15.539 -45.136  -6.004  1.00  0.00    -0.507 OA
ATOM     25  H   UNL     1     -15.050 -45.301  -6.871  1.00  0.00     0.293 HD
ENDBRANCH   6  24
BRANCH   8  26
ATOM     26  O   UNL     1     -14.038 -49.276  -4.131  1.00  0.00    -0.508 OA
ATOM     27  H   UNL     1     -13.734 -49.575  -5.050  1.00  0.00     0.293 HD
ENDBRANCH   8  26
TORSDOF 6
ENDMDL
