MODEL 1
REMARK VINA RESULT:    -7.002      0.000      0.000
REMARK INTER + INTRA:          -8.740
REMARK INTER:                  -8.434
REMARK INTRA:                  -0.306
REMARK UNBOUND:                -0.306
REMARK SMILES O=c1c(O)c(-c2ccc(O)c(O)c2)oc2cc(O)cc(O)c12
REMARK SMILES IDX 5 1 3 2 2 3 1 4 22 5 20 6 19 7 17 8 16 9 15 10 14 11 6 12
REMARK SMILES IDX 7 13 8 14 9 15 13 16 11 17 10 18 12 20 4 22 21 24 18 26
REMARK H PARENT 10 19 12 21 4 23 21 25 18 27
REMARK Flexibility Score: inf
ROOT
ATOM      1  C   UNL     1      23.731  16.861   3.963  1.00  0.00     0.180 A 
ATOM      2  C   UNL     1      22.405  17.022   4.401  1.00  0.00     0.208 A 
ATOM      3  C   UNL     1      21.377  16.352   3.719  1.00  0.00     0.238 A 
ATOM      4  O   UNL     1      20.187  16.542   4.081  1.00  0.00    -0.285 OA
ATOM      5  C   UNL     1      21.689  15.517   2.619  1.00  0.00     0.111 A 
ATOM      6  C   UNL     1      20.732  14.759   1.879  1.00  0.00     0.134 A 
ATOM      7  C   UNL     1      21.136  14.070   0.729  1.00  0.00     0.093 A 
ATOM      8  C   UNL     1      22.474  14.060   0.328  1.00  0.00     0.123 A 
ATOM      9  C   UNL     1      23.426  14.748   1.077  1.00  0.00     0.094 A 
ATOM     10  C   UNL     1      23.047  15.474   2.209  1.00  0.00     0.146 A 
ATOM     11  O   UNL     1      23.984  16.124   2.889  1.00  0.00    -0.452 OA
ENDROOT
BRANCH   1  12
ATOM     12  C   UNL     1      24.871  17.515   4.646  1.00  0.00     0.025 A 
ATOM     13  C   UNL     1      25.407  16.995   5.838  1.00  0.00     0.016 A 
ATOM     14  C   UNL     1      26.498  17.615   6.452  1.00  0.00     0.051 A 
ATOM     15  C   UNL     1      27.079  18.754   5.879  1.00  0.00     0.157 A 
ATOM     16  C   UNL     1      25.470  18.645   4.066  1.00  0.00     0.062 A 
ATOM     17  C   UNL     1      26.563  19.269   4.678  1.00  0.00     0.158 A 
BRANCH  15  18
ATOM     18  O   UNL     1      28.166  19.371   6.495  1.00  0.00    -0.504 OA
ATOM     19  H   UNL     1      28.274  20.380   6.493  1.00  0.00     0.293 HD
ENDBRANCH  15  18
BRANCH  17  20
ATOM     20  O   UNL     1      27.122  20.397   4.078  1.00  0.00    -0.504 OA
ATOM     21  H   UNL     1      26.868  20.690   3.142  1.00  0.00     0.293 HD
ENDBRANCH  17  20
ENDBRANCH   1  12
BRANCH   2  22
ATOM     22  O   UNL     1      22.117  17.868   5.476  1.00  0.00    -0.502 OA
ATOM     23  H   UNL     1      21.850  17.516   6.388  1.00  0.00     0.293 HD
ENDBRANCH   2  22
BRANCH   6  24
ATOM     24  O   UNL     1      19.389  14.628   2.245  1.00  0.00    -0.507 OA
ATOM     25  H   UNL     1      18.915  13.749   2.384  1.00  0.00     0.293 HD
ENDBRANCH   6  24
BRANCH   8  26
ATOM     26  O   UNL     1      22.871  13.359  -0.809  1.00  0.00    -0.508 OA
ATOM     27  H   UNL     1      22.281  13.306  -1.631  1.00  0.00     0.293 HD
ENDBRANCH   8  26
TORSDOF 6
ENDMDL
MODEL 2
REMARK VINA RESULT:    -6.809      7.555     11.219
REMARK INTER + INTRA:          -8.509
REMARK INTER:                  -9.003
REMARK INTRA:                   0.495
REMARK UNBOUND:                -0.306
REMARK SMILES O=c1c(O)c(-c2ccc(O)c(O)c2)oc2cc(O)cc(O)c12
REMARK SMILES IDX 5 1 3 2 2 3 1 4 22 5 20 6 19 7 17 8 16 9 15 10 14 11 6 12
REMARK SMILES IDX 7 13 8 14 9 15 13 16 11 17 10 18 12 20 4 22 21 24 18 26
REMARK H PARENT 10 19 12 21 4 23 21 25 18 27
REMARK Flexibility Score: inf
ROOT
ATOM      1  C   UNL     1      25.334  11.539  -3.609  1.00  0.00     0.180 A 
ATOM      2  C   UNL     1      26.368  11.723  -4.543  1.00  0.00     0.208 A 
ATOM      3  C   UNL     1      27.678  11.926  -4.077  1.00  0.00     0.238 A 
ATOM      4  O   UNL     1      28.590  12.144  -4.916  1.00  0.00    -0.285 OA
ATOM      5  C   UNL     1      27.938  11.926  -2.686  1.00  0.00     0.111 A 
ATOM      6  C   UNL     1      29.233  12.083  -2.104  1.00  0.00     0.134 A 
ATOM      7  C   UNL     1      29.355  12.199  -0.714  1.00  0.00     0.093 A 
ATOM      8  C   UNL     1      28.238  12.098   0.119  1.00  0.00     0.123 A 
ATOM      9  C   UNL     1      26.979  11.886  -0.436  1.00  0.00     0.094 A 
ATOM     10  C   UNL     1      26.820  11.803  -1.822  1.00  0.00     0.146 A 
ATOM     11  O   UNL     1      25.600  11.611  -2.310  1.00  0.00    -0.452 OA
ENDROOT
BRANCH   1  12
ATOM     12  C   UNL     1      23.933  11.295  -4.022  1.00  0.00     0.025 A 
ATOM     13  C   UNL     1      22.869  11.417  -3.111  1.00  0.00     0.016 A 
ATOM     14  C   UNL     1      21.552  11.205  -3.529  1.00  0.00     0.051 A 
ATOM     15  C   UNL     1      21.278  10.884  -4.864  1.00  0.00     0.157 A 
ATOM     16  C   UNL     1      23.650  10.993  -5.364  1.00  0.00     0.062 A 
ATOM     17  C   UNL     1      22.333  10.780  -5.787  1.00  0.00     0.158 A 
BRANCH  15  18
ATOM     18  O   UNL     1      19.964  10.671  -5.278  1.00  0.00    -0.504 OA
ATOM     19  H   UNL     1      19.176  10.898  -4.681  1.00  0.00     0.293 HD
ENDBRANCH  15  18
BRANCH  17  20
ATOM     20  O   UNL     1      22.093  10.469  -7.125  1.00  0.00    -0.504 OA
ATOM     21  H   UNL     1      21.313   9.889  -7.411  1.00  0.00     0.293 HD
ENDBRANCH  17  20
ENDBRANCH   1  12
BRANCH   2  22
ATOM     22  O   UNL     1      26.085  11.740  -5.911  1.00  0.00    -0.502 OA
ATOM     23  H   UNL     1      25.721  12.561  -6.381  1.00  0.00     0.293 HD
ENDBRANCH   2  22
BRANCH   6  24
ATOM     24  O   UNL     1      30.422  12.102  -2.839  1.00  0.00    -0.507 OA
ATOM     25  H   UNL     1      31.193  11.467  -2.701  1.00  0.00     0.293 HD
ENDBRANCH   6  24
BRANCH   8  26
ATOM     26  O   UNL     1      28.371  12.199   1.502  1.00  0.00    -0.508 OA
ATOM     27  H   UNL     1      28.038  11.468   2.121  1.00  0.00     0.293 HD
ENDBRANCH   8  26
TORSDOF 6
ENDMDL
MODEL 3
REMARK VINA RESULT:    -6.596      1.448      7.011
REMARK INTER + INTRA:          -8.252
REMARK INTER:                  -7.928
REMARK INTRA:                  -0.323
REMARK UNBOUND:                -0.306
REMARK SMILES O=c1c(O)c(-c2ccc(O)c(O)c2)oc2cc(O)cc(O)c12
REMARK SMILES IDX 5 1 3 2 2 3 1 4 22 5 20 6 19 7 17 8 16 9 15 10 14 11 6 12
REMARK SMILES IDX 7 13 8 14 9 15 13 16 11 17 10 18 12 20 4 22 21 24 18 26
REMARK H PARENT 10 19 12 21 4 23 21 25 18 27
REMARK Flexibility Score: inf
ROOT
ATOM      1  C   UNL     1      23.614  17.337   3.477  1.00  0.00     0.180 A 
ATOM      2  C   UNL     1      23.873  18.601   2.918  1.00  0.00     0.208 A 
ATOM      3  C   UNL     1      24.951  19.354   3.409  1.00  0.00     0.238 A 
ATOM      4  O   UNL     1      25.144  20.507   2.943  1.00  0.00    -0.285 OA
ATOM      5  C   UNL     1      25.766  18.829   4.441  1.00  0.00     0.111 A 
ATOM      6  C   UNL     1      26.908  19.489   4.987  1.00  0.00     0.134 A 
ATOM      7  C   UNL     1      27.562  18.934   6.094  1.00  0.00     0.093 A 
ATOM      8  C   UNL     1      27.155  17.712   6.634  1.00  0.00     0.123 A 
ATOM      9  C   UNL     1      26.078  17.032   6.071  1.00  0.00     0.094 A 
ATOM     10  C   UNL     1      25.383  17.577   4.988  1.00  0.00     0.146 A 
ATOM     11  O   UNL     1      24.356  16.901   4.488  1.00  0.00    -0.452 OA
ENDROOT
BRANCH   1  12
ATOM     12  C   UNL     1      22.512  16.473   2.996  1.00  0.00     0.025 A 
ATOM     13  C   UNL     1      21.216  16.573   3.533  1.00  0.00     0.016 A 
ATOM     14  C   UNL     1      20.185  15.764   3.046  1.00  0.00     0.051 A 
ATOM     15  C   UNL     1      20.429  14.855   2.009  1.00  0.00     0.157 A 
ATOM     16  C   UNL     1      22.746  15.575   1.942  1.00  0.00     0.062 A 
ATOM     17  C   UNL     1      21.716  14.763   1.452  1.00  0.00     0.158 A 
BRANCH  15  18
ATOM     18  O   UNL     1      19.400  14.049   1.527  1.00  0.00    -0.504 OA
ATOM     19  H   UNL     1      18.434  14.356   1.541  1.00  0.00     0.293 HD
ENDBRANCH  15  18
BRANCH  17  20
ATOM     20  O   UNL     1      21.991  13.874   0.414  1.00  0.00    -0.504 OA
ATOM     21  H   UNL     1      22.931  13.727   0.066  1.00  0.00     0.293 HD
ENDBRANCH  17  20
ENDBRANCH   1  12
BRANCH   2  22
ATOM     22  O   UNL     1      23.043  19.108   1.915  1.00  0.00    -0.502 OA
ATOM     23  H   UNL     1      22.823  20.095   1.839  1.00  0.00     0.293 HD
ENDBRANCH   2  22
BRANCH   6  24
ATOM     24  O   UNL     1      27.452  20.666   4.465  1.00  0.00    -0.507 OA
ATOM     25  H   UNL     1      27.900  20.742   3.564  1.00  0.00     0.293 HD
ENDBRANCH   6  24
BRANCH   8  26
ATOM     26  O   UNL     1      27.821  17.159   7.725  1.00  0.00    -0.508 OA
ATOM     27  H   UNL     1      27.972  17.688   8.577  1.00  0.00     0.293 HD
ENDBRANCH   8  26
TORSDOF 6
ENDMDL
MODEL 4
REMARK VINA RESULT:    -6.582      3.020      5.445
REMARK INTER + INTRA:          -8.235
REMARK INTER:                  -7.901
REMARK INTRA:                  -0.333
REMARK UNBOUND:                -0.306
REMARK SMILES O=c1c(O)c(-c2ccc(O)c(O)c2)oc2cc(O)cc(O)c12
REMARK SMILES IDX 5 1 3 2 2 3 1 4 22 5 20 6 19 7 17 8 16 9 15 10 14 11 6 12
REMARK SMILES IDX 7 13 8 14 9 15 13 16 11 17 10 18 12 20 4 22 21 24 18 26
REMARK H PARENT 10 19 12 21 4 23 21 25 18 27
REMARK Flexibility Score: inf
ROOT
ATOM      1  C   UNL     1      23.686  14.396   0.696  1.00  0.00     0.180 A 
ATOM      2  C   UNL     1      22.690  13.685   0.004  1.00  0.00     0.208 A 
ATOM      3  C   UNL     1      23.073  12.714  -0.935  1.00  0.00     0.238 A 
ATOM      4  O   UNL     1      22.178  12.119  -1.589  1.00  0.00    -0.285 OA
ATOM      5  C   UNL     1      24.447  12.454  -1.158  1.00  0.00     0.111 A 
ATOM      6  C   UNL     1      24.949  11.464  -2.056  1.00  0.00     0.134 A 
ATOM      7  C   UNL     1      26.326  11.384  -2.295  1.00  0.00     0.093 A 
ATOM      8  C   UNL     1      27.224  12.213  -1.620  1.00  0.00     0.123 A 
ATOM      9  C   UNL     1      26.749  13.142  -0.698  1.00  0.00     0.094 A 
ATOM     10  C   UNL     1      25.377  13.270  -0.464  1.00  0.00     0.146 A 
ATOM     11  O   UNL     1      24.965  14.175   0.416  1.00  0.00    -0.452 OA
ENDROOT
BRANCH   1  12
ATOM     12  C   UNL     1      23.361  15.417   1.717  1.00  0.00     0.025 A 
ATOM     13  C   UNL     1      23.197  15.072   3.071  1.00  0.00     0.016 A 
ATOM     14  C   UNL     1      22.914  16.056   4.022  1.00  0.00     0.051 A 
ATOM     15  C   UNL     1      22.804  17.399   3.639  1.00  0.00     0.157 A 
ATOM     16  C   UNL     1      23.271  16.767   1.342  1.00  0.00     0.062 A 
ATOM     17  C   UNL     1      22.987  17.756   2.292  1.00  0.00     0.158 A 
BRANCH  15  18
ATOM     18  O   UNL     1      22.520  18.378   4.589  1.00  0.00    -0.504 OA
ATOM     19  H   UNL     1      22.341  19.340   4.322  1.00  0.00     0.293 HD
ENDBRANCH  15  18
BRANCH  17  20
ATOM     20  O   UNL     1      22.892  19.084   1.879  1.00  0.00    -0.504 OA
ATOM     21  H   UNL     1      23.711  19.642   1.668  1.00  0.00     0.293 HD
ENDBRANCH  17  20
ENDBRANCH   1  12
BRANCH   2  22
ATOM     22  O   UNL     1      21.340  13.973   0.225  1.00  0.00    -0.502 OA
ATOM     23  H   UNL     1      20.818  14.614  -0.361  1.00  0.00     0.293 HD
ENDBRANCH   2  22
BRANCH   6  24
ATOM     24  O   UNL     1      24.146  10.526  -2.712  1.00  0.00    -0.507 OA
ATOM     25  H   UNL     1      23.255  10.196  -2.373  1.00  0.00     0.293 HD
ENDBRANCH   6  24
BRANCH   8  26
ATOM     26  O   UNL     1      28.595  12.116  -1.852  1.00  0.00    -0.508 OA
ATOM     27  H   UNL     1      28.964  11.936  -2.778  1.00  0.00     0.293 HD
ENDBRANCH   8  26
TORSDOF 6
ENDMDL
MODEL 5
REMARK VINA RESULT:    -6.467      7.971     10.731
REMARK INTER + INTRA:          -8.097
REMARK INTER:                  -8.342
REMARK INTRA:                   0.245
REMARK UNBOUND:                -0.306
REMARK SMILES O=c1c(O)c(-c2ccc(O)c(O)c2)oc2cc(O)cc(O)c12
REMARK SMILES IDX 5 1 3 2 2 3 1 4 22 5 20 6 19 7 17 8 16 9 15 10 14 11 6 12
REMARK SMILES IDX 7 13 8 14 9 15 13 16 11 17 10 18 12 20 4 22 21 24 18 26
REMARK H PARENT 10 19 12 21 4 23 21 25 18 27
REMARK Flexibility Score: inf
ROOT
ATOM      1  C   UNL     1      25.180  11.347  -2.840  1.00  0.00     0.180 A 
ATOM      2  C   UNL     1      25.277  10.942  -1.497  1.00  0.00     0.208 A 
ATOM      3  C   UNL     1      26.507  11.079  -0.832  1.00  0.00     0.238 A 
ATOM      4  O   UNL     1      26.602  10.664   0.352  1.00  0.00    -0.285 OA
ATOM      5  C   UNL     1      27.617  11.634  -1.512  1.00  0.00     0.111 A 
ATOM      6  C   UNL     1      28.899  11.856  -0.924  1.00  0.00     0.134 A 
ATOM      7  C   UNL     1      29.961  12.290  -1.727  1.00  0.00     0.093 A 
ATOM      8  C   UNL     1      29.772  12.571  -3.082  1.00  0.00     0.123 A 
ATOM      9  C   UNL     1      28.511  12.414  -3.651  1.00  0.00     0.094 A 
ATOM     10  C   UNL     1      27.440  11.949  -2.884  1.00  0.00     0.146 A 
ATOM     11  O   UNL     1      26.257  11.803  -3.468  1.00  0.00    -0.452 OA
ENDROOT
BRANCH   1  12
ATOM     12  C   UNL     1      23.912  11.258  -3.600  1.00  0.00     0.025 A 
ATOM     13  C   UNL     1      22.665  11.373  -2.960  1.00  0.00     0.016 A 
ATOM     14  C   UNL     1      21.482  11.309  -3.701  1.00  0.00     0.051 A 
ATOM     15  C   UNL     1      21.527  11.143  -5.091  1.00  0.00     0.157 A 
ATOM     16  C   UNL     1      23.952  11.112  -4.996  1.00  0.00     0.062 A 
ATOM     17  C   UNL     1      22.769  11.048  -5.742  1.00  0.00     0.158 A 
BRANCH  15  18
ATOM     18  O   UNL     1      20.345  11.078  -5.828  1.00  0.00    -0.504 OA
ATOM     19  H   UNL     1      19.768  10.245  -5.832  1.00  0.00     0.293 HD
ENDBRANCH  15  18
BRANCH  17  20
ATOM     20  O   UNL     1      22.848  10.889  -7.125  1.00  0.00    -0.504 OA
ATOM     21  H   UNL     1      22.453  10.085  -7.598  1.00  0.00     0.293 HD
ENDBRANCH  17  20
ENDBRANCH   1  12
BRANCH   2  22
ATOM     22  O   UNL     1      24.174  10.376  -0.852  1.00  0.00    -0.502 OA
ATOM     23  H   UNL     1      23.471   9.840  -1.347  1.00  0.00     0.293 HD
ENDBRANCH   2  22
BRANCH   6  24
ATOM     24  O   UNL     1      29.171  11.695   0.438  1.00  0.00    -0.507 OA
ATOM     25  H   UNL     1      28.965  12.379   1.150  1.00  0.00     0.293 HD
ENDBRANCH   6  24
BRANCH   8  26
ATOM     26  O   UNL     1      30.830  13.017  -3.870  1.00  0.00    -0.508 OA
ATOM     27  H   UNL     1      30.739  13.830  -4.469  1.00  0.00     0.293 HD
ENDBRANCH   8  26
TORSDOF 6
ENDMDL
MODEL 6
REMARK VINA RESULT:    -6.343     11.481     13.852
REMARK INTER + INTRA:          -7.947
REMARK INTER:                  -7.633
REMARK INTRA:                  -0.314
REMARK UNBOUND:                -0.306
REMARK SMILES O=c1c(O)c(-c2ccc(O)c(O)c2)oc2cc(O)cc(O)c12
REMARK SMILES IDX 5 1 3 2 2 3 1 4 22 5 20 6 19 7 17 8 16 9 15 10 14 11 6 12
REMARK SMILES IDX 7 13 8 14 9 15 13 16 11 17 10 18 12 20 4 22 21 24 18 26
REMARK H PARENT 10 19 12 21 4 23 21 25 18 27
REMARK Flexibility Score: inf
ROOT
ATOM      1  C   UNL     1      34.919  17.684  -1.781  1.00  0.00     0.180 A 
ATOM      2  C   UNL     1      35.543  18.624  -2.620  1.00  0.00     0.208 A 
ATOM      3  C   UNL     1      36.621  18.213  -3.420  1.00  0.00     0.238 A 
ATOM      4  O   UNL     1      37.210  19.071  -4.128  1.00  0.00    -0.285 OA
ATOM      5  C   UNL     1      37.052  16.865  -3.382  1.00  0.00     0.111 A 
ATOM      6  C   UNL     1      38.109  16.330  -4.179  1.00  0.00     0.134 A 
ATOM      7  C   UNL     1      38.537  15.014  -3.964  1.00  0.00     0.093 A 
ATOM      8  C   UNL     1      37.903  14.194  -3.027  1.00  0.00     0.123 A 
ATOM      9  C   UNL     1      36.833  14.689  -2.287  1.00  0.00     0.094 A 
ATOM     10  C   UNL     1      36.406  16.009  -2.453  1.00  0.00     0.146 A 
ATOM     11  O   UNL     1      35.389  16.444  -1.720  1.00  0.00    -0.452 OA
ENDROOT
BRANCH   1  12
ATOM     12  C   UNL     1      33.761  18.036  -0.928  1.00  0.00     0.025 A 
ATOM     13  C   UNL     1      33.930  18.430   0.411  1.00  0.00     0.016 A 
ATOM     14  C   UNL     1      32.825  18.780   1.190  1.00  0.00     0.051 A 
ATOM     15  C   UNL     1      31.536  18.756   0.641  1.00  0.00     0.157 A 
ATOM     16  C   UNL     1      32.470  18.034  -1.480  1.00  0.00     0.062 A 
ATOM     17  C   UNL     1      31.359  18.384  -0.703  1.00  0.00     0.158 A 
BRANCH  15  18
ATOM     18  O   UNL     1      30.435  19.104   1.421  1.00  0.00    -0.504 OA
ATOM     19  H   UNL     1      30.089  20.057   1.455  1.00  0.00     0.293 HD
ENDBRANCH  15  18
BRANCH  17  20
ATOM     20  O   UNL     1      30.091  18.357  -1.282  1.00  0.00    -0.504 OA
ATOM     21  H   UNL     1      29.625  19.200  -1.595  1.00  0.00     0.293 HD
ENDBRANCH  17  20
ENDBRANCH   1  12
BRANCH   2  22
ATOM     22  O   UNL     1      35.114  19.954  -2.626  1.00  0.00    -0.502 OA
ATOM     23  H   UNL     1      35.762  20.734  -2.648  1.00  0.00     0.293 HD
ENDBRANCH   2  22
BRANCH   6  24
ATOM     24  O   UNL     1      38.747  17.034  -5.204  1.00  0.00    -0.507 OA
ATOM     25  H   UNL     1      38.937  18.024  -5.189  1.00  0.00     0.293 HD
ENDBRANCH   6  24
BRANCH   8  26
ATOM     26  O   UNL     1      38.325  12.881  -2.831  1.00  0.00    -0.508 OA
ATOM     27  H   UNL     1      37.668  12.140  -2.612  1.00  0.00     0.293 HD
ENDBRANCH   8  26
TORSDOF 6
ENDMDL
MODEL 7
REMARK VINA RESULT:    -6.297     11.718     13.868
REMARK INTER + INTRA:          -7.891
REMARK INTER:                  -7.565
REMARK INTRA:                  -0.327
REMARK UNBOUND:                -0.306
REMARK SMILES O=c1c(O)c(-c2ccc(O)c(O)c2)oc2cc(O)cc(O)c12
REMARK SMILES IDX 5 1 3 2 2 3 1 4 22 5 20 6 19 7 17 8 16 9 15 10 14 11 6 12
REMARK SMILES IDX 7 13 8 14 9 15 13 16 11 17 10 18 12 20 4 22 21 24 18 26
REMARK H PARENT 10 19 12 21 4 23 21 25 18 27
REMARK Flexibility Score: inf
ROOT
ATOM      1  C   UNL     1      34.577  18.916  -3.949  1.00  0.00     0.180 A 
ATOM      2  C   UNL     1      33.459  18.321  -4.559  1.00  0.00     0.208 A 
ATOM      3  C   UNL     1      32.379  17.919  -3.756  1.00  0.00     0.238 A 
ATOM      4  O   UNL     1      31.405  17.337  -4.301  1.00  0.00    -0.285 OA
ATOM      5  C   UNL     1      32.424  18.131  -2.357  1.00  0.00     0.111 A 
ATOM      6  C   UNL     1      31.370  17.799  -1.453  1.00  0.00     0.134 A 
ATOM      7  C   UNL     1      31.576  17.934  -0.074  1.00  0.00     0.093 A 
ATOM      8  C   UNL     1      32.773  18.448   0.429  1.00  0.00     0.123 A 
ATOM      9  C   UNL     1      33.785  18.830  -0.448  1.00  0.00     0.094 A 
ATOM     10  C   UNL     1      33.623  18.675  -1.827  1.00  0.00     0.146 A 
ATOM     11  O   UNL     1      34.616  19.042  -2.628  1.00  0.00    -0.452 OA
ENDROOT
BRANCH   1  12
ATOM     12  C   UNL     1      35.743  19.388  -4.731  1.00  0.00     0.025 A 
ATOM     13  C   UNL     1      35.753  20.659  -5.334  1.00  0.00     0.016 A 
ATOM     14  C   UNL     1      36.874  21.093  -6.047  1.00  0.00     0.051 A 
ATOM     15  C   UNL     1      38.004  20.273  -6.156  1.00  0.00     0.157 A 
ATOM     16  C   UNL     1      36.886  18.579  -4.826  1.00  0.00     0.062 A 
ATOM     17  C   UNL     1      38.011  19.011  -5.539  1.00  0.00     0.158 A 
BRANCH  15  18
ATOM     18  O   UNL     1      39.119  20.708  -6.869  1.00  0.00    -0.504 OA
ATOM     19  H   UNL     1      39.905  20.094  -7.053  1.00  0.00     0.293 HD
ENDBRANCH  15  18
BRANCH  17  20
ATOM     20  O   UNL     1      39.122  18.173  -5.623  1.00  0.00    -0.504 OA
ATOM     21  H   UNL     1      39.608  18.009  -6.497  1.00  0.00     0.293 HD
ENDBRANCH  17  20
ENDBRANCH   1  12
BRANCH   2  22
ATOM     22  O   UNL     1      33.445  18.101  -5.939  1.00  0.00    -0.502 OA
ATOM     23  H   UNL     1      32.701  18.441  -6.536  1.00  0.00     0.293 HD
ENDBRANCH   2  22
BRANCH   6  24
ATOM     24  O   UNL     1      30.104  17.365  -1.856  1.00  0.00    -0.507 OA
ATOM     25  H   UNL     1      29.242  17.854  -1.668  1.00  0.00     0.293 HD
ENDBRANCH   6  24
BRANCH   8  26
ATOM     26  O   UNL     1      32.963  18.594   1.802  1.00  0.00    -0.508 OA
ATOM     27  H   UNL     1      32.285  18.247   2.470  1.00  0.00     0.293 HD
ENDBRANCH   8  26
TORSDOF 6
ENDMDL
MODEL 8
REMARK VINA RESULT:    -6.296      2.341      6.462
REMARK INTER + INTRA:          -7.890
REMARK INTER:                  -8.057
REMARK INTRA:                   0.167
REMARK UNBOUND:                -0.306
REMARK SMILES O=c1c(O)c(-c2ccc(O)c(O)c2)oc2cc(O)cc(O)c12
REMARK SMILES IDX 5 1 3 2 2 3 1 4 22 5 20 6 19 7 17 8 16 9 15 10 14 11 6 12
REMARK SMILES IDX 7 13 8 14 9 15 13 16 11 17 10 18 12 20 4 22 21 24 18 26
REMARK H PARENT 10 19 12 21 4 23 21 25 18 27
REMARK Flexibility Score: inf
ROOT
ATOM      1  C   UNL     1      22.647  15.195   1.398  1.00  0.00     0.180 A 
ATOM      2  C   UNL     1      21.416  15.118   2.073  1.00  0.00     0.208 A 
ATOM      3  C   UNL     1      21.050  16.158   2.943  1.00  0.00     0.238 A 
ATOM      4  O   UNL     1      19.973  16.057   3.585  1.00  0.00    -0.285 OA
ATOM      5  C   UNL     1      21.912  17.267   3.116  1.00  0.00     0.111 A 
ATOM      6  C   UNL     1      21.624  18.396   3.942  1.00  0.00     0.134 A 
ATOM      7  C   UNL     1      22.606  19.375   4.141  1.00  0.00     0.093 A 
ATOM      8  C   UNL     1      23.840  19.299   3.492  1.00  0.00     0.123 A 
ATOM      9  C   UNL     1      24.108  18.232   2.637  1.00  0.00     0.094 A 
ATOM     10  C   UNL     1      23.162  17.222   2.447  1.00  0.00     0.146 A 
ATOM     11  O   UNL     1      23.462  16.218   1.632  1.00  0.00    -0.452 OA
ENDROOT
BRANCH   1  12
ATOM     12  C   UNL     1      23.091  14.152   0.446  1.00  0.00     0.025 A 
ATOM     13  C   UNL     1      22.176  13.487  -0.390  1.00  0.00     0.016 A 
ATOM     14  C   UNL     1      22.620  12.523  -1.298  1.00  0.00     0.051 A 
ATOM     15  C   UNL     1      23.984  12.217  -1.395  1.00  0.00     0.157 A 
ATOM     16  C   UNL     1      24.459  13.857   0.331  1.00  0.00     0.062 A 
ATOM     17  C   UNL     1      24.908  12.891  -0.578  1.00  0.00     0.158 A 
BRANCH  15  18
ATOM     18  O   UNL     1      24.424  11.254  -2.300  1.00  0.00    -0.504 OA
ATOM     19  H   UNL     1      25.408  11.028  -2.398  1.00  0.00     0.293 HD
ENDBRANCH  15  18
BRANCH  17  20
ATOM     20  O   UNL     1      26.273  12.616  -0.654  1.00  0.00    -0.504 OA
ATOM     21  H   UNL     1      26.974  13.341  -0.556  1.00  0.00     0.293 HD
ENDBRANCH  17  20
ENDBRANCH   1  12
BRANCH   2  22
ATOM     22  O   UNL     1      20.591  14.003   1.904  1.00  0.00    -0.502 OA
ATOM     23  H   UNL     1      20.503  13.280   2.609  1.00  0.00     0.293 HD
ENDBRANCH   2  22
BRANCH   6  24
ATOM     24  O   UNL     1      20.390  18.615   4.562  1.00  0.00    -0.507 OA
ATOM     25  H   UNL     1      20.250  19.201   5.371  1.00  0.00     0.293 HD
ENDBRANCH   6  24
BRANCH   8  26
ATOM     26  O   UNL     1      24.806  20.285   3.682  1.00  0.00    -0.508 OA
ATOM     27  H   UNL     1      25.079  20.587   4.610  1.00  0.00     0.293 HD
ENDBRANCH   8  26
TORSDOF 6
ENDMDL
MODEL 9
REMARK VINA RESULT:    -6.212     11.610     13.794
REMARK INTER + INTRA:          -7.789
REMARK INTER:                  -7.466
REMARK INTRA:                  -0.323
REMARK UNBOUND:                -0.306
REMARK SMILES O=c1c(O)c(-c2ccc(O)c(O)c2)oc2cc(O)cc(O)c12
REMARK SMILES IDX 5 1 3 2 2 3 1 4 22 5 20 6 19 7 17 8 16 9 15 10 14 11 6 12
REMARK SMILES IDX 7 13 8 14 9 15 13 16 11 17 10 18 12 20 4 22 21 24 18 26
REMARK H PARENT 10 19 12 21 4 23 21 25 18 27
REMARK Flexibility Score: inf
ROOT
ATOM      1  C   UNL     1      35.375  17.972  -2.836  1.00  0.00     0.180 A 
ATOM      2  C   UNL     1      35.762  18.157  -1.497  1.00  0.00     0.208 A 
ATOM      3  C   UNL     1      34.769  18.269  -0.510  1.00  0.00     0.238 A 
ATOM      4  O   UNL     1      35.120  18.488   0.678  1.00  0.00    -0.285 OA
ATOM      5  C   UNL     1      33.403  18.181  -0.873  1.00  0.00     0.111 A 
ATOM      6  C   UNL     1      32.315  18.242   0.050  1.00  0.00     0.134 A 
ATOM      7  C   UNL     1      31.001  18.274  -0.434  1.00  0.00     0.093 A 
ATOM      8  C   UNL     1      30.735  18.183  -1.802  1.00  0.00     0.123 A 
ATOM      9  C   UNL     1      31.788  18.064  -2.706  1.00  0.00     0.094 A 
ATOM     10  C   UNL     1      33.111  18.064  -2.256  1.00  0.00     0.146 A 
ATOM     11  O   UNL     1      34.085  17.959  -3.151  1.00  0.00    -0.452 OA
ENDROOT
BRANCH   1  12
ATOM     12  C   UNL     1      36.363  17.820  -3.928  1.00  0.00     0.025 A 
ATOM     13  C   UNL     1      36.784  16.550  -4.362  1.00  0.00     0.016 A 
ATOM     14  C   UNL     1      37.700  16.430  -5.411  1.00  0.00     0.051 A 
ATOM     15  C   UNL     1      38.197  17.573  -6.050  1.00  0.00     0.157 A 
ATOM     16  C   UNL     1      36.848  18.961  -4.586  1.00  0.00     0.062 A 
ATOM     17  C   UNL     1      37.766  18.845  -5.637  1.00  0.00     0.158 A 
BRANCH  15  18
ATOM     18  O   UNL     1      39.111  17.450  -7.095  1.00  0.00    -0.504 OA
ATOM     19  H   UNL     1      38.912  17.815  -8.019  1.00  0.00     0.293 HD
ENDBRANCH  15  18
BRANCH  17  20
ATOM     20  O   UNL     1      38.236  20.002  -6.256  1.00  0.00    -0.504 OA
ATOM     21  H   UNL     1      37.756  20.424  -7.043  1.00  0.00     0.293 HD
ENDBRANCH  17  20
ENDBRANCH   1  12
BRANCH   2  22
ATOM     22  O   UNL     1      37.115  18.263  -1.165  1.00  0.00    -0.502 OA
ATOM     23  H   UNL     1      37.855  18.100  -1.839  1.00  0.00     0.293 HD
ENDBRANCH   2  22
BRANCH   6  24
ATOM     24  O   UNL     1      32.468  18.243   1.439  1.00  0.00    -0.507 OA
ATOM     25  H   UNL     1      31.827  17.813   2.088  1.00  0.00     0.293 HD
ENDBRANCH   6  24
BRANCH   8  26
ATOM     26  O   UNL     1      29.424  18.201  -2.275  1.00  0.00    -0.508 OA
ATOM     27  H   UNL     1      29.161  18.746  -3.087  1.00  0.00     0.293 HD
ENDBRANCH   8  26
TORSDOF 6
ENDMDL
