MODEL 1
REMARK VINA RESULT:    -6.408      0.000      0.000
REMARK INTER + INTRA:          -7.810
REMARK INTER:                  -7.532
REMARK INTRA:                  -0.278
REMARK UNBOUND:                -0.278
REMARK SMILES O=c1cc(-c2ccc(O)c(O)c2)oc2cc(O)cc(O)c12
REMARK SMILES IDX 4 1 3 2 2 3 1 4 21 5 19 6 18 7 16 8 15 9 14 10 13 11 5 12
REMARK SMILES IDX 6 13 7 14 8 15 12 16 10 17 9 18 11 20 20 22 17 24
REMARK H PARENT 9 19 11 21 20 23 17 25
REMARK Flexibility Score: inf
ROOT
ATOM      1  C   UNL     1      11.087  23.646  31.817  1.00  0.00     0.138 A 
ATOM      2  C   UNL     1      10.945  24.412  32.982  1.00  0.00     0.100 A 
ATOM      3  C   UNL     1      10.384  25.687  32.904  1.00  0.00     0.197 A 
ATOM      4  O   UNL     1      10.212  26.326  33.975  1.00  0.00    -0.289 OA
ATOM      5  C   UNL     1       9.992  26.209  31.648  1.00  0.00     0.107 A 
ATOM      6  C   UNL     1       9.448  27.512  31.444  1.00  0.00     0.134 A 
ATOM      7  C   UNL     1       8.988  27.876  30.171  1.00  0.00     0.093 A 
ATOM      8  C   UNL     1       9.108  27.009  29.087  1.00  0.00     0.123 A 
ATOM      9  C   UNL     1       9.690  25.752  29.263  1.00  0.00     0.094 A 
ATOM     10  C   UNL     1      10.126  25.347  30.528  1.00  0.00     0.146 A 
ATOM     11  O   UNL     1      10.661  24.137  30.658  1.00  0.00    -0.456 OA
ENDROOT
BRANCH   1  12
ATOM     12  C   UNL     1      11.678  22.284  31.841  1.00  0.00     0.021 A 
ATOM     13  C   UNL     1      12.622  21.923  30.868  1.00  0.00     0.016 A 
ATOM     14  C   UNL     1      13.197  20.650  30.873  1.00  0.00     0.051 A 
ATOM     15  C   UNL     1      12.851  19.716  31.854  1.00  0.00     0.157 A 
ATOM     16  C   UNL     1      11.340  21.349  32.837  1.00  0.00     0.062 A 
ATOM     17  C   UNL     1      11.915  20.070  32.853  1.00  0.00     0.158 A 
BRANCH  15  18
ATOM     18  O   UNL     1      13.458  18.459  31.800  1.00  0.00    -0.504 OA
ATOM     19  H   UNL     1      13.842  17.982  32.603  1.00  0.00     0.293 HD
ENDBRANCH  15  18
BRANCH  17  20
ATOM     20  O   UNL     1      11.533  19.197  33.873  1.00  0.00    -0.504 OA
ATOM     21  H   UNL     1      10.602  18.817  33.972  1.00  0.00     0.293 HD
ENDBRANCH  17  20
ENDBRANCH   1  12
BRANCH   6  22
ATOM     22  O   UNL     1       9.358  28.487  32.442  1.00  0.00    -0.507 OA
ATOM     23  H   UNL     1       9.393  28.303  33.433  1.00  0.00     0.293 HD
ENDBRANCH   6  22
BRANCH   8  24
ATOM     24  O   UNL     1       8.655  27.410  27.832  1.00  0.00    -0.508 OA
ATOM     25  H   UNL     1       8.936  26.927  26.987  1.00  0.00     0.293 HD
ENDBRANCH   8  24
TORSDOF 5
ENDMDL
MODEL 2
REMARK VINA RESULT:    -6.293      8.110     10.528
REMARK INTER + INTRA:          -7.675
REMARK INTER:                  -7.401
REMARK INTRA:                  -0.274
REMARK UNBOUND:                -0.278
REMARK SMILES O=c1cc(-c2ccc(O)c(O)c2)oc2cc(O)cc(O)c12
REMARK SMILES IDX 4 1 3 2 2 3 1 4 21 5 19 6 18 7 16 8 15 9 14 10 13 11 5 12
REMARK SMILES IDX 6 13 7 14 8 15 12 16 10 17 9 18 11 20 20 22 17 24
REMARK H PARENT 9 19 11 21 20 23 17 25
REMARK Flexibility Score: inf
ROOT
ATOM      1  C   UNL     1       5.301  20.776  26.416  1.00  0.00     0.138 A 
ATOM      2  C   UNL     1       3.938  20.640  26.117  1.00  0.00     0.100 A 
ATOM      3  C   UNL     1       3.436  19.394  25.741  1.00  0.00     0.197 A 
ATOM      4  O   UNL     1       2.198  19.289  25.540  1.00  0.00    -0.289 OA
ATOM      5  C   UNL     1       4.309  18.285  25.634  1.00  0.00     0.107 A 
ATOM      6  C   UNL     1       3.916  16.978  25.220  1.00  0.00     0.134 A 
ATOM      7  C   UNL     1       4.846  15.931  25.263  1.00  0.00     0.093 A 
ATOM      8  C   UNL     1       6.167  16.157  25.647  1.00  0.00     0.123 A 
ATOM      9  C   UNL     1       6.577  17.443  26.002  1.00  0.00     0.094 A 
ATOM     10  C   UNL     1       5.664  18.501  26.002  1.00  0.00     0.146 A 
ATOM     11  O   UNL     1       6.090  19.708  26.361  1.00  0.00    -0.456 OA
ENDROOT
BRANCH   1  12
ATOM     12  C   UNL     1       5.889  22.078  26.820  1.00  0.00     0.021 A 
ATOM     13  C   UNL     1       5.873  23.153  25.918  1.00  0.00     0.016 A 
ATOM     14  C   UNL     1       6.414  24.389  26.276  1.00  0.00     0.051 A 
ATOM     15  C   UNL     1       6.972  24.583  27.544  1.00  0.00     0.157 A 
ATOM     16  C   UNL     1       6.437  22.277  28.101  1.00  0.00     0.062 A 
ATOM     17  C   UNL     1       6.979  23.515  28.471  1.00  0.00     0.158 A 
BRANCH  15  18
ATOM     18  O   UNL     1       7.501  25.842  27.838  1.00  0.00    -0.504 OA
ATOM     19  H   UNL     1       6.948  26.630  28.141  1.00  0.00     0.293 HD
ENDBRANCH  15  18
BRANCH  17  20
ATOM     20  O   UNL     1       7.504  23.638  29.759  1.00  0.00    -0.504 OA
ATOM     21  H   UNL     1       8.289  24.227  29.995  1.00  0.00     0.293 HD
ENDBRANCH  17  20
ENDBRANCH   1  12
BRANCH   6  22
ATOM     22  O   UNL     1       2.643  16.661  24.738  1.00  0.00    -0.507 OA
ATOM     23  H   UNL     1       1.855  16.407  25.314  1.00  0.00     0.293 HD
ENDBRANCH   6  22
BRANCH   8  24
ATOM     24  O   UNL     1       7.069  15.095  25.664  1.00  0.00    -0.508 OA
ATOM     25  H   UNL     1       7.072  14.414  26.415  1.00  0.00     0.293 HD
ENDBRANCH   8  24
TORSDOF 5
ENDMDL
MODEL 3
REMARK VINA RESULT:    -6.269      7.979      9.032
REMARK INTER + INTRA:          -7.646
REMARK INTER:                  -7.358
REMARK INTRA:                  -0.289
REMARK UNBOUND:                -0.278
REMARK SMILES O=c1cc(-c2ccc(O)c(O)c2)oc2cc(O)cc(O)c12
REMARK SMILES IDX 4 1 3 2 2 3 1 4 21 5 19 6 18 7 16 8 15 9 14 10 13 11 5 12
REMARK SMILES IDX 6 13 7 14 8 15 12 16 10 17 9 18 11 20 20 22 17 24
REMARK H PARENT 9 19 11 21 20 23 17 25
REMARK Flexibility Score: inf
ROOT
ATOM      1  C   UNL     1       4.135  21.162  26.394  1.00  0.00     0.138 A 
ATOM      2  C   UNL     1       2.910  21.842  26.361  1.00  0.00     0.100 A 
ATOM      3  C   UNL     1       2.891  23.234  26.458  1.00  0.00     0.197 A 
ATOM      4  O   UNL     1       1.782  23.821  26.363  1.00  0.00    -0.289 OA
ATOM      5  C   UNL     1       4.104  23.946  26.619  1.00  0.00     0.107 A 
ATOM      6  C   UNL     1       4.202  25.361  26.769  1.00  0.00     0.134 A 
ATOM      7  C   UNL     1       5.466  25.965  26.805  1.00  0.00     0.093 A 
ATOM      8  C   UNL     1       6.631  25.201  26.757  1.00  0.00     0.123 A 
ATOM      9  C   UNL     1       6.547  23.811  26.665  1.00  0.00     0.094 A 
ATOM     10  C   UNL     1       5.301  23.181  26.593  1.00  0.00     0.146 A 
ATOM     11  O   UNL     1       5.263  21.857  26.491  1.00  0.00    -0.456 OA
ENDROOT
BRANCH   1  12
ATOM     12  C   UNL     1       4.213  19.683  26.297  1.00  0.00     0.021 A 
ATOM     13  C   UNL     1       5.286  19.006  26.897  1.00  0.00     0.016 A 
ATOM     14  C   UNL     1       5.379  17.615  26.824  1.00  0.00     0.051 A 
ATOM     15  C   UNL     1       4.399  16.868  26.163  1.00  0.00     0.157 A 
ATOM     16  C   UNL     1       3.219  18.931  25.643  1.00  0.00     0.062 A 
ATOM     17  C   UNL     1       3.302  17.534  25.568  1.00  0.00     0.158 A 
BRANCH  15  18
ATOM     18  O   UNL     1       4.553  15.481  26.122  1.00  0.00    -0.504 OA
ATOM     19  H   UNL     1       5.110  14.955  26.779  1.00  0.00     0.293 HD
ENDBRANCH  15  18
BRANCH  17  20
ATOM     20  O   UNL     1       2.277  16.855  24.905  1.00  0.00    -0.504 OA
ATOM     21  H   UNL     1       1.898  17.138  24.013  1.00  0.00     0.293 HD
ENDBRANCH  17  20
ENDBRANCH   1  12
BRANCH   6  22
ATOM     22  O   UNL     1       3.101  26.210  26.910  1.00  0.00    -0.507 OA
ATOM     23  H   UNL     1       3.060  27.162  26.580  1.00  0.00     0.293 HD
ENDBRANCH   6  22
BRANCH   8  24
ATOM     24  O   UNL     1       7.871  25.835  26.810  1.00  0.00    -0.508 OA
ATOM     25  H   UNL     1       7.967  26.783  27.155  1.00  0.00     0.293 HD
ENDBRANCH   8  24
TORSDOF 5
ENDMDL
MODEL 4
REMARK VINA RESULT:    -6.244      8.243     10.719
REMARK INTER + INTRA:          -7.618
REMARK INTER:                  -7.322
REMARK INTRA:                  -0.295
REMARK UNBOUND:                -0.278
REMARK SMILES O=c1cc(-c2ccc(O)c(O)c2)oc2cc(O)cc(O)c12
REMARK SMILES IDX 4 1 3 2 2 3 1 4 21 5 19 6 18 7 16 8 15 9 14 10 13 11 5 12
REMARK SMILES IDX 6 13 7 14 8 15 12 16 10 17 9 18 11 20 20 22 17 24
REMARK H PARENT 9 19 11 21 20 23 17 25
REMARK Flexibility Score: inf
ROOT
ATOM      1  C   UNL     1       5.299  21.100  26.208  1.00  0.00     0.138 A 
ATOM      2  C   UNL     1       5.304  21.246  24.814  1.00  0.00     0.100 A 
ATOM      3  C   UNL     1       5.239  20.113  24.002  1.00  0.00     0.197 A 
ATOM      4  O   UNL     1       5.183  20.278  22.755  1.00  0.00    -0.289 OA
ATOM      5  C   UNL     1       5.199  18.826  24.590  1.00  0.00     0.107 A 
ATOM      6  C   UNL     1       5.173  17.600  23.861  1.00  0.00     0.134 A 
ATOM      7  C   UNL     1       5.017  16.390  24.550  1.00  0.00     0.093 A 
ATOM      8  C   UNL     1       4.946  16.358  25.942  1.00  0.00     0.123 A 
ATOM      9  C   UNL     1       5.026  17.547  26.669  1.00  0.00     0.094 A 
ATOM     10  C   UNL     1       5.148  18.773  26.008  1.00  0.00     0.146 A 
ATOM     11  O   UNL     1       5.205  19.883  26.735  1.00  0.00    -0.456 OA
ENDROOT
BRANCH   1  12
ATOM     12  C   UNL     1       5.368  22.270  27.119  1.00  0.00     0.021 A 
ATOM     13  C   UNL     1       6.248  23.323  26.826  1.00  0.00     0.016 A 
ATOM     14  C   UNL     1       6.327  24.437  27.664  1.00  0.00     0.051 A 
ATOM     15  C   UNL     1       5.523  24.531  28.804  1.00  0.00     0.157 A 
ATOM     16  C   UNL     1       4.548  22.370  28.258  1.00  0.00     0.062 A 
ATOM     17  C   UNL     1       4.617  23.486  29.103  1.00  0.00     0.158 A 
BRANCH  15  18
ATOM     18  O   UNL     1       5.654  25.669  29.603  1.00  0.00    -0.504 OA
ATOM     19  H   UNL     1       5.072  26.489  29.518  1.00  0.00     0.293 HD
ENDBRANCH  15  18
BRANCH  17  20
ATOM     20  O   UNL     1       3.772  23.517  30.214  1.00  0.00    -0.504 OA
ATOM     21  H   UNL     1       4.063  23.281  31.152  1.00  0.00     0.293 HD
ENDBRANCH  17  20
ENDBRANCH   1  12
BRANCH   6  22
ATOM     22  O   UNL     1       5.319  17.513  22.474  1.00  0.00    -0.507 OA
ATOM     23  H   UNL     1       4.560  17.553  21.810  1.00  0.00     0.293 HD
ENDBRANCH   6  22
BRANCH   8  24
ATOM     24  O   UNL     1       4.806  15.136  26.595  1.00  0.00    -0.508 OA
ATOM     25  H   UNL     1       4.035  14.958  27.227  1.00  0.00     0.293 HD
ENDBRANCH   8  24
TORSDOF 5
ENDMDL
MODEL 5
REMARK VINA RESULT:    -6.193      7.714      8.386
REMARK INTER + INTRA:          -7.557
REMARK INTER:                  -7.260
REMARK INTRA:                  -0.296
REMARK UNBOUND:                -0.278
REMARK SMILES O=c1cc(-c2ccc(O)c(O)c2)oc2cc(O)cc(O)c12
REMARK SMILES IDX 4 1 3 2 2 3 1 4 21 5 19 6 18 7 16 8 15 9 14 10 13 11 5 12
REMARK SMILES IDX 6 13 7 14 8 15 12 16 10 17 9 18 11 20 20 22 17 24
REMARK H PARENT 9 19 11 21 20 23 17 25
REMARK Flexibility Score: inf
ROOT
ATOM      1  C   UNL     1       5.495  20.099  27.154  1.00  0.00     0.138 A 
ATOM      2  C   UNL     1       6.475  19.876  28.131  1.00  0.00     0.100 A 
ATOM      3  C   UNL     1       7.033  20.960  28.808  1.00  0.00     0.197 A 
ATOM      4  O   UNL     1       7.865  20.725  29.723  1.00  0.00    -0.289 OA
ATOM      5  C   UNL     1       6.630  22.278  28.483  1.00  0.00     0.107 A 
ATOM      6  C   UNL     1       7.161  23.460  29.079  1.00  0.00     0.134 A 
ATOM      7  C   UNL     1       6.601  24.705  28.760  1.00  0.00     0.093 A 
ATOM      8  C   UNL     1       5.574  24.814  27.824  1.00  0.00     0.123 A 
ATOM      9  C   UNL     1       5.083  23.668  27.194  1.00  0.00     0.094 A 
ATOM     10  C   UNL     1       5.598  22.409  27.517  1.00  0.00     0.146 A 
ATOM     11  O   UNL     1       5.094  21.342  26.906  1.00  0.00    -0.456 OA
ENDROOT
BRANCH   1  12
ATOM     12  C   UNL     1       4.868  18.983  26.402  1.00  0.00     0.021 A 
ATOM     13  C   UNL     1       4.028  19.268  25.315  1.00  0.00     0.016 A 
ATOM     14  C   UNL     1       3.431  18.236  24.589  1.00  0.00     0.051 A 
ATOM     15  C   UNL     1       3.669  16.898  24.922  1.00  0.00     0.157 A 
ATOM     16  C   UNL     1       5.119  17.638  26.730  1.00  0.00     0.062 A 
ATOM     17  C   UNL     1       4.528  16.595  26.004  1.00  0.00     0.158 A 
BRANCH  15  18
ATOM     18  O   UNL     1       3.038  15.914  24.159  1.00  0.00    -0.504 OA
ATOM     19  H   UNL     1       2.638  16.076  23.247  1.00  0.00     0.293 HD
ENDBRANCH  15  18
BRANCH  17  20
ATOM     20  O   UNL     1       4.825  15.285  26.386  1.00  0.00    -0.504 OA
ATOM     21  H   UNL     1       4.201  14.698  26.921  1.00  0.00     0.293 HD
ENDBRANCH  17  20
ENDBRANCH   1  12
BRANCH   6  22
ATOM     22  O   UNL     1       8.243  23.472  29.964  1.00  0.00    -0.507 OA
ATOM     23  H   UNL     1       8.442  22.751  30.641  1.00  0.00     0.293 HD
ENDBRANCH   6  22
BRANCH   8  24
ATOM     24  O   UNL     1       5.052  26.069  27.520  1.00  0.00    -0.508 OA
ATOM     25  H   UNL     1       4.076  26.290  27.682  1.00  0.00     0.293 HD
ENDBRANCH   8  24
TORSDOF 5
ENDMDL
MODEL 6
REMARK VINA RESULT:    -6.192      5.902      6.673
REMARK INTER + INTRA:          -7.557
REMARK INTER:                  -7.280
REMARK INTRA:                  -0.276
REMARK UNBOUND:                -0.278
REMARK SMILES O=c1cc(-c2ccc(O)c(O)c2)oc2cc(O)cc(O)c12
REMARK SMILES IDX 4 1 3 2 2 3 1 4 21 5 19 6 18 7 16 8 15 9 14 10 13 11 5 12
REMARK SMILES IDX 6 13 7 14 8 15 12 16 10 17 9 18 11 20 20 22 17 24
REMARK H PARENT 9 19 11 21 20 23 17 25
REMARK Flexibility Score: inf
ROOT
ATOM      1  C   UNL     1       5.573  22.259  27.920  1.00  0.00     0.138 A 
ATOM      2  C   UNL     1       4.464  22.657  28.679  1.00  0.00     0.100 A 
ATOM      3  C   UNL     1       4.302  24.003  29.008  1.00  0.00     0.197 A 
ATOM      4  O   UNL     1       3.264  24.340  29.636  1.00  0.00    -0.289 OA
ATOM      5  C   UNL     1       5.272  24.950  28.602  1.00  0.00     0.107 A 
ATOM      6  C   UNL     1       5.232  26.341  28.916  1.00  0.00     0.134 A 
ATOM      7  C   UNL     1       6.188  27.202  28.361  1.00  0.00     0.093 A 
ATOM      8  C   UNL     1       7.215  26.714  27.555  1.00  0.00     0.123 A 
ATOM      9  C   UNL     1       7.296  25.347  27.285  1.00  0.00     0.094 A 
ATOM     10  C   UNL     1       6.337  24.467  27.796  1.00  0.00     0.146 A 
ATOM     11  O   UNL     1       6.441  23.175  27.505  1.00  0.00    -0.456 OA
ENDROOT
BRANCH   1  12
ATOM     12  C   UNL     1       5.796  20.841  27.542  1.00  0.00     0.021 A 
ATOM     13  C   UNL     1       4.849  20.181  26.743  1.00  0.00     0.016 A 
ATOM     14  C   UNL     1       5.038  18.849  26.370  1.00  0.00     0.051 A 
ATOM     15  C   UNL     1       6.180  18.150  26.774  1.00  0.00     0.157 A 
ATOM     16  C   UNL     1       6.952  20.142  27.938  1.00  0.00     0.062 A 
ATOM     17  C   UNL     1       7.152  18.806  27.565  1.00  0.00     0.158 A 
BRANCH  15  18
ATOM     18  O   UNL     1       6.307  16.819  26.371  1.00  0.00    -0.504 OA
ATOM     19  H   UNL     1       6.238  16.511  25.413  1.00  0.00     0.293 HD
ENDBRANCH  15  18
BRANCH  17  20
ATOM     20  O   UNL     1       8.324  18.179  27.993  1.00  0.00    -0.504 OA
ATOM     21  H   UNL     1       8.969  17.706  27.376  1.00  0.00     0.293 HD
ENDBRANCH  17  20
ENDBRANCH   1  12
BRANCH   6  22
ATOM     22  O   UNL     1       4.297  26.920  29.779  1.00  0.00    -0.507 OA
ATOM     23  H   UNL     1       3.864  26.451  30.560  1.00  0.00     0.293 HD
ENDBRANCH   6  22
BRANCH   8  24
ATOM     24  O   UNL     1       8.157  27.597  27.032  1.00  0.00    -0.508 OA
ATOM     25  H   UNL     1       8.245  27.749  26.034  1.00  0.00     0.293 HD
ENDBRANCH   8  24
TORSDOF 5
ENDMDL
MODEL 7
REMARK VINA RESULT:    -6.116      9.314     10.102
REMARK INTER + INTRA:          -7.467
REMARK INTER:                  -7.203
REMARK INTRA:                  -0.263
REMARK UNBOUND:                -0.278
REMARK SMILES O=c1cc(-c2ccc(O)c(O)c2)oc2cc(O)cc(O)c12
REMARK SMILES IDX 4 1 3 2 2 3 1 4 21 5 19 6 18 7 16 8 15 9 14 10 13 11 5 12
REMARK SMILES IDX 6 13 7 14 8 15 12 16 10 17 9 18 11 20 20 22 17 24
REMARK H PARENT 9 19 11 21 20 23 17 25
REMARK Flexibility Score: inf
ROOT
ATOM      1  C   UNL     1       5.007  18.741  25.950  1.00  0.00     0.138 A 
ATOM      2  C   UNL     1       5.643  18.213  27.082  1.00  0.00     0.100 A 
ATOM      3  C   UNL     1       6.237  19.075  28.004  1.00  0.00     0.197 A 
ATOM      4  O   UNL     1       6.746  18.576  29.042  1.00  0.00    -0.289 OA
ATOM      5  C   UNL     1       6.221  20.472  27.775  1.00  0.00     0.107 A 
ATOM      6  C   UNL     1       6.831  21.442  28.625  1.00  0.00     0.134 A 
ATOM      7  C   UNL     1       6.650  22.805  28.357  1.00  0.00     0.093 A 
ATOM      8  C   UNL     1       5.934  23.231  27.239  1.00  0.00     0.123 A 
ATOM      9  C   UNL     1       5.380  22.290  26.370  1.00  0.00     0.094 A 
ATOM     10  C   UNL     1       5.514  20.923  26.629  1.00  0.00     0.146 A 
ATOM     11  O   UNL     1       4.958  20.059  25.786  1.00  0.00    -0.456 OA
ENDROOT
BRANCH   1  12
ATOM     12  C   UNL     1       4.360  17.870  24.937  1.00  0.00     0.021 A 
ATOM     13  C   UNL     1       5.081  17.484  23.796  1.00  0.00     0.016 A 
ATOM     14  C   UNL     1       4.497  16.661  22.831  1.00  0.00     0.051 A 
ATOM     15  C   UNL     1       3.187  16.196  22.988  1.00  0.00     0.157 A 
ATOM     16  C   UNL     1       3.048  17.391  25.102  1.00  0.00     0.062 A 
ATOM     17  C   UNL     1       2.454  16.562  24.141  1.00  0.00     0.158 A 
BRANCH  15  18
ATOM     18  O   UNL     1       2.660  15.380  21.985  1.00  0.00    -0.504 OA
ATOM     19  H   UNL     1       3.041  15.314  21.053  1.00  0.00     0.293 HD
ENDBRANCH  15  18
BRANCH  17  20
ATOM     20  O   UNL     1       1.149  16.124  24.375  1.00  0.00    -0.504 OA
ATOM     21  H   UNL     1       0.406  16.719  24.712  1.00  0.00     0.293 HD
ENDBRANCH  17  20
ENDBRANCH   1  12
BRANCH   6  22
ATOM     22  O   UNL     1       7.636  21.124  29.722  1.00  0.00    -0.507 OA
ATOM     23  H   UNL     1       8.199  21.785  30.235  1.00  0.00     0.293 HD
ENDBRANCH   6  22
BRANCH   8  24
ATOM     24  O   UNL     1       5.787  24.595  26.995  1.00  0.00    -0.508 OA
ATOM     25  H   UNL     1       5.157  25.167  27.546  1.00  0.00     0.293 HD
ENDBRANCH   8  24
TORSDOF 5
ENDMDL
MODEL 8
REMARK VINA RESULT:    -6.096      7.842      8.747
REMARK INTER + INTRA:          -7.443
REMARK INTER:                  -7.156
REMARK INTRA:                  -0.287
REMARK UNBOUND:                -0.278
REMARK SMILES O=c1cc(-c2ccc(O)c(O)c2)oc2cc(O)cc(O)c12
REMARK SMILES IDX 4 1 3 2 2 3 1 4 21 5 19 6 18 7 16 8 15 9 14 10 13 11 5 12
REMARK SMILES IDX 6 13 7 14 8 15 12 16 10 17 9 18 11 20 20 22 17 24
REMARK H PARENT 9 19 11 21 20 23 17 25
REMARK Flexibility Score: inf
ROOT
ATOM      1  C   UNL     1       4.910  21.182  26.404  1.00  0.00     0.138 A 
ATOM      2  C   UNL     1       5.112  21.887  27.599  1.00  0.00     0.100 A 
ATOM      3  C   UNL     1       5.245  23.276  27.566  1.00  0.00     0.197 A 
ATOM      4  O   UNL     1       5.362  23.887  28.659  1.00  0.00    -0.289 OA
ATOM      5  C   UNL     1       5.207  23.958  26.326  1.00  0.00     0.107 A 
ATOM      6  C   UNL     1       5.373  25.365  26.168  1.00  0.00     0.134 A 
ATOM      7  C   UNL     1       5.201  25.943  24.903  1.00  0.00     0.093 A 
ATOM      8  C   UNL     1       4.928  25.158  23.784  1.00  0.00     0.123 A 
ATOM      9  C   UNL     1       4.817  23.773  23.917  1.00  0.00     0.094 A 
ATOM     10  C   UNL     1       4.951  23.171  25.172  1.00  0.00     0.146 A 
ATOM     11  O   UNL     1       4.824  21.851  25.259  1.00  0.00    -0.456 OA
ENDROOT
BRANCH   1  12
ATOM     12  C   UNL     1       4.763  19.705  26.381  1.00  0.00     0.021 A 
ATOM     13  C   UNL     1       5.715  18.905  27.033  1.00  0.00     0.016 A 
ATOM     14  C   UNL     1       5.596  17.514  27.030  1.00  0.00     0.051 A 
ATOM     15  C   UNL     1       4.520  16.891  26.389  1.00  0.00     0.157 A 
ATOM     16  C   UNL     1       3.673  19.080  25.748  1.00  0.00     0.062 A 
ATOM     17  C   UNL     1       3.543  17.684  25.743  1.00  0.00     0.158 A 
BRANCH  15  18
ATOM     18  O   UNL     1       4.462  15.496  26.419  1.00  0.00    -0.504 OA
ATOM     19  H   UNL     1       4.443  14.914  25.595  1.00  0.00     0.293 HD
ENDBRANCH  15  18
BRANCH  17  20
ATOM     20  O   UNL     1       2.434  17.135  25.097  1.00  0.00    -0.504 OA
ATOM     21  H   UNL     1       1.616  16.786  25.576  1.00  0.00     0.293 HD
ENDBRANCH  17  20
ENDBRANCH   1  12
BRANCH   6  22
ATOM     22  O   UNL     1       5.729  26.232  27.205  1.00  0.00    -0.507 OA
ATOM     23  H   UNL     1       5.075  26.742  27.781  1.00  0.00     0.293 HD
ENDBRANCH   6  22
BRANCH   8  24
ATOM     24  O   UNL     1       4.777  25.765  22.539  1.00  0.00    -0.508 OA
ATOM     25  H   UNL     1       4.257  25.320  21.792  1.00  0.00     0.293 HD
ENDBRANCH   8  24
TORSDOF 5
ENDMDL
MODEL 9
REMARK VINA RESULT:    -6.068      7.890     10.434
REMARK INTER + INTRA:          -7.410
REMARK INTER:                  -7.139
REMARK INTRA:                  -0.271
REMARK UNBOUND:                -0.278
REMARK SMILES O=c1cc(-c2ccc(O)c(O)c2)oc2cc(O)cc(O)c12
REMARK SMILES IDX 4 1 3 2 2 3 1 4 21 5 19 6 18 7 16 8 15 9 14 10 13 11 5 12
REMARK SMILES IDX 6 13 7 14 8 15 12 16 10 17 9 18 11 20 20 22 17 24
REMARK H PARENT 9 19 11 21 20 23 17 25
REMARK Flexibility Score: inf
ROOT
ATOM      1  C   UNL     1       5.393  21.186  27.102  1.00  0.00     0.138 A 
ATOM      2  C   UNL     1       6.478  20.371  27.456  1.00  0.00     0.100 A 
ATOM      3  C   UNL     1       6.432  19.004  27.181  1.00  0.00     0.197 A 
ATOM      4  O   UNL     1       7.446  18.310  27.454  1.00  0.00    -0.289 OA
ATOM      5  C   UNL     1       5.281  18.445  26.576  1.00  0.00     0.107 A 
ATOM      6  C   UNL     1       5.107  17.059  26.287  1.00  0.00     0.134 A 
ATOM      7  C   UNL     1       3.972  16.638  25.581  1.00  0.00     0.093 A 
ATOM      8  C   UNL     1       2.980  17.543  25.207  1.00  0.00     0.123 A 
ATOM      9  C   UNL     1       3.114  18.894  25.533  1.00  0.00     0.094 A 
ATOM     10  C   UNL     1       4.250  19.350  26.207  1.00  0.00     0.146 A 
ATOM     11  O   UNL     1       4.347  20.645  26.485  1.00  0.00    -0.456 OA
ENDROOT
BRANCH   1  12
ATOM     12  C   UNL     1       5.388  22.645  27.371  1.00  0.00     0.021 A 
ATOM     13  C   UNL     1       4.325  23.211  28.093  1.00  0.00     0.016 A 
ATOM     14  C   UNL     1       4.300  24.580  28.365  1.00  0.00     0.051 A 
ATOM     15  C   UNL     1       5.339  25.412  27.934  1.00  0.00     0.157 A 
ATOM     16  C   UNL     1       6.440  23.480  26.950  1.00  0.00     0.062 A 
ATOM     17  C   UNL     1       6.425  24.855  27.221  1.00  0.00     0.158 A 
BRANCH  15  18
ATOM     18  O   UNL     1       5.251  26.774  28.234  1.00  0.00    -0.504 OA
ATOM     19  H   UNL     1       5.994  27.307  28.658  1.00  0.00     0.293 HD
ENDBRANCH  15  18
BRANCH  17  20
ATOM     20  O   UNL     1       7.505  25.619  26.773  1.00  0.00    -0.504 OA
ATOM     21  H   UNL     1       7.515  26.123  25.898  1.00  0.00     0.293 HD
ENDBRANCH  17  20
ENDBRANCH   1  12
BRANCH   6  22
ATOM     22  O   UNL     1       5.998  16.059  26.688  1.00  0.00    -0.507 OA
ATOM     23  H   UNL     1       6.890  15.874  26.256  1.00  0.00     0.293 HD
ENDBRANCH   6  22
BRANCH   8  24
ATOM     24  O   UNL     1       1.858  17.087  24.519  1.00  0.00    -0.508 OA
ATOM     25  H   UNL     1       1.136  16.547  24.982  1.00  0.00     0.293 HD
ENDBRANCH   8  24
TORSDOF 5
ENDMDL
