MODEL 1
REMARK VINA RESULT:    -3.410      0.000      0.000
REMARK INTER + INTRA:          -6.684
REMARK INTER:                  -5.403
REMARK INTRA:                  -1.281
REMARK UNBOUND:                -1.281
REMARK SMILES CCCCCCCCCCCC(=O)[O-]
REMARK SMILES IDX 7 1 8 2 9 3 10 4 11 5 12 6 13 7 14 8 6 9 5 10 4 11 3 12 2 13
REMARK SMILES IDX 1 14
REMARK H PARENT
REMARK Flexibility Score: inf
ROOT
ATOM      1  C   UNL     1     -20.822 -20.511   3.616  1.00  0.00     0.000 C 
ENDROOT
BRANCH   1   2
ATOM      2  C   UNL     1     -21.260 -19.727   2.366  1.00  0.00     0.000 C 
BRANCH   2   3
ATOM      3  C   UNL     1     -20.619 -20.266   1.077  1.00  0.00     0.000 C 
BRANCH   3   4
ATOM      4  C   UNL     1     -21.247 -19.666  -0.193  1.00  0.00     0.006 C 
BRANCH   4   5
ATOM      5  C   UNL     1     -21.650 -20.747  -1.205  1.00  0.00     0.053 C 
BRANCH   5   6
ATOM      6  C   UNL     1     -22.683 -21.676  -0.646  1.00  0.00     0.041 C 
ATOM      7  O   UNL     1     -22.537 -22.923  -0.745  1.00  0.00    -0.550 OA
ATOM      8  O   UNL     1     -23.823 -21.163  -0.039  1.00  0.00    -0.550 OA
ENDBRANCH   5   6
ENDBRANCH   4   5
ENDBRANCH   3   4
ENDBRANCH   2   3
ENDBRANCH   1   2
BRANCH   1   9
ATOM      9  C   UNL     1     -20.020 -21.776   3.268  1.00  0.00     0.000 C 
BRANCH   9  10
ATOM     10  C   UNL     1     -18.654 -21.825   3.969  1.00  0.00    -0.000 C 
BRANCH  10  11
ATOM     11  C   UNL     1     -17.909 -20.494   3.812  1.00  0.00    -0.000 C 
BRANCH  11  12
ATOM     12  C   UNL     1     -16.819 -20.594   2.740  1.00  0.00    -0.000 C 
BRANCH  12  13
ATOM     13  C   UNL     1     -16.985 -19.497   1.682  1.00  0.00    -0.003 C 
ATOM     14  C   UNL     1     -17.743 -18.298   2.246  1.00  0.00     0.004 C 
ENDBRANCH  12  13
ENDBRANCH  11  12
ENDBRANCH  10  11
ENDBRANCH   9  10
ENDBRANCH   1   9
TORSDOF 10
ENDMDL
MODEL 2
REMARK VINA RESULT:    -3.391      3.251      5.900
REMARK INTER + INTRA:          -6.654
REMARK INTER:                  -5.692
REMARK INTRA:                  -0.962
REMARK UNBOUND:                -1.281
REMARK SMILES CCCCCCCCCCCC(=O)[O-]
REMARK SMILES IDX 7 1 8 2 9 3 10 4 11 5 12 6 13 7 14 8 6 9 5 10 4 11 3 12 2 13
REMARK SMILES IDX 1 14
REMARK H PARENT
REMARK Flexibility Score: inf
ROOT
ATOM      1  C   UNL     1     -20.953 -19.912   2.597  1.00  0.00     0.000 C 
ENDROOT
BRANCH   1   2
ATOM      2  C   UNL     1     -20.581 -21.404   2.650  1.00  0.00     0.000 C 
BRANCH   2   3
ATOM      3  C   UNL     1     -19.573 -21.722   3.767  1.00  0.00     0.000 C 
BRANCH   3   4
ATOM      4  C   UNL     1     -18.117 -21.719   3.269  1.00  0.00     0.006 C 
BRANCH   4   5
ATOM      5  C   UNL     1     -17.357 -20.463   3.713  1.00  0.00     0.053 C 
BRANCH   5   6
ATOM      6  C   UNL     1     -16.142 -20.220   2.870  1.00  0.00     0.041 C 
ATOM      7  O   UNL     1     -16.237 -20.181   1.615  1.00  0.00    -0.550 OA
ATOM      8  O   UNL     1     -14.899 -20.067   3.472  1.00  0.00    -0.550 OA
ENDBRANCH   5   6
ENDBRANCH   4   5
ENDBRANCH   3   4
ENDBRANCH   2   3
ENDBRANCH   1   2
BRANCH   1   9
ATOM      9  C   UNL     1     -20.283 -19.178   1.423  1.00  0.00     0.000 C 
BRANCH   9  10
ATOM     10  C   UNL     1     -21.267 -18.313   0.623  1.00  0.00    -0.000 C 
BRANCH  10  11
ATOM     11  C   UNL     1     -22.450 -19.149   0.120  1.00  0.00    -0.000 C 
BRANCH  11  12
ATOM     12  C   UNL     1     -22.242 -19.581  -1.335  1.00  0.00    -0.000 C 
BRANCH  12  13
ATOM     13  C   UNL     1     -21.680 -21.005  -1.411  1.00  0.00    -0.003 C 
ATOM     14  C   UNL     1     -22.432 -21.946  -0.473  1.00  0.00     0.004 C 
ENDBRANCH  12  13
ENDBRANCH  11  12
ENDBRANCH  10  11
ENDBRANCH   9  10
ENDBRANCH   1   9
TORSDOF 10
ENDMDL
MODEL 3
REMARK VINA RESULT:    -3.338      1.133      2.620
REMARK INTER + INTRA:          -6.570
REMARK INTER:                  -5.134
REMARK INTRA:                  -1.437
REMARK UNBOUND:                -1.281
REMARK SMILES CCCCCCCCCCCC(=O)[O-]
REMARK SMILES IDX 7 1 8 2 9 3 10 4 11 5 12 6 13 7 14 8 6 9 5 10 4 11 3 12 2 13
REMARK SMILES IDX 1 14
REMARK H PARENT
REMARK Flexibility Score: inf
ROOT
ATOM      1  C   UNL     1     -17.925 -18.075   2.343  1.00  0.00     0.000 C 
ENDROOT
BRANCH   1   2
ATOM      2  C   UNL     1     -19.332 -18.024   1.723  1.00  0.00     0.000 C 
BRANCH   2   3
ATOM      3  C   UNL     1     -19.690 -19.312   0.964  1.00  0.00     0.000 C 
BRANCH   3   4
ATOM      4  C   UNL     1     -21.198 -19.616   0.992  1.00  0.00     0.006 C 
BRANCH   4   5
ATOM      5  C   UNL     1     -21.638 -20.471  -0.204  1.00  0.00     0.053 C 
BRANCH   5   6
ATOM      6  C   UNL     1     -22.204 -21.788   0.231  1.00  0.00     0.041 C 
ATOM      7  O   UNL     1     -22.778 -22.539  -0.601  1.00  0.00    -0.550 OA
ATOM      8  O   UNL     1     -22.122 -22.173   1.564  1.00  0.00    -0.550 OA
ENDBRANCH   5   6
ENDBRANCH   4   5
ENDBRANCH   3   4
ENDBRANCH   2   3
ENDBRANCH   1   2
BRANCH   1   9
ATOM      9  C   UNL     1     -17.125 -19.307   1.889  1.00  0.00     0.000 C 
BRANCH   9  10
ATOM     10  C   UNL     1     -16.348 -19.968   3.037  1.00  0.00    -0.000 C 
BRANCH  10  11
ATOM     11  C   UNL     1     -17.303 -20.622   4.042  1.00  0.00    -0.000 C 
BRANCH  11  12
ATOM     12  C   UNL     1     -18.206 -21.652   3.355  1.00  0.00    -0.000 C 
BRANCH  12  13
ATOM     13  C   UNL     1     -19.606 -21.660   3.979  1.00  0.00    -0.003 C 
ATOM     14  C   UNL     1     -19.936 -20.310   4.611  1.00  0.00     0.004 C 
ENDBRANCH  12  13
ENDBRANCH  11  12
ENDBRANCH  10  11
ENDBRANCH   9  10
ENDBRANCH   1   9
TORSDOF 10
ENDMDL
MODEL 4
REMARK VINA RESULT:    -3.334      5.049      7.183
REMARK INTER + INTRA:          -6.564
REMARK INTER:                  -6.114
REMARK INTRA:                  -0.450
REMARK UNBOUND:                -1.281
REMARK SMILES CCCCCCCCCCCC(=O)[O-]
REMARK SMILES IDX 7 1 8 2 9 3 10 4 11 5 12 6 13 7 14 8 6 9 5 10 4 11 3 12 2 13
REMARK SMILES IDX 1 14
REMARK H PARENT
REMARK Flexibility Score: inf
ROOT
ATOM      1  C   UNL     1     -18.411 -17.126   1.559  1.00  0.00     0.000 C 
ENDROOT
BRANCH   1   2
ATOM      2  C   UNL     1     -17.607 -18.092   2.447  1.00  0.00     0.000 C 
BRANCH   2   3
ATOM      3  C   UNL     1     -17.368 -19.453   1.774  1.00  0.00     0.000 C 
BRANCH   3   4
ATOM      4  C   UNL     1     -16.195 -20.226   2.399  1.00  0.00     0.006 C 
BRANCH   4   5
ATOM      5  C   UNL     1     -15.720 -19.593   3.713  1.00  0.00     0.053 C 
BRANCH   5   6
ATOM      6  C   UNL     1     -16.036 -20.459   4.895  1.00  0.00     0.041 C 
ATOM      7  O   UNL     1     -15.151 -20.707   5.756  1.00  0.00    -0.550 OA
ATOM      8  O   UNL     1     -17.302 -21.016   5.029  1.00  0.00    -0.550 OA
ENDBRANCH   5   6
ENDBRANCH   4   5
ENDBRANCH   3   4
ENDBRANCH   2   3
ENDBRANCH   1   2
BRANCH   1   9
ATOM      9  C   UNL     1     -17.731 -15.754   1.413  1.00  0.00     0.000 C 
BRANCH   9  10
ATOM     10  C   UNL     1     -18.096 -15.046   0.100  1.00  0.00    -0.000 C 
BRANCH  10  11
ATOM     11  C   UNL     1     -16.838 -14.577  -0.640  1.00  0.00    -0.000 C 
BRANCH  11  12
ATOM     12  C   UNL     1     -17.003 -14.722  -2.157  1.00  0.00    -0.000 C 
BRANCH  12  13
ATOM     13  C   UNL     1     -17.544 -13.429  -2.777  1.00  0.00    -0.003 C 
ATOM     14  C   UNL     1     -18.855 -13.678  -3.519  1.00  0.00     0.004 C 
ENDBRANCH  12  13
ENDBRANCH  11  12
ENDBRANCH  10  11
ENDBRANCH   9  10
ENDBRANCH   1   9
TORSDOF 10
ENDMDL
MODEL 5
REMARK VINA RESULT:    -3.322      8.517     11.060
REMARK INTER + INTRA:          -6.545
REMARK INTER:                  -5.628
REMARK INTRA:                  -0.917
REMARK UNBOUND:                -1.281
REMARK SMILES CCCCCCCCCCCC(=O)[O-]
REMARK SMILES IDX 7 1 8 2 9 3 10 4 11 5 12 6 13 7 14 8 6 9 5 10 4 11 3 12 2 13
REMARK SMILES IDX 1 14
REMARK H PARENT
REMARK Flexibility Score: inf
ROOT
ATOM      1  C   UNL     1     -16.139 -11.273  -0.753  1.00  0.00     0.000 C 
ENDROOT
BRANCH   1   2
ATOM      2  C   UNL     1     -14.664 -11.132  -0.336  1.00  0.00     0.000 C 
BRANCH   2   3
ATOM      3  C   UNL     1     -14.219 -12.232   0.641  1.00  0.00     0.000 C 
BRANCH   3   4
ATOM      4  C   UNL     1     -12.689 -12.385   0.704  1.00  0.00     0.006 C 
BRANCH   4   5
ATOM      5  C   UNL     1     -12.266 -13.780   1.181  1.00  0.00     0.053 C 
BRANCH   5   6
ATOM      6  C   UNL     1     -11.823 -13.768   2.612  1.00  0.00     0.041 C 
ATOM      7  O   UNL     1     -11.845 -14.827   3.293  1.00  0.00    -0.550 OA
ATOM      8  O   UNL     1     -11.411 -12.579   3.202  1.00  0.00    -0.550 OA
ENDBRANCH   5   6
ENDBRANCH   4   5
ENDBRANCH   3   4
ENDBRANCH   2   3
ENDBRANCH   1   2
BRANCH   1   9
ATOM      9  C   UNL     1     -16.298 -11.785  -2.194  1.00  0.00     0.000 C 
BRANCH   9  10
ATOM     10  C   UNL     1     -17.655 -12.462  -2.438  1.00  0.00    -0.000 C 
BRANCH  10  11
ATOM     11  C   UNL     1     -17.469 -13.905  -2.922  1.00  0.00    -0.000 C 
BRANCH  11  12
ATOM     12  C   UNL     1     -16.930 -14.799  -1.799  1.00  0.00    -0.000 C 
BRANCH  12  13
ATOM     13  C   UNL     1     -17.825 -14.722  -0.557  1.00  0.00    -0.003 C 
ATOM     14  C   UNL     1     -16.992 -14.658   0.721  1.00  0.00     0.004 C 
ENDBRANCH  12  13
ENDBRANCH  11  12
ENDBRANCH  10  11
ENDBRANCH   9  10
ENDBRANCH   1   9
TORSDOF 10
ENDMDL
MODEL 6
REMARK VINA RESULT:    -3.313      5.424      7.472
REMARK INTER + INTRA:          -6.531
REMARK INTER:                  -5.954
REMARK INTRA:                  -0.576
REMARK UNBOUND:                -1.281
REMARK SMILES CCCCCCCCCCCC(=O)[O-]
REMARK SMILES IDX 7 1 8 2 9 3 10 4 11 5 12 6 13 7 14 8 6 9 5 10 4 11 3 12 2 13
REMARK SMILES IDX 1 14
REMARK H PARENT
REMARK Flexibility Score: inf
ROOT
ATOM      1  C   UNL     1     -17.235 -15.063   1.500  1.00  0.00     0.000 C 
ENDROOT
BRANCH   1   2
ATOM      2  C   UNL     1     -18.083 -16.340   1.363  1.00  0.00     0.000 C 
BRANCH   2   3
ATOM      3  C   UNL     1     -17.733 -17.397   2.423  1.00  0.00     0.000 C 
BRANCH   3   4
ATOM      4  C   UNL     1     -18.030 -18.831   1.950  1.00  0.00     0.006 C 
BRANCH   4   5
ATOM      5  C   UNL     1     -16.750 -19.652   1.755  1.00  0.00     0.053 C 
BRANCH   5   6
ATOM      6  C   UNL     1     -16.205 -20.153   3.058  1.00  0.00     0.041 C 
ATOM      7  O   UNL     1     -14.962 -20.184   3.258  1.00  0.00    -0.550 OA
ATOM      8  O   UNL     1     -17.072 -20.613   4.042  1.00  0.00    -0.550 OA
ENDBRANCH   5   6
ENDBRANCH   4   5
ENDBRANCH   3   4
ENDBRANCH   2   3
ENDBRANCH   1   2
BRANCH   1   9
ATOM      9  C   UNL     1     -16.733 -14.540   0.143  1.00  0.00     0.000 C 
BRANCH   9  10
ATOM     10  C   UNL     1     -17.606 -15.004  -1.032  1.00  0.00    -0.000 C 
BRANCH  10  11
ATOM     11  C   UNL     1     -17.004 -14.561  -2.371  1.00  0.00    -0.000 C 
BRANCH  11  12
ATOM     12  C   UNL     1     -17.976 -13.663  -3.144  1.00  0.00    -0.000 C 
BRANCH  12  13
ATOM     13  C   UNL     1     -17.925 -12.222  -2.625  1.00  0.00    -0.003 C 
ATOM     14  C   UNL     1     -16.484 -11.751  -2.445  1.00  0.00     0.004 C 
ENDBRANCH  12  13
ENDBRANCH  11  12
ENDBRANCH  10  11
ENDBRANCH   9  10
ENDBRANCH   1   9
TORSDOF 10
ENDMDL
MODEL 7
REMARK VINA RESULT:    -3.312      3.741      6.183
REMARK INTER + INTRA:          -6.530
REMARK INTER:                  -5.777
REMARK INTRA:                  -0.753
REMARK UNBOUND:                -1.281
REMARK SMILES CCCCCCCCCCCC(=O)[O-]
REMARK SMILES IDX 7 1 8 2 9 3 10 4 11 5 12 6 13 7 14 8 6 9 5 10 4 11 3 12 2 13
REMARK SMILES IDX 1 14
REMARK H PARENT
REMARK Flexibility Score: inf
ROOT
ATOM      1  C   UNL     1     -19.711 -19.124   1.407  1.00  0.00     0.000 C 
ENDROOT
BRANCH   1   2
ATOM      2  C   UNL     1     -18.496 -18.937   2.332  1.00  0.00     0.000 C 
BRANCH   2   3
ATOM      3  C   UNL     1     -17.188 -19.437   1.697  1.00  0.00     0.000 C 
BRANCH   3   4
ATOM      4  C   UNL     1     -16.432 -20.428   2.599  1.00  0.00     0.006 C 
BRANCH   4   5
ATOM      5  C   UNL     1     -15.675 -19.718   3.729  1.00  0.00     0.053 C 
BRANCH   5   6
ATOM      6  C   UNL     1     -15.958 -20.339   5.064  1.00  0.00     0.041 C 
ATOM      7  O   UNL     1     -15.051 -20.951   5.685  1.00  0.00    -0.550 OA
ATOM      8  O   UNL     1     -17.235 -20.264   5.607  1.00  0.00    -0.550 OA
ENDBRANCH   5   6
ENDBRANCH   4   5
ENDBRANCH   3   4
ENDBRANCH   2   3
ENDBRANCH   1   2
BRANCH   1   9
ATOM      9  C   UNL     1     -20.907 -19.769   2.128  1.00  0.00     0.000 C 
BRANCH   9  10
ATOM     10  C   UNL     1     -21.153 -21.220   1.690  1.00  0.00    -0.000 C 
BRANCH  10  11
ATOM     11  C   UNL     1     -22.390 -21.319   0.789  1.00  0.00    -0.000 C 
BRANCH  11  12
ATOM     12  C   UNL     1     -22.009 -21.768  -0.625  1.00  0.00    -0.000 C 
BRANCH  12  13
ATOM     13  C   UNL     1     -21.550 -20.578  -1.475  1.00  0.00    -0.003 C 
ATOM     14  C   UNL     1     -22.522 -19.407  -1.356  1.00  0.00     0.004 C 
ENDBRANCH  12  13
ENDBRANCH  11  12
ENDBRANCH  10  11
ENDBRANCH   9  10
ENDBRANCH   1   9
TORSDOF 10
ENDMDL
MODEL 8
REMARK VINA RESULT:    -3.262      5.196      6.685
REMARK INTER + INTRA:          -6.450
REMARK INTER:                  -5.855
REMARK INTRA:                  -0.596
REMARK UNBOUND:                -1.281
REMARK SMILES CCCCCCCCCCCC(=O)[O-]
REMARK SMILES IDX 7 1 8 2 9 3 10 4 11 5 12 6 13 7 14 8 6 9 5 10 4 11 3 12 2 13
REMARK SMILES IDX 1 14
REMARK H PARENT
REMARK Flexibility Score: inf
ROOT
ATOM      1  C   UNL     1     -18.107 -15.728   0.723  1.00  0.00     0.000 C 
ENDROOT
BRANCH   1   2
ATOM      2  C   UNL     1     -17.229 -14.477   0.905  1.00  0.00     0.000 C 
BRANCH   2   3
ATOM      3  C   UNL     1     -16.477 -14.091  -0.379  1.00  0.00     0.000 C 
BRANCH   3   4
ATOM      4  C   UNL     1     -17.043 -14.787  -1.629  1.00  0.00     0.006 C 
BRANCH   4   5
ATOM      5  C   UNL     1     -17.175 -13.826  -2.817  1.00  0.00     0.053 C 
BRANCH   5   6
ATOM      6  C   UNL     1     -18.594 -13.390  -3.025  1.00  0.00     0.041 C 
ATOM      7  O   UNL     1     -19.164 -12.658  -2.173  1.00  0.00    -0.550 OA
ATOM      8  O   UNL     1     -19.295 -13.816  -4.146  1.00  0.00    -0.550 OA
ENDBRANCH   5   6
ENDBRANCH   4   5
ENDBRANCH   3   4
ENDBRANCH   2   3
ENDBRANCH   1   2
BRANCH   1   9
ATOM      9  C   UNL     1     -18.069 -16.659   1.946  1.00  0.00     0.000 C 
BRANCH   9  10
ATOM     10  C   UNL     1     -18.921 -17.922   1.759  1.00  0.00    -0.000 C 
BRANCH  10  11
ATOM     11  C   UNL     1     -18.255 -19.137   2.417  1.00  0.00    -0.000 C 
BRANCH  11  12
ATOM     12  C   UNL     1     -16.966 -19.525   1.684  1.00  0.00    -0.000 C 
BRANCH  12  13
ATOM     13  C   UNL     1     -15.995 -20.247   2.624  1.00  0.00    -0.003 C 
ATOM     14  C   UNL     1     -15.958 -19.582   3.998  1.00  0.00     0.004 C 
ENDBRANCH  12  13
ENDBRANCH  11  12
ENDBRANCH  10  11
ENDBRANCH   9  10
ENDBRANCH   1   9
TORSDOF 10
ENDMDL
MODEL 9
REMARK VINA RESULT:    -3.251      4.267      6.880
REMARK INTER + INTRA:          -6.433
REMARK INTER:                  -5.851
REMARK INTRA:                  -0.583
REMARK UNBOUND:                -1.281
REMARK SMILES CCCCCCCCCCCC(=O)[O-]
REMARK SMILES IDX 7 1 8 2 9 3 10 4 11 5 12 6 13 7 14 8 6 9 5 10 4 11 3 12 2 13
REMARK SMILES IDX 1 14
REMARK H PARENT
REMARK Flexibility Score: inf
ROOT
ATOM      1  C   UNL     1     -17.609 -18.297   2.276  1.00  0.00     0.000 C 
ENDROOT
BRANCH   1   2
ATOM      2  C   UNL     1     -16.900 -19.562   1.760  1.00  0.00     0.000 C 
BRANCH   2   3
ATOM      3  C   UNL     1     -16.029 -20.232   2.836  1.00  0.00     0.000 C 
BRANCH   3   4
ATOM      4  C   UNL     1     -16.737 -20.321   4.200  1.00  0.00     0.006 C 
BRANCH   4   5
ATOM      5  C   UNL     1     -15.876 -19.753   5.336  1.00  0.00     0.053 C 
BRANCH   5   6
ATOM      6  C   UNL     1     -15.570 -20.790   6.374  1.00  0.00     0.041 C 
ATOM      7  O   UNL     1     -16.315 -20.919   7.381  1.00  0.00    -0.550 OA
ATOM      8  O   UNL     1     -14.446 -21.595   6.242  1.00  0.00    -0.550 OA
ENDBRANCH   5   6
ENDBRANCH   4   5
ENDBRANCH   3   4
ENDBRANCH   2   3
ENDBRANCH   1   2
BRANCH   1   9
ATOM      9  C   UNL     1     -19.028 -18.142   1.704  1.00  0.00     0.000 C 
BRANCH   9  10
ATOM     10  C   UNL     1     -19.817 -19.459   1.706  1.00  0.00    -0.000 C 
BRANCH  10  11
ATOM     11  C   UNL     1     -20.995 -19.394   0.726  1.00  0.00    -0.000 C 
BRANCH  11  12
ATOM     12  C   UNL     1     -21.371 -20.792   0.222  1.00  0.00    -0.000 C 
BRANCH  12  13
ATOM     13  C   UNL     1     -21.758 -20.756  -1.261  1.00  0.00    -0.003 C 
ATOM     14  C   UNL     1     -22.490 -19.463  -1.609  1.00  0.00     0.004 C 
ENDBRANCH  12  13
ENDBRANCH  11  12
ENDBRANCH  10  11
ENDBRANCH   9  10
ENDBRANCH   1   9
TORSDOF 10
ENDMDL
