MODEL 1
REMARK VINA RESULT:    -6.035      0.000      0.000
REMARK INTER + INTRA:          -7.591
REMARK INTER:                  -7.270
REMARK INTRA:                  -0.321
REMARK UNBOUND:                -0.321
REMARK SMILES O=c1c(O)c(-c2ccc(O)cc2O)oc2cc(O)cc(O)c12
REMARK SMILES IDX 5 1 3 2 2 3 1 4 22 5 20 6 19 7 17 8 16 9 15 10 14 11 6 12
REMARK SMILES IDX 8 13 7 14 9 15 11 16 12 17 10 18 13 20 4 22 21 24 18 26
REMARK H PARENT 10 19 13 21 4 23 21 25 18 27
REMARK Flexibility Score: inf
ROOT
ATOM      1  C   UNL     1     158.224   7.173  29.683  1.00  0.00     0.184 A 
ATOM      2  C   UNL     1     157.525   5.959  29.541  1.00  0.00     0.208 A 
ATOM      3  C   UNL     1     157.685   4.966  30.520  1.00  0.00     0.238 A 
ATOM      4  O   UNL     1     157.071   3.871  30.400  1.00  0.00    -0.285 OA
ATOM      5  C   UNL     1     158.523   5.208  31.629  1.00  0.00     0.111 A 
ATOM      6  C   UNL     1     158.735   4.263  32.661  1.00  0.00     0.134 A 
ATOM      7  C   UNL     1     159.579   4.583  33.734  1.00  0.00     0.093 A 
ATOM      8  C   UNL     1     160.213   5.829  33.796  1.00  0.00     0.123 A 
ATOM      9  C   UNL     1     160.007   6.764  32.780  1.00  0.00     0.094 A 
ATOM     10  C   UNL     1     159.172   6.463  31.700  1.00  0.00     0.146 A 
ATOM     11  O   UNL     1     158.997   7.371  30.746  1.00  0.00    -0.451 OA
ENDROOT
BRANCH   1  12
ATOM     12  C   UNL     1     158.117   8.256  28.678  1.00  0.00     0.063 A 
ATOM     13  C   UNL     1     159.121   9.617  26.928  1.00  0.00     0.047 A 
ATOM     14  C   UNL     1     159.212   8.578  27.857  1.00  0.00     0.020 A 
ATOM     15  C   UNL     1     157.942  10.357  26.814  1.00  0.00     0.119 A 
ATOM     16  C   UNL     1     156.849  10.055  27.637  1.00  0.00     0.093 A 
ATOM     17  C   UNL     1     156.931   9.011  28.570  1.00  0.00     0.130 A 
BRANCH  15  18
ATOM     18  O   UNL     1     157.866  11.391  25.883  1.00  0.00    -0.508 OA
ATOM     19  H   UNL     1     158.105  12.344  26.130  1.00  0.00     0.293 HD
ENDBRANCH  15  18
BRANCH  17  20
ATOM     20  O   UNL     1     155.834   8.716  29.380  1.00  0.00    -0.507 OA
ATOM     21  H   UNL     1     155.886   8.014  30.110  1.00  0.00     0.293 HD
ENDBRANCH  17  20
ENDBRANCH   1  12
BRANCH   2  22
ATOM     22  O   UNL     1     156.670   5.761  28.454  1.00  0.00    -0.502 OA
ATOM     23  H   UNL     1     157.010   5.690  27.502  1.00  0.00     0.293 HD
ENDBRANCH   2  22
BRANCH   6  24
ATOM     24  O   UNL     1     158.116   3.013  32.628  1.00  0.00    -0.507 OA
ATOM     25  H   UNL     1     157.205   2.879  32.203  1.00  0.00     0.293 HD
ENDBRANCH   6  24
BRANCH   8  26
ATOM     26  O   UNL     1     161.050   6.147  34.863  1.00  0.00    -0.508 OA
ATOM     27  H   UNL     1     161.178   5.513  35.643  1.00  0.00     0.293 HD
ENDBRANCH   8  26
TORSDOF 6
ENDMDL
MODEL 2
REMARK VINA RESULT:    -6.021      1.648      6.733
REMARK INTER + INTRA:          -7.574
REMARK INTER:                  -7.093
REMARK INTRA:                  -0.482
REMARK UNBOUND:                -0.321
REMARK SMILES O=c1c(O)c(-c2ccc(O)cc2O)oc2cc(O)cc(O)c12
REMARK SMILES IDX 5 1 3 2 2 3 1 4 22 5 20 6 19 7 17 8 16 9 15 10 14 11 6 12
REMARK SMILES IDX 8 13 7 14 9 15 11 16 12 17 10 18 13 20 4 22 21 24 18 26
REMARK H PARENT 10 19 13 21 4 23 21 25 18 27
REMARK Flexibility Score: inf
ROOT
ATOM      1  C   UNL     1     158.632   7.107  31.613  1.00  0.00     0.184 A 
ATOM      2  C   UNL     1     157.357   7.639  31.884  1.00  0.00     0.208 A 
ATOM      3  C   UNL     1     156.760   8.485  30.937  1.00  0.00     0.238 A 
ATOM      4  O   UNL     1     155.622   8.974  31.172  1.00  0.00    -0.285 OA
ATOM      5  C   UNL     1     157.436   8.770  29.732  1.00  0.00     0.111 A 
ATOM      6  C   UNL     1     156.903   9.609  28.724  1.00  0.00     0.134 A 
ATOM      7  C   UNL     1     157.636   9.837  27.550  1.00  0.00     0.093 A 
ATOM      8  C   UNL     1     158.889   9.244  27.365  1.00  0.00     0.123 A 
ATOM      9  C   UNL     1     159.419   8.416  28.357  1.00  0.00     0.094 A 
ATOM     10  C   UNL     1     158.705   8.177  29.535  1.00  0.00     0.146 A 
ATOM     11  O   UNL     1     159.236   7.389  30.463  1.00  0.00    -0.451 OA
ENDROOT
BRANCH   1  12
ATOM     12  C   UNL     1     159.329   6.223  32.576  1.00  0.00     0.063 A 
ATOM     13  C   UNL     1     160.650   5.933  34.600  1.00  0.00     0.047 A 
ATOM     14  C   UNL     1     159.970   6.763  33.706  1.00  0.00     0.020 A 
ATOM     15  C   UNL     1     160.712   4.556  34.374  1.00  0.00     0.119 A 
ATOM     16  C   UNL     1     160.089   4.009  33.245  1.00  0.00     0.093 A 
ATOM     17  C   UNL     1     159.401   4.834  32.344  1.00  0.00     0.130 A 
BRANCH  15  18
ATOM     18  O   UNL     1     161.394   3.742  35.274  1.00  0.00    -0.508 OA
ATOM     19  H   UNL     1     162.219   3.221  34.999  1.00  0.00     0.293 HD
ENDBRANCH  15  18
BRANCH  17  20
ATOM     20  O   UNL     1     158.780   4.277  31.226  1.00  0.00    -0.507 OA
ATOM     21  H   UNL     1     157.778   4.119  31.198  1.00  0.00     0.293 HD
ENDBRANCH  17  20
ENDBRANCH   1  12
BRANCH   2  22
ATOM     22  O   UNL     1     156.692   7.308  33.068  1.00  0.00    -0.502 OA
ATOM     23  H   UNL     1     156.292   8.008  33.680  1.00  0.00     0.293 HD
ENDBRANCH   2  22
BRANCH   6  24
ATOM     24  O   UNL     1     155.656  10.214  28.879  1.00  0.00    -0.507 OA
ATOM     25  H   UNL     1     155.559  11.217  28.987  1.00  0.00     0.293 HD
ENDBRANCH   6  24
BRANCH   8  26
ATOM     26  O   UNL     1     159.616   9.470  26.199  1.00  0.00    -0.508 OA
ATOM     27  H   UNL     1     160.495   9.973  26.211  1.00  0.00     0.293 HD
ENDBRANCH   8  26
TORSDOF 6
ENDMDL
MODEL 3
REMARK VINA RESULT:    -6.014      3.051      3.214
REMARK INTER + INTRA:          -7.565
REMARK INTER:                  -7.083
REMARK INTRA:                  -0.482
REMARK UNBOUND:                -0.321
REMARK SMILES O=c1c(O)c(-c2ccc(O)cc2O)oc2cc(O)cc(O)c12
REMARK SMILES IDX 5 1 3 2 2 3 1 4 22 5 20 6 19 7 17 8 16 9 15 10 14 11 6 12
REMARK SMILES IDX 8 13 7 14 9 15 11 16 12 17 10 18 13 20 4 22 21 24 18 26
REMARK H PARENT 10 19 13 21 4 23 21 25 18 27
REMARK Flexibility Score: inf
ROOT
ATOM      1  C   UNL     1     156.704   7.814  30.039  1.00  0.00     0.184 A 
ATOM      2  C   UNL     1     155.958   6.633  29.863  1.00  0.00     0.208 A 
ATOM      3  C   UNL     1     155.265   6.098  30.959  1.00  0.00     0.238 A 
ATOM      4  O   UNL     1     154.600   5.036  30.816  1.00  0.00    -0.285 OA
ATOM      5  C   UNL     1     155.313   6.759  32.204  1.00  0.00     0.111 A 
ATOM      6  C   UNL     1     154.640   6.289  33.358  1.00  0.00     0.134 A 
ATOM      7  C   UNL     1     154.734   7.009  34.559  1.00  0.00     0.093 A 
ATOM      8  C   UNL     1     155.485   8.187  34.628  1.00  0.00     0.123 A 
ATOM      9  C   UNL     1     156.151   8.654  33.492  1.00  0.00     0.094 A 
ATOM     10  C   UNL     1     156.072   7.950  32.287  1.00  0.00     0.146 A 
ATOM     11  O   UNL     1     156.719   8.416  31.224  1.00  0.00    -0.451 OA
ENDROOT
BRANCH   1  12
ATOM     12  C   UNL     1     157.474   8.422  28.930  1.00  0.00     0.063 A 
ATOM     13  C   UNL     1     159.464   8.487  27.529  1.00  0.00     0.047 A 
ATOM     14  C   UNL     1     158.725   7.897  28.557  1.00  0.00     0.020 A 
ATOM     15  C   UNL     1     158.974   9.615  26.869  1.00  0.00     0.119 A 
ATOM     16  C   UNL     1     157.737  10.157  27.241  1.00  0.00     0.093 A 
ATOM     17  C   UNL     1     156.986   9.569  28.270  1.00  0.00     0.130 A 
BRANCH  15  18
ATOM     18  O   UNL     1     159.724  10.192  25.846  1.00  0.00    -0.508 OA
ATOM     19  H   UNL     1     160.650   9.854  25.612  1.00  0.00     0.293 HD
ENDBRANCH  15  18
BRANCH  17  20
ATOM     20  O   UNL     1     155.753  10.113  28.627  1.00  0.00    -0.507 OA
ATOM     21  H   UNL     1     155.675  10.828  29.342  1.00  0.00     0.293 HD
ENDBRANCH  17  20
ENDBRANCH   1  12
BRANCH   2  22
ATOM     22  O   UNL     1     155.893   6.021  28.608  1.00  0.00    -0.502 OA
ATOM     23  H   UNL     1     155.019   5.719  28.196  1.00  0.00     0.293 HD
ENDBRANCH   2  22
BRANCH   6  24
ATOM     24  O   UNL     1     153.883   5.118  33.320  1.00  0.00    -0.507 OA
ATOM     25  H   UNL     1     153.987   4.393  34.021  1.00  0.00     0.293 HD
ENDBRANCH   6  24
BRANCH   8  26
ATOM     26  O   UNL     1     155.577   8.901  35.820  1.00  0.00    -0.508 OA
ATOM     27  H   UNL     1     156.361   9.513  36.012  1.00  0.00     0.293 HD
ENDBRANCH   8  26
TORSDOF 6
ENDMDL
MODEL 4
REMARK VINA RESULT:    -5.811      2.217      6.706
REMARK INTER + INTRA:          -7.321
REMARK INTER:                  -6.843
REMARK INTRA:                  -0.478
REMARK UNBOUND:                -0.321
REMARK SMILES O=c1c(O)c(-c2ccc(O)cc2O)oc2cc(O)cc(O)c12
REMARK SMILES IDX 5 1 3 2 2 3 1 4 22 5 20 6 19 7 17 8 16 9 15 10 14 11 6 12
REMARK SMILES IDX 8 13 7 14 9 15 11 16 12 17 10 18 13 20 4 22 21 24 18 26
REMARK H PARENT 10 19 13 21 4 23 21 25 18 27
REMARK Flexibility Score: inf
ROOT
ATOM      1  C   UNL     1     159.600   6.822  32.390  1.00  0.00     0.184 A 
ATOM      2  C   UNL     1     158.527   7.127  33.249  1.00  0.00     0.208 A 
ATOM      3  C   UNL     1     157.381   7.734  32.713  1.00  0.00     0.238 A 
ATOM      4  O   UNL     1     156.417   8.020  33.474  1.00  0.00    -0.285 OA
ATOM      5  C   UNL     1     157.318   8.008  31.331  1.00  0.00     0.111 A 
ATOM      6  C   UNL     1     156.199   8.613  30.711  1.00  0.00     0.134 A 
ATOM      7  C   UNL     1     156.212   8.847  29.328  1.00  0.00     0.093 A 
ATOM      8  C   UNL     1     157.321   8.487  28.554  1.00  0.00     0.123 A 
ATOM      9  C   UNL     1     158.427   7.889  29.161  1.00  0.00     0.094 A 
ATOM     10  C   UNL     1     158.435   7.650  30.539  1.00  0.00     0.146 A 
ATOM     11  O   UNL     1     159.503   7.085  31.090  1.00  0.00    -0.451 OA
ENDROOT
BRANCH   1  12
ATOM     12  C   UNL     1     160.847   6.199  32.891  1.00  0.00     0.063 A 
ATOM     13  C   UNL     1     163.016   6.397  33.978  1.00  0.00     0.047 A 
ATOM     14  C   UNL     1     161.828   6.979  33.530  1.00  0.00     0.020 A 
ATOM     15  C   UNL     1     163.248   5.034  33.784  1.00  0.00     0.119 A 
ATOM     16  C   UNL     1     162.285   4.249  33.137  1.00  0.00     0.093 A 
ATOM     17  C   UNL     1     161.088   4.825  32.687  1.00  0.00     0.130 A 
BRANCH  15  18
ATOM     18  O   UNL     1     164.438   4.468  34.237  1.00  0.00    -0.508 OA
ATOM     19  H   UNL     1     164.930   3.766  33.697  1.00  0.00     0.293 HD
ENDBRANCH  15  18
BRANCH  17  20
ATOM     20  O   UNL     1     160.134   4.032  32.048  1.00  0.00    -0.507 OA
ATOM     21  H   UNL     1     160.362   3.112  31.690  1.00  0.00     0.293 HD
ENDBRANCH  17  20
ENDBRANCH   1  12
BRANCH   2  22
ATOM     22  O   UNL     1     158.599   6.807  34.607  1.00  0.00    -0.502 OA
ATOM     23  H   UNL     1     158.361   7.471  35.334  1.00  0.00     0.293 HD
ENDBRANCH   2  22
BRANCH   6  24
ATOM     24  O   UNL     1     155.078   8.983  31.455  1.00  0.00    -0.507 OA
ATOM     25  H   UNL     1     155.156   9.294  32.417  1.00  0.00     0.293 HD
ENDBRANCH   6  24
BRANCH   8  26
ATOM     26  O   UNL     1     157.333   8.717  27.181  1.00  0.00    -0.508 OA
ATOM     27  H   UNL     1     158.066   9.261  26.741  1.00  0.00     0.293 HD
ENDBRANCH   8  26
TORSDOF 6
ENDMDL
MODEL 5
REMARK VINA RESULT:    -5.661      2.095      3.430
REMARK INTER + INTRA:          -7.141
REMARK INTER:                  -6.736
REMARK INTRA:                  -0.405
REMARK UNBOUND:                -0.321
REMARK SMILES O=c1c(O)c(-c2ccc(O)cc2O)oc2cc(O)cc(O)c12
REMARK SMILES IDX 5 1 3 2 2 3 1 4 22 5 20 6 19 7 17 8 16 9 15 10 14 11 6 12
REMARK SMILES IDX 8 13 7 14 9 15 11 16 12 17 10 18 13 20 4 22 21 24 18 26
REMARK H PARENT 10 19 13 21 4 23 21 25 18 27
REMARK Flexibility Score: inf
ROOT
ATOM      1  C   UNL     1     158.711   7.105  31.824  1.00  0.00     0.184 A 
ATOM      2  C   UNL     1     158.043   6.690  32.992  1.00  0.00     0.208 A 
ATOM      3  C   UNL     1     158.802   6.290  34.103  1.00  0.00     0.238 A 
ATOM      4  O   UNL     1     158.215   5.909  35.152  1.00  0.00    -0.285 OA
ATOM      5  C   UNL     1     160.211   6.329  34.035  1.00  0.00     0.111 A 
ATOM      6  C   UNL     1     161.050   5.948  35.110  1.00  0.00     0.134 A 
ATOM      7  C   UNL     1     162.443   6.021  34.964  1.00  0.00     0.093 A 
ATOM      8  C   UNL     1     163.013   6.467  33.767  1.00  0.00     0.123 A 
ATOM      9  C   UNL     1     162.190   6.845  32.704  1.00  0.00     0.094 A 
ATOM     10  C   UNL     1     160.799   6.777  32.828  1.00  0.00     0.146 A 
ATOM     11  O   UNL     1     160.040   7.137  31.799  1.00  0.00    -0.451 OA
ENDROOT
BRANCH   1  12
ATOM     12  C   UNL     1     157.973   7.521  30.610  1.00  0.00     0.063 A 
ATOM     13  C   UNL     1     156.823   9.237  29.324  1.00  0.00     0.047 A 
ATOM     14  C   UNL     1     157.542   8.851  30.457  1.00  0.00     0.020 A 
ATOM     15  C   UNL     1     156.512   8.301  28.335  1.00  0.00     0.119 A 
ATOM     16  C   UNL     1     156.923   6.971  28.483  1.00  0.00     0.093 A 
ATOM     17  C   UNL     1     157.648   6.575  29.616  1.00  0.00     0.130 A 
BRANCH  15  18
ATOM     18  O   UNL     1     155.793   8.702  27.211  1.00  0.00    -0.508 OA
ATOM     19  H   UNL     1     155.590   9.679  27.032  1.00  0.00     0.293 HD
ENDBRANCH  15  18
BRANCH  17  20
ATOM     20  O   UNL     1     158.058   5.248  29.749  1.00  0.00    -0.507 OA
ATOM     21  H   UNL     1     157.472   4.478  29.444  1.00  0.00     0.293 HD
ENDBRANCH  17  20
ENDBRANCH   1  12
BRANCH   2  22
ATOM     22  O   UNL     1     156.647   6.701  33.046  1.00  0.00    -0.502 OA
ATOM     23  H   UNL     1     156.073   6.829  32.222  1.00  0.00     0.293 HD
ENDBRANCH   2  22
BRANCH   6  24
ATOM     24  O   UNL     1     160.511   5.498  36.316  1.00  0.00    -0.507 OA
ATOM     25  H   UNL     1     159.532   5.252  36.404  1.00  0.00     0.293 HD
ENDBRANCH   6  24
BRANCH   8  26
ATOM     26  O   UNL     1     164.396   6.541  33.624  1.00  0.00    -0.508 OA
ATOM     27  H   UNL     1     164.959   5.711  33.477  1.00  0.00     0.293 HD
ENDBRANCH   8  26
TORSDOF 6
ENDMDL
MODEL 6
REMARK VINA RESULT:    -5.655      3.561      6.054
REMARK INTER + INTRA:          -7.133
REMARK INTER:                  -6.710
REMARK INTRA:                  -0.423
REMARK UNBOUND:                -0.321
REMARK SMILES O=c1c(O)c(-c2ccc(O)cc2O)oc2cc(O)cc(O)c12
REMARK SMILES IDX 5 1 3 2 2 3 1 4 22 5 20 6 19 7 17 8 16 9 15 10 14 11 6 12
REMARK SMILES IDX 8 13 7 14 9 15 11 16 12 17 10 18 13 20 4 22 21 24 18 26
REMARK H PARENT 10 19 13 21 4 23 21 25 18 27
REMARK Flexibility Score: inf
ROOT
ATOM      1  C   UNL     1     156.273   7.901  31.655  1.00  0.00     0.184 A 
ATOM      2  C   UNL     1     156.240   6.563  31.220  1.00  0.00     0.208 A 
ATOM      3  C   UNL     1     156.817   6.237  29.983  1.00  0.00     0.238 A 
ATOM      4  O   UNL     1     156.787   5.043  29.579  1.00  0.00    -0.285 OA
ATOM      5  C   UNL     1     157.432   7.246  29.213  1.00  0.00     0.111 A 
ATOM      6  C   UNL     1     158.041   7.001  27.959  1.00  0.00     0.134 A 
ATOM      7  C   UNL     1     158.637   8.059  27.257  1.00  0.00     0.093 A 
ATOM      8  C   UNL     1     158.636   9.355  27.784  1.00  0.00     0.123 A 
ATOM      9  C   UNL     1     158.037   9.602  29.021  1.00  0.00     0.094 A 
ATOM     10  C   UNL     1     157.435   8.561  29.735  1.00  0.00     0.146 A 
ATOM     11  O   UNL     1     156.869   8.826  30.907  1.00  0.00    -0.451 OA
ENDROOT
BRANCH   1  12
ATOM     12  C   UNL     1     155.665   8.319  32.939  1.00  0.00     0.063 A 
ATOM     13  C   UNL     1     155.655   8.301  35.373  1.00  0.00     0.047 A 
ATOM     14  C   UNL     1     156.243   7.930  34.162  1.00  0.00     0.020 A 
ATOM     15  C   UNL     1     154.478   9.053  35.383  1.00  0.00     0.119 A 
ATOM     16  C   UNL     1     153.886   9.434  34.173  1.00  0.00     0.093 A 
ATOM     17  C   UNL     1     154.471   9.068  32.951  1.00  0.00     0.130 A 
BRANCH  15  18
ATOM     18  O   UNL     1     153.905   9.415  36.600  1.00  0.00    -0.508 OA
ATOM     19  H   UNL     1     153.126  10.062  36.647  1.00  0.00     0.293 HD
ENDBRANCH  15  18
BRANCH  17  20
ATOM     20  O   UNL     1     153.875   9.459  31.752  1.00  0.00    -0.507 OA
ATOM     21  H   UNL     1     153.779   8.817  30.973  1.00  0.00     0.293 HD
ENDBRANCH  17  20
ENDBRANCH   1  12
BRANCH   2  22
ATOM     22  O   UNL     1     155.661   5.576  32.022  1.00  0.00    -0.502 OA
ATOM     23  H   UNL     1     155.784   5.552  33.027  1.00  0.00     0.293 HD
ENDBRANCH   2  22
BRANCH   6  24
ATOM     24  O   UNL     1     158.058   5.720  27.407  1.00  0.00    -0.507 OA
ATOM     25  H   UNL     1     157.372   5.426  26.721  1.00  0.00     0.293 HD
ENDBRANCH   6  24
BRANCH   8  26
ATOM     26  O   UNL     1     159.229  10.405  27.087  1.00  0.00    -0.508 OA
ATOM     27  H   UNL     1     159.028  11.372  27.314  1.00  0.00     0.293 HD
ENDBRANCH   8  26
TORSDOF 6
ENDMDL
MODEL 7
REMARK VINA RESULT:    -5.575      1.688      2.410
REMARK INTER + INTRA:          -7.036
REMARK INTER:                  -6.638
REMARK INTRA:                  -0.398
REMARK UNBOUND:                -0.321
REMARK SMILES O=c1c(O)c(-c2ccc(O)cc2O)oc2cc(O)cc(O)c12
REMARK SMILES IDX 5 1 3 2 2 3 1 4 22 5 20 6 19 7 17 8 16 9 15 10 14 11 6 12
REMARK SMILES IDX 8 13 7 14 9 15 11 16 12 17 10 18 13 20 4 22 21 24 18 26
REMARK H PARENT 10 19 13 21 4 23 21 25 18 27
REMARK Flexibility Score: inf
ROOT
ATOM      1  C   UNL     1     158.629   6.764  31.401  1.00  0.00     0.184 A 
ATOM      2  C   UNL     1     157.947   5.702  32.026  1.00  0.00     0.208 A 
ATOM      3  C   UNL     1     158.568   5.029  33.089  1.00  0.00     0.238 A 
ATOM      4  O   UNL     1     157.970   4.072  33.652  1.00  0.00    -0.285 OA
ATOM      5  C   UNL     1     159.847   5.437  33.521  1.00  0.00     0.111 A 
ATOM      6  C   UNL     1     160.540   4.816  34.588  1.00  0.00     0.134 A 
ATOM      7  C   UNL     1     161.808   5.286  34.961  1.00  0.00     0.093 A 
ATOM      8  C   UNL     1     162.395   6.364  34.290  1.00  0.00     0.123 A 
ATOM      9  C   UNL     1     161.715   6.980  33.237  1.00  0.00     0.094 A 
ATOM     10  C   UNL     1     160.452   6.525  32.848  1.00  0.00     0.146 A 
ATOM     11  O   UNL     1     159.830   7.128  31.841  1.00  0.00    -0.451 OA
ENDROOT
BRANCH   1  12
ATOM     12  C   UNL     1     158.042   7.505  30.261  1.00  0.00     0.063 A 
ATOM     13  C   UNL     1     157.838   7.872  27.864  1.00  0.00     0.047 A 
ATOM     14  C   UNL     1     158.370   7.157  28.939  1.00  0.00     0.020 A 
ATOM     15  C   UNL     1     156.982   8.952  28.093  1.00  0.00     0.119 A 
ATOM     16  C   UNL     1     156.659   9.317  29.406  1.00  0.00     0.093 A 
ATOM     17  C   UNL     1     157.187   8.602  30.491  1.00  0.00     0.130 A 
BRANCH  15  18
ATOM     18  O   UNL     1     156.459   9.657  27.011  1.00  0.00    -0.508 OA
ATOM     19  H   UNL     1     156.800  10.579  26.764  1.00  0.00     0.293 HD
ENDBRANCH  15  18
BRANCH  17  20
ATOM     20  O   UNL     1     156.854   8.972  31.795  1.00  0.00    -0.507 OA
ATOM     21  H   UNL     1     156.925   8.318  32.567  1.00  0.00     0.293 HD
ENDBRANCH  17  20
ENDBRANCH   1  12
BRANCH   2  22
ATOM     22  O   UNL     1     156.664   5.345  31.605  1.00  0.00    -0.502 OA
ATOM     23  H   UNL     1     156.117   4.633  32.074  1.00  0.00     0.293 HD
ENDBRANCH   2  22
BRANCH   6  24
ATOM     24  O   UNL     1     159.981   3.739  35.276  1.00  0.00    -0.507 OA
ATOM     25  H   UNL     1     158.986   3.682  35.460  1.00  0.00     0.293 HD
ENDBRANCH   6  24
BRANCH   8  26
ATOM     26  O   UNL     1     163.653   6.831  34.661  1.00  0.00    -0.508 OA
ATOM     27  H   UNL     1     163.778   7.438  35.464  1.00  0.00     0.293 HD
ENDBRANCH   8  26
TORSDOF 6
ENDMDL
MODEL 8
REMARK VINA RESULT:    -5.386      1.626      6.438
REMARK INTER + INTRA:          -6.809
REMARK INTER:                  -6.433
REMARK INTRA:                  -0.376
REMARK UNBOUND:                -0.321
REMARK SMILES O=c1c(O)c(-c2ccc(O)cc2O)oc2cc(O)cc(O)c12
REMARK SMILES IDX 5 1 3 2 2 3 1 4 22 5 20 6 19 7 17 8 16 9 15 10 14 11 6 12
REMARK SMILES IDX 8 13 7 14 9 15 11 16 12 17 10 18 13 20 4 22 21 24 18 26
REMARK H PARENT 10 19 13 21 4 23 21 25 18 27
REMARK Flexibility Score: inf
ROOT
ATOM      1  C   UNL     1     157.833   7.127  30.875  1.00  0.00     0.184 A 
ATOM      2  C   UNL     1     156.609   6.651  30.368  1.00  0.00     0.208 A 
ATOM      3  C   UNL     1     156.072   7.250  29.219  1.00  0.00     0.238 A 
ATOM      4  O   UNL     1     154.972   6.837  28.760  1.00  0.00    -0.285 OA
ATOM      5  C   UNL     1     156.772   8.299  28.587  1.00  0.00     0.111 A 
ATOM      6  C   UNL     1     156.302   8.953  27.423  1.00  0.00     0.134 A 
ATOM      7  C   UNL     1     157.062   9.985  26.851  1.00  0.00     0.093 A 
ATOM      8  C   UNL     1     158.280  10.373  27.419  1.00  0.00     0.123 A 
ATOM      9  C   UNL     1     158.747   9.730  28.567  1.00  0.00     0.094 A 
ATOM     10  C   UNL     1     158.004   8.702  29.154  1.00  0.00     0.146 A 
ATOM     11  O   UNL     1     158.471   8.111  30.249  1.00  0.00    -0.451 OA
ENDROOT
BRANCH   1  12
ATOM     12  C   UNL     1     158.448   6.554  32.095  1.00  0.00     0.063 A 
ATOM     13  C   UNL     1     159.988   4.990  33.146  1.00  0.00     0.047 A 
ATOM     14  C   UNL     1     159.427   5.549  31.996  1.00  0.00     0.020 A 
ATOM     15  C   UNL     1     159.571   5.414  34.410  1.00  0.00     0.119 A 
ATOM     16  C   UNL     1     158.586   6.404  34.521  1.00  0.00     0.093 A 
ATOM     17  C   UNL     1     158.020   6.974  33.371  1.00  0.00     0.130 A 
BRANCH  15  18
ATOM     18  O   UNL     1     160.139   4.846  35.548  1.00  0.00    -0.508 OA
ATOM     19  H   UNL     1     160.234   3.842  35.648  1.00  0.00     0.293 HD
ENDBRANCH  15  18
BRANCH  17  20
ATOM     20  O   UNL     1     157.045   7.963  33.495  1.00  0.00    -0.507 OA
ATOM     21  H   UNL     1     156.062   7.762  33.343  1.00  0.00     0.293 HD
ENDBRANCH  17  20
ENDBRANCH   1  12
BRANCH   2  22
ATOM     22  O   UNL     1     155.957   5.583  30.990  1.00  0.00    -0.502 OA
ATOM     23  H   UNL     1     156.312   5.147  31.833  1.00  0.00     0.293 HD
ENDBRANCH   2  22
BRANCH   6  24
ATOM     24  O   UNL     1     155.092   8.588  26.833  1.00  0.00    -0.507 OA
ATOM     25  H   UNL     1     154.842   7.617  26.685  1.00  0.00     0.293 HD
ENDBRANCH   6  24
BRANCH   8  26
ATOM     26  O   UNL     1     159.034  11.396  26.850  1.00  0.00    -0.508 OA
ATOM     27  H   UNL     1     158.860  12.369  27.072  1.00  0.00     0.293 HD
ENDBRANCH   8  26
TORSDOF 6
ENDMDL
MODEL 9
REMARK VINA RESULT:    -5.116      5.645      9.145
REMARK INTER + INTRA:          -6.483
REMARK INTER:                  -6.051
REMARK INTRA:                  -0.432
REMARK UNBOUND:                -0.321
REMARK SMILES O=c1c(O)c(-c2ccc(O)cc2O)oc2cc(O)cc(O)c12
REMARK SMILES IDX 5 1 3 2 2 3 1 4 22 5 20 6 19 7 17 8 16 9 15 10 14 11 6 12
REMARK SMILES IDX 8 13 7 14 9 15 11 16 12 17 10 18 13 20 4 22 21 24 18 26
REMARK H PARENT 10 19 13 21 4 23 21 25 18 27
REMARK Flexibility Score: inf
ROOT
ATOM      1  C   UNL     1     163.893   4.772  35.456  1.00  0.00     0.184 A 
ATOM      2  C   UNL     1     163.770   4.790  36.858  1.00  0.00     0.208 A 
ATOM      3  C   UNL     1     164.881   4.443  37.641  1.00  0.00     0.238 A 
ATOM      4  O   UNL     1     164.780   4.448  38.899  1.00  0.00    -0.285 OA
ATOM      5  C   UNL     1     166.098   4.103  37.014  1.00  0.00     0.111 A 
ATOM      6  C   UNL     1     167.265   3.745  37.730  1.00  0.00     0.134 A 
ATOM      7  C   UNL     1     168.439   3.426  37.031  1.00  0.00     0.093 A 
ATOM      8  C   UNL     1     168.467   3.458  35.633  1.00  0.00     0.123 A 
ATOM      9  C   UNL     1     167.318   3.810  34.922  1.00  0.00     0.094 A 
ATOM     10  C   UNL     1     166.138   4.129  35.600  1.00  0.00     0.146 A 
ATOM     11  O   UNL     1     165.058   4.456  34.898  1.00  0.00    -0.451 OA
ENDROOT
BRANCH   1  12
ATOM     12  C   UNL     1     162.756   5.108  34.568  1.00  0.00     0.063 A 
ATOM     13  C   UNL     1     160.553   4.590  33.673  1.00  0.00     0.047 A 
ATOM     14  C   UNL     1     161.614   4.288  34.530  1.00  0.00     0.020 A 
ATOM     15  C   UNL     1     160.621   5.704  32.834  1.00  0.00     0.119 A 
ATOM     16  C   UNL     1     161.759   6.520  32.853  1.00  0.00     0.093 A 
ATOM     17  C   UNL     1     162.828   6.226  33.712  1.00  0.00     0.130 A 
BRANCH  15  18
ATOM     18  O   UNL     1     159.554   5.991  31.985  1.00  0.00    -0.508 OA
ATOM     19  H   UNL     1     159.579   5.748  31.002  1.00  0.00     0.293 HD
ENDBRANCH  15  18
BRANCH  17  20
ATOM     20  O   UNL     1     163.954   7.050  33.726  1.00  0.00    -0.507 OA
ATOM     21  H   UNL     1     163.943   7.958  34.178  1.00  0.00     0.293 HD
ENDBRANCH  17  20
ENDBRANCH   1  12
BRANCH   2  22
ATOM     22  O   UNL     1     162.564   5.171  37.454  1.00  0.00    -0.502 OA
ATOM     23  H   UNL     1     162.174   4.681  38.250  1.00  0.00     0.293 HD
ENDBRANCH   2  22
BRANCH   6  24
ATOM     24  O   UNL     1     167.268   3.705  39.125  1.00  0.00    -0.507 OA
ATOM     25  H   UNL     1     168.097   3.451  39.650  1.00  0.00     0.293 HD
ENDBRANCH   6  24
BRANCH   8  26
ATOM     26  O   UNL     1     169.633   3.142  34.940  1.00  0.00    -0.508 OA
ATOM     27  H   UNL     1     170.471   2.839  35.422  1.00  0.00     0.293 HD
ENDBRANCH   8  26
TORSDOF 6
ENDMDL
