MODEL 1
REMARK VINA RESULT:    -5.244      0.000      0.000
REMARK INTER + INTRA:         -11.233
REMARK INTER:                 -10.149
REMARK INTRA:                  -1.085
REMARK UNBOUND:                -1.085
REMARK SMILES CCCCCCCCCCCCCCCCCC(=O)[O-]
REMARK SMILES IDX 10 1 11 2 12 3 13 4 14 5 15 6 16 7 17 8 18 9 19 10 20 11
REMARK SMILES IDX 9 12 8 13 7 14 6 15 5 16 4 17 3 18 2 19 1 20
REMARK H PARENT
REMARK Flexibility Score: inf
ROOT
ATOM      1  C   UNL     1       2.118  19.849 -13.305  1.00  0.00     0.000 C 
ENDROOT
BRANCH   1   2
ATOM      2  C   UNL     1       2.483  21.196 -13.949  1.00  0.00     0.000 C 
BRANCH   2   3
ATOM      3  C   UNL     1       2.483  21.136 -15.484  1.00  0.00     0.000 C 
BRANCH   3   4
ATOM      4  C   UNL     1       3.673  21.910 -16.063  1.00  0.00     0.000 C 
BRANCH   4   5
ATOM      5  C   UNL     1       3.239  22.771 -17.259  1.00  0.00     0.000 C 
BRANCH   5   6
ATOM      6  C   UNL     1       1.755  22.584 -17.616  1.00  0.00     0.000 C 
BRANCH   6   7
ATOM      7  C   UNL     1       1.533  22.346 -19.117  1.00  0.00     0.006 C 
BRANCH   7   8
ATOM      8  C   UNL     1       1.501  20.848 -19.435  1.00  0.00     0.053 C 
BRANCH   8   9
ATOM      9  C   UNL     1       2.607  20.488 -20.376  1.00  0.00     0.041 C 
ATOM     10  O   UNL     1       2.819  19.284 -20.673  1.00  0.00    -0.550 OA
ATOM     11  O   UNL     1       3.373  21.488 -20.963  1.00  0.00    -0.550 OA
ENDBRANCH   8   9
ENDBRANCH   7   8
ENDBRANCH   6   7
ENDBRANCH   5   6
ENDBRANCH   4   5
ENDBRANCH   3   4
ENDBRANCH   2   3
ENDBRANCH   1   2
BRANCH   1  12
ATOM     12  C   UNL     1       2.034  19.931 -11.770  1.00  0.00     0.000 C 
BRANCH  12  13
ATOM     13  C   UNL     1       1.560  21.308 -11.275  1.00  0.00    -0.000 C 
BRANCH  13  14
ATOM     14  C   UNL     1       1.584  21.423  -9.741  1.00  0.00    -0.000 C 
BRANCH  14  15
ATOM     15  C   UNL     1       2.829  20.768  -9.120  1.00  0.00    -0.000 C 
BRANCH  15  16
ATOM     16  C   UNL     1       2.938  21.027  -7.607  1.00  0.00    -0.000 C 
BRANCH  16  17
ATOM     17  C   UNL     1       2.897  19.732  -6.776  1.00  0.00    -0.000 C 
BRANCH  17  18
ATOM     18  C   UNL     1       1.602  19.509  -5.969  1.00  0.00    -0.000 C 
BRANCH  18  19
ATOM     19  C   UNL     1       0.931  20.793  -5.450  1.00  0.00    -0.003 C 
ATOM     20  C   UNL     1      -0.369  21.124  -6.182  1.00  0.00     0.004 C 
ENDBRANCH  18  19
ENDBRANCH  17  18
ENDBRANCH  16  17
ENDBRANCH  15  16
ENDBRANCH  14  15
ENDBRANCH  13  14
ENDBRANCH  12  13
ENDBRANCH   1  12
TORSDOF 16
ENDMDL
MODEL 2
REMARK VINA RESULT:    -5.006      4.834     10.756
REMARK INTER + INTRA:         -10.773
REMARK INTER:                  -9.869
REMARK INTRA:                  -0.904
REMARK UNBOUND:                -1.085
REMARK SMILES CCCCCCCCCCCCCCCCCC(=O)[O-]
REMARK SMILES IDX 10 1 11 2 12 3 13 4 14 5 15 6 16 7 17 8 18 9 19 10 20 11
REMARK SMILES IDX 9 12 8 13 7 14 6 15 5 16 4 17 3 18 2 19 1 20
REMARK H PARENT
REMARK Flexibility Score: inf
ROOT
ATOM      1  C   UNL     1       2.152  21.038 -13.577  1.00  0.00     0.000 C 
ENDROOT
BRANCH   1   2
ATOM      2  C   UNL     1       1.893  19.646 -12.982  1.00  0.00     0.000 C 
BRANCH   2   3
ATOM      3  C   UNL     1       1.997  19.630 -11.449  1.00  0.00     0.000 C 
BRANCH   3   4
ATOM      4  C   UNL     1       1.490  20.947 -10.850  1.00  0.00     0.000 C 
BRANCH   4   5
ATOM      5  C   UNL     1       2.564  21.597  -9.965  1.00  0.00     0.000 C 
BRANCH   5   6
ATOM      6  C   UNL     1       3.240  20.592  -9.018  1.00  0.00     0.000 C 
BRANCH   6   7
ATOM      7  C   UNL     1       3.149  21.014  -7.544  1.00  0.00     0.006 C 
BRANCH   7   8
ATOM      8  C   UNL     1       2.600  19.875  -6.681  1.00  0.00     0.053 C 
BRANCH   8   9
ATOM      9  C   UNL     1       1.308  20.276  -6.042  1.00  0.00     0.041 C 
ATOM     10  O   UNL     1       1.299  20.749  -4.875  1.00  0.00    -0.550 OA
ATOM     11  O   UNL     1       0.120  20.174  -6.754  1.00  0.00    -0.550 OA
ENDBRANCH   8   9
ENDBRANCH   7   8
ENDBRANCH   6   7
ENDBRANCH   5   6
ENDBRANCH   4   5
ENDBRANCH   3   4
ENDBRANCH   2   3
ENDBRANCH   1   2
BRANCH   1  12
ATOM     12  C   UNL     1       2.495  20.986 -15.077  1.00  0.00     0.000 C 
BRANCH  12  13
ATOM     13  C   UNL     1       3.425  22.130 -15.513  1.00  0.00    -0.000 C 
BRANCH  13  14
ATOM     14  C   UNL     1       3.216  22.532 -16.983  1.00  0.00    -0.000 C 
BRANCH  14  15
ATOM     15  C   UNL     1       1.735  22.769 -17.325  1.00  0.00    -0.000 C 
BRANCH  15  16
ATOM     16  C   UNL     1       1.367  22.262 -18.730  1.00  0.00    -0.000 C 
BRANCH  16  17
ATOM     17  C   UNL     1       2.224  21.063 -19.175  1.00  0.00    -0.000 C 
BRANCH  17  18
ATOM     18  C   UNL     1       1.572  20.140 -20.223  1.00  0.00    -0.000 C 
BRANCH  18  19
ATOM     19  C   UNL     1       2.480  19.017 -20.754  1.00  0.00    -0.003 C 
ATOM     20  C   UNL     1       3.718  19.544 -21.478  1.00  0.00     0.004 C 
ENDBRANCH  18  19
ENDBRANCH  17  18
ENDBRANCH  16  17
ENDBRANCH  15  16
ENDBRANCH  14  15
ENDBRANCH  13  14
ENDBRANCH  12  13
ENDBRANCH   1  12
TORSDOF 16
ENDMDL
MODEL 3
REMARK VINA RESULT:    -4.991      9.691     11.319
REMARK INTER + INTRA:         -10.743
REMARK INTER:                  -9.418
REMARK INTRA:                  -1.326
REMARK UNBOUND:                -1.085
REMARK SMILES CCCCCCCCCCCCCCCCCC(=O)[O-]
REMARK SMILES IDX 10 1 11 2 12 3 13 4 14 5 15 6 16 7 17 8 18 9 19 10 20 11
REMARK SMILES IDX 9 12 8 13 7 14 6 15 5 16 4 17 3 18 2 19 1 20
REMARK H PARENT
REMARK Flexibility Score: inf
ROOT
ATOM      1  C   UNL     1       7.636  30.920 -12.758  1.00  0.00     0.000 C 
ENDROOT
BRANCH   1   2
ATOM      2  C   UNL     1       7.892  32.403 -12.451  1.00  0.00     0.000 C 
BRANCH   2   3
ATOM      3  C   UNL     1       6.812  33.013 -11.544  1.00  0.00     0.000 C 
BRANCH   3   4
ATOM      4  C   UNL     1       5.486  32.256 -11.683  1.00  0.00     0.000 C 
BRANCH   4   5
ATOM      5  C   UNL     1       4.381  33.177 -12.222  1.00  0.00     0.000 C 
BRANCH   5   6
ATOM      6  C   UNL     1       4.570  33.523 -13.708  1.00  0.00     0.000 C 
BRANCH   6   7
ATOM      7  C   UNL     1       4.480  32.290 -14.619  1.00  0.00     0.006 C 
BRANCH   7   8
ATOM      8  C   UNL     1       5.734  32.158 -15.488  1.00  0.00     0.053 C 
BRANCH   8   9
ATOM      9  C   UNL     1       5.498  32.745 -16.843  1.00  0.00     0.041 C 
ATOM     10  O   UNL     1       5.762  32.078 -17.877  1.00  0.00    -0.550 OA
ATOM     11  O   UNL     1       4.939  34.011 -16.964  1.00  0.00    -0.550 OA
ENDBRANCH   8   9
ENDBRANCH   7   8
ENDBRANCH   6   7
ENDBRANCH   5   6
ENDBRANCH   4   5
ENDBRANCH   3   4
ENDBRANCH   2   3
ENDBRANCH   1   2
BRANCH   1  12
ATOM     12  C   UNL     1       8.927  30.082 -12.744  1.00  0.00     0.000 C 
BRANCH  12  13
ATOM     13  C   UNL     1       8.765  28.731 -13.461  1.00  0.00    -0.000 C 
BRANCH  13  14
ATOM     14  C   UNL     1       7.304  28.251 -13.489  1.00  0.00    -0.000 C 
BRANCH  14  15
ATOM     15  C   UNL     1       7.154  26.791 -13.029  1.00  0.00    -0.000 C 
BRANCH  15  16
ATOM     16  C   UNL     1       8.510  26.082 -12.871  1.00  0.00    -0.000 C 
BRANCH  16  17
ATOM     17  C   UNL     1       8.374  24.552 -12.765  1.00  0.00    -0.000 C 
BRANCH  17  18
ATOM     18  C   UNL     1       7.552  24.046 -11.563  1.00  0.00    -0.000 C 
BRANCH  18  19
ATOM     19  C   UNL     1       8.352  23.863 -10.261  1.00  0.00    -0.003 C 
ATOM     20  C   UNL     1       7.725  22.837  -9.316  1.00  0.00     0.004 C 
ENDBRANCH  18  19
ENDBRANCH  17  18
ENDBRANCH  16  17
ENDBRANCH  15  16
ENDBRANCH  14  15
ENDBRANCH  13  14
ENDBRANCH  12  13
ENDBRANCH   1  12
TORSDOF 16
ENDMDL
MODEL 4
REMARK VINA RESULT:    -4.971      1.368      3.096
REMARK INTER + INTRA:         -10.706
REMARK INTER:                  -9.144
REMARK INTRA:                  -1.562
REMARK UNBOUND:                -1.085
REMARK SMILES CCCCCCCCCCCCCCCCCC(=O)[O-]
REMARK SMILES IDX 10 1 11 2 12 3 13 4 14 5 15 6 16 7 17 8 18 9 19 10 20 11
REMARK SMILES IDX 9 12 8 13 7 14 6 15 5 16 4 17 3 18 2 19 1 20
REMARK H PARENT
REMARK Flexibility Score: inf
ROOT
ATOM      1  C   UNL     1       1.396  21.115  -9.690  1.00  0.00     0.000 C 
ENDROOT
BRANCH   1   2
ATOM      2  C   UNL     1       1.917  21.137 -11.136  1.00  0.00     0.000 C 
BRANCH   2   3
ATOM      3  C   UNL     1       1.424  19.937 -11.959  1.00  0.00     0.000 C 
BRANCH   3   4
ATOM      4  C   UNL     1       2.180  19.837 -13.290  1.00  0.00     0.000 C 
BRANCH   4   5
ATOM      5  C   UNL     1       2.398  21.228 -13.904  1.00  0.00     0.000 C 
BRANCH   5   6
ATOM      6  C   UNL     1       2.713  21.169 -15.408  1.00  0.00     0.000 C 
BRANCH   6   7
ATOM      7  C   UNL     1       2.514  22.521 -16.108  1.00  0.00     0.006 C 
BRANCH   7   8
ATOM      8  C   UNL     1       3.226  22.546 -17.464  1.00  0.00     0.053 C 
BRANCH   8   9
ATOM      9  C   UNL     1       2.293  22.122 -18.554  1.00  0.00     0.041 C 
ATOM     10  O   UNL     1       2.747  21.768 -19.673  1.00  0.00    -0.550 OA
ATOM     11  O   UNL     1       0.925  22.072 -18.317  1.00  0.00    -0.550 OA
ENDBRANCH   8   9
ENDBRANCH   7   8
ENDBRANCH   6   7
ENDBRANCH   5   6
ENDBRANCH   4   5
ENDBRANCH   3   4
ENDBRANCH   2   3
ENDBRANCH   1   2
BRANCH   1  12
ATOM     12  C   UNL     1       2.413  21.688  -8.687  1.00  0.00     0.000 C 
BRANCH  12  13
ATOM     13  C   UNL     1       3.109  20.595  -7.859  1.00  0.00    -0.000 C 
BRANCH  13  14
ATOM     14  C   UNL     1       2.883  19.186  -8.434  1.00  0.00    -0.000 C 
BRANCH  14  15
ATOM     15  C   UNL     1       2.194  18.243  -7.433  1.00  0.00    -0.000 C 
BRANCH  15  16
ATOM     16  C   UNL     1       0.669  18.185  -7.633  1.00  0.00    -0.000 C 
BRANCH  16  17
ATOM     17  C   UNL     1      -0.113  18.583  -6.368  1.00  0.00    -0.000 C 
BRANCH  17  18
ATOM     18  C   UNL     1       0.721  19.268  -5.266  1.00  0.00    -0.000 C 
BRANCH  18  19
ATOM     19  C   UNL     1       0.691  20.807  -5.292  1.00  0.00    -0.003 C 
ATOM     20  C   UNL     1      -0.363  21.366  -6.246  1.00  0.00     0.004 C 
ENDBRANCH  18  19
ENDBRANCH  17  18
ENDBRANCH  16  17
ENDBRANCH  15  16
ENDBRANCH  14  15
ENDBRANCH  13  14
ENDBRANCH  12  13
ENDBRANCH   1  12
TORSDOF 16
ENDMDL
MODEL 5
REMARK VINA RESULT:    -4.938      1.344      1.972
REMARK INTER + INTRA:         -10.641
REMARK INTER:                  -9.139
REMARK INTRA:                  -1.502
REMARK UNBOUND:                -1.085
REMARK SMILES CCCCCCCCCCCCCCCCCC(=O)[O-]
REMARK SMILES IDX 10 1 11 2 12 3 13 4 14 5 15 6 16 7 17 8 18 9 19 10 20 11
REMARK SMILES IDX 9 12 8 13 7 14 6 15 5 16 4 17 3 18 2 19 1 20
REMARK H PARENT
REMARK Flexibility Score: inf
ROOT
ATOM      1  C   UNL     1       2.092  19.331 -12.900  1.00  0.00     0.000 C 
ENDROOT
BRANCH   1   2
ATOM      2  C   UNL     1       2.271  20.760 -13.435  1.00  0.00     0.000 C 
BRANCH   2   3
ATOM      3  C   UNL     1       2.495  20.798 -14.954  1.00  0.00     0.000 C 
BRANCH   3   4
ATOM      4  C   UNL     1       3.185  22.101 -15.376  1.00  0.00     0.000 C 
BRANCH   4   5
ATOM      5  C   UNL     1       3.167  22.263 -16.903  1.00  0.00     0.000 C 
BRANCH   5   6
ATOM      6  C   UNL     1       1.835  22.829 -17.424  1.00  0.00     0.000 C 
BRANCH   6   7
ATOM      7  C   UNL     1       1.617  22.549 -18.918  1.00  0.00     0.006 C 
BRANCH   7   8
ATOM      8  C   UNL     1       1.387  21.056 -19.168  1.00  0.00     0.053 C 
BRANCH   8   9
ATOM      9  C   UNL     1       2.311  20.553 -20.232  1.00  0.00     0.041 C 
ATOM     10  O   UNL     1       2.211  19.370 -20.649  1.00  0.00    -0.550 OA
ATOM     11  O   UNL     1       3.250  21.406 -20.797  1.00  0.00    -0.550 OA
ENDBRANCH   8   9
ENDBRANCH   7   8
ENDBRANCH   6   7
ENDBRANCH   5   6
ENDBRANCH   4   5
ENDBRANCH   3   4
ENDBRANCH   2   3
ENDBRANCH   1   2
BRANCH   1  12
ATOM     12  C   UNL     1       2.846  19.096 -11.578  1.00  0.00     0.000 C 
BRANCH  12  13
ATOM     13  C   UNL     1       2.133  18.089 -10.661  1.00  0.00    -0.000 C 
BRANCH  13  14
ATOM     14  C   UNL     1       0.685  18.503 -10.344  1.00  0.00    -0.000 C 
BRANCH  14  15
ATOM     15  C   UNL     1       0.295  18.213  -8.884  1.00  0.00    -0.000 C 
BRANCH  15  16
ATOM     16  C   UNL     1       1.516  18.151  -7.950  1.00  0.00    -0.000 C 
BRANCH  16  17
ATOM     17  C   UNL     1       1.612  19.368  -7.013  1.00  0.00    -0.000 C 
BRANCH  17  18
ATOM     18  C   UNL     1       2.870  20.242  -7.195  1.00  0.00    -0.000 C 
BRANCH  18  19
ATOM     19  C   UNL     1       2.870  21.124  -8.456  1.00  0.00    -0.003 C 
ATOM     20  C   UNL     1       1.506  21.750  -8.746  1.00  0.00     0.004 C 
ENDBRANCH  18  19
ENDBRANCH  17  18
ENDBRANCH  16  17
ENDBRANCH  15  16
ENDBRANCH  14  15
ENDBRANCH  13  14
ENDBRANCH  12  13
ENDBRANCH   1  12
TORSDOF 16
ENDMDL
MODEL 6
REMARK VINA RESULT:    -4.903      2.070      3.593
REMARK INTER + INTRA:         -10.573
REMARK INTER:                  -8.997
REMARK INTRA:                  -1.576
REMARK UNBOUND:                -1.085
REMARK SMILES CCCCCCCCCCCCCCCCCC(=O)[O-]
REMARK SMILES IDX 10 1 11 2 12 3 13 4 14 5 15 6 16 7 17 8 18 9 19 10 20 11
REMARK SMILES IDX 9 12 8 13 7 14 6 15 5 16 4 17 3 18 2 19 1 20
REMARK H PARENT
REMARK Flexibility Score: inf
ROOT
ATOM      1  C   UNL     1       0.823  18.887 -10.301  1.00  0.00     0.000 C 
ENDROOT
BRANCH   1   2
ATOM      2  C   UNL     1       2.178  19.192 -10.958  1.00  0.00     0.000 C 
BRANCH   2   3
ATOM      3  C   UNL     1       2.094  19.232 -12.492  1.00  0.00     0.000 C 
BRANCH   3   4
ATOM      4  C   UNL     1       2.117  20.676 -13.006  1.00  0.00     0.000 C 
BRANCH   4   5
ATOM      5  C   UNL     1       2.471  20.722 -14.500  1.00  0.00     0.000 C 
BRANCH   5   6
ATOM      6  C   UNL     1       2.873  22.130 -14.971  1.00  0.00     0.000 C 
BRANCH   6   7
ATOM      7  C   UNL     1       3.090  22.207 -16.489  1.00  0.00     0.006 C 
BRANCH   7   8
ATOM      8  C   UNL     1       1.962  21.495 -17.241  1.00  0.00     0.053 C 
BRANCH   8   9
ATOM      9  C   UNL     1       1.449  22.353 -18.353  1.00  0.00     0.041 C 
ATOM     10  O   UNL     1       1.017  21.826 -19.412  1.00  0.00    -0.550 OA
ATOM     11  O   UNL     1       1.402  23.733 -18.201  1.00  0.00    -0.550 OA
ENDBRANCH   8   9
ENDBRANCH   7   8
ENDBRANCH   6   7
ENDBRANCH   5   6
ENDBRANCH   4   5
ENDBRANCH   3   4
ENDBRANCH   2   3
ENDBRANCH   1   2
BRANCH   1  12
ATOM     12  C   UNL     1       0.911  17.751  -9.266  1.00  0.00     0.000 C 
BRANCH  12  13
ATOM     13  C   UNL     1      -0.459  17.381  -8.675  1.00  0.00    -0.000 C 
BRANCH  13  14
ATOM     14  C   UNL     1      -0.439  17.316  -7.137  1.00  0.00    -0.000 C 
BRANCH  14  15
ATOM     15  C   UNL     1       0.619  18.246  -6.521  1.00  0.00    -0.000 C 
BRANCH  15  16
ATOM     16  C   UNL     1      -0.007  19.399  -5.717  1.00  0.00    -0.000 C 
BRANCH  16  17
ATOM     17  C   UNL     1       0.675  20.753  -5.987  1.00  0.00    -0.000 C 
BRANCH  17  18
ATOM     18  C   UNL     1       0.688  21.200  -7.463  1.00  0.00    -0.000 C 
BRANCH  18  19
ATOM     19  C   UNL     1       2.076  21.568  -8.017  1.00  0.00    -0.003 C 
ATOM     20  C   UNL     1       3.164  20.577  -7.605  1.00  0.00     0.004 C 
ENDBRANCH  18  19
ENDBRANCH  17  18
ENDBRANCH  16  17
ENDBRANCH  15  16
ENDBRANCH  14  15
ENDBRANCH  13  14
ENDBRANCH  12  13
ENDBRANCH   1  12
TORSDOF 16
ENDMDL
MODEL 7
REMARK VINA RESULT:    -4.896      9.556     11.959
REMARK INTER + INTRA:         -10.560
REMARK INTER:                  -8.107
REMARK INTRA:                  -2.454
REMARK UNBOUND:                -1.085
REMARK SMILES CCCCCCCCCCCCCCCCCC(=O)[O-]
REMARK SMILES IDX 10 1 11 2 12 3 13 4 14 5 15 6 16 7 17 8 18 9 19 10 20 11
REMARK SMILES IDX 9 12 8 13 7 14 6 15 5 16 4 17 3 18 2 19 1 20
REMARK H PARENT
REMARK Flexibility Score: inf
ROOT
ATOM      1  C   UNL     1       7.407  27.716 -13.122  1.00  0.00     0.000 C 
ENDROOT
BRANCH   1   2
ATOM      2  C   UNL     1       7.217  28.513 -14.422  1.00  0.00     0.000 C 
BRANCH   2   3
ATOM      3  C   UNL     1       6.922  29.999 -14.167  1.00  0.00     0.000 C 
BRANCH   3   4
ATOM      4  C   UNL     1       7.519  30.455 -12.830  1.00  0.00     0.000 C 
BRANCH   4   5
ATOM      5  C   UNL     1       8.247  31.799 -12.984  1.00  0.00     0.000 C 
BRANCH   5   6
ATOM      6  C   UNL     1       8.535  32.153 -14.452  1.00  0.00     0.000 C 
BRANCH   6   7
ATOM      7  C   UNL     1       7.880  33.474 -14.882  1.00  0.00     0.006 C 
BRANCH   7   8
ATOM      8  C   UNL     1       7.544  33.458 -16.376  1.00  0.00     0.053 C 
BRANCH   8   9
ATOM      9  C   UNL     1       6.137  32.999 -16.593  1.00  0.00     0.041 C 
ATOM     10  O   UNL     1       5.172  33.752 -16.298  1.00  0.00    -0.550 OA
ATOM     11  O   UNL     1       5.892  31.758 -17.167  1.00  0.00    -0.550 OA
ENDBRANCH   8   9
ENDBRANCH   7   8
ENDBRANCH   6   7
ENDBRANCH   5   6
ENDBRANCH   4   5
ENDBRANCH   3   4
ENDBRANCH   2   3
ENDBRANCH   1   2
BRANCH   1  12
ATOM     12  C   UNL     1       6.614  26.397 -13.116  1.00  0.00     0.000 C 
BRANCH  12  13
ATOM     13  C   UNL     1       7.458  25.201 -12.644  1.00  0.00    -0.000 C 
BRANCH  13  14
ATOM     14  C   UNL     1       8.968  25.437 -12.826  1.00  0.00    -0.000 C 
BRANCH  14  15
ATOM     15  C   UNL     1       9.610  24.426 -13.792  1.00  0.00    -0.000 C 
BRANCH  15  16
ATOM     16  C   UNL     1      10.349  25.112 -14.954  1.00  0.00    -0.000 C 
BRANCH  16  17
ATOM     17  C   UNL     1      11.074  26.399 -14.523  1.00  0.00    -0.000 C 
BRANCH  17  18
ATOM     18  C   UNL     1      10.683  27.668 -15.307  1.00  0.00    -0.000 C 
BRANCH  18  19
ATOM     19  C   UNL     1      10.905  28.991 -14.552  1.00  0.00    -0.003 C 
ATOM     20  C   UNL     1      10.877  28.823 -13.034  1.00  0.00     0.004 C 
ENDBRANCH  18  19
ENDBRANCH  17  18
ENDBRANCH  16  17
ENDBRANCH  15  16
ENDBRANCH  14  15
ENDBRANCH  13  14
ENDBRANCH  12  13
ENDBRANCH   1  12
TORSDOF 16
ENDMDL
MODEL 8
REMARK VINA RESULT:    -4.835      9.745     11.577
REMARK INTER + INTRA:         -10.442
REMARK INTER:                  -8.709
REMARK INTRA:                  -1.733
REMARK UNBOUND:                -1.085
REMARK SMILES CCCCCCCCCCCCCCCCCC(=O)[O-]
REMARK SMILES IDX 10 1 11 2 12 3 13 4 14 5 15 6 16 7 17 8 18 9 19 10 20 11
REMARK SMILES IDX 9 12 8 13 7 14 6 15 5 16 4 17 3 18 2 19 1 20
REMARK H PARENT
REMARK Flexibility Score: inf
ROOT
ATOM      1  C   UNL     1       8.304  29.749 -12.838  1.00  0.00     0.000 C 
ENDROOT
BRANCH   1   2
ATOM      2  C   UNL     1       7.446  28.649 -13.482  1.00  0.00     0.000 C 
BRANCH   2   3
ATOM      3  C   UNL     1       7.202  28.890 -14.979  1.00  0.00     0.000 C 
BRANCH   3   4
ATOM      4  C   UNL     1       5.870  29.614 -15.210  1.00  0.00     0.000 C 
BRANCH   4   5
ATOM      5  C   UNL     1       6.097  31.108 -15.485  1.00  0.00     0.000 C 
BRANCH   5   6
ATOM      6  C   UNL     1       5.189  32.012 -14.634  1.00  0.00     0.000 C 
BRANCH   6   7
ATOM      7  C   UNL     1       5.917  32.608 -13.420  1.00  0.00     0.006 C 
BRANCH   7   8
ATOM      8  C   UNL     1       5.214  32.221 -12.116  1.00  0.00     0.053 C 
BRANCH   8   9
ATOM      9  C   UNL     1       4.400  33.365 -11.599  1.00  0.00     0.041 C 
ATOM     10  O   UNL     1       3.286  33.635 -12.119  1.00  0.00    -0.550 OA
ATOM     11  O   UNL     1       4.849  34.102 -10.511  1.00  0.00    -0.550 OA
ENDBRANCH   8   9
ENDBRANCH   7   8
ENDBRANCH   6   7
ENDBRANCH   5   6
ENDBRANCH   4   5
ENDBRANCH   3   4
ENDBRANCH   2   3
ENDBRANCH   1   2
BRANCH   1  12
ATOM     12  C   UNL     1       9.800  29.604 -13.173  1.00  0.00     0.000 C 
BRANCH  12  13
ATOM     13  C   UNL     1      10.370  28.238 -12.755  1.00  0.00    -0.000 C 
BRANCH  13  14
ATOM     14  C   UNL     1      10.859  27.411 -13.957  1.00  0.00    -0.000 C 
BRANCH  14  15
ATOM     15  C   UNL     1      10.168  26.041 -14.051  1.00  0.00    -0.000 C 
BRANCH  15  16
ATOM     16  C   UNL     1       9.711  25.517 -12.678  1.00  0.00    -0.000 C 
BRANCH  16  17
ATOM     17  C   UNL     1       8.200  25.226 -12.624  1.00  0.00    -0.000 C 
BRANCH  17  18
ATOM     18  C   UNL     1       7.796  23.997 -11.785  1.00  0.00    -0.000 C 
BRANCH  18  19
ATOM     19  C   UNL     1       8.397  23.952 -10.369  1.00  0.00    -0.003 C 
ATOM     20  C   UNL     1       7.779  22.862  -9.494  1.00  0.00     0.004 C 
ENDBRANCH  18  19
ENDBRANCH  17  18
ENDBRANCH  16  17
ENDBRANCH  15  16
ENDBRANCH  14  15
ENDBRANCH  13  14
ENDBRANCH  12  13
ENDBRANCH   1  12
TORSDOF 16
ENDMDL
MODEL 9
REMARK VINA RESULT:    -4.821      9.495     11.883
REMARK INTER + INTRA:         -10.415
REMARK INTER:                  -8.361
REMARK INTRA:                  -2.053
REMARK UNBOUND:                -1.085
REMARK SMILES CCCCCCCCCCCCCCCCCC(=O)[O-]
REMARK SMILES IDX 10 1 11 2 12 3 13 4 14 5 15 6 16 7 17 8 18 9 19 10 20 11
REMARK SMILES IDX 9 12 8 13 7 14 6 15 5 16 4 17 3 18 2 19 1 20
REMARK H PARENT
REMARK Flexibility Score: inf
ROOT
ATOM      1  C   UNL     1       7.728  29.091 -13.126  1.00  0.00     0.000 C 
ENDROOT
BRANCH   1   2
ATOM      2  C   UNL     1       9.187  29.472 -12.833  1.00  0.00     0.000 C 
BRANCH   2   3
ATOM      3  C   UNL     1      10.165  28.914 -13.878  1.00  0.00     0.000 C 
BRANCH   3   4
ATOM      4  C   UNL     1      10.798  27.604 -13.394  1.00  0.00     0.000 C 
BRANCH   4   5
ATOM      5  C   UNL     1      10.632  26.494 -14.442  1.00  0.00     0.000 C 
BRANCH   5   6
ATOM      6  C   UNL     1       9.843  25.287 -13.907  1.00  0.00     0.000 C 
BRANCH   6   7
ATOM      7  C   UNL     1       9.010  25.629 -12.663  1.00  0.00     0.006 C 
BRANCH   7   8
ATOM      8  C   UNL     1       9.313  24.660 -11.517  1.00  0.00     0.053 C 
BRANCH   8   9
ATOM      9  C   UNL     1       8.065  23.963 -11.074  1.00  0.00     0.041 C 
ATOM     10  O   UNL     1       7.022  24.027 -11.775  1.00  0.00    -0.550 OA
ATOM     11  O   UNL     1       8.069  23.202  -9.912  1.00  0.00    -0.550 OA
ENDBRANCH   8   9
ENDBRANCH   7   8
ENDBRANCH   6   7
ENDBRANCH   5   6
ENDBRANCH   4   5
ENDBRANCH   3   4
ENDBRANCH   2   3
ENDBRANCH   1   2
BRANCH   1  12
ATOM     12  C   UNL     1       7.503  28.700 -14.598  1.00  0.00     0.000 C 
BRANCH  12  13
ATOM     13  C   UNL     1       6.124  29.134 -15.122  1.00  0.00    -0.000 C 
BRANCH  13  14
ATOM     14  C   UNL     1       6.204  30.367 -16.040  1.00  0.00    -0.000 C 
BRANCH  14  15
ATOM     15  C   UNL     1       5.833  31.669 -15.310  1.00  0.00    -0.000 C 
BRANCH  15  16
ATOM     16  C   UNL     1       7.059  32.371 -14.700  1.00  0.00    -0.000 C 
BRANCH  16  17
ATOM     17  C   UNL     1       6.740  33.080 -13.371  1.00  0.00    -0.000 C 
BRANCH  17  18
ATOM     18  C   UNL     1       6.192  32.169 -12.254  1.00  0.00    -0.000 C 
BRANCH  18  19
ATOM     19  C   UNL     1       4.917  32.684 -11.564  1.00  0.00    -0.003 C 
ATOM     20  C   UNL     1       3.950  33.368 -12.530  1.00  0.00     0.004 C 
ENDBRANCH  18  19
ENDBRANCH  17  18
ENDBRANCH  16  17
ENDBRANCH  15  16
ENDBRANCH  14  15
ENDBRANCH  13  14
ENDBRANCH  12  13
ENDBRANCH   1  12
TORSDOF 16
ENDMDL
