MODEL 1
REMARK VINA RESULT:    -4.780      0.000      0.000
REMARK INTER + INTRA:         -18.495
REMARK INTER:                 -12.605
REMARK INTRA:                  -5.890
REMARK UNBOUND:                -5.890
REMARK SMILES CCCCCCCCCCCCCCCCCCCCCCCCCCCCCC(=O)[O-]
REMARK SMILES IDX 16 1 17 2 18 3 19 4 20 5 21 6 22 7 23 8 24 9 25 10 26 11
REMARK SMILES IDX 27 12 28 13 29 14 30 15 31 16 32 17 15 18 14 19 13 20 12 21
REMARK SMILES IDX 11 22 10 23 9 24 8 25 7 26 6 27 5 28 4 29 3 30 2 31 1 32
REMARK H PARENT
REMARK Flexibility Score: inf
ROOT
ATOM      1  C   UNL     1     -22.391  60.360  27.788  1.00  0.00     0.000 C 
ENDROOT
BRANCH   1   2
ATOM      2  C   UNL     1     -21.566  61.656  27.680  1.00  0.00     0.000 C 
BRANCH   2   3
ATOM      3  C   UNL     1     -20.272  61.681  28.519  1.00  0.00     0.000 C 
BRANCH   3   4
ATOM      4  C   UNL     1     -20.155  60.562  29.568  1.00  0.00     0.000 C 
BRANCH   4   5
ATOM      5  C   UNL     1     -19.977  61.102  30.995  1.00  0.00     0.000 C 
BRANCH   5   6
ATOM      6  C   UNL     1     -21.135  62.037  31.376  1.00  0.00     0.000 C 
BRANCH   6   7
ATOM      7  C   UNL     1     -22.310  61.280  32.017  1.00  0.00     0.000 C 
BRANCH   7   8
ATOM      8  C   UNL     1     -21.987  59.798  32.261  1.00  0.00     0.000 C 
BRANCH   8   9
ATOM      9  C   UNL     1     -23.240  58.927  32.083  1.00  0.00     0.000 C 
BRANCH   9  10
ATOM     10  C   UNL     1     -23.163  58.031  30.837  1.00  0.00     0.000 C 
BRANCH  10  11
ATOM     11  C   UNL     1     -21.728  57.578  30.523  1.00  0.00     0.000 C 
BRANCH  11  12
ATOM     12  C   UNL     1     -21.636  56.816  29.184  1.00  0.00     0.000 C 
BRANCH  12  13
ATOM     13  C   UNL     1     -22.932  56.870  28.355  1.00  0.00     0.006 C 
BRANCH  13  14
ATOM     14  C   UNL     1     -23.107  55.690  27.386  1.00  0.00     0.053 C 
BRANCH  14  15
ATOM     15  C   UNL     1     -23.265  56.138  25.966  1.00  0.00     0.041 C 
ATOM     16  O   UNL     1     -23.636  55.322  25.081  1.00  0.00    -0.550 OA
ATOM     17  O   UNL     1     -23.015  57.459  25.620  1.00  0.00    -0.550 OA
ENDBRANCH  14  15
ENDBRANCH  13  14
ENDBRANCH  12  13
ENDBRANCH  11  12
ENDBRANCH  10  11
ENDBRANCH   9  10
ENDBRANCH   8   9
ENDBRANCH   7   8
ENDBRANCH   6   7
ENDBRANCH   5   6
ENDBRANCH   4   5
ENDBRANCH   3   4
ENDBRANCH   2   3
ENDBRANCH   1   2
BRANCH   1  18
ATOM     18  C   UNL     1     -23.827  60.610  28.279  1.00  0.00     0.000 C 
BRANCH  18  19
ATOM     19  C   UNL     1     -24.014  62.007  28.892  1.00  0.00     0.000 C 
BRANCH  19  20
ATOM     20  C   UNL     1     -25.038  62.015  30.042  1.00  0.00     0.000 C 
BRANCH  20  21
ATOM     21  C   UNL     1     -25.834  60.698  30.149  1.00  0.00     0.000 C 
BRANCH  21  22
ATOM     22  C   UNL     1     -26.486  60.460  31.525  1.00  0.00     0.000 C 
BRANCH  22  23
ATOM     23  C   UNL     1     -26.453  61.659  32.493  1.00  0.00     0.000 C 
BRANCH  23  24
ATOM     24  C   UNL     1     -27.111  61.421  33.865  1.00  0.00    -0.000 C 
BRANCH  24  25
ATOM     25  C   UNL     1     -26.135  61.198  35.039  1.00  0.00    -0.000 C 
BRANCH  25  26
ATOM     26  C   UNL     1     -24.747  60.673  34.616  1.00  0.00    -0.000 C 
BRANCH  26  27
ATOM     27  C   UNL     1     -23.717  60.737  35.754  1.00  0.00    -0.000 C 
BRANCH  27  28
ATOM     28  C   UNL     1     -22.725  61.902  35.589  1.00  0.00    -0.000 C 
BRANCH  28  29
ATOM     29  C   UNL     1     -21.279  61.542  35.994  1.00  0.00    -0.000 C 
BRANCH  29  30
ATOM     30  C   UNL     1     -20.240  62.152  35.041  1.00  0.00    -0.000 C 
BRANCH  30  31
ATOM     31  C   UNL     1     -19.170  61.123  34.658  1.00  0.00    -0.003 C 
ATOM     32  C   UNL     1     -19.605  59.709  35.033  1.00  0.00     0.004 C 
ENDBRANCH  30  31
ENDBRANCH  29  30
ENDBRANCH  28  29
ENDBRANCH  27  28
ENDBRANCH  26  27
ENDBRANCH  25  26
ENDBRANCH  24  25
ENDBRANCH  23  24
ENDBRANCH  22  23
ENDBRANCH  21  22
ENDBRANCH  20  21
ENDBRANCH  19  20
ENDBRANCH  18  19
ENDBRANCH   1  18
TORSDOF 28
ENDMDL
MODEL 2
REMARK VINA RESULT:    -4.691      2.781      6.568
REMARK INTER + INTRA:         -18.260
REMARK INTER:                 -12.103
REMARK INTRA:                  -6.158
REMARK UNBOUND:                -5.890
REMARK SMILES CCCCCCCCCCCCCCCCCCCCCCCCCCCCCC(=O)[O-]
REMARK SMILES IDX 16 1 17 2 18 3 19 4 20 5 21 6 22 7 23 8 24 9 25 10 26 11
REMARK SMILES IDX 27 12 28 13 29 14 30 15 31 16 32 17 15 18 14 19 13 20 12 21
REMARK SMILES IDX 11 22 10 23 9 24 8 25 7 26 6 27 5 28 4 29 3 30 2 31 1 32
REMARK H PARENT
REMARK Flexibility Score: inf
ROOT
ATOM      1  C   UNL     1     -26.052  59.815  30.963  1.00  0.00     0.000 C 
ENDROOT
BRANCH   1   2
ATOM      2  C   UNL     1     -26.921  60.105  32.201  1.00  0.00     0.000 C 
BRANCH   2   3
ATOM      3  C   UNL     1     -26.251  59.801  33.557  1.00  0.00     0.000 C 
BRANCH   3   4
ATOM      4  C   UNL     1     -26.180  60.991  34.528  1.00  0.00     0.000 C 
BRANCH   4   5
ATOM      5  C   UNL     1     -24.870  61.024  35.331  1.00  0.00     0.000 C 
BRANCH   5   6
ATOM      6  C   UNL     1     -23.684  60.568  34.467  1.00  0.00     0.000 C 
BRANCH   6   7
ATOM      7  C   UNL     1     -22.333  60.783  35.169  1.00  0.00     0.000 C 
BRANCH   7   8
ATOM      8  C   UNL     1     -21.779  62.199  34.949  1.00  0.00     0.000 C 
BRANCH   8   9
ATOM      9  C   UNL     1     -20.244  62.199  34.992  1.00  0.00     0.000 C 
BRANCH   9  10
ATOM     10  C   UNL     1     -19.654  60.780  34.995  1.00  0.00     0.000 C 
BRANCH  10  11
ATOM     11  C   UNL     1     -19.076  60.377  33.628  1.00  0.00     0.000 C 
BRANCH  11  12
ATOM     12  C   UNL     1     -19.664  59.044  33.116  1.00  0.00     0.000 C 
BRANCH  12  13
ATOM     13  C   UNL     1     -19.094  58.603  31.756  1.00  0.00     0.006 C 
BRANCH  13  14
ATOM     14  C   UNL     1     -17.720  59.207  31.424  1.00  0.00     0.053 C 
BRANCH  14  15
ATOM     15  C   UNL     1     -16.594  58.280  31.761  1.00  0.00     0.041 C 
ATOM     16  O   UNL     1     -16.283  58.070  32.964  1.00  0.00    -0.550 OA
ATOM     17  O   UNL     1     -15.894  57.637  30.749  1.00  0.00    -0.550 OA
ENDBRANCH  14  15
ENDBRANCH  13  14
ENDBRANCH  12  13
ENDBRANCH  11  12
ENDBRANCH  10  11
ENDBRANCH   9  10
ENDBRANCH   8   9
ENDBRANCH   7   8
ENDBRANCH   6   7
ENDBRANCH   5   6
ENDBRANCH   4   5
ENDBRANCH   3   4
ENDBRANCH   2   3
ENDBRANCH   1   2
BRANCH   1  18
ATOM     18  C   UNL     1     -25.688  61.089  30.182  1.00  0.00     0.000 C 
BRANCH  18  19
ATOM     19  C   UNL     1     -25.126  62.200  31.083  1.00  0.00     0.000 C 
BRANCH  19  20
ATOM     20  C   UNL     1     -23.722  62.662  30.648  1.00  0.00     0.000 C 
BRANCH  20  21
ATOM     21  C   UNL     1     -22.591  61.820  31.273  1.00  0.00     0.000 C 
BRANCH  21  22
ATOM     22  C   UNL     1     -21.218  62.518  31.296  1.00  0.00     0.000 C 
BRANCH  22  23
ATOM     23  C   UNL     1     -20.127  61.869  30.421  1.00  0.00     0.000 C 
BRANCH  23  24
ATOM     24  C   UNL     1     -20.641  60.994  29.262  1.00  0.00    -0.000 C 
BRANCH  24  25
ATOM     25  C   UNL     1     -21.037  61.757  27.980  1.00  0.00    -0.000 C 
BRANCH  25  26
ATOM     26  C   UNL     1     -22.045  61.006  27.084  1.00  0.00    -0.000 C 
BRANCH  26  27
ATOM     27  C   UNL     1     -23.117  60.261  27.894  1.00  0.00    -0.000 C 
BRANCH  27  28
ATOM     28  C   UNL     1     -22.873  58.742  27.940  1.00  0.00    -0.000 C 
BRANCH  28  29
ATOM     29  C   UNL     1     -23.531  58.048  29.154  1.00  0.00    -0.000 C 
BRANCH  29  30
ATOM     30  C   UNL     1     -22.514  57.721  30.256  1.00  0.00    -0.000 C 
BRANCH  30  31
ATOM     31  C   UNL     1     -22.925  58.352  31.592  1.00  0.00    -0.003 C 
ATOM     32  C   UNL     1     -23.604  57.330  32.499  1.00  0.00     0.004 C 
ENDBRANCH  30  31
ENDBRANCH  29  30
ENDBRANCH  28  29
ENDBRANCH  27  28
ENDBRANCH  26  27
ENDBRANCH  25  26
ENDBRANCH  24  25
ENDBRANCH  23  24
ENDBRANCH  22  23
ENDBRANCH  21  22
ENDBRANCH  20  21
ENDBRANCH  19  20
ENDBRANCH  18  19
ENDBRANCH   1  18
TORSDOF 28
ENDMDL
MODEL 3
REMARK VINA RESULT:    -4.664      2.996      4.538
REMARK INTER + INTRA:         -18.189
REMARK INTER:                 -12.651
REMARK INTRA:                  -5.538
REMARK UNBOUND:                -5.890
REMARK SMILES CCCCCCCCCCCCCCCCCCCCCCCCCCCCCC(=O)[O-]
REMARK SMILES IDX 16 1 17 2 18 3 19 4 20 5 21 6 22 7 23 8 24 9 25 10 26 11
REMARK SMILES IDX 27 12 28 13 29 14 30 15 31 16 32 17 15 18 14 19 13 20 12 21
REMARK SMILES IDX 11 22 10 23 9 24 8 25 7 26 6 27 5 28 4 29 3 30 2 31 1 32
REMARK H PARENT
REMARK Flexibility Score: inf
ROOT
ATOM      1  C   UNL     1     -24.321  58.325  30.698  1.00  0.00     0.000 C 
ENDROOT
BRANCH   1   2
ATOM      2  C   UNL     1     -23.438  58.345  29.437  1.00  0.00     0.000 C 
BRANCH   2   3
ATOM      3  C   UNL     1     -23.865  59.357  28.354  1.00  0.00     0.000 C 
BRANCH   3   4
ATOM      4  C   UNL     1     -22.724  60.208  27.772  1.00  0.00     0.000 C 
BRANCH   4   5
ATOM      5  C   UNL     1     -22.705  61.639  28.331  1.00  0.00     0.000 C 
BRANCH   5   6
ATOM      6  C   UNL     1     -24.042  61.983  29.005  1.00  0.00     0.000 C 
BRANCH   6   7
ATOM      7  C   UNL     1     -23.850  62.643  30.381  1.00  0.00     0.000 C 
BRANCH   7   8
ATOM      8  C   UNL     1     -23.012  61.775  31.333  1.00  0.00     0.000 C 
BRANCH   8   9
ATOM      9  C   UNL     1     -21.596  62.348  31.492  1.00  0.00     0.000 C 
BRANCH   9  10
ATOM     10  C   UNL     1     -20.544  61.256  31.746  1.00  0.00     0.000 C 
BRANCH  10  11
ATOM     11  C   UNL     1     -21.146  59.841  31.730  1.00  0.00     0.000 C 
BRANCH  11  12
ATOM     12  C   UNL     1     -20.065  58.748  31.585  1.00  0.00     0.000 C 
BRANCH  12  13
ATOM     13  C   UNL     1     -18.627  59.296  31.631  1.00  0.00     0.006 C 
BRANCH  13  14
ATOM     14  C   UNL     1     -17.556  58.283  31.197  1.00  0.00     0.053 C 
BRANCH  14  15
ATOM     15  C   UNL     1     -16.193  58.643  31.705  1.00  0.00     0.041 C 
ATOM     16  O   UNL     1     -15.516  59.534  31.127  1.00  0.00    -0.550 OA
ATOM     17  O   UNL     1     -15.676  58.004  32.823  1.00  0.00    -0.550 OA
ENDBRANCH  14  15
ENDBRANCH  13  14
ENDBRANCH  12  13
ENDBRANCH  11  12
ENDBRANCH  10  11
ENDBRANCH   9  10
ENDBRANCH   8   9
ENDBRANCH   7   8
ENDBRANCH   6   7
ENDBRANCH   5   6
ENDBRANCH   4   5
ENDBRANCH   3   4
ENDBRANCH   2   3
ENDBRANCH   1   2
BRANCH   1  18
ATOM     18  C   UNL     1     -25.636  59.102  30.514  1.00  0.00     0.000 C 
BRANCH  18  19
ATOM     19  C   UNL     1     -26.317  59.446  31.848  1.00  0.00     0.000 C 
BRANCH  19  20
ATOM     20  C   UNL     1     -26.970  60.841  31.835  1.00  0.00     0.000 C 
BRANCH  20  21
ATOM     21  C   UNL     1     -27.972  61.047  32.990  1.00  0.00     0.000 C 
BRANCH  21  22
ATOM     22  C   UNL     1     -27.466  60.566  34.364  1.00  0.00     0.000 C 
BRANCH  22  23
ATOM     23  C   UNL     1     -26.707  61.617  35.197  1.00  0.00     0.000 C 
BRANCH  23  24
ATOM     24  C   UNL     1     -25.271  61.231  35.600  1.00  0.00    -0.000 C 
BRANCH  24  25
ATOM     25  C   UNL     1     -24.448  60.507  34.513  1.00  0.00    -0.000 C 
BRANCH  25  26
ATOM     26  C   UNL     1     -22.924  60.523  34.759  1.00  0.00    -0.000 C 
BRANCH  26  27
ATOM     27  C   UNL     1     -22.465  61.753  35.556  1.00  0.00    -0.000 C 
BRANCH  27  28
ATOM     28  C   UNL     1     -21.102  61.541  36.237  1.00  0.00    -0.000 C 
BRANCH  28  29
ATOM     29  C   UNL     1     -19.901  61.930  35.348  1.00  0.00    -0.000 C 
BRANCH  29  30
ATOM     30  C   UNL     1     -18.965  60.740  35.084  1.00  0.00    -0.000 C 
BRANCH  30  31
ATOM     31  C   UNL     1     -19.471  59.474  35.785  1.00  0.00    -0.003 C 
ATOM     32  C   UNL     1     -18.895  58.218  35.139  1.00  0.00     0.004 C 
ENDBRANCH  30  31
ENDBRANCH  29  30
ENDBRANCH  28  29
ENDBRANCH  27  28
ENDBRANCH  26  27
ENDBRANCH  25  26
ENDBRANCH  24  25
ENDBRANCH  23  24
ENDBRANCH  22  23
ENDBRANCH  21  22
ENDBRANCH  20  21
ENDBRANCH  19  20
ENDBRANCH  18  19
ENDBRANCH   1  18
TORSDOF 28
ENDMDL
MODEL 4
REMARK VINA RESULT:    -4.653      1.066      2.090
REMARK INTER + INTRA:         -18.159
REMARK INTER:                 -12.074
REMARK INTRA:                  -6.085
REMARK UNBOUND:                -5.890
REMARK SMILES CCCCCCCCCCCCCCCCCCCCCCCCCCCCCC(=O)[O-]
REMARK SMILES IDX 16 1 17 2 18 3 19 4 20 5 21 6 22 7 23 8 24 9 25 10 26 11
REMARK SMILES IDX 27 12 28 13 29 14 30 15 31 16 32 17 15 18 14 19 13 20 12 21
REMARK SMILES IDX 11 22 10 23 9 24 8 25 7 26 6 27 5 28 4 29 3 30 2 31 1 32
REMARK H PARENT
REMARK Flexibility Score: inf
ROOT
ATOM      1  C   UNL     1     -24.193  60.493  28.290  1.00  0.00     0.000 C 
ENDROOT
BRANCH   1   2
ATOM      2  C   UNL     1     -23.235  61.699  28.277  1.00  0.00     0.000 C 
BRANCH   2   3
ATOM      3  C   UNL     1     -21.898  61.465  27.546  1.00  0.00     0.000 C 
BRANCH   3   4
ATOM      4  C   UNL     1     -20.643  61.602  28.424  1.00  0.00     0.000 C 
BRANCH   4   5
ATOM      5  C   UNL     1     -20.838  61.023  29.834  1.00  0.00     0.000 C 
BRANCH   5   6
ATOM      6  C   UNL     1     -20.870  62.141  30.887  1.00  0.00     0.000 C 
BRANCH   6   7
ATOM      7  C   UNL     1     -21.721  61.766  32.112  1.00  0.00     0.000 C 
BRANCH   7   8
ATOM      8  C   UNL     1     -22.660  60.582  31.831  1.00  0.00     0.000 C 
BRANCH   8   9
ATOM      9  C   UNL     1     -22.326  59.390  32.740  1.00  0.00     0.000 C 
BRANCH   9  10
ATOM     10  C   UNL     1     -22.966  58.080  32.252  1.00  0.00     0.000 C 
BRANCH  10  11
ATOM     11  C   UNL     1     -22.143  57.396  31.148  1.00  0.00     0.000 C 
BRANCH  11  12
ATOM     12  C   UNL     1     -23.015  56.981  29.944  1.00  0.00     0.000 C 
BRANCH  12  13
ATOM     13  C   UNL     1     -22.198  56.577  28.703  1.00  0.00     0.006 C 
BRANCH  13  14
ATOM     14  C   UNL     1     -21.845  57.750  27.775  1.00  0.00     0.053 C 
BRANCH  14  15
ATOM     15  C   UNL     1     -22.598  57.700  26.481  1.00  0.00     0.041 C 
ATOM     16  O   UNL     1     -22.413  58.586  25.605  1.00  0.00    -0.550 OA
ATOM     17  O   UNL     1     -23.494  56.669  26.237  1.00  0.00    -0.550 OA
ENDBRANCH  14  15
ENDBRANCH  13  14
ENDBRANCH  12  13
ENDBRANCH  11  12
ENDBRANCH  10  11
ENDBRANCH   9  10
ENDBRANCH   8   9
ENDBRANCH   7   8
ENDBRANCH   6   7
ENDBRANCH   5   6
ENDBRANCH   4   5
ENDBRANCH   3   4
ENDBRANCH   2   3
ENDBRANCH   1   2
BRANCH   1  18
ATOM     18  C   UNL     1     -25.296  60.624  29.355  1.00  0.00     0.000 C 
BRANCH  18  19
ATOM     19  C   UNL     1     -25.636  59.285  30.029  1.00  0.00     0.000 C 
BRANCH  19  20
ATOM     20  C   UNL     1     -26.159  59.463  31.467  1.00  0.00     0.000 C 
BRANCH  20  21
ATOM     21  C   UNL     1     -26.696  60.883  31.740  1.00  0.00     0.000 C 
BRANCH  21  22
ATOM     22  C   UNL     1     -26.398  61.413  33.156  1.00  0.00     0.000 C 
BRANCH  22  23
ATOM     23  C   UNL     1     -25.641  60.442  34.083  1.00  0.00     0.000 C 
BRANCH  23  24
ATOM     24  C   UNL     1     -25.003  61.081  35.332  1.00  0.00    -0.000 C 
BRANCH  24  25
ATOM     25  C   UNL     1     -23.539  60.678  35.609  1.00  0.00    -0.000 C 
BRANCH  25  26
ATOM     26  C   UNL     1     -22.555  61.866  35.659  1.00  0.00    -0.000 C 
BRANCH  26  27
ATOM     27  C   UNL     1     -21.171  61.467  36.190  1.00  0.00    -0.000 C 
BRANCH  27  28
ATOM     28  C   UNL     1     -20.990  59.942  36.282  1.00  0.00    -0.000 C 
BRANCH  28  29
ATOM     29  C   UNL     1     -19.907  59.390  35.329  1.00  0.00    -0.000 C 
BRANCH  29  30
ATOM     30  C   UNL     1     -19.176  60.509  34.573  1.00  0.00    -0.000 C 
BRANCH  30  31
ATOM     31  C   UNL     1     -18.719  60.033  33.189  1.00  0.00    -0.003 C 
ATOM     32  C   UNL     1     -18.788  58.513  33.078  1.00  0.00     0.004 C 
ENDBRANCH  30  31
ENDBRANCH  29  30
ENDBRANCH  28  29
ENDBRANCH  27  28
ENDBRANCH  26  27
ENDBRANCH  25  26
ENDBRANCH  24  25
ENDBRANCH  23  24
ENDBRANCH  22  23
ENDBRANCH  21  22
ENDBRANCH  20  21
ENDBRANCH  19  20
ENDBRANCH  18  19
ENDBRANCH   1  18
TORSDOF 28
ENDMDL
MODEL 5
REMARK VINA RESULT:    -4.641      2.599      6.515
REMARK INTER + INTRA:         -18.128
REMARK INTER:                 -12.445
REMARK INTRA:                  -5.683
REMARK UNBOUND:                -5.890
REMARK SMILES CCCCCCCCCCCCCCCCCCCCCCCCCCCCCC(=O)[O-]
REMARK SMILES IDX 16 1 17 2 18 3 19 4 20 5 21 6 22 7 23 8 24 9 25 10 26 11
REMARK SMILES IDX 27 12 28 13 29 14 30 15 31 16 32 17 15 18 14 19 13 20 12 21
REMARK SMILES IDX 11 22 10 23 9 24 8 25 7 26 6 27 5 28 4 29 3 30 2 31 1 32
REMARK H PARENT
REMARK Flexibility Score: inf
ROOT
ATOM      1  C   UNL     1     -26.123  60.827  31.351  1.00  0.00     0.000 C 
ENDROOT
BRANCH   1   2
ATOM      2  C   UNL     1     -27.400  60.688  32.201  1.00  0.00     0.000 C 
BRANCH   2   3
ATOM      3  C   UNL     1     -27.997  62.018  32.706  1.00  0.00     0.000 C 
BRANCH   3   4
ATOM      4  C   UNL     1     -27.950  62.214  34.231  1.00  0.00     0.000 C 
BRANCH   4   5
ATOM      5  C   UNL     1     -27.291  61.035  34.962  1.00  0.00     0.000 C 
BRANCH   5   6
ATOM      6  C   UNL     1     -25.947  61.453  35.579  1.00  0.00     0.000 C 
BRANCH   6   7
ATOM      7  C   UNL     1     -24.750  60.807  34.864  1.00  0.00     0.000 C 
BRANCH   7   8
ATOM      8  C   UNL     1     -23.537  60.638  35.791  1.00  0.00     0.000 C 
BRANCH   8   9
ATOM      9  C   UNL     1     -22.598  61.849  35.692  1.00  0.00     0.000 C 
BRANCH   9  10
ATOM     10  C   UNL     1     -21.212  61.572  36.296  1.00  0.00     0.000 C 
BRANCH  10  11
ATOM     11  C   UNL     1     -20.116  61.446  35.225  1.00  0.00     0.000 C 
BRANCH  11  12
ATOM     12  C   UNL     1     -18.978  60.498  35.664  1.00  0.00     0.000 C 
BRANCH  12  13
ATOM     13  C   UNL     1     -18.973  59.155  34.912  1.00  0.00     0.006 C 
BRANCH  13  14
ATOM     14  C   UNL     1     -20.370  58.558  34.683  1.00  0.00     0.053 C 
BRANCH  14  15
ATOM     15  C   UNL     1     -20.369  57.496  33.626  1.00  0.00     0.041 C 
ATOM     16  O   UNL     1     -21.033  56.438  33.791  1.00  0.00    -0.550 OA
ATOM     17  O   UNL     1     -19.647  57.679  32.455  1.00  0.00    -0.550 OA
ENDBRANCH  14  15
ENDBRANCH  13  14
ENDBRANCH  12  13
ENDBRANCH  11  12
ENDBRANCH  10  11
ENDBRANCH   9  10
ENDBRANCH   8   9
ENDBRANCH   7   8
ENDBRANCH   6   7
ENDBRANCH   5   6
ENDBRANCH   4   5
ENDBRANCH   3   4
ENDBRANCH   2   3
ENDBRANCH   1   2
BRANCH   1  18
ATOM     18  C   UNL     1     -25.475  62.216  31.476  1.00  0.00     0.000 C 
BRANCH  18  19
ATOM     19  C   UNL     1     -25.158  62.852  30.113  1.00  0.00     0.000 C 
BRANCH  19  20
ATOM     20  C   UNL     1     -23.847  62.322  29.504  1.00  0.00     0.000 C 
BRANCH  20  21
ATOM     21  C   UNL     1     -24.073  61.189  28.481  1.00  0.00     0.000 C 
BRANCH  21  22
ATOM     22  C   UNL     1     -22.789  60.693  27.788  1.00  0.00     0.000 C 
BRANCH  22  23
ATOM     23  C   UNL     1     -21.902  61.792  27.168  1.00  0.00     0.000 C 
BRANCH  23  24
ATOM     24  C   UNL     1     -20.527  61.987  27.835  1.00  0.00    -0.000 C 
BRANCH  24  25
ATOM     25  C   UNL     1     -20.256  61.102  29.070  1.00  0.00    -0.000 C 
BRANCH  25  26
ATOM     26  C   UNL     1     -20.100  61.889  30.389  1.00  0.00    -0.000 C 
BRANCH  26  27
ATOM     27  C   UNL     1     -20.434  61.044  31.627  1.00  0.00    -0.000 C 
BRANCH  27  28
ATOM     28  C   UNL     1     -21.859  61.298  32.150  1.00  0.00    -0.000 C 
BRANCH  28  29
ATOM     29  C   UNL     1     -22.698  60.010  32.305  1.00  0.00    -0.000 C 
BRANCH  29  30
ATOM     30  C   UNL     1     -22.566  59.082  31.089  1.00  0.00    -0.000 C 
BRANCH  30  31
ATOM     31  C   UNL     1     -23.704  58.055  31.052  1.00  0.00    -0.003 C 
ATOM     32  C   UNL     1     -24.245  57.781  32.452  1.00  0.00     0.004 C 
ENDBRANCH  30  31
ENDBRANCH  29  30
ENDBRANCH  28  29
ENDBRANCH  27  28
ENDBRANCH  26  27
ENDBRANCH  25  26
ENDBRANCH  24  25
ENDBRANCH  23  24
ENDBRANCH  22  23
ENDBRANCH  21  22
ENDBRANCH  20  21
ENDBRANCH  19  20
ENDBRANCH  18  19
ENDBRANCH   1  18
TORSDOF 28
ENDMDL
MODEL 6
REMARK VINA RESULT:    -4.607      1.401      3.726
REMARK INTER + INTRA:         -18.038
REMARK INTER:                 -11.806
REMARK INTRA:                  -6.232
REMARK UNBOUND:                -5.890
REMARK SMILES CCCCCCCCCCCCCCCCCCCCCCCCCCCCCC(=O)[O-]
REMARK SMILES IDX 16 1 17 2 18 3 19 4 20 5 21 6 22 7 23 8 24 9 25 10 26 11
REMARK SMILES IDX 27 12 28 13 29 14 30 15 31 16 32 17 15 18 14 19 13 20 12 21
REMARK SMILES IDX 11 22 10 23 9 24 8 25 7 26 6 27 5 28 4 29 3 30 2 31 1 32
REMARK H PARENT
REMARK Flexibility Score: inf
ROOT
ATOM      1  C   UNL     1     -22.360  60.995  27.714  1.00  0.00     0.000 C 
ENDROOT
BRANCH   1   2
ATOM      2  C   UNL     1     -23.538  61.951  27.977  1.00  0.00     0.000 C 
BRANCH   2   3
ATOM      3  C   UNL     1     -24.294  61.711  29.299  1.00  0.00     0.000 C 
BRANCH   3   4
ATOM      4  C   UNL     1     -24.328  62.913  30.258  1.00  0.00     0.000 C 
BRANCH   4   5
ATOM      5  C   UNL     1     -25.577  62.924  31.153  1.00  0.00     0.000 C 
BRANCH   5   6
ATOM      6  C   UNL     1     -25.993  61.494  31.534  1.00  0.00     0.000 C 
BRANCH   6   7
ATOM      7  C   UNL     1     -26.287  61.352  33.036  1.00  0.00     0.000 C 
BRANCH   7   8
ATOM      8  C   UNL     1     -25.821  60.001  33.598  1.00  0.00     0.000 C 
BRANCH   8   9
ATOM      9  C   UNL     1     -24.427  59.637  33.065  1.00  0.00     0.000 C 
BRANCH   9  10
ATOM     10  C   UNL     1     -24.390  58.245  32.414  1.00  0.00     0.000 C 
BRANCH  10  11
ATOM     11  C   UNL     1     -24.626  58.297  30.896  1.00  0.00     0.000 C 
BRANCH  11  12
ATOM     12  C   UNL     1     -23.305  58.381  30.102  1.00  0.00     0.000 C 
BRANCH  12  13
ATOM     13  C   UNL     1     -23.082  57.192  29.149  1.00  0.00     0.006 C 
BRANCH  13  14
ATOM     14  C   UNL     1     -22.070  57.467  28.027  1.00  0.00     0.053 C 
BRANCH  14  15
ATOM     15  C   UNL     1     -22.662  57.271  26.665  1.00  0.00     0.041 C 
ATOM     16  O   UNL     1     -23.473  56.330  26.456  1.00  0.00    -0.550 OA
ATOM     17  O   UNL     1     -22.328  58.133  25.630  1.00  0.00    -0.550 OA
ENDBRANCH  14  15
ENDBRANCH  13  14
ENDBRANCH  12  13
ENDBRANCH  11  12
ENDBRANCH  10  11
ENDBRANCH   9  10
ENDBRANCH   8   9
ENDBRANCH   7   8
ENDBRANCH   6   7
ENDBRANCH   5   6
ENDBRANCH   4   5
ENDBRANCH   3   4
ENDBRANCH   2   3
ENDBRANCH   1   2
BRANCH   1  18
ATOM     18  C   UNL     1     -20.995  61.643  28.001  1.00  0.00     0.000 C 
BRANCH  18  19
ATOM     19  C   UNL     1     -20.324  61.084  29.266  1.00  0.00     0.000 C 
BRANCH  19  20
ATOM     20  C   UNL     1     -20.594  61.951  30.511  1.00  0.00     0.000 C 
BRANCH  20  21
ATOM     21  C   UNL     1     -21.386  61.204  31.604  1.00  0.00     0.000 C 
BRANCH  21  22
ATOM     22  C   UNL     1     -21.689  62.047  32.857  1.00  0.00     0.000 C 
BRANCH  22  23
ATOM     23  C   UNL     1     -20.570  62.089  33.917  1.00  0.00     0.000 C 
BRANCH  23  24
ATOM     24  C   UNL     1     -21.046  62.118  35.381  1.00  0.00    -0.000 C 
BRANCH  24  25
ATOM     25  C   UNL     1     -22.527  61.746  35.606  1.00  0.00    -0.000 C 
BRANCH  25  26
ATOM     26  C   UNL     1     -22.739  60.361  36.255  1.00  0.00    -0.000 C 
BRANCH  26  27
ATOM     27  C   UNL     1     -21.476  59.834  36.952  1.00  0.00    -0.000 C 
BRANCH  27  28
ATOM     28  C   UNL     1     -21.015  58.476  36.393  1.00  0.00    -0.000 C 
BRANCH  28  29
ATOM     29  C   UNL     1     -21.607  58.148  35.005  1.00  0.00    -0.000 C 
BRANCH  29  30
ATOM     30  C   UNL     1     -20.658  58.539  33.862  1.00  0.00    -0.000 C 
BRANCH  30  31
ATOM     31  C   UNL     1     -20.809  57.587  32.670  1.00  0.00    -0.003 C 
ATOM     32  C   UNL     1     -19.724  57.833  31.626  1.00  0.00     0.004 C 
ENDBRANCH  30  31
ENDBRANCH  29  30
ENDBRANCH  28  29
ENDBRANCH  27  28
ENDBRANCH  26  27
ENDBRANCH  25  26
ENDBRANCH  24  25
ENDBRANCH  23  24
ENDBRANCH  22  23
ENDBRANCH  21  22
ENDBRANCH  20  21
ENDBRANCH  19  20
ENDBRANCH  18  19
ENDBRANCH   1  18
TORSDOF 28
ENDMDL
MODEL 7
REMARK VINA RESULT:    -4.585      3.110      6.466
REMARK INTER + INTRA:         -17.980
REMARK INTER:                 -11.783
REMARK INTRA:                  -6.198
REMARK UNBOUND:                -5.890
REMARK SMILES CCCCCCCCCCCCCCCCCCCCCCCCCCCCCC(=O)[O-]
REMARK SMILES IDX 16 1 17 2 18 3 19 4 20 5 21 6 22 7 23 8 24 9 25 10 26 11
REMARK SMILES IDX 27 12 28 13 29 14 30 15 31 16 32 17 15 18 14 19 13 20 12 21
REMARK SMILES IDX 11 22 10 23 9 24 8 25 7 26 6 27 5 28 4 29 3 30 2 31 1 32
REMARK H PARENT
REMARK Flexibility Score: inf
ROOT
ATOM      1  C   UNL     1     -24.492  58.695  30.226  1.00  0.00     0.000 C 
ENDROOT
BRANCH   1   2
ATOM      2  C   UNL     1     -25.462  58.982  31.387  1.00  0.00     0.000 C 
BRANCH   2   3
ATOM      3  C   UNL     1     -26.413  60.176  31.165  1.00  0.00     0.000 C 
BRANCH   3   4
ATOM      4  C   UNL     1     -26.789  60.954  32.438  1.00  0.00     0.000 C 
BRANCH   4   5
ATOM      5  C   UNL     1     -26.465  60.180  33.724  1.00  0.00     0.000 C 
BRANCH   5   6
ATOM      6  C   UNL     1     -26.279  61.139  34.910  1.00  0.00     0.000 C 
BRANCH   6   7
ATOM      7  C   UNL     1     -24.837  61.136  35.443  1.00  0.00     0.000 C 
BRANCH   7   8
ATOM      8  C   UNL     1     -23.859  60.446  34.480  1.00  0.00     0.000 C 
BRANCH   8   9
ATOM      9  C   UNL     1     -22.423  60.506  35.021  1.00  0.00     0.000 C 
BRANCH   9  10
ATOM     10  C   UNL     1     -21.864  61.937  35.053  1.00  0.00     0.000 C 
BRANCH  10  11
ATOM     11  C   UNL     1     -20.339  61.971  35.248  1.00  0.00     0.000 C 
BRANCH  11  12
ATOM     12  C   UNL     1     -19.654  60.693  34.718  1.00  0.00     0.000 C 
BRANCH  12  13
ATOM     13  C   UNL     1     -18.388  60.302  35.502  1.00  0.00     0.006 C 
BRANCH  13  14
ATOM     14  C   UNL     1     -18.295  58.806  35.839  1.00  0.00     0.053 C 
BRANCH  14  15
ATOM     15  C   UNL     1     -17.292  58.092  34.987  1.00  0.00     0.041 C 
ATOM     16  O   UNL     1     -16.496  57.263  35.503  1.00  0.00    -0.550 OA
ATOM     17  O   UNL     1     -17.243  58.331  33.620  1.00  0.00    -0.550 OA
ENDBRANCH  14  15
ENDBRANCH  13  14
ENDBRANCH  12  13
ENDBRANCH  11  12
ENDBRANCH  10  11
ENDBRANCH   9  10
ENDBRANCH   8   9
ENDBRANCH   7   8
ENDBRANCH   6   7
ENDBRANCH   5   6
ENDBRANCH   4   5
ENDBRANCH   3   4
ENDBRANCH   2   3
ENDBRANCH   1   2
BRANCH   1  18
ATOM     18  C   UNL     1     -24.843  59.481  28.951  1.00  0.00     0.000 C 
BRANCH  18  19
ATOM     19  C   UNL     1     -23.602  59.905  28.150  1.00  0.00     0.000 C 
BRANCH  19  20
ATOM     20  C   UNL     1     -23.230  61.382  28.372  1.00  0.00     0.000 C 
BRANCH  20  21
ATOM     21  C   UNL     1     -24.336  62.179  29.094  1.00  0.00     0.000 C 
BRANCH  21  22
ATOM     22  C   UNL     1     -23.911  62.765  30.455  1.00  0.00     0.000 C 
BRANCH  22  23
ATOM     23  C   UNL     1     -22.945  61.893  31.281  1.00  0.00     0.000 C 
BRANCH  23  24
ATOM     24  C   UNL     1     -21.537  62.481  31.490  1.00  0.00    -0.000 C 
BRANCH  24  25
ATOM     25  C   UNL     1     -20.455  61.976  30.513  1.00  0.00    -0.000 C 
BRANCH  25  26
ATOM     26  C   UNL     1     -19.605  60.809  31.060  1.00  0.00    -0.000 C 
BRANCH  26  27
ATOM     27  C   UNL     1     -19.604  59.588  30.127  1.00  0.00    -0.000 C 
BRANCH  27  28
ATOM     28  C   UNL     1     -20.808  58.661  30.366  1.00  0.00    -0.000 C 
BRANCH  28  29
ATOM     29  C   UNL     1     -21.304  58.659  31.829  1.00  0.00    -0.000 C 
BRANCH  29  30
ATOM     30  C   UNL     1     -20.585  57.606  32.684  1.00  0.00    -0.000 C 
BRANCH  30  31
ATOM     31  C   UNL     1     -21.447  57.182  33.878  1.00  0.00    -0.003 C 
ATOM     32  C   UNL     1     -22.905  56.998  33.469  1.00  0.00     0.004 C 
ENDBRANCH  30  31
ENDBRANCH  29  30
ENDBRANCH  28  29
ENDBRANCH  27  28
ENDBRANCH  26  27
ENDBRANCH  25  26
ENDBRANCH  24  25
ENDBRANCH  23  24
ENDBRANCH  22  23
ENDBRANCH  21  22
ENDBRANCH  20  21
ENDBRANCH  19  20
ENDBRANCH  18  19
ENDBRANCH   1  18
TORSDOF 28
ENDMDL
MODEL 8
REMARK VINA RESULT:    -4.572      2.874      5.073
REMARK INTER + INTRA:         -17.947
REMARK INTER:                 -11.653
REMARK INTRA:                  -6.294
REMARK UNBOUND:                -5.890
REMARK SMILES CCCCCCCCCCCCCCCCCCCCCCCCCCCCCC(=O)[O-]
REMARK SMILES IDX 16 1 17 2 18 3 19 4 20 5 21 6 22 7 23 8 24 9 25 10 26 11
REMARK SMILES IDX 27 12 28 13 29 14 30 15 31 16 32 17 15 18 14 19 13 20 12 21
REMARK SMILES IDX 11 22 10 23 9 24 8 25 7 26 6 27 5 28 4 29 3 30 2 31 1 32
REMARK H PARENT
REMARK Flexibility Score: inf
ROOT
ATOM      1  C   UNL     1     -21.921  61.623  28.012  1.00  0.00     0.000 C 
ENDROOT
BRANCH   1   2
ATOM      2  C   UNL     1     -20.842  60.878  28.819  1.00  0.00     0.000 C 
BRANCH   2   3
ATOM      3  C   UNL     1     -20.304  61.636  30.050  1.00  0.00     0.000 C 
BRANCH   3   4
ATOM      4  C   UNL     1     -20.996  61.292  31.380  1.00  0.00     0.000 C 
BRANCH   4   5
ATOM      5  C   UNL     1     -21.015  62.473  32.362  1.00  0.00     0.000 C 
BRANCH   5   6
ATOM      6  C   UNL     1     -21.368  62.001  33.781  1.00  0.00     0.000 C 
BRANCH   6   7
ATOM      7  C   UNL     1     -20.245  62.293  34.790  1.00  0.00     0.000 C 
BRANCH   7   8
ATOM      8  C   UNL     1     -20.511  61.654  36.162  1.00  0.00     0.000 C 
BRANCH   8   9
ATOM      9  C   UNL     1     -22.013  61.408  36.370  1.00  0.00     0.000 C 
BRANCH   9  10
ATOM     10  C   UNL     1     -22.310  60.000  36.910  1.00  0.00     0.000 C 
BRANCH  10  11
ATOM     11  C   UNL     1     -21.220  58.982  36.537  1.00  0.00     0.000 C 
BRANCH  11  12
ATOM     12  C   UNL     1     -21.620  58.120  35.320  1.00  0.00     0.000 C 
BRANCH  12  13
ATOM     13  C   UNL     1     -20.881  58.502  34.025  1.00  0.00     0.006 C 
BRANCH  13  14
ATOM     14  C   UNL     1     -19.551  57.760  33.818  1.00  0.00     0.053 C 
BRANCH  14  15
ATOM     15  C   UNL     1     -18.375  58.687  33.828  1.00  0.00     0.041 C 
ATOM     16  O   UNL     1     -18.426  59.784  33.210  1.00  0.00    -0.550 OA
ATOM     17  O   UNL     1     -17.226  58.347  34.528  1.00  0.00    -0.550 OA
ENDBRANCH  14  15
ENDBRANCH  13  14
ENDBRANCH  12  13
ENDBRANCH  11  12
ENDBRANCH  10  11
ENDBRANCH   9  10
ENDBRANCH   8   9
ENDBRANCH   7   8
ENDBRANCH   6   7
ENDBRANCH   5   6
ENDBRANCH   4   5
ENDBRANCH   3   4
ENDBRANCH   2   3
ENDBRANCH   1   2
BRANCH   1  18
ATOM     18  C   UNL     1     -23.162  60.756  27.739  1.00  0.00     0.000 C 
BRANCH  18  19
ATOM     19  C   UNL     1     -24.304  61.018  28.733  1.00  0.00     0.000 C 
BRANCH  19  20
ATOM     20  C   UNL     1     -24.211  62.409  29.387  1.00  0.00     0.000 C 
BRANCH  20  21
ATOM     21  C   UNL     1     -24.422  62.372  30.914  1.00  0.00     0.000 C 
BRANCH  21  22
ATOM     22  C   UNL     1     -25.856  62.710  31.367  1.00  0.00     0.000 C 
BRANCH  22  23
ATOM     23  C   UNL     1     -26.799  61.503  31.541  1.00  0.00     0.000 C 
BRANCH  23  24
ATOM     24  C   UNL     1     -27.539  61.431  32.890  1.00  0.00    -0.000 C 
BRANCH  24  25
ATOM     25  C   UNL     1     -26.992  60.393  33.892  1.00  0.00    -0.000 C 
BRANCH  25  26
ATOM     26  C   UNL     1     -25.715  60.843  34.634  1.00  0.00    -0.000 C 
BRANCH  26  27
ATOM     27  C   UNL     1     -24.436  60.251  34.024  1.00  0.00    -0.000 C 
BRANCH  27  28
ATOM     28  C   UNL     1     -24.721  59.055  33.098  1.00  0.00    -0.000 C 
BRANCH  28  29
ATOM     29  C   UNL     1     -23.761  58.968  31.891  1.00  0.00    -0.000 C 
BRANCH  29  30
ATOM     30  C   UNL     1     -24.389  58.224  30.703  1.00  0.00    -0.000 C 
BRANCH  30  31
ATOM     31  C   UNL     1     -23.311  57.583  29.821  1.00  0.00    -0.003 C 
ATOM     32  C   UNL     1     -21.929  57.717  30.453  1.00  0.00     0.004 C 
ENDBRANCH  30  31
ENDBRANCH  29  30
ENDBRANCH  28  29
ENDBRANCH  27  28
ENDBRANCH  26  27
ENDBRANCH  25  26
ENDBRANCH  24  25
ENDBRANCH  23  24
ENDBRANCH  22  23
ENDBRANCH  21  22
ENDBRANCH  20  21
ENDBRANCH  19  20
ENDBRANCH  18  19
ENDBRANCH   1  18
TORSDOF 28
ENDMDL
MODEL 9
REMARK VINA RESULT:    -4.551      2.397      4.932
REMARK INTER + INTRA:         -17.890
REMARK INTER:                 -11.474
REMARK INTRA:                  -6.417
REMARK UNBOUND:                -5.890
REMARK SMILES CCCCCCCCCCCCCCCCCCCCCCCCCCCCCC(=O)[O-]
REMARK SMILES IDX 16 1 17 2 18 3 19 4 20 5 21 6 22 7 23 8 24 9 25 10 26 11
REMARK SMILES IDX 27 12 28 13 29 14 30 15 31 16 32 17 15 18 14 19 13 20 12 21
REMARK SMILES IDX 11 22 10 23 9 24 8 25 7 26 6 27 5 28 4 29 3 30 2 31 1 32
REMARK H PARENT
REMARK Flexibility Score: inf
ROOT
ATOM      1  C   UNL     1     -21.347  61.018  29.284  1.00  0.00     0.000 C 
ENDROOT
BRANCH   1   2
ATOM      2  C   UNL     1     -20.533  62.003  30.144  1.00  0.00     0.000 C 
BRANCH   2   3
ATOM      3  C   UNL     1     -21.186  62.394  31.486  1.00  0.00     0.000 C 
BRANCH   3   4
ATOM      4  C   UNL     1     -21.973  61.269  32.179  1.00  0.00     0.000 C 
BRANCH   4   5
ATOM      5  C   UNL     1     -22.130  61.497  33.690  1.00  0.00     0.000 C 
BRANCH   5   6
ATOM      6  C   UNL     1     -20.999  62.385  34.231  1.00  0.00     0.000 C 
BRANCH   6   7
ATOM      7  C   UNL     1     -20.376  61.818  35.517  1.00  0.00     0.000 C 
BRANCH   7   8
ATOM      8  C   UNL     1     -19.159  60.924  35.232  1.00  0.00     0.000 C 
BRANCH   8   9
ATOM      9  C   UNL     1     -19.582  59.456  35.080  1.00  0.00     0.000 C 
BRANCH   9  10
ATOM     10  C   UNL     1     -19.141  58.852  33.737  1.00  0.00     0.000 C 
BRANCH  10  11
ATOM     11  C   UNL     1     -18.546  59.902  32.784  1.00  0.00     0.000 C 
BRANCH  11  12
ATOM     12  C   UNL     1     -18.383  59.361  31.348  1.00  0.00     0.000 C 
BRANCH  12  13
ATOM     13  C   UNL     1     -19.569  58.501  30.875  1.00  0.00     0.006 C 
BRANCH  13  14
ATOM     14  C   UNL     1     -19.159  57.183  30.201  1.00  0.00     0.053 C 
BRANCH  14  15
ATOM     15  C   UNL     1     -18.972  56.072  31.188  1.00  0.00     0.041 C 
ATOM     16  O   UNL     1     -19.932  55.305  31.469  1.00  0.00    -0.550 OA
ATOM     17  O   UNL     1     -17.737  55.874  31.789  1.00  0.00    -0.550 OA
ENDBRANCH  14  15
ENDBRANCH  13  14
ENDBRANCH  12  13
ENDBRANCH  11  12
ENDBRANCH  10  11
ENDBRANCH   9  10
ENDBRANCH   8   9
ENDBRANCH   7   8
ENDBRANCH   6   7
ENDBRANCH   5   6
ENDBRANCH   4   5
ENDBRANCH   3   4
ENDBRANCH   2   3
ENDBRANCH   1   2
BRANCH   1  18
ATOM     18  C   UNL     1     -21.752  61.614  27.924  1.00  0.00     0.000 C 
BRANCH  18  19
ATOM     19  C   UNL     1     -23.275  61.732  27.755  1.00  0.00     0.000 C 
BRANCH  19  20
ATOM     20  C   UNL     1     -24.035  61.532  29.080  1.00  0.00     0.000 C 
BRANCH  20  21
ATOM     21  C   UNL     1     -24.624  62.843  29.640  1.00  0.00     0.000 C 
BRANCH  21  22
ATOM     22  C   UNL     1     -25.240  62.713  31.047  1.00  0.00     0.000 C 
BRANCH  22  23
ATOM     23  C   UNL     1     -25.701  61.296  31.441  1.00  0.00     0.000 C 
BRANCH  23  24
ATOM     24  C   UNL     1     -25.832  61.040  32.955  1.00  0.00    -0.000 C 
BRANCH  24  25
ATOM     25  C   UNL     1     -25.534  59.597  33.413  1.00  0.00    -0.000 C 
BRANCH  25  26
ATOM     26  C   UNL     1     -25.043  58.665  32.284  1.00  0.00    -0.000 C 
BRANCH  26  27
ATOM     27  C   UNL     1     -23.672  58.042  32.584  1.00  0.00    -0.000 C 
BRANCH  27  28
ATOM     28  C   UNL     1     -23.043  57.374  31.348  1.00  0.00    -0.000 C 
BRANCH  28  29
ATOM     29  C   UNL     1     -23.633  57.873  30.011  1.00  0.00    -0.000 C 
BRANCH  29  30
ATOM     30  C   UNL     1     -22.717  57.557  28.819  1.00  0.00    -0.000 C 
BRANCH  30  31
ATOM     31  C   UNL     1     -23.280  58.143  27.519  1.00  0.00    -0.003 C 
ATOM     32  C   UNL     1     -22.702  57.434  26.298  1.00  0.00     0.004 C 
ENDBRANCH  30  31
ENDBRANCH  29  30
ENDBRANCH  28  29
ENDBRANCH  27  28
ENDBRANCH  26  27
ENDBRANCH  25  26
ENDBRANCH  24  25
ENDBRANCH  23  24
ENDBRANCH  22  23
ENDBRANCH  21  22
ENDBRANCH  20  21
ENDBRANCH  19  20
ENDBRANCH  18  19
ENDBRANCH   1  18
TORSDOF 28
ENDMDL
