MODEL 1
REMARK VINA RESULT:    30.021      0.000      0.000
REMARK INTER + INTRA:          36.674
REMARK INTER:                  37.041
REMARK INTRA:                  -0.367
REMARK UNBOUND:                -0.367
REMARK SMILES Oc1cc(O)c2cc(O)c(-c3cc(O)c(O)c(O)c3)[o+]c2c1
REMARK SMILES IDX 10 1 20 2 21 3 22 4 2 5 3 6 4 7 6 8 7 9 8 10 11 11 12 12
REMARK SMILES IDX 13 13 19 14 15 15 17 16 14 17 16 19 18 21 9 23 1 25 5 27
REMARK H PARENT 14 18 16 20 18 22 9 24 1 26 5 28
REMARK Flexibility Score: inf
ROOT
ATOM      1  C   UNL     1      20.134 -12.631 -15.479  1.00  0.00     0.402 A 
ATOM      2  O   UNL     1      20.192 -12.718 -16.805  1.00  0.00    -0.202 OA
ATOM      3  C   UNL     1      21.273 -12.402 -17.510  1.00  0.00     0.368 A 
ATOM      4  C   UNL     1      21.238 -12.529 -18.902  1.00  0.00     0.162 A 
ATOM      5  C   UNL     1      22.359 -12.208 -19.669  1.00  0.00     0.128 A 
ATOM      6  C   UNL     1      23.525 -11.756 -19.041  1.00  0.00     0.093 A 
ATOM      7  C   UNL     1      23.586 -11.620 -17.648  1.00  0.00     0.136 A 
ATOM      8  C   UNL     1      22.447 -11.943 -16.866  1.00  0.00     0.125 A 
ATOM      9  C   UNL     1      22.412 -11.825 -15.467  1.00  0.00     0.078 A 
ATOM     10  C   UNL     1      21.251 -12.158 -14.764  1.00  0.00     0.223 A 
ENDROOT
BRANCH   1  11
ATOM     11  C   UNL     1      18.875 -13.021 -14.805  1.00  0.00     0.091 A 
ATOM     12  C   UNL     1      18.589 -14.365 -14.511  1.00  0.00     0.068 A 
ATOM     13  C   UNL     1      17.381 -14.718 -13.893  1.00  0.00     0.162 A 
ATOM     14  C   UNL     1      17.920 -12.038 -14.505  1.00  0.00     0.068 A 
ATOM     15  C   UNL     1      16.440 -13.722 -13.576  1.00  0.00     0.200 A 
ATOM     16  C   UNL     1      16.713 -12.380 -13.888  1.00  0.00     0.162 A 
BRANCH  13  17
ATOM     17  O   UNL     1      17.110 -16.053 -13.600  1.00  0.00    -0.504 OA
ATOM     18  H   UNL     1      16.363 -16.558 -14.062  1.00  0.00     0.293 HD
ENDBRANCH  13  17
BRANCH  15  19
ATOM     19  O   UNL     1      15.233 -14.056 -12.957  1.00  0.00    -0.502 OA
ATOM     20  H   UNL     1      14.635 -14.795 -13.304  1.00  0.00     0.293 HD
ENDBRANCH  15  19
BRANCH  16  21
ATOM     21  O   UNL     1      15.796 -11.371 -13.593  1.00  0.00    -0.504 OA
ATOM     22  H   UNL     1      14.999 -11.176 -14.188  1.00  0.00     0.293 HD
ENDBRANCH  16  21
ENDBRANCH   1  11
BRANCH  10  23
ATOM     23  O   UNL     1      21.199 -11.993 -13.379  1.00  0.00    -0.500 OA
ATOM     24  H   UNL     1      21.247 -11.077 -12.950  1.00  0.00     0.294 HD
ENDBRANCH  10  23
BRANCH   5  25
ATOM     25  O   UNL     1      22.304 -12.342 -21.054  1.00  0.00    -0.507 OA
ATOM     26  H   UNL     1      21.423 -12.303 -21.555  1.00  0.00     0.293 HD
ENDBRANCH   5  25
BRANCH   7  27
ATOM     27  O   UNL     1      24.788 -11.166 -17.098  1.00  0.00    -0.507 OA
ATOM     28  H   UNL     1      25.065 -11.308 -16.138  1.00  0.00     0.293 HD
ENDBRANCH   7  27
TORSDOF 7
ENDMDL
MODEL 2
REMARK VINA RESULT:    30.042      1.087      2.570
REMARK INTER + INTRA:          36.701
REMARK INTER:                  37.068
REMARK INTRA:                  -0.367
REMARK UNBOUND:                -0.367
REMARK SMILES Oc1cc(O)c2cc(O)c(-c3cc(O)c(O)c(O)c3)[o+]c2c1
REMARK SMILES IDX 10 1 20 2 21 3 22 4 2 5 3 6 4 7 6 8 7 9 8 10 11 11 12 12
REMARK SMILES IDX 13 13 19 14 15 15 17 16 14 17 16 19 18 21 9 23 1 25 5 27
REMARK H PARENT 14 18 16 20 18 22 9 24 1 26 5 28
REMARK Flexibility Score: inf
ROOT
ATOM      1  C   UNL     1      20.051 -12.665 -16.342  1.00  0.00     0.402 A 
ATOM      2  O   UNL     1      21.223 -12.234 -15.885  1.00  0.00    -0.202 OA
ATOM      3  C   UNL     1      22.226 -11.870 -16.678  1.00  0.00     0.368 A 
ATOM      4  C   UNL     1      23.421 -11.426 -16.103  1.00  0.00     0.162 A 
ATOM      5  C   UNL     1      24.489 -11.035 -16.911  1.00  0.00     0.128 A 
ATOM      6  C   UNL     1      24.365 -11.085 -18.304  1.00  0.00     0.093 A 
ATOM      7  C   UNL     1      23.178 -11.525 -18.904  1.00  0.00     0.136 A 
ATOM      8  C   UNL     1      22.090 -11.927 -18.086  1.00  0.00     0.125 A 
ATOM      9  C   UNL     1      20.869 -12.393 -18.599  1.00  0.00     0.078 A 
ATOM     10  C   UNL     1      19.844 -12.777 -17.729  1.00  0.00     0.223 A 
ENDROOT
BRANCH   1  11
ATOM     11  C   UNL     1      19.008 -13.033 -15.357  1.00  0.00     0.091 A 
ATOM     12  C   UNL     1      18.822 -14.366 -14.952  1.00  0.00     0.068 A 
ATOM     13  C   UNL     1      17.814 -14.698 -14.036  1.00  0.00     0.162 A 
ATOM     14  C   UNL     1      18.148 -12.042 -14.860  1.00  0.00     0.068 A 
ATOM     15  C   UNL     1      16.972 -13.695 -13.527  1.00  0.00     0.200 A 
ATOM     16  C   UNL     1      17.141 -12.364 -13.946  1.00  0.00     0.162 A 
BRANCH  13  17
ATOM     17  O   UNL     1      17.643 -16.022 -13.637  1.00  0.00    -0.504 OA
ATOM     18  H   UNL     1      17.846 -16.796 -14.259  1.00  0.00     0.293 HD
ENDBRANCH  13  17
BRANCH  15  19
ATOM     19  O   UNL     1      15.966 -14.008 -12.611  1.00  0.00    -0.502 OA
ATOM     20  H   UNL     1      15.014 -13.684 -12.723  1.00  0.00     0.293 HD
ENDBRANCH  15  19
BRANCH  16  21
ATOM     21  O   UNL     1      16.316 -11.348 -13.464  1.00  0.00    -0.504 OA
ATOM     22  H   UNL     1      15.511 -11.538 -12.880  1.00  0.00     0.293 HD
ENDBRANCH  16  21
ENDBRANCH   1  11
BRANCH  10  23
ATOM     23  O   UNL     1      18.649 -13.287 -18.238  1.00  0.00    -0.500 OA
ATOM     24  H   UNL     1      18.627 -14.123 -18.810  1.00  0.00     0.294 HD
ENDBRANCH  10  23
BRANCH   5  25
ATOM     25  O   UNL     1      25.672 -10.597 -16.319  1.00  0.00    -0.507 OA
ATOM     26  H   UNL     1      25.849  -9.612 -16.156  1.00  0.00     0.293 HD
ENDBRANCH   5  25
BRANCH   7  27
ATOM     27  O   UNL     1      23.131 -11.542 -20.300  1.00  0.00    -0.507 OA
ATOM     28  H   UNL     1      23.742 -12.094 -20.885  1.00  0.00     0.293 HD
ENDBRANCH   7  27
TORSDOF 7
ENDMDL
MODEL 3
REMARK VINA RESULT:    31.271      5.013      7.754
REMARK INTER + INTRA:          38.217
REMARK INTER:                  38.590
REMARK INTRA:                  -0.372
REMARK UNBOUND:                -0.367
REMARK SMILES Oc1cc(O)c2cc(O)c(-c3cc(O)c(O)c(O)c3)[o+]c2c1
REMARK SMILES IDX 10 1 20 2 21 3 22 4 2 5 3 6 4 7 6 8 7 9 8 10 11 11 12 12
REMARK SMILES IDX 13 13 19 14 15 15 17 16 14 17 16 19 18 21 9 23 1 25 5 27
REMARK H PARENT 14 18 16 20 18 22 9 24 1 26 5 28
REMARK Flexibility Score: inf
ROOT
ATOM      1  C   UNL     1      22.489  -8.262 -18.372  1.00  0.00     0.402 A 
ATOM      2  O   UNL     1      22.188  -9.268 -19.188  1.00  0.00    -0.202 OA
ATOM      3  C   UNL     1      22.402 -10.544 -18.883  1.00  0.00     0.368 A 
ATOM      4  C   UNL     1      22.049 -11.532 -19.808  1.00  0.00     0.162 A 
ATOM      5  C   UNL     1      22.259 -12.880 -19.514  1.00  0.00     0.128 A 
ATOM      6  C   UNL     1      22.824 -13.245 -18.287  1.00  0.00     0.093 A 
ATOM      7  C   UNL     1      23.186 -12.274 -17.344  1.00  0.00     0.136 A 
ATOM      8  C   UNL     1      22.977 -10.902 -17.641  1.00  0.00     0.125 A 
ATOM      9  C   UNL     1      23.321  -9.861 -16.763  1.00  0.00     0.078 A 
ATOM     10  C   UNL     1      23.089  -8.532 -17.128  1.00  0.00     0.223 A 
ENDROOT
BRANCH   1  11
ATOM     11  C   UNL     1      22.194  -6.882 -18.822  1.00  0.00     0.091 A 
ATOM     12  C   UNL     1      23.172  -6.094 -19.452  1.00  0.00     0.068 A 
ATOM     13  C   UNL     1      22.881  -4.782 -19.851  1.00  0.00     0.162 A 
ATOM     14  C   UNL     1      20.932  -6.327 -18.563  1.00  0.00     0.068 A 
ATOM     15  C   UNL     1      21.606  -4.242 -19.607  1.00  0.00     0.200 A 
ATOM     16  C   UNL     1      20.632  -5.019 -18.957  1.00  0.00     0.162 A 
BRANCH  13  17
ATOM     17  O   UNL     1      23.856  -4.011 -20.481  1.00  0.00    -0.504 OA
ATOM     18  H   UNL     1      23.620  -3.172 -20.997  1.00  0.00     0.293 HD
ENDBRANCH  13  17
BRANCH  15  19
ATOM     19  O   UNL     1      21.299  -2.938 -20.001  1.00  0.00    -0.502 OA
ATOM     20  H   UNL     1      20.683  -2.342 -19.461  1.00  0.00     0.293 HD
ENDBRANCH  15  19
BRANCH  16  21
ATOM     21  O   UNL     1      19.361  -4.509 -18.694  1.00  0.00    -0.504 OA
ATOM     22  H   UNL     1      18.714  -4.265 -19.435  1.00  0.00     0.293 HD
ENDBRANCH  16  21
ENDBRANCH   1  11
BRANCH  10  23
ATOM     23  O   UNL     1      23.475  -7.495 -16.277  1.00  0.00    -0.500 OA
ATOM     24  H   UNL     1      23.419  -6.524 -16.561  1.00  0.00     0.294 HD
ENDBRANCH  10  23
BRANCH   5  25
ATOM     25  O   UNL     1      21.901 -13.849 -20.448  1.00  0.00    -0.507 OA
ATOM     26  H   UNL     1      22.197 -13.787 -21.415  1.00  0.00     0.293 HD
ENDBRANCH   5  25
BRANCH   7  27
ATOM     27  O   UNL     1      23.742 -12.720 -16.142  1.00  0.00    -0.507 OA
ATOM     28  H   UNL     1      23.474 -13.572 -15.671  1.00  0.00     0.293 HD
ENDBRANCH   7  27
TORSDOF 7
ENDMDL
MODEL 4
REMARK VINA RESULT:    32.838      5.288      8.378
REMARK INTER + INTRA:          40.151
REMARK INTER:                  40.515
REMARK INTRA:                  -0.364
REMARK UNBOUND:                -0.367
REMARK SMILES Oc1cc(O)c2cc(O)c(-c3cc(O)c(O)c(O)c3)[o+]c2c1
REMARK SMILES IDX 10 1 20 2 21 3 22 4 2 5 3 6 4 7 6 8 7 9 8 10 11 11 12 12
REMARK SMILES IDX 13 13 19 14 15 15 17 16 14 17 16 19 18 21 9 23 1 25 5 27
REMARK H PARENT 14 18 16 20 18 22 9 24 1 26 5 28
REMARK Flexibility Score: inf
ROOT
ATOM      1  C   UNL     1      22.148  -7.999 -19.133  1.00  0.00     0.402 A 
ATOM      2  O   UNL     1      22.823  -8.482 -18.094  1.00  0.00    -0.202 OA
ATOM      3  C   UNL     1      23.053  -9.779 -17.913  1.00  0.00     0.368 A 
ATOM      4  C   UNL     1      23.777 -10.191 -16.790  1.00  0.00     0.162 A 
ATOM      5  C   UNL     1      24.037 -11.544 -16.575  1.00  0.00     0.128 A 
ATOM      6  C   UNL     1      23.571 -12.496 -17.489  1.00  0.00     0.093 A 
ATOM      7  C   UNL     1      22.844 -12.109 -18.623  1.00  0.00     0.136 A 
ATOM      8  C   UNL     1      22.576 -10.733 -18.843  1.00  0.00     0.125 A 
ATOM      9  C   UNL     1      21.844 -10.255 -19.942  1.00  0.00     0.078 A 
ATOM     10  C   UNL     1      21.616  -8.884 -20.089  1.00  0.00     0.223 A 
ENDROOT
BRANCH   1  11
ATOM     11  C   UNL     1      21.965  -6.532 -19.229  1.00  0.00     0.091 A 
ATOM     12  C   UNL     1      22.967  -5.703 -19.761  1.00  0.00     0.068 A 
ATOM     13  C   UNL     1      22.785  -4.315 -19.822  1.00  0.00     0.162 A 
ATOM     14  C   UNL     1      20.792  -5.950 -18.727  1.00  0.00     0.068 A 
ATOM     15  C   UNL     1      21.596  -3.742 -19.337  1.00  0.00     0.200 A 
ATOM     16  C   UNL     1      20.601  -4.565 -18.785  1.00  0.00     0.162 A 
BRANCH  13  17
ATOM     17  O   UNL     1      23.783  -3.503 -20.357  1.00  0.00    -0.504 OA
ATOM     18  H   UNL     1      23.567  -2.622 -20.810  1.00  0.00     0.293 HD
ENDBRANCH  13  17
BRANCH  15  19
ATOM     19  O   UNL     1      21.397  -2.361 -19.394  1.00  0.00    -0.502 OA
ATOM     20  H   UNL     1      20.473  -1.952 -19.452  1.00  0.00     0.293 HD
ENDBRANCH  15  19
BRANCH  16  21
ATOM     21  O   UNL     1      19.414  -4.026 -18.288  1.00  0.00    -0.504 OA
ATOM     22  H   UNL     1      19.148  -4.114 -17.314  1.00  0.00     0.293 HD
ENDBRANCH  16  21
ENDBRANCH   1  11
BRANCH  10  23
ATOM     23  O   UNL     1      20.847  -8.413 -21.154  1.00  0.00    -0.500 OA
ATOM     24  H   UNL     1      20.627  -8.997 -21.952  1.00  0.00     0.294 HD
ENDBRANCH  10  23
BRANCH   5  25
ATOM     25  O   UNL     1      24.759 -11.934 -15.450  1.00  0.00    -0.507 OA
ATOM     26  H   UNL     1      24.304 -12.096 -14.558  1.00  0.00     0.293 HD
ENDBRANCH   5  25
BRANCH   7  27
ATOM     27  O   UNL     1      22.417 -13.119 -19.489  1.00  0.00    -0.507 OA
ATOM     28  H   UNL     1      21.538 -13.111 -19.986  1.00  0.00     0.293 HD
ENDBRANCH   7  27
TORSDOF 7
ENDMDL
