MODEL 1
REMARK VINA RESULT:    -4.611      0.000      0.000
REMARK INTER + INTRA:         -11.029
REMARK INTER:                  -8.924
REMARK INTRA:                  -2.105
REMARK UNBOUND:                -2.105
REMARK SMILES CCCCCCCCCCCCCCCCCC(=O)[O-]
REMARK SMILES IDX 10 1 11 2 12 3 13 4 14 5 15 6 16 7 17 8 18 9 19 10 20 11
REMARK SMILES IDX 9 12 8 13 7 14 6 15 5 16 4 17 3 18 2 19 1 20
REMARK H PARENT
REMARK Flexibility Score: inf
ROOT
ATOM      1  C   UNL     1      53.381  23.700  49.457  1.00  0.00     0.000 C 
ENDROOT
BRANCH   1   2
ATOM      2  C   UNL     1      53.242  23.930  50.971  1.00  0.00     0.000 C 
BRANCH   2   3
ATOM      3  C   UNL     1      54.353  24.832  51.538  1.00  0.00     0.000 C 
BRANCH   3   4
ATOM      4  C   UNL     1      55.220  24.105  52.588  1.00  0.00     0.000 C 
BRANCH   4   5
ATOM      5  C   UNL     1      55.713  22.717  52.132  1.00  0.00     0.000 C 
BRANCH   5   6
ATOM      6  C   UNL     1      55.646  21.616  53.206  1.00  0.00     0.000 C 
BRANCH   6   7
ATOM      7  C   UNL     1      54.449  21.725  54.170  1.00  0.00     0.006 C 
BRANCH   7   8
ATOM      8  C   UNL     1      53.143  21.202  53.560  1.00  0.00     0.053 C 
BRANCH   8   9
ATOM      9  C   UNL     1      51.986  22.042  53.999  1.00  0.00     0.041 C 
ATOM     10  O   UNL     1      50.843  21.529  54.130  1.00  0.00    -0.550 OA
ATOM     11  O   UNL     1      52.177  23.385  54.301  1.00  0.00    -0.550 OA
ENDBRANCH   8   9
ENDBRANCH   7   8
ENDBRANCH   6   7
ENDBRANCH   5   6
ENDBRANCH   4   5
ENDBRANCH   3   4
ENDBRANCH   2   3
ENDBRANCH   1   2
BRANCH   1  12
ATOM     12  C   UNL     1      53.667  25.000  48.685  1.00  0.00     0.000 C 
BRANCH  12  13
ATOM     13  C   UNL     1      53.940  24.752  47.193  1.00  0.00    -0.000 C 
BRANCH  13  14
ATOM     14  C   UNL     1      55.372  25.125  46.781  1.00  0.00    -0.000 C 
BRANCH  14  15
ATOM     15  C   UNL     1      56.386  24.644  47.826  1.00  0.00    -0.000 C 
BRANCH  15  16
ATOM     16  C   UNL     1      57.385  23.651  47.212  1.00  0.00    -0.000 C 
BRANCH  16  17
ATOM     17  C   UNL     1      56.923  22.188  47.367  1.00  0.00    -0.000 C 
BRANCH  17  18
ATOM     18  C   UNL     1      56.196  21.897  48.693  1.00  0.00    -0.000 C 
BRANCH  18  19
ATOM     19  C   UNL     1      55.987  20.398  48.985  1.00  0.00    -0.003 C 
ATOM     20  C   UNL     1      57.237  19.562  48.707  1.00  0.00     0.004 C 
ENDBRANCH  18  19
ENDBRANCH  17  18
ENDBRANCH  16  17
ENDBRANCH  15  16
ENDBRANCH  14  15
ENDBRANCH  13  14
ENDBRANCH  12  13
ENDBRANCH   1  12
TORSDOF 16
ENDMDL
MODEL 2
REMARK VINA RESULT:    -4.562      1.400      2.786
REMARK INTER + INTRA:         -10.935
REMARK INTER:                  -8.608
REMARK INTRA:                  -2.326
REMARK UNBOUND:                -2.105
REMARK SMILES CCCCCCCCCCCCCCCCCC(=O)[O-]
REMARK SMILES IDX 10 1 11 2 12 3 13 4 14 5 15 6 16 7 17 8 18 9 19 10 20 11
REMARK SMILES IDX 9 12 8 13 7 14 6 15 5 16 4 17 3 18 2 19 1 20
REMARK H PARENT
REMARK Flexibility Score: inf
ROOT
ATOM      1  C   UNL     1      55.759  24.512  51.573  1.00  0.00     0.000 C 
ENDROOT
BRANCH   1   2
ATOM      2  C   UNL     1      56.276  23.698  52.770  1.00  0.00     0.000 C 
BRANCH   2   3
ATOM      3  C   UNL     1      56.225  22.180  52.521  1.00  0.00     0.000 C 
BRANCH   3   4
ATOM      4  C   UNL     1      55.702  21.401  53.747  1.00  0.00     0.000 C 
BRANCH   4   5
ATOM      5  C   UNL     1      54.316  21.868  54.233  1.00  0.00     0.000 C 
BRANCH   5   6
ATOM      6  C   UNL     1      53.191  21.772  53.185  1.00  0.00     0.000 C 
BRANCH   6   7
ATOM      7  C   UNL     1      51.879  22.477  53.579  1.00  0.00     0.006 C 
BRANCH   7   8
ATOM      8  C   UNL     1      50.636  21.632  53.277  1.00  0.00     0.053 C 
BRANCH   8   9
ATOM      9  C   UNL     1      49.470  22.512  52.956  1.00  0.00     0.041 C 
ATOM     10  O   UNL     1      48.917  22.446  51.826  1.00  0.00    -0.550 OA
ATOM     11  O   UNL     1      48.966  23.378  53.919  1.00  0.00    -0.550 OA
ENDBRANCH   8   9
ENDBRANCH   7   8
ENDBRANCH   6   7
ENDBRANCH   5   6
ENDBRANCH   4   5
ENDBRANCH   3   4
ENDBRANCH   2   3
ENDBRANCH   1   2
BRANCH   1  12
ATOM     12  C   UNL     1      54.307  24.983  51.761  1.00  0.00     0.000 C 
BRANCH  12  13
ATOM     13  C   UNL     1      53.391  24.547  50.606  1.00  0.00    -0.000 C 
BRANCH  13  14
ATOM     14  C   UNL     1      53.965  23.371  49.803  1.00  0.00    -0.000 C 
BRANCH  14  15
ATOM     15  C   UNL     1      53.916  23.658  48.298  1.00  0.00    -0.000 C 
BRANCH  15  16
ATOM     16  C   UNL     1      55.322  23.928  47.740  1.00  0.00    -0.000 C 
BRANCH  16  17
ATOM     17  C   UNL     1      56.393  23.035  48.398  1.00  0.00    -0.000 C 
BRANCH  17  18
ATOM     18  C   UNL     1      56.854  21.858  47.518  1.00  0.00    -0.000 C 
BRANCH  18  19
ATOM     19  C   UNL     1      56.849  20.492  48.234  1.00  0.00    -0.003 C 
ATOM     20  C   UNL     1      55.818  20.419  49.360  1.00  0.00     0.004 C 
ENDBRANCH  18  19
ENDBRANCH  17  18
ENDBRANCH  16  17
ENDBRANCH  15  16
ENDBRANCH  14  15
ENDBRANCH  13  14
ENDBRANCH  12  13
ENDBRANCH   1  12
TORSDOF 16
ENDMDL
MODEL 3
REMARK VINA RESULT:    -4.498      1.163      2.289
REMARK INTER + INTRA:         -10.811
REMARK INTER:                  -8.654
REMARK INTRA:                  -2.157
REMARK UNBOUND:                -2.105
REMARK SMILES CCCCCCCCCCCCCCCCCC(=O)[O-]
REMARK SMILES IDX 10 1 11 2 12 3 13 4 14 5 15 6 16 7 17 8 18 9 19 10 20 11
REMARK SMILES IDX 9 12 8 13 7 14 6 15 5 16 4 17 3 18 2 19 1 20
REMARK H PARENT
REMARK Flexibility Score: inf
ROOT
ATOM      1  C   UNL     1      56.038  24.961  51.124  1.00  0.00     0.000 C 
ENDROOT
BRANCH   1   2
ATOM      2  C   UNL     1      56.999  24.859  52.319  1.00  0.00     0.000 C 
BRANCH   2   3
ATOM      3  C   UNL     1      56.487  23.905  53.413  1.00  0.00     0.000 C 
BRANCH   3   4
ATOM      4  C   UNL     1      56.999  22.462  53.221  1.00  0.00     0.000 C 
BRANCH   4   5
ATOM      5  C   UNL     1      56.054  21.387  53.793  1.00  0.00     0.000 C 
BRANCH   5   6
ATOM      6  C   UNL     1      54.592  21.486  53.321  1.00  0.00     0.000 C 
BRANCH   6   7
ATOM      7  C   UNL     1      53.544  21.072  54.371  1.00  0.00     0.006 C 
BRANCH   7   8
ATOM      8  C   UNL     1      52.229  20.594  53.743  1.00  0.00     0.053 C 
BRANCH   8   9
ATOM      9  C   UNL     1      51.212  21.691  53.757  1.00  0.00     0.041 C 
ATOM     10  O   UNL     1      50.189  21.598  54.486  1.00  0.00    -0.550 OA
ATOM     11  O   UNL     1      51.412  22.835  52.995  1.00  0.00    -0.550 OA
ENDBRANCH   8   9
ENDBRANCH   7   8
ENDBRANCH   6   7
ENDBRANCH   5   6
ENDBRANCH   4   5
ENDBRANCH   3   4
ENDBRANCH   2   3
ENDBRANCH   1   2
BRANCH   1  12
ATOM     12  C   UNL     1      54.559  24.934  51.551  1.00  0.00     0.000 C 
BRANCH  12  13
ATOM     13  C   UNL     1      53.685  24.104  50.596  1.00  0.00    -0.000 C 
BRANCH  13  14
ATOM     14  C   UNL     1      53.669  24.664  49.166  1.00  0.00    -0.000 C 
BRANCH  14  15
ATOM     15  C   UNL     1      54.085  23.591  48.153  1.00  0.00    -0.000 C 
BRANCH  15  16
ATOM     16  C   UNL     1      55.491  23.869  47.600  1.00  0.00    -0.000 C 
BRANCH  16  17
ATOM     17  C   UNL     1      56.565  22.981  48.260  1.00  0.00    -0.000 C 
BRANCH  17  18
ATOM     18  C   UNL     1      56.671  21.569  47.653  1.00  0.00    -0.000 C 
BRANCH  18  19
ATOM     19  C   UNL     1      56.400  20.428  48.654  1.00  0.00    -0.003 C 
ATOM     20  C   UNL     1      55.695  20.909  49.922  1.00  0.00     0.004 C 
ENDBRANCH  18  19
ENDBRANCH  17  18
ENDBRANCH  16  17
ENDBRANCH  15  16
ENDBRANCH  14  15
ENDBRANCH  13  14
ENDBRANCH  12  13
ENDBRANCH   1  12
TORSDOF 16
ENDMDL
MODEL 4
REMARK VINA RESULT:    -4.470      2.342      4.578
REMARK INTER + INTRA:         -10.756
REMARK INTER:                  -8.181
REMARK INTRA:                  -2.575
REMARK UNBOUND:                -2.105
REMARK SMILES CCCCCCCCCCCCCCCCCC(=O)[O-]
REMARK SMILES IDX 10 1 11 2 12 3 13 4 14 5 15 6 16 7 17 8 18 9 19 10 20 11
REMARK SMILES IDX 9 12 8 13 7 14 6 15 5 16 4 17 3 18 2 19 1 20
REMARK H PARENT
REMARK Flexibility Score: inf
ROOT
ATOM      1  C   UNL     1      56.393  20.769  48.041  1.00  0.00     0.000 C 
ENDROOT
BRANCH   1   2
ATOM      2  C   UNL     1      56.395  20.593  49.569  1.00  0.00     0.000 C 
BRANCH   2   3
ATOM      3  C   UNL     1      54.976  20.529  50.160  1.00  0.00     0.000 C 
BRANCH   3   4
ATOM      4  C   UNL     1      54.876  21.240  51.527  1.00  0.00     0.000 C 
BRANCH   4   5
ATOM      5  C   UNL     1      56.207  21.853  52.005  1.00  0.00     0.000 C 
BRANCH   5   6
ATOM      6  C   UNL     1      56.821  21.188  53.251  1.00  0.00     0.000 C 
BRANCH   6   7
ATOM      7  C   UNL     1      55.974  21.309  54.532  1.00  0.00     0.006 C 
BRANCH   7   8
ATOM      8  C   UNL     1      56.820  21.287  55.810  1.00  0.00     0.053 C 
BRANCH   8   9
ATOM      9  C   UNL     1      57.138  22.680  56.252  1.00  0.00     0.041 C 
ATOM     10  O   UNL     1      58.000  22.880  57.149  1.00  0.00    -0.550 OA
ATOM     11  O   UNL     1      56.511  23.762  55.647  1.00  0.00    -0.550 OA
ENDBRANCH   8   9
ENDBRANCH   7   8
ENDBRANCH   6   7
ENDBRANCH   5   6
ENDBRANCH   4   5
ENDBRANCH   3   4
ENDBRANCH   2   3
ENDBRANCH   1   2
BRANCH   1  12
ATOM     12  C   UNL     1      56.872  22.165  47.605  1.00  0.00     0.000 C 
BRANCH  12  13
ATOM     13  C   UNL     1      55.863  23.271  47.956  1.00  0.00    -0.000 C 
BRANCH  13  14
ATOM     14  C   UNL     1      56.403  24.259  49.001  1.00  0.00    -0.000 C 
BRANCH  14  15
ATOM     15  C   UNL     1      55.255  24.966  49.731  1.00  0.00    -0.000 C 
BRANCH  15  16
ATOM     16  C   UNL     1      53.946  24.173  49.600  1.00  0.00    -0.000 C 
BRANCH  16  17
ATOM     17  C   UNL     1      53.082  24.256  50.875  1.00  0.00    -0.000 C 
BRANCH  17  18
ATOM     18  C   UNL     1      53.843  24.761  52.116  1.00  0.00    -0.000 C 
BRANCH  18  19
ATOM     19  C   UNL     1      53.489  24.020  53.420  1.00  0.00    -0.003 C 
ATOM     20  C   UNL     1      52.359  23.006  53.236  1.00  0.00     0.004 C 
ENDBRANCH  18  19
ENDBRANCH  17  18
ENDBRANCH  16  17
ENDBRANCH  15  16
ENDBRANCH  14  15
ENDBRANCH  13  14
ENDBRANCH  12  13
ENDBRANCH   1  12
TORSDOF 16
ENDMDL
MODEL 5
REMARK VINA RESULT:    -4.463      1.513      3.835
REMARK INTER + INTRA:         -10.743
REMARK INTER:                  -8.173
REMARK INTRA:                  -2.570
REMARK UNBOUND:                -2.105
REMARK SMILES CCCCCCCCCCCCCCCCCC(=O)[O-]
REMARK SMILES IDX 10 1 11 2 12 3 13 4 14 5 15 6 16 7 17 8 18 9 19 10 20 11
REMARK SMILES IDX 9 12 8 13 7 14 6 15 5 16 4 17 3 18 2 19 1 20
REMARK H PARENT
REMARK Flexibility Score: inf
ROOT
ATOM      1  C   UNL     1      57.068  22.981  53.320  1.00  0.00     0.000 C 
ENDROOT
BRANCH   1   2
ATOM      2  C   UNL     1      56.775  21.474  53.417  1.00  0.00     0.000 C 
BRANCH   2   3
ATOM      3  C   UNL     1      55.910  21.115  54.639  1.00  0.00     0.000 C 
BRANCH   3   4
ATOM      4  C   UNL     1      55.104  22.323  55.163  1.00  0.00     0.000 C 
BRANCH   4   5
ATOM      5  C   UNL     1      53.578  22.157  55.024  1.00  0.00     0.000 C 
BRANCH   5   6
ATOM      6  C   UNL     1      53.124  20.860  54.328  1.00  0.00     0.000 C 
BRANCH   6   7
ATOM      7  C   UNL     1      51.880  21.008  53.431  1.00  0.00     0.006 C 
BRANCH   7   8
ATOM      8  C   UNL     1      51.199  22.374  53.579  1.00  0.00     0.053 C 
BRANCH   8   9
ATOM      9  C   UNL     1      49.737  22.264  53.283  1.00  0.00     0.041 C 
ATOM     10  O   UNL     1      48.949  21.790  54.145  1.00  0.00    -0.550 OA
ATOM     11  O   UNL     1      49.236  22.721  52.071  1.00  0.00    -0.550 OA
ENDBRANCH   8   9
ENDBRANCH   7   8
ENDBRANCH   6   7
ENDBRANCH   5   6
ENDBRANCH   4   5
ENDBRANCH   3   4
ENDBRANCH   2   3
ENDBRANCH   1   2
BRANCH   1  12
ATOM     12  C   UNL     1      56.651  23.578  51.964  1.00  0.00     0.000 C 
BRANCH  12  13
ATOM     13  C   UNL     1      55.245  24.199  52.000  1.00  0.00    -0.000 C 
BRANCH  13  14
ATOM     14  C   UNL     1      54.174  23.280  51.395  1.00  0.00    -0.000 C 
BRANCH  14  15
ATOM     15  C   UNL     1      53.048  24.100  50.752  1.00  0.00    -0.000 C 
BRANCH  15  16
ATOM     16  C   UNL     1      53.511  24.730  49.429  1.00  0.00    -0.000 C 
BRANCH  16  17
ATOM     17  C   UNL     1      53.832  23.669  48.358  1.00  0.00    -0.000 C 
BRANCH  17  18
ATOM     18  C   UNL     1      55.172  23.898  47.631  1.00  0.00    -0.000 C 
BRANCH  18  19
ATOM     19  C   UNL     1      56.366  23.149  48.255  1.00  0.00    -0.003 C 
ATOM     20  C   UNL     1      56.011  21.725  48.685  1.00  0.00     0.004 C 
ENDBRANCH  18  19
ENDBRANCH  17  18
ENDBRANCH  16  17
ENDBRANCH  15  16
ENDBRANCH  14  15
ENDBRANCH  13  14
ENDBRANCH  12  13
ENDBRANCH   1  12
TORSDOF 16
ENDMDL
MODEL 6
REMARK VINA RESULT:    -4.459      2.057      3.541
REMARK INTER + INTRA:         -10.734
REMARK INTER:                  -9.167
REMARK INTRA:                  -1.568
REMARK UNBOUND:                -2.105
REMARK SMILES CCCCCCCCCCCCCCCCCC(=O)[O-]
REMARK SMILES IDX 10 1 11 2 12 3 13 4 14 5 15 6 16 7 17 8 18 9 19 10 20 11
REMARK SMILES IDX 9 12 8 13 7 14 6 15 5 16 4 17 3 18 2 19 1 20
REMARK H PARENT
REMARK Flexibility Score: inf
ROOT
ATOM      1  C   UNL     1      54.609  23.137  51.765  1.00  0.00     0.000 C 
ENDROOT
BRANCH   1   2
ATOM      2  C   UNL     1      54.289  21.731  52.299  1.00  0.00     0.000 C 
BRANCH   2   3
ATOM      3  C   UNL     1      53.656  21.760  53.702  1.00  0.00     0.000 C 
BRANCH   3   4
ATOM      4  C   UNL     1      52.538  20.708  53.863  1.00  0.00     0.000 C 
BRANCH   4   5
ATOM      5  C   UNL     1      51.127  21.316  53.986  1.00  0.00     0.000 C 
BRANCH   5   6
ATOM      6  C   UNL     1      51.091  22.842  54.193  1.00  0.00     0.000 C 
BRANCH   6   7
ATOM      7  C   UNL     1      49.995  23.339  55.155  1.00  0.00     0.006 C 
BRANCH   7   8
ATOM      8  C   UNL     1      48.579  23.128  54.604  1.00  0.00     0.053 C 
BRANCH   8   9
ATOM      9  C   UNL     1      47.832  22.141  55.443  1.00  0.00     0.041 C 
ATOM     10  O   UNL     1      47.637  20.970  55.022  1.00  0.00    -0.550 OA
ATOM     11  O   UNL     1      47.384  22.500  56.708  1.00  0.00    -0.550 OA
ENDBRANCH   8   9
ENDBRANCH   7   8
ENDBRANCH   6   7
ENDBRANCH   5   6
ENDBRANCH   4   5
ENDBRANCH   3   4
ENDBRANCH   2   3
ENDBRANCH   1   2
BRANCH   1  12
ATOM     12  C   UNL     1      53.345  23.924  51.375  1.00  0.00     0.000 C 
BRANCH  12  13
ATOM     13  C   UNL     1      53.455  24.561  49.980  1.00  0.00    -0.000 C 
BRANCH  13  14
ATOM     14  C   UNL     1      53.766  23.534  48.880  1.00  0.00    -0.000 C 
BRANCH  14  15
ATOM     15  C   UNL     1      54.263  24.229  47.607  1.00  0.00    -0.000 C 
BRANCH  15  16
ATOM     16  C   UNL     1      55.793  24.144  47.493  1.00  0.00    -0.000 C 
BRANCH  16  17
ATOM     17  C   UNL     1      56.381  23.005  48.350  1.00  0.00    -0.000 C 
BRANCH  17  18
ATOM     18  C   UNL     1      56.879  21.798  47.532  1.00  0.00    -0.000 C 
BRANCH  18  19
ATOM     19  C   UNL     1      56.752  20.445  48.259  1.00  0.00    -0.003 C 
ATOM     20  C   UNL     1      55.859  20.521  49.499  1.00  0.00     0.004 C 
ENDBRANCH  18  19
ENDBRANCH  17  18
ENDBRANCH  16  17
ENDBRANCH  15  16
ENDBRANCH  14  15
ENDBRANCH  13  14
ENDBRANCH  12  13
ENDBRANCH   1  12
TORSDOF 16
ENDMDL
MODEL 7
REMARK VINA RESULT:    -4.414      2.152      5.613
REMARK INTER + INTRA:         -10.648
REMARK INTER:                  -8.241
REMARK INTRA:                  -2.407
REMARK UNBOUND:                -2.105
REMARK SMILES CCCCCCCCCCCCCCCCCC(=O)[O-]
REMARK SMILES IDX 10 1 11 2 12 3 13 4 14 5 15 6 16 7 17 8 18 9 19 10 20 11
REMARK SMILES IDX 9 12 8 13 7 14 6 15 5 16 4 17 3 18 2 19 1 20
REMARK H PARENT
REMARK Flexibility Score: inf
ROOT
ATOM      1  C   UNL     1      53.800  24.120  49.087  1.00  0.00     0.000 C 
ENDROOT
BRANCH   1   2
ATOM      2  C   UNL     1      54.767  23.599  48.012  1.00  0.00     0.000 C 
BRANCH   2   3
ATOM      3  C   UNL     1      56.039  22.972  48.611  1.00  0.00     0.000 C 
BRANCH   3   4
ATOM      4  C   UNL     1      56.118  21.451  48.361  1.00  0.00     0.000 C 
BRANCH   4   5
ATOM      5  C   UNL     1      56.102  20.609  49.652  1.00  0.00     0.000 C 
BRANCH   5   6
ATOM      6  C   UNL     1      55.587  21.343  50.904  1.00  0.00     0.000 C 
BRANCH   6   7
ATOM      7  C   UNL     1      56.524  21.276  52.125  1.00  0.00     0.006 C 
BRANCH   7   8
ATOM      8  C   UNL     1      56.633  22.613  52.866  1.00  0.00     0.053 C 
BRANCH   8   9
ATOM      9  C   UNL     1      56.789  22.386  54.336  1.00  0.00     0.041 C 
ATOM     10  O   UNL     1      57.295  23.279  55.067  1.00  0.00    -0.550 OA
ATOM     11  O   UNL     1      56.340  21.202  54.909  1.00  0.00    -0.550 OA
ENDBRANCH   8   9
ENDBRANCH   7   8
ENDBRANCH   6   7
ENDBRANCH   5   6
ENDBRANCH   4   5
ENDBRANCH   3   4
ENDBRANCH   2   3
ENDBRANCH   1   2
BRANCH   1  12
ATOM     12  C   UNL     1      54.520  24.896  50.204  1.00  0.00     0.000 C 
BRANCH  12  13
ATOM     13  C   UNL     1      53.744  24.877  51.531  1.00  0.00    -0.000 C 
BRANCH  13  14
ATOM     14  C   UNL     1      53.094  23.515  51.819  1.00  0.00    -0.000 C 
BRANCH  14  15
ATOM     15  C   UNL     1      53.048  23.238  53.327  1.00  0.00    -0.000 C 
BRANCH  15  16
ATOM     16  C   UNL     1      53.068  21.729  53.612  1.00  0.00    -0.000 C 
BRANCH  16  17
ATOM     17  C   UNL     1      51.650  21.128  53.683  1.00  0.00    -0.000 C 
BRANCH  17  18
ATOM     18  C   UNL     1      50.597  22.076  54.289  1.00  0.00    -0.000 C 
BRANCH  18  19
ATOM     19  C   UNL     1      49.238  22.060  53.562  1.00  0.00    -0.003 C 
ATOM     20  C   UNL     1      49.308  22.674  52.164  1.00  0.00     0.004 C 
ENDBRANCH  18  19
ENDBRANCH  17  18
ENDBRANCH  16  17
ENDBRANCH  15  16
ENDBRANCH  14  15
ENDBRANCH  13  14
ENDBRANCH  12  13
ENDBRANCH   1  12
TORSDOF 16
ENDMDL
MODEL 8
REMARK VINA RESULT:    -4.391      3.147      3.975
REMARK INTER + INTRA:         -10.604
REMARK INTER:                  -8.660
REMARK INTRA:                  -1.944
REMARK UNBOUND:                -2.105
REMARK SMILES CCCCCCCCCCCCCCCCCC(=O)[O-]
REMARK SMILES IDX 10 1 11 2 12 3 13 4 14 5 15 6 16 7 17 8 18 9 19 10 20 11
REMARK SMILES IDX 9 12 8 13 7 14 6 15 5 16 4 17 3 18 2 19 1 20
REMARK H PARENT
REMARK Flexibility Score: inf
ROOT
ATOM      1  C   UNL     1      54.386  24.153  52.533  1.00  0.00     0.000 C 
ENDROOT
BRANCH   1   2
ATOM      2  C   UNL     1      53.340  23.032  52.419  1.00  0.00     0.000 C 
BRANCH   2   3
ATOM      3  C   UNL     1      53.847  21.689  52.974  1.00  0.00     0.000 C 
BRANCH   3   4
ATOM      4  C   UNL     1      55.388  21.624  53.038  1.00  0.00     0.000 C 
BRANCH   4   5
ATOM      5  C   UNL     1      55.943  21.461  54.467  1.00  0.00     0.000 C 
BRANCH   5   6
ATOM      6  C   UNL     1      56.936  22.552  54.908  1.00  0.00     0.000 C 
BRANCH   6   7
ATOM      7  C   UNL     1      56.615  23.209  56.264  1.00  0.00     0.006 C 
BRANCH   7   8
ATOM      8  C   UNL     1      56.791  22.251  57.448  1.00  0.00     0.053 C 
BRANCH   8   9
ATOM      9  C   UNL     1      58.237  22.125  57.809  1.00  0.00     0.041 C 
ATOM     10  O   UNL     1      58.721  21.001  58.108  1.00  0.00    -0.550 OA
ATOM     11  O   UNL     1      59.062  23.243  57.778  1.00  0.00    -0.550 OA
ENDBRANCH   8   9
ENDBRANCH   7   8
ENDBRANCH   6   7
ENDBRANCH   5   6
ENDBRANCH   4   5
ENDBRANCH   3   4
ENDBRANCH   2   3
ENDBRANCH   1   2
BRANCH   1  12
ATOM     12  C   UNL     1      54.581  24.917  51.212  1.00  0.00     0.000 C 
BRANCH  12  13
ATOM     13  C   UNL     1      53.374  24.780  50.268  1.00  0.00    -0.000 C 
BRANCH  13  14
ATOM     14  C   UNL     1      53.717  25.125  48.811  1.00  0.00    -0.000 C 
BRANCH  14  15
ATOM     15  C   UNL     1      53.963  23.853  47.990  1.00  0.00    -0.000 C 
BRANCH  15  16
ATOM     16  C   UNL     1      55.446  23.717  47.615  1.00  0.00    -0.000 C 
BRANCH  16  17
ATOM     17  C   UNL     1      56.226  22.847  48.621  1.00  0.00    -0.000 C 
BRANCH  17  18
ATOM     18  C   UNL     1      55.358  21.809  49.357  1.00  0.00    -0.000 C 
BRANCH  18  19
ATOM     19  C   UNL     1      56.073  20.474  49.643  1.00  0.00    -0.003 C 
ATOM     20  C   UNL     1      56.368  19.677  48.372  1.00  0.00     0.004 C 
ENDBRANCH  18  19
ENDBRANCH  17  18
ENDBRANCH  16  17
ENDBRANCH  15  16
ENDBRANCH  14  15
ENDBRANCH  13  14
ENDBRANCH  12  13
ENDBRANCH   1  12
TORSDOF 16
ENDMDL
MODEL 9
REMARK VINA RESULT:    -4.384      2.291      4.017
REMARK INTER + INTRA:         -10.588
REMARK INTER:                  -7.903
REMARK INTRA:                  -2.685
REMARK UNBOUND:                -2.105
REMARK SMILES CCCCCCCCCCCCCCCCCC(=O)[O-]
REMARK SMILES IDX 10 1 11 2 12 3 13 4 14 5 15 6 16 7 17 8 18 9 19 10 20 11
REMARK SMILES IDX 9 12 8 13 7 14 6 15 5 16 4 17 3 18 2 19 1 20
REMARK H PARENT
REMARK Flexibility Score: inf
ROOT
ATOM      1  C   UNL     1      54.162  21.852  51.993  1.00  0.00     0.000 C 
ENDROOT
BRANCH   1   2
ATOM      2  C   UNL     1      53.861  21.252  53.376  1.00  0.00     0.000 C 
BRANCH   2   3
ATOM      3  C   UNL     1      52.353  21.198  53.683  1.00  0.00     0.000 C 
BRANCH   3   4
ATOM      4  C   UNL     1      51.802  22.558  54.159  1.00  0.00     0.000 C 
BRANCH   4   5
ATOM      5  C   UNL     1      52.463  23.078  55.451  1.00  0.00     0.000 C 
BRANCH   5   6
ATOM      6  C   UNL     1      53.150  24.450  55.326  1.00  0.00     0.000 C 
BRANCH   6   7
ATOM      7  C   UNL     1      54.655  24.452  55.659  1.00  0.00     0.006 C 
BRANCH   7   8
ATOM      8  C   UNL     1      55.124  23.142  56.304  1.00  0.00     0.053 C 
BRANCH   8   9
ATOM      9  C   UNL     1      56.499  22.791  55.833  1.00  0.00     0.041 C 
ATOM     10  O   UNL     1      57.425  23.643  55.888  1.00  0.00    -0.550 OA
ATOM     11  O   UNL     1      56.770  21.509  55.370  1.00  0.00    -0.550 OA
ENDBRANCH   8   9
ENDBRANCH   7   8
ENDBRANCH   6   7
ENDBRANCH   5   6
ENDBRANCH   4   5
ENDBRANCH   3   4
ENDBRANCH   2   3
ENDBRANCH   1   2
BRANCH   1  12
ATOM     12  C   UNL     1      54.975  23.156  52.078  1.00  0.00     0.000 C 
BRANCH  12  13
ATOM     13  C   UNL     1      54.112  24.405  51.834  1.00  0.00    -0.000 C 
BRANCH  13  14
ATOM     14  C   UNL     1      53.108  24.220  50.687  1.00  0.00    -0.000 C 
BRANCH  14  15
ATOM     15  C   UNL     1      53.649  24.819  49.383  1.00  0.00    -0.000 C 
BRANCH  15  16
ATOM     16  C   UNL     1      53.788  23.742  48.296  1.00  0.00    -0.000 C 
BRANCH  16  17
ATOM     17  C   UNL     1      55.216  23.675  47.719  1.00  0.00    -0.000 C 
BRANCH  17  18
ATOM     18  C   UNL     1      56.214  22.902  48.603  1.00  0.00    -0.000 C 
BRANCH  18  19
ATOM     19  C   UNL     1      56.474  21.453  48.144  1.00  0.00    -0.003 C 
ATOM     20  C   UNL     1      56.049  20.418  49.187  1.00  0.00     0.004 C 
ENDBRANCH  18  19
ENDBRANCH  17  18
ENDBRANCH  16  17
ENDBRANCH  15  16
ENDBRANCH  14  15
ENDBRANCH  13  14
ENDBRANCH  12  13
ENDBRANCH   1  12
TORSDOF 16
ENDMDL
