MODEL 1
REMARK VINA RESULT:    -3.639      0.000      0.000
REMARK INTER + INTRA:         -15.222
REMARK INTER:                  -9.596
REMARK INTRA:                  -5.626
REMARK UNBOUND:                -5.626
REMARK SMILES CCCCCCCCCCCCCCCCCCCCCCCCCCCCCC(=O)[O-]
REMARK SMILES IDX 16 1 17 2 18 3 19 4 20 5 21 6 22 7 23 8 24 9 25 10 26 11
REMARK SMILES IDX 27 12 28 13 29 14 30 15 31 16 32 17 15 18 14 19 13 20 12 21
REMARK SMILES IDX 11 22 10 23 9 24 8 25 7 26 6 27 5 28 4 29 3 30 2 31 1 32
REMARK H PARENT
REMARK Flexibility Score: inf
ROOT
ATOM      1  C   UNL     1      13.816 -34.250  -1.403  1.00  0.00     0.000 C 
ENDROOT
BRANCH   1   2
ATOM      2  C   UNL     1      14.813 -33.106  -1.150  1.00  0.00     0.000 C 
BRANCH   2   3
ATOM      3  C   UNL     1      15.791 -32.896  -2.320  1.00  0.00     0.000 C 
BRANCH   3   4
ATOM      4  C   UNL     1      17.168 -33.568  -2.142  1.00  0.00     0.000 C 
BRANCH   4   5
ATOM      5  C   UNL     1      17.428 -34.178  -0.750  1.00  0.00     0.000 C 
BRANCH   5   6
ATOM      6  C   UNL     1      17.527 -35.716  -0.712  1.00  0.00     0.000 C 
BRANCH   6   7
ATOM      7  C   UNL     1      17.355 -36.412  -2.074  1.00  0.00     0.000 C 
BRANCH   7   8
ATOM      8  C   UNL     1      16.001 -37.127  -2.209  1.00  0.00     0.000 C 
BRANCH   8   9
ATOM      9  C   UNL     1      16.141 -38.650  -2.391  1.00  0.00     0.000 C 
BRANCH   9  10
ATOM     10  C   UNL     1      15.336 -39.509  -1.397  1.00  0.00     0.000 C 
BRANCH  10  11
ATOM     11  C   UNL     1      14.538 -38.673  -0.381  1.00  0.00     0.000 C 
BRANCH  11  12
ATOM     12  C   UNL     1      14.870 -39.057   1.078  1.00  0.00     0.000 C 
BRANCH  12  13
ATOM     13  C   UNL     1      16.311 -39.563   1.270  1.00  0.00     0.006 C 
BRANCH  13  14
ATOM     14  C   UNL     1      17.333 -38.424   1.364  1.00  0.00     0.053 C 
BRANCH  14  15
ATOM     15  C   UNL     1      18.662 -38.869   0.844  1.00  0.00     0.041 C 
ATOM     16  O   UNL     1      19.621 -38.056   0.779  1.00  0.00    -0.550 OA
ATOM     17  O   UNL     1      18.832 -40.174   0.396  1.00  0.00    -0.550 OA
ENDBRANCH  14  15
ENDBRANCH  13  14
ENDBRANCH  12  13
ENDBRANCH  11  12
ENDBRANCH  10  11
ENDBRANCH   9  10
ENDBRANCH   8   9
ENDBRANCH   7   8
ENDBRANCH   6   7
ENDBRANCH   5   6
ENDBRANCH   4   5
ENDBRANCH   3   4
ENDBRANCH   2   3
ENDBRANCH   1   2
BRANCH   1  18
ATOM     18  C   UNL     1      13.602 -35.125  -0.155  1.00  0.00     0.000 C 
BRANCH  18  19
ATOM     19  C   UNL     1      14.218 -34.503   1.110  1.00  0.00     0.000 C 
BRANCH  19  20
ATOM     20  C   UNL     1      14.771 -35.565   2.082  1.00  0.00     0.000 C 
BRANCH  20  21
ATOM     21  C   UNL     1      16.189 -35.262   2.602  1.00  0.00     0.000 C 
BRANCH  21  22
ATOM     22  C   UNL     1      16.448 -35.638   4.074  1.00  0.00     0.000 C 
BRANCH  22  23
ATOM     23  C   UNL     1      16.056 -37.079   4.461  1.00  0.00     0.000 C 
BRANCH  23  24
ATOM     24  C   UNL     1      17.201 -37.912   5.070  1.00  0.00    -0.000 C 
BRANCH  24  25
ATOM     25  C   UNL     1      16.907 -39.422   5.053  1.00  0.00    -0.000 C 
BRANCH  25  26
ATOM     26  C   UNL     1      18.181 -40.277   5.169  1.00  0.00    -0.000 C 
BRANCH  26  27
ATOM     27  C   UNL     1      19.338 -39.851   4.245  1.00  0.00    -0.000 C 
BRANCH  27  28
ATOM     28  C   UNL     1      20.733 -40.286   4.743  1.00  0.00    -0.000 C 
BRANCH  28  29
ATOM     29  C   UNL     1      21.569 -39.103   5.262  1.00  0.00    -0.000 C 
BRANCH  29  30
ATOM     30  C   UNL     1      21.495 -38.961   6.797  1.00  0.00    -0.000 C 
BRANCH  30  31
ATOM     31  C   UNL     1      20.639 -37.772   7.266  1.00  0.00    -0.003 C 
ATOM     32  C   UNL     1      19.396 -38.198   8.045  1.00  0.00     0.004 C 
ENDBRANCH  30  31
ENDBRANCH  29  30
ENDBRANCH  28  29
ENDBRANCH  27  28
ENDBRANCH  26  27
ENDBRANCH  25  26
ENDBRANCH  24  25
ENDBRANCH  23  24
ENDBRANCH  22  23
ENDBRANCH  21  22
ENDBRANCH  20  21
ENDBRANCH  19  20
ENDBRANCH  18  19
ENDBRANCH   1  18
TORSDOF 28
ENDMDL
MODEL 2
REMARK VINA RESULT:    -3.611      2.569      6.914
REMARK INTER + INTRA:         -15.149
REMARK INTER:                  -9.688
REMARK INTRA:                  -5.462
REMARK UNBOUND:                -5.626
REMARK SMILES CCCCCCCCCCCCCCCCCCCCCCCCCCCCCC(=O)[O-]
REMARK SMILES IDX 16 1 17 2 18 3 19 4 20 5 21 6 22 7 23 8 24 9 25 10 26 11
REMARK SMILES IDX 27 12 28 13 29 14 30 15 31 16 32 17 15 18 14 19 13 20 12 21
REMARK SMILES IDX 11 22 10 23 9 24 8 25 7 26 6 27 5 28 4 29 3 30 2 31 1 32
REMARK H PARENT
REMARK Flexibility Score: inf
ROOT
ATOM      1  C   UNL     1      14.086 -35.749   1.220  1.00  0.00     0.000 C 
ENDROOT
BRANCH   1   2
ATOM      2  C   UNL     1      15.364 -36.369   1.808  1.00  0.00     0.000 C 
BRANCH   2   3
ATOM      3  C   UNL     1      16.452 -35.324   2.112  1.00  0.00     0.000 C 
BRANCH   3   4
ATOM      4  C   UNL     1      16.623 -34.981   3.605  1.00  0.00     0.000 C 
BRANCH   4   5
ATOM      5  C   UNL     1      15.507 -35.503   4.533  1.00  0.00     0.000 C 
BRANCH   5   6
ATOM      6  C   UNL     1      15.893 -36.705   5.417  1.00  0.00     0.000 C 
BRANCH   6   7
ATOM      7  C   UNL     1      17.310 -37.258   5.181  1.00  0.00     0.000 C 
BRANCH   7   8
ATOM      8  C   UNL     1      17.308 -38.585   4.406  1.00  0.00     0.000 C 
BRANCH   8   9
ATOM      9  C   UNL     1      18.282 -39.624   4.992  1.00  0.00     0.000 C 
BRANCH   9  10
ATOM     10  C   UNL     1      19.633 -39.748   4.260  1.00  0.00     0.000 C 
BRANCH  10  11
ATOM     11  C   UNL     1      20.842 -39.453   5.166  1.00  0.00     0.000 C 
BRANCH  11  12
ATOM     12  C   UNL     1      20.425 -39.211   6.633  1.00  0.00     0.000 C 
BRANCH  12  13
ATOM     13  C   UNL     1      21.077 -37.967   7.263  1.00  0.00     0.006 C 
BRANCH  13  14
ATOM     14  C   UNL     1      20.049 -36.941   7.754  1.00  0.00     0.053 C 
BRANCH  14  15
ATOM     15  C   UNL     1      20.498 -36.325   9.040  1.00  0.00     0.041 C 
ATOM     16  O   UNL     1      20.771 -35.097   9.091  1.00  0.00    -0.550 OA
ATOM     17  O   UNL     1      20.653 -37.114  10.174  1.00  0.00    -0.550 OA
ENDBRANCH  14  15
ENDBRANCH  13  14
ENDBRANCH  12  13
ENDBRANCH  11  12
ENDBRANCH  10  11
ENDBRANCH   9  10
ENDBRANCH   8   9
ENDBRANCH   7   8
ENDBRANCH   6   7
ENDBRANCH   5   6
ENDBRANCH   4   5
ENDBRANCH   3   4
ENDBRANCH   2   3
ENDBRANCH   1   2
BRANCH   1  18
ATOM     18  C   UNL     1      14.370 -34.448   0.448  1.00  0.00     0.000 C 
BRANCH  18  19
ATOM     19  C   UNL     1      13.723 -34.442  -0.948  1.00  0.00     0.000 C 
BRANCH  19  20
ATOM     20  C   UNL     1      14.739 -34.142  -2.069  1.00  0.00     0.000 C 
BRANCH  20  21
ATOM     21  C   UNL     1      15.981 -33.364  -1.597  1.00  0.00     0.000 C 
BRANCH  21  22
ATOM     22  C   UNL     1      17.335 -34.049  -1.871  1.00  0.00     0.000 C 
BRANCH  22  23
ATOM     23  C   UNL     1      17.453 -35.498  -1.353  1.00  0.00     0.000 C 
BRANCH  23  24
ATOM     24  C   UNL     1      17.997 -36.503  -2.387  1.00  0.00    -0.000 C 
BRANCH  24  25
ATOM     25  C   UNL     1      17.174 -37.803  -2.435  1.00  0.00    -0.000 C 
BRANCH  25  26
ATOM     26  C   UNL     1      15.680 -37.572  -2.152  1.00  0.00    -0.000 C 
BRANCH  26  27
ATOM     27  C   UNL     1      15.083 -38.457  -1.040  1.00  0.00    -0.000 C 
BRANCH  27  28
ATOM     28  C   UNL     1      15.255 -39.972  -1.283  1.00  0.00    -0.000 C 
BRANCH  28  29
ATOM     29  C   UNL     1      16.136 -40.644  -0.215  1.00  0.00    -0.000 C 
BRANCH  29  30
ATOM     30  C   UNL     1      16.675 -39.635   0.821  1.00  0.00    -0.000 C 
BRANCH  30  31
ATOM     31  C   UNL     1      18.207 -39.495   0.805  1.00  0.00    -0.003 C 
ATOM     32  C   UNL     1      18.678 -38.049   0.961  1.00  0.00     0.004 C 
ENDBRANCH  30  31
ENDBRANCH  29  30
ENDBRANCH  28  29
ENDBRANCH  27  28
ENDBRANCH  26  27
ENDBRANCH  25  26
ENDBRANCH  24  25
ENDBRANCH  23  24
ENDBRANCH  22  23
ENDBRANCH  21  22
ENDBRANCH  20  21
ENDBRANCH  19  20
ENDBRANCH  18  19
ENDBRANCH   1  18
TORSDOF 28
ENDMDL
MODEL 3
REMARK VINA RESULT:    -3.590      3.138      8.423
REMARK INTER + INTRA:         -15.092
REMARK INTER:                 -10.901
REMARK INTRA:                  -4.190
REMARK UNBOUND:                -5.626
REMARK SMILES CCCCCCCCCCCCCCCCCCCCCCCCCCCCCC(=O)[O-]
REMARK SMILES IDX 16 1 17 2 18 3 19 4 20 5 21 6 22 7 23 8 24 9 25 10 26 11
REMARK SMILES IDX 27 12 28 13 29 14 30 15 31 16 32 17 15 18 14 19 13 20 12 21
REMARK SMILES IDX 11 22 10 23 9 24 8 25 7 26 6 27 5 28 4 29 3 30 2 31 1 32
REMARK H PARENT
REMARK Flexibility Score: inf
ROOT
ATOM      1  C   UNL     1      17.124 -36.078   6.143  1.00  0.00     0.000 C 
ENDROOT
BRANCH   1   2
ATOM      2  C   UNL     1      17.076 -37.615   6.159  1.00  0.00     0.000 C 
BRANCH   2   3
ATOM      3  C   UNL     1      18.469 -38.258   6.042  1.00  0.00     0.000 C 
BRANCH   3   4
ATOM      4  C   UNL     1      18.464 -39.747   5.641  1.00  0.00     0.000 C 
BRANCH   4   5
ATOM      5  C   UNL     1      19.845 -40.340   5.295  1.00  0.00     0.000 C 
BRANCH   5   6
ATOM      6  C   UNL     1      20.949 -39.308   4.990  1.00  0.00     0.000 C 
BRANCH   6   7
ATOM      7  C   UNL     1      22.335 -39.648   5.567  1.00  0.00     0.000 C 
BRANCH   7   8
ATOM      8  C   UNL     1      22.453 -39.313   7.063  1.00  0.00     0.000 C 
BRANCH   8   9
ATOM      9  C   UNL     1      21.841 -37.946   7.423  1.00  0.00     0.000 C 
BRANCH   9  10
ATOM     10  C   UNL     1      20.889 -37.949   8.635  1.00  0.00     0.000 C 
BRANCH  10  11
ATOM     11  C   UNL     1      20.756 -36.569   9.303  1.00  0.00     0.000 C 
BRANCH  11  12
ATOM     12  C   UNL     1      20.309 -35.479   8.304  1.00  0.00     0.000 C 
BRANCH  12  13
ATOM     13  C   UNL     1      20.693 -34.052   8.734  1.00  0.00     0.006 C 
BRANCH  13  14
ATOM     14  C   UNL     1      19.646 -33.406   9.650  1.00  0.00     0.053 C 
BRANCH  14  15
ATOM     15  C   UNL     1      18.586 -32.732   8.838  1.00  0.00     0.041 C 
ATOM     16  O   UNL     1      17.379 -32.809   9.187  1.00  0.00    -0.550 OA
ATOM     17  O   UNL     1      18.926 -32.051   7.676  1.00  0.00    -0.550 OA
ENDBRANCH  14  15
ENDBRANCH  13  14
ENDBRANCH  12  13
ENDBRANCH  11  12
ENDBRANCH  10  11
ENDBRANCH   9  10
ENDBRANCH   8   9
ENDBRANCH   7   8
ENDBRANCH   6   7
ENDBRANCH   5   6
ENDBRANCH   4   5
ENDBRANCH   3   4
ENDBRANCH   2   3
ENDBRANCH   1   2
BRANCH   1  18
ATOM     18  C   UNL     1      16.303 -35.480   4.986  1.00  0.00     0.000 C 
BRANCH  18  19
ATOM     19  C   UNL     1      15.712 -36.563   4.066  1.00  0.00     0.000 C 
BRANCH  19  20
ATOM     20  C   UNL     1      16.015 -36.302   2.576  1.00  0.00     0.000 C 
BRANCH  20  21
ATOM     21  C   UNL     1      16.830 -35.021   2.317  1.00  0.00     0.000 C 
BRANCH  21  22
ATOM     22  C   UNL     1      17.924 -35.140   1.238  1.00  0.00     0.000 C 
BRANCH  22  23
ATOM     23  C   UNL     1      17.638 -34.378  -0.073  1.00  0.00     0.000 C 
BRANCH  23  24
ATOM     24  C   UNL     1      16.219 -34.586  -0.636  1.00  0.00    -0.000 C 
BRANCH  24  25
ATOM     25  C   UNL     1      16.169 -35.671  -1.726  1.00  0.00    -0.000 C 
BRANCH  25  26
ATOM     26  C   UNL     1      17.556 -35.997  -2.305  1.00  0.00    -0.000 C 
BRANCH  26  27
ATOM     27  C   UNL     1      18.000 -37.464  -2.146  1.00  0.00    -0.000 C 
BRANCH  27  28
ATOM     28  C   UNL     1      17.598 -38.100  -0.798  1.00  0.00    -0.000 C 
BRANCH  28  29
ATOM     29  C   UNL     1      18.812 -38.607   0.000  1.00  0.00    -0.000 C 
BRANCH  29  30
ATOM     30  C   UNL     1      18.595 -38.508   1.525  1.00  0.00    -0.000 C 
BRANCH  30  31
ATOM     31  C   UNL     1      17.663 -39.595   2.086  1.00  0.00    -0.003 C 
ATOM     32  C   UNL     1      18.074 -41.009   1.676  1.00  0.00     0.004 C 
ENDBRANCH  30  31
ENDBRANCH  29  30
ENDBRANCH  28  29
ENDBRANCH  27  28
ENDBRANCH  26  27
ENDBRANCH  25  26
ENDBRANCH  24  25
ENDBRANCH  23  24
ENDBRANCH  22  23
ENDBRANCH  21  22
ENDBRANCH  20  21
ENDBRANCH  19  20
ENDBRANCH  18  19
ENDBRANCH   1  18
TORSDOF 28
ENDMDL
MODEL 4
REMARK VINA RESULT:    -3.540      2.136      7.834
REMARK INTER + INTRA:         -14.961
REMARK INTER:                 -10.154
REMARK INTRA:                  -4.806
REMARK UNBOUND:                -5.626
REMARK SMILES CCCCCCCCCCCCCCCCCCCCCCCCCCCCCC(=O)[O-]
REMARK SMILES IDX 16 1 17 2 18 3 19 4 20 5 21 6 22 7 23 8 24 9 25 10 26 11
REMARK SMILES IDX 27 12 28 13 29 14 30 15 31 16 32 17 15 18 14 19 13 20 12 21
REMARK SMILES IDX 11 22 10 23 9 24 8 25 7 26 6 27 5 28 4 29 3 30 2 31 1 32
REMARK H PARENT
REMARK Flexibility Score: inf
ROOT
ATOM      1  C   UNL     1      18.414 -38.811   0.570  1.00  0.00     0.000 C 
ENDROOT
BRANCH   1   2
ATOM      2  C   UNL     1      17.561 -38.790   1.850  1.00  0.00     0.000 C 
BRANCH   2   3
ATOM      3  C   UNL     1      16.105 -39.223   1.605  1.00  0.00     0.000 C 
BRANCH   3   4
ATOM      4  C   UNL     1      15.044 -38.172   1.986  1.00  0.00     0.000 C 
BRANCH   4   5
ATOM      5  C   UNL     1      15.037 -36.898   1.116  1.00  0.00     0.000 C 
BRANCH   5   6
ATOM      6  C   UNL     1      15.246 -35.576   1.881  1.00  0.00     0.000 C 
BRANCH   6   7
ATOM      7  C   UNL     1      16.650 -35.389   2.484  1.00  0.00     0.000 C 
BRANCH   7   8
ATOM      8  C   UNL     1      16.610 -34.857   3.925  1.00  0.00     0.000 C 
BRANCH   8   9
ATOM      9  C   UNL     1      16.195 -35.929   4.950  1.00  0.00     0.000 C 
BRANCH   9  10
ATOM     10  C   UNL     1      16.946 -37.270   4.842  1.00  0.00     0.000 C 
BRANCH  10  11
ATOM     11  C   UNL     1      17.488 -37.772   6.193  1.00  0.00     0.000 C 
BRANCH  11  12
ATOM     12  C   UNL     1      18.165 -36.645   7.004  1.00  0.00     0.000 C 
BRANCH  12  13
ATOM     13  C   UNL     1      19.193 -37.155   8.029  1.00  0.00     0.006 C 
BRANCH  13  14
ATOM     14  C   UNL     1      20.640 -36.872   7.609  1.00  0.00     0.053 C 
BRANCH  14  15
ATOM     15  C   UNL     1      21.321 -38.137   7.195  1.00  0.00     0.041 C 
ATOM     16  O   UNL     1      22.575 -38.230   7.256  1.00  0.00    -0.550 OA
ATOM     17  O   UNL     1      20.574 -39.202   6.704  1.00  0.00    -0.550 OA
ENDBRANCH  14  15
ENDBRANCH  13  14
ENDBRANCH  12  13
ENDBRANCH  11  12
ENDBRANCH  10  11
ENDBRANCH   9  10
ENDBRANCH   8   9
ENDBRANCH   7   8
ENDBRANCH   6   7
ENDBRANCH   5   6
ENDBRANCH   4   5
ENDBRANCH   3   4
ENDBRANCH   2   3
ENDBRANCH   1   2
BRANCH   1  18
ATOM     18  C   UNL     1      18.423 -37.451  -0.149  1.00  0.00     0.000 C 
BRANCH  18  19
ATOM     19  C   UNL     1      18.128 -37.581  -1.654  1.00  0.00     0.000 C 
BRANCH  19  20
ATOM     20  C   UNL     1      17.417 -36.337  -2.227  1.00  0.00     0.000 C 
BRANCH  20  21
ATOM     21  C   UNL     1      17.320 -35.161  -1.238  1.00  0.00     0.000 C 
BRANCH  21  22
ATOM     22  C   UNL     1      17.422 -33.757  -1.867  1.00  0.00     0.000 C 
BRANCH  22  23
ATOM     23  C   UNL     1      16.072 -33.086  -2.196  1.00  0.00     0.000 C 
BRANCH  23  24
ATOM     24  C   UNL     1      14.972 -33.310  -1.140  1.00  0.00    -0.000 C 
BRANCH  24  25
ATOM     25  C   UNL     1      13.557 -33.270  -1.744  1.00  0.00    -0.000 C 
BRANCH  25  26
ATOM     26  C   UNL     1      13.295 -34.428  -2.722  1.00  0.00    -0.000 C 
BRANCH  26  27
ATOM     27  C   UNL     1      13.020 -35.791  -2.059  1.00  0.00    -0.000 C 
BRANCH  27  28
ATOM     28  C   UNL     1      14.079 -36.869  -2.376  1.00  0.00    -0.000 C 
BRANCH  28  29
ATOM     29  C   UNL     1      13.490 -38.068  -3.139  1.00  0.00    -0.000 C 
BRANCH  29  30
ATOM     30  C   UNL     1      14.493 -39.234  -3.266  1.00  0.00    -0.000 C 
BRANCH  30  31
ATOM     31  C   UNL     1      15.188 -39.595  -1.942  1.00  0.00    -0.003 C 
ATOM     32  C   UNL     1      14.814 -40.985  -1.428  1.00  0.00     0.004 C 
ENDBRANCH  30  31
ENDBRANCH  29  30
ENDBRANCH  28  29
ENDBRANCH  27  28
ENDBRANCH  26  27
ENDBRANCH  25  26
ENDBRANCH  24  25
ENDBRANCH  23  24
ENDBRANCH  22  23
ENDBRANCH  21  22
ENDBRANCH  20  21
ENDBRANCH  19  20
ENDBRANCH  18  19
ENDBRANCH   1  18
TORSDOF 28
ENDMDL
MODEL 5
REMARK VINA RESULT:    -3.512      2.496      5.166
REMARK INTER + INTRA:         -14.888
REMARK INTER:                 -10.207
REMARK INTRA:                  -4.680
REMARK UNBOUND:                -5.626
REMARK SMILES CCCCCCCCCCCCCCCCCCCCCCCCCCCCCC(=O)[O-]
REMARK SMILES IDX 16 1 17 2 18 3 19 4 20 5 21 6 22 7 23 8 24 9 25 10 26 11
REMARK SMILES IDX 27 12 28 13 29 14 30 15 31 16 32 17 15 18 14 19 13 20 12 21
REMARK SMILES IDX 11 22 10 23 9 24 8 25 7 26 6 27 5 28 4 29 3 30 2 31 1 32
REMARK H PARENT
REMARK Flexibility Score: inf
ROOT
ATOM      1  C   UNL     1      17.324 -35.867   1.427  1.00  0.00     0.000 C 
ENDROOT
BRANCH   1   2
ATOM      2  C   UNL     1      15.904 -35.276   1.386  1.00  0.00     0.000 C 
BRANCH   2   3
ATOM      3  C   UNL     1      14.806 -36.350   1.465  1.00  0.00     0.000 C 
BRANCH   3   4
ATOM      4  C   UNL     1      13.840 -36.381   0.264  1.00  0.00     0.000 C 
BRANCH   4   5
ATOM      5  C   UNL     1      13.824 -37.700  -0.535  1.00  0.00     0.000 C 
BRANCH   5   6
ATOM      6  C   UNL     1      15.045 -38.616  -0.320  1.00  0.00     0.000 C 
BRANCH   6   7
ATOM      7  C   UNL     1      15.636 -39.225  -1.605  1.00  0.00     0.000 C 
BRANCH   7   8
ATOM      8  C   UNL     1      16.241 -38.165  -2.539  1.00  0.00     0.000 C 
BRANCH   8   9
ATOM      9  C   UNL     1      17.642 -37.703  -2.096  1.00  0.00     0.000 C 
BRANCH   9  10
ATOM     10  C   UNL     1      17.939 -36.205  -2.307  1.00  0.00     0.000 C 
BRANCH  10  11
ATOM     11  C   UNL     1      16.713 -35.306  -2.073  1.00  0.00     0.000 C 
BRANCH  11  12
ATOM     12  C   UNL     1      17.100 -33.817  -1.938  1.00  0.00     0.000 C 
BRANCH  12  13
ATOM     13  C   UNL     1      15.920 -32.851  -2.144  1.00  0.00     0.006 C 
BRANCH  13  14
ATOM     14  C   UNL     1      14.565 -33.492  -1.824  1.00  0.00     0.053 C 
BRANCH  14  15
ATOM     15  C   UNL     1      13.730 -32.567  -0.998  1.00  0.00     0.041 C 
ATOM     16  O   UNL     1      13.261 -31.515  -1.506  1.00  0.00    -0.550 OA
ATOM     17  O   UNL     1      13.502 -32.846   0.345  1.00  0.00    -0.550 OA
ENDBRANCH  14  15
ENDBRANCH  13  14
ENDBRANCH  12  13
ENDBRANCH  11  12
ENDBRANCH  10  11
ENDBRANCH   9  10
ENDBRANCH   8   9
ENDBRANCH   7   8
ENDBRANCH   6   7
ENDBRANCH   5   6
ENDBRANCH   4   5
ENDBRANCH   3   4
ENDBRANCH   2   3
ENDBRANCH   1   2
BRANCH   1  18
ATOM     18  C   UNL     1      17.370 -37.224   2.151  1.00  0.00     0.000 C 
BRANCH  18  19
ATOM     19  C   UNL     1      18.291 -38.234   1.445  1.00  0.00     0.000 C 
BRANCH  19  20
ATOM     20  C   UNL     1      18.219 -39.640   2.075  1.00  0.00     0.000 C 
BRANCH  20  21
ATOM     21  C   UNL     1      17.466 -39.688   3.417  1.00  0.00     0.000 C 
BRANCH  21  22
ATOM     22  C   UNL     1      18.337 -39.978   4.655  1.00  0.00     0.000 C 
BRANCH  22  23
ATOM     23  C   UNL     1      19.800 -40.363   4.351  1.00  0.00     0.000 C 
BRANCH  23  24
ATOM     24  C   UNL     1      20.849 -39.383   4.911  1.00  0.00    -0.000 C 
BRANCH  24  25
ATOM     25  C   UNL     1      22.185 -40.072   5.240  1.00  0.00    -0.000 C 
BRANCH  25  26
ATOM     26  C   UNL     1      22.757 -39.642   6.602  1.00  0.00    -0.000 C 
BRANCH  26  27
ATOM     27  C   UNL     1      22.173 -38.333   7.169  1.00  0.00    -0.000 C 
BRANCH  27  28
ATOM     28  C   UNL     1      21.429 -38.506   8.511  1.00  0.00    -0.000 C 
BRANCH  28  29
ATOM     29  C   UNL     1      20.680 -37.232   8.939  1.00  0.00    -0.000 C 
BRANCH  29  30
ATOM     30  C   UNL     1      19.889 -36.597   7.775  1.00  0.00    -0.000 C 
BRANCH  30  31
ATOM     31  C   UNL     1      18.684 -37.438   7.319  1.00  0.00    -0.003 C 
ATOM     32  C   UNL     1      17.706 -36.657   6.441  1.00  0.00     0.004 C 
ENDBRANCH  30  31
ENDBRANCH  29  30
ENDBRANCH  28  29
ENDBRANCH  27  28
ENDBRANCH  26  27
ENDBRANCH  25  26
ENDBRANCH  24  25
ENDBRANCH  23  24
ENDBRANCH  22  23
ENDBRANCH  21  22
ENDBRANCH  20  21
ENDBRANCH  19  20
ENDBRANCH  18  19
ENDBRANCH   1  18
TORSDOF 28
ENDMDL
MODEL 6
REMARK VINA RESULT:    -3.499      3.049      8.870
REMARK INTER + INTRA:         -14.853
REMARK INTER:                 -11.009
REMARK INTRA:                  -3.844
REMARK UNBOUND:                -5.626
REMARK SMILES CCCCCCCCCCCCCCCCCCCCCCCCCCCCCC(=O)[O-]
REMARK SMILES IDX 16 1 17 2 18 3 19 4 20 5 21 6 22 7 23 8 24 9 25 10 26 11
REMARK SMILES IDX 27 12 28 13 29 14 30 15 31 16 32 17 15 18 14 19 13 20 12 21
REMARK SMILES IDX 11 22 10 23 9 24 8 25 7 26 6 27 5 28 4 29 3 30 2 31 1 32
REMARK H PARENT
REMARK Flexibility Score: inf
ROOT
ATOM      1  C   UNL     1      18.224 -39.062   6.241  1.00  0.00     0.000 C 
ENDROOT
BRANCH   1   2
ATOM      2  C   UNL     1      17.900 -39.707   4.882  1.00  0.00     0.000 C 
BRANCH   2   3
ATOM      3  C   UNL     1      19.151 -39.939   4.017  1.00  0.00     0.000 C 
BRANCH   3   4
ATOM      4  C   UNL     1      20.398 -40.409   4.794  1.00  0.00     0.000 C 
BRANCH   4   5
ATOM      5  C   UNL     1      21.500 -39.345   4.976  1.00  0.00     0.000 C 
BRANCH   5   6
ATOM      6  C   UNL     1      22.696 -39.777   5.847  1.00  0.00     0.000 C 
BRANCH   6   7
ATOM      7  C   UNL     1      22.760 -39.118   7.236  1.00  0.00     0.000 C 
BRANCH   7   8
ATOM      8  C   UNL     1      21.693 -38.028   7.426  1.00  0.00     0.000 C 
BRANCH   8   9
ATOM      9  C   UNL     1      20.866 -38.214   8.712  1.00  0.00     0.000 C 
BRANCH   9  10
ATOM     10  C   UNL     1      20.385 -36.912   9.381  1.00  0.00     0.000 C 
BRANCH  10  11
ATOM     11  C   UNL     1      20.258 -35.736   8.396  1.00  0.00     0.000 C 
BRANCH  11  12
ATOM     12  C   UNL     1      20.743 -34.406   9.012  1.00  0.00     0.000 C 
BRANCH  12  13
ATOM     13  C   UNL     1      19.604 -33.425   9.341  1.00  0.00     0.006 C 
BRANCH  13  14
ATOM     14  C   UNL     1      18.331 -33.700   8.531  1.00  0.00     0.053 C 
BRANCH  14  15
ATOM     15  C   UNL     1      17.922 -32.480   7.770  1.00  0.00     0.041 C 
ATOM     16  O   UNL     1      18.423 -31.360   8.054  1.00  0.00    -0.550 OA
ATOM     17  O   UNL     1      16.959 -32.572   6.773  1.00  0.00    -0.550 OA
ENDBRANCH  14  15
ENDBRANCH  13  14
ENDBRANCH  12  13
ENDBRANCH  11  12
ENDBRANCH  10  11
ENDBRANCH   9  10
ENDBRANCH   8   9
ENDBRANCH   7   8
ENDBRANCH   6   7
ENDBRANCH   5   6
ENDBRANCH   4   5
ENDBRANCH   3   4
ENDBRANCH   2   3
ENDBRANCH   1   2
BRANCH   1  18
ATOM     18  C   UNL     1      17.700 -37.619   6.342  1.00  0.00     0.000 C 
BRANCH  18  19
ATOM     19  C   UNL     1      16.994 -37.160   5.054  1.00  0.00     0.000 C 
BRANCH  19  20
ATOM     20  C   UNL     1      16.435 -35.726   5.165  1.00  0.00     0.000 C 
BRANCH  20  21
ATOM     21  C   UNL     1      16.545 -34.909   3.864  1.00  0.00     0.000 C 
BRANCH  21  22
ATOM     22  C   UNL     1      16.667 -35.737   2.571  1.00  0.00     0.000 C 
BRANCH  22  23
ATOM     23  C   UNL     1      15.328 -36.195   1.955  1.00  0.00     0.000 C 
BRANCH  23  24
ATOM     24  C   UNL     1      15.341 -37.627   1.388  1.00  0.00    -0.000 C 
BRANCH  24  25
ATOM     25  C   UNL     1      16.669 -38.357   1.658  1.00  0.00    -0.000 C 
BRANCH  25  26
ATOM     26  C   UNL     1      17.426 -38.710   0.366  1.00  0.00    -0.000 C 
BRANCH  26  27
ATOM     27  C   UNL     1      18.203 -37.542  -0.274  1.00  0.00    -0.000 C 
BRANCH  27  28
ATOM     28  C   UNL     1      18.065 -37.463  -1.809  1.00  0.00    -0.000 C 
BRANCH  28  29
ATOM     29  C   UNL     1      16.696 -36.917  -2.252  1.00  0.00    -0.000 C 
BRANCH  29  30
ATOM     30  C   UNL     1      16.318 -35.614  -1.515  1.00  0.00    -0.000 C 
BRANCH  30  31
ATOM     31  C   UNL     1      17.184 -34.407  -1.914  1.00  0.00    -0.003 C 
ATOM     32  C   UNL     1      16.372 -33.130  -2.126  1.00  0.00     0.004 C 
ENDBRANCH  30  31
ENDBRANCH  29  30
ENDBRANCH  28  29
ENDBRANCH  27  28
ENDBRANCH  26  27
ENDBRANCH  25  26
ENDBRANCH  24  25
ENDBRANCH  23  24
ENDBRANCH  22  23
ENDBRANCH  21  22
ENDBRANCH  20  21
ENDBRANCH  19  20
ENDBRANCH  18  19
ENDBRANCH   1  18
TORSDOF 28
ENDMDL
MODEL 7
REMARK VINA RESULT:    -3.488      2.619      4.367
REMARK INTER + INTRA:         -14.824
REMARK INTER:                  -9.981
REMARK INTRA:                  -4.843
REMARK UNBOUND:                -5.626
REMARK SMILES CCCCCCCCCCCCCCCCCCCCCCCCCCCCCC(=O)[O-]
REMARK SMILES IDX 16 1 17 2 18 3 19 4 20 5 21 6 22 7 23 8 24 9 25 10 26 11
REMARK SMILES IDX 27 12 28 13 29 14 30 15 31 16 32 17 15 18 14 19 13 20 12 21
REMARK SMILES IDX 11 22 10 23 9 24 8 25 7 26 6 27 5 28 4 29 3 30 2 31 1 32
REMARK H PARENT
REMARK Flexibility Score: inf
ROOT
ATOM      1  C   UNL     1      16.374 -34.621  -0.571  1.00  0.00     0.000 C 
ENDROOT
BRANCH   1   2
ATOM      2  C   UNL     1      16.511 -35.229  -1.977  1.00  0.00     0.000 C 
BRANCH   2   3
ATOM      3  C   UNL     1      17.849 -35.959  -2.186  1.00  0.00     0.000 C 
BRANCH   3   4
ATOM      4  C   UNL     1      17.739 -37.490  -2.326  1.00  0.00     0.000 C 
BRANCH   4   5
ATOM      5  C   UNL     1      16.308 -38.031  -2.527  1.00  0.00     0.000 C 
BRANCH   5   6
ATOM      6  C   UNL     1      15.808 -38.995  -1.433  1.00  0.00     0.000 C 
BRANCH   6   7
ATOM      7  C   UNL     1      15.392 -38.321  -0.113  1.00  0.00     0.000 C 
BRANCH   7   8
ATOM      8  C   UNL     1      16.082 -38.941   1.112  1.00  0.00     0.000 C 
BRANCH   8   9
ATOM      9  C   UNL     1      17.566 -39.269   0.865  1.00  0.00     0.000 C 
BRANCH   9  10
ATOM     10  C   UNL     1      18.519 -38.931   2.029  1.00  0.00     0.000 C 
BRANCH  10  11
ATOM     11  C   UNL     1      17.807 -38.850   3.391  1.00  0.00     0.000 C 
BRANCH  11  12
ATOM     12  C   UNL     1      18.365 -39.876   4.401  1.00  0.00     0.000 C 
BRANCH  12  13
ATOM     13  C   UNL     1      19.883 -40.099   4.280  1.00  0.00     0.006 C 
BRANCH  13  14
ATOM     14  C   UNL     1      20.702 -38.993   4.956  1.00  0.00     0.053 C 
BRANCH  14  15
ATOM     15  C   UNL     1      21.552 -39.564   6.045  1.00  0.00     0.041 C 
ATOM     16  O   UNL     1      22.790 -39.334   6.067  1.00  0.00    -0.550 OA
ATOM     17  O   UNL     1      20.986 -40.382   7.015  1.00  0.00    -0.550 OA
ENDBRANCH  14  15
ENDBRANCH  13  14
ENDBRANCH  12  13
ENDBRANCH  11  12
ENDBRANCH  10  11
ENDBRANCH   9  10
ENDBRANCH   8   9
ENDBRANCH   7   8
ENDBRANCH   6   7
ENDBRANCH   5   6
ENDBRANCH   4   5
ENDBRANCH   3   4
ENDBRANCH   2   3
ENDBRANCH   1   2
BRANCH   1  18
ATOM     18  C   UNL     1      17.613 -34.884   0.302  1.00  0.00     0.000 C 
BRANCH  18  19
ATOM     19  C   UNL     1      17.244 -35.382   1.710  1.00  0.00     0.000 C 
BRANCH  19  20
ATOM     20  C   UNL     1      15.722 -35.372   1.960  1.00  0.00     0.000 C 
BRANCH  20  21
ATOM     21  C   UNL     1      15.331 -35.438   3.448  1.00  0.00     0.000 C 
BRANCH  21  22
ATOM     22  C   UNL     1      16.508 -35.555   4.436  1.00  0.00     0.000 C 
BRANCH  22  23
ATOM     23  C   UNL     1      16.288 -34.870   5.802  1.00  0.00     0.000 C 
BRANCH  23  24
ATOM     24  C   UNL     1      16.940 -35.597   6.994  1.00  0.00    -0.000 C 
BRANCH  24  25
ATOM     25  C   UNL     1      17.835 -36.769   6.553  1.00  0.00    -0.000 C 
BRANCH  25  26
ATOM     26  C   UNL     1      18.772 -37.255   7.673  1.00  0.00    -0.000 C 
BRANCH  26  27
ATOM     27  C   UNL     1      20.167 -36.601   7.684  1.00  0.00    -0.000 C 
BRANCH  27  28
ATOM     28  C   UNL     1      20.763 -36.418   9.097  1.00  0.00    -0.000 C 
BRANCH  28  29
ATOM     29  C   UNL     1      20.375 -35.069   9.729  1.00  0.00    -0.000 C 
BRANCH  29  30
ATOM     30  C   UNL     1      20.715 -33.873   8.815  1.00  0.00    -0.000 C 
BRANCH  30  31
ATOM     31  C   UNL     1      19.480 -33.086   8.345  1.00  0.00    -0.003 C 
ATOM     32  C   UNL     1      18.428 -32.911   9.439  1.00  0.00     0.004 C 
ENDBRANCH  30  31
ENDBRANCH  29  30
ENDBRANCH  28  29
ENDBRANCH  27  28
ENDBRANCH  26  27
ENDBRANCH  25  26
ENDBRANCH  24  25
ENDBRANCH  23  24
ENDBRANCH  22  23
ENDBRANCH  21  22
ENDBRANCH  20  21
ENDBRANCH  19  20
ENDBRANCH  18  19
ENDBRANCH   1  18
TORSDOF 28
ENDMDL
MODEL 8
REMARK VINA RESULT:    -3.481      1.955      2.696
REMARK INTER + INTRA:         -14.804
REMARK INTER:                 -10.409
REMARK INTRA:                  -4.395
REMARK UNBOUND:                -5.626
REMARK SMILES CCCCCCCCCCCCCCCCCCCCCCCCCCCCCC(=O)[O-]
REMARK SMILES IDX 16 1 17 2 18 3 19 4 20 5 21 6 22 7 23 8 24 9 25 10 26 11
REMARK SMILES IDX 27 12 28 13 29 14 30 15 31 16 32 17 15 18 14 19 13 20 12 21
REMARK SMILES IDX 11 22 10 23 9 24 8 25 7 26 6 27 5 28 4 29 3 30 2 31 1 32
REMARK H PARENT
REMARK Flexibility Score: inf
ROOT
ATOM      1  C   UNL     1      13.848 -34.507  -1.212  1.00  0.00     0.000 C 
ENDROOT
BRANCH   1   2
ATOM      2  C   UNL     1      14.788 -33.302  -1.034  1.00  0.00     0.000 C 
BRANCH   2   3
ATOM      3  C   UNL     1      15.756 -33.120  -2.216  1.00  0.00     0.000 C 
BRANCH   3   4
ATOM      4  C   UNL     1      17.166 -33.705  -1.995  1.00  0.00     0.000 C 
BRANCH   4   5
ATOM      5  C   UNL     1      17.375 -34.427  -0.648  1.00  0.00     0.000 C 
BRANCH   5   6
ATOM      6  C   UNL     1      17.493 -35.961  -0.732  1.00  0.00     0.000 C 
BRANCH   6   7
ATOM      7  C   UNL     1      17.848 -36.510  -2.126  1.00  0.00     0.000 C 
BRANCH   7   8
ATOM      8  C   UNL     1      16.990 -37.722  -2.522  1.00  0.00     0.000 C 
BRANCH   8   9
ATOM      9  C   UNL     1      15.498 -37.537  -2.187  1.00  0.00     0.000 C 
BRANCH   9  10
ATOM     10  C   UNL     1      14.658 -38.830  -2.186  1.00  0.00     0.000 C 
BRANCH  10  11
ATOM     11  C   UNL     1      14.865 -39.686  -0.924  1.00  0.00     0.000 C 
BRANCH  11  12
ATOM     12  C   UNL     1      14.864 -38.834   0.364  1.00  0.00     0.000 C 
BRANCH  12  13
ATOM     13  C   UNL     1      15.946 -39.246   1.378  1.00  0.00     0.006 C 
BRANCH  13  14
ATOM     14  C   UNL     1      17.160 -39.906   0.715  1.00  0.00     0.053 C 
BRANCH  14  15
ATOM     15  C   UNL     1      18.372 -39.044   0.865  1.00  0.00     0.041 C 
ATOM     16  O   UNL     1      18.517 -38.330   1.893  1.00  0.00    -0.550 OA
ATOM     17  O   UNL     1      19.324 -38.997  -0.146  1.00  0.00    -0.550 OA
ENDBRANCH  14  15
ENDBRANCH  13  14
ENDBRANCH  12  13
ENDBRANCH  11  12
ENDBRANCH  10  11
ENDBRANCH   9  10
ENDBRANCH   8   9
ENDBRANCH   7   8
ENDBRANCH   6   7
ENDBRANCH   5   6
ENDBRANCH   4   5
ENDBRANCH   3   4
ENDBRANCH   2   3
ENDBRANCH   1   2
BRANCH   1  18
ATOM     18  C   UNL     1      13.590 -35.247   0.113  1.00  0.00     0.000 C 
BRANCH  18  19
ATOM     19  C   UNL     1      14.373 -34.636   1.288  1.00  0.00     0.000 C 
BRANCH  19  20
ATOM     20  C   UNL     1      14.940 -35.708   2.241  1.00  0.00     0.000 C 
BRANCH  20  21
ATOM     21  C   UNL     1      16.333 -35.371   2.805  1.00  0.00     0.000 C 
BRANCH  21  22
ATOM     22  C   UNL     1      16.538 -35.692   4.299  1.00  0.00     0.000 C 
BRANCH  22  23
ATOM     23  C   UNL     1      16.709 -37.189   4.630  1.00  0.00     0.000 C 
BRANCH  23  24
ATOM     24  C   UNL     1      16.856 -37.499   6.133  1.00  0.00    -0.000 C 
BRANCH  24  25
ATOM     25  C   UNL     1      18.049 -36.766   6.773  1.00  0.00    -0.000 C 
BRANCH  25  26
ATOM     26  C   UNL     1      19.159 -37.727   7.233  1.00  0.00    -0.000 C 
BRANCH  26  27
ATOM     27  C   UNL     1      20.504 -37.054   7.569  1.00  0.00    -0.000 C 
BRANCH  27  28
ATOM     28  C   UNL     1      20.489 -36.243   8.883  1.00  0.00    -0.000 C 
BRANCH  28  29
ATOM     29  C   UNL     1      20.576 -34.726   8.640  1.00  0.00    -0.000 C 
BRANCH  29  30
ATOM     30  C   UNL     1      19.220 -34.019   8.854  1.00  0.00    -0.000 C 
BRANCH  30  31
ATOM     31  C   UNL     1      19.164 -32.601   8.260  1.00  0.00    -0.003 C 
ATOM     32  C   UNL     1      17.936 -31.811   8.711  1.00  0.00     0.004 C 
ENDBRANCH  30  31
ENDBRANCH  29  30
ENDBRANCH  28  29
ENDBRANCH  27  28
ENDBRANCH  26  27
ENDBRANCH  25  26
ENDBRANCH  24  25
ENDBRANCH  23  24
ENDBRANCH  22  23
ENDBRANCH  21  22
ENDBRANCH  20  21
ENDBRANCH  19  20
ENDBRANCH  18  19
ENDBRANCH   1  18
TORSDOF 28
ENDMDL
MODEL 9
REMARK VINA RESULT:    -3.449      1.780      7.089
REMARK INTER + INTRA:         -14.721
REMARK INTER:                  -9.582
REMARK INTRA:                  -5.140
REMARK UNBOUND:                -5.626
REMARK SMILES CCCCCCCCCCCCCCCCCCCCCCCCCCCCCC(=O)[O-]
REMARK SMILES IDX 16 1 17 2 18 3 19 4 20 5 21 6 22 7 23 8 24 9 25 10 26 11
REMARK SMILES IDX 27 12 28 13 29 14 30 15 31 16 32 17 15 18 14 19 13 20 12 21
REMARK SMILES IDX 11 22 10 23 9 24 8 25 7 26 6 27 5 28 4 29 3 30 2 31 1 32
REMARK H PARENT
REMARK Flexibility Score: inf
ROOT
ATOM      1  C   UNL     1      17.060 -36.329  -2.142  1.00  0.00     0.000 C 
ENDROOT
BRANCH   1   2
ATOM      2  C   UNL     1      18.121 -37.438  -2.040  1.00  0.00     0.000 C 
BRANCH   2   3
ATOM      3  C   UNL     1      18.076 -38.187  -0.696  1.00  0.00     0.000 C 
BRANCH   3   4
ATOM      4  C   UNL     1      18.517 -37.355   0.525  1.00  0.00     0.000 C 
BRANCH   4   5
ATOM      5  C   UNL     1      17.405 -37.048   1.548  1.00  0.00     0.000 C 
BRANCH   5   6
ATOM      6  C   UNL     1      17.088 -35.553   1.750  1.00  0.00     0.000 C 
BRANCH   6   7
ATOM      7  C   UNL     1      16.654 -35.167   3.175  1.00  0.00     0.000 C 
BRANCH   7   8
ATOM      8  C   UNL     1      16.246 -36.383   4.021  1.00  0.00     0.000 C 
BRANCH   8   9
ATOM      9  C   UNL     1      16.960 -36.434   5.385  1.00  0.00     0.000 C 
BRANCH   9  10
ATOM     10  C   UNL     1      16.535 -37.592   6.309  1.00  0.00     0.000 C 
BRANCH  10  11
ATOM     11  C   UNL     1      17.004 -38.970   5.809  1.00  0.00     0.000 C 
BRANCH  11  12
ATOM     12  C   UNL     1      18.475 -38.949   5.339  1.00  0.00     0.000 C 
BRANCH  12  13
ATOM     13  C   UNL     1      18.685 -39.553   3.939  1.00  0.00     0.006 C 
BRANCH  13  14
ATOM     14  C   UNL     1      17.448 -40.298   3.423  1.00  0.00     0.053 C 
BRANCH  14  15
ATOM     15  C   UNL     1      17.672 -40.775   2.024  1.00  0.00     0.041 C 
ATOM     16  O   UNL     1      16.716 -40.802   1.204  1.00  0.00    -0.550 OA
ATOM     17  O   UNL     1      18.928 -41.226   1.634  1.00  0.00    -0.550 OA
ENDBRANCH  14  15
ENDBRANCH  13  14
ENDBRANCH  12  13
ENDBRANCH  11  12
ENDBRANCH  10  11
ENDBRANCH   9  10
ENDBRANCH   8   9
ENDBRANCH   7   8
ENDBRANCH   6   7
ENDBRANCH   5   6
ENDBRANCH   4   5
ENDBRANCH   3   4
ENDBRANCH   2   3
ENDBRANCH   1   2
BRANCH   1  18
ATOM     18  C   UNL     1      17.681 -34.922  -2.106  1.00  0.00     0.000 C 
BRANCH  18  19
ATOM     19  C   UNL     1      16.815 -33.919  -1.325  1.00  0.00     0.000 C 
BRANCH  19  20
ATOM     20  C   UNL     1      16.020 -32.976  -2.252  1.00  0.00     0.000 C 
BRANCH  20  21
ATOM     21  C   UNL     1      14.695 -32.475  -1.649  1.00  0.00     0.000 C 
BRANCH  21  22
ATOM     22  C   UNL     1      13.678 -33.573  -1.282  1.00  0.00     0.000 C 
BRANCH  22  23
ATOM     23  C   UNL     1      13.383 -34.595  -2.401  1.00  0.00     0.000 C 
BRANCH  23  24
ATOM     24  C   UNL     1      13.503 -36.069  -1.969  1.00  0.00    -0.000 C 
BRANCH  24  25
ATOM     25  C   UNL     1      13.733 -36.224  -0.455  1.00  0.00    -0.000 C 
BRANCH  25  26
ATOM     26  C   UNL     1      14.335 -37.589  -0.081  1.00  0.00    -0.000 C 
BRANCH  26  27
ATOM     27  C   UNL     1      13.746 -38.791  -0.845  1.00  0.00    -0.000 C 
BRANCH  27  28
ATOM     28  C   UNL     1      14.796 -39.625  -1.610  1.00  0.00    -0.000 C 
BRANCH  28  29
ATOM     29  C   UNL     1      14.625 -39.532  -3.136  1.00  0.00    -0.000 C 
BRANCH  29  30
ATOM     30  C   UNL     1      15.952 -39.762  -3.890  1.00  0.00    -0.000 C 
BRANCH  30  31
ATOM     31  C   UNL     1      15.882 -40.892  -4.931  1.00  0.00    -0.003 C 
ATOM     32  C   UNL     1      15.123 -40.496  -6.197  1.00  0.00     0.004 C 
ENDBRANCH  30  31
ENDBRANCH  29  30
ENDBRANCH  28  29
ENDBRANCH  27  28
ENDBRANCH  26  27
ENDBRANCH  25  26
ENDBRANCH  24  25
ENDBRANCH  23  24
ENDBRANCH  22  23
ENDBRANCH  21  22
ENDBRANCH  20  21
ENDBRANCH  19  20
ENDBRANCH  18  19
ENDBRANCH   1  18
TORSDOF 28
ENDMDL
