MODEL 1
REMARK VINA RESULT:    -2.907      0.000      0.000
REMARK INTER + INTRA:          -7.038
REMARK INTER:                  -5.286
REMARK INTRA:                  -1.752
REMARK UNBOUND:                -1.752
REMARK SMILES CCCCCCCCCCCCCCCC(=O)[O-]
REMARK SMILES IDX 9 1 10 2 11 3 12 4 13 5 14 6 15 7 16 8 17 9 18 10 8 11 7 12
REMARK SMILES IDX 6 13 5 14 4 15 3 16 2 17 1 18
REMARK H PARENT
REMARK Flexibility Score: inf
ROOT
ATOM      1  C   UNL     1      13.985  38.375   7.848  1.00  0.00     0.000 C 
ENDROOT
BRANCH   1   2
ATOM      2  C   UNL     1      14.112  39.052   9.224  1.00  0.00     0.000 C 
BRANCH   2   3
ATOM      3  C   UNL     1      14.979  38.247  10.210  1.00  0.00     0.000 C 
BRANCH   3   4
ATOM      4  C   UNL     1      16.035  39.071  10.970  1.00  0.00     0.000 C 
BRANCH   4   5
ATOM      5  C   UNL     1      15.732  39.188  12.474  1.00  0.00     0.000 C 
BRANCH   5   6
ATOM      6  C   UNL     1      15.503  37.820  13.143  1.00  0.00     0.006 C 
BRANCH   6   7
ATOM      7  C   UNL     1      16.795  37.054  13.470  1.00  0.00     0.053 C 
BRANCH   7   8
ATOM      8  C   UNL     1      16.761  35.649  12.951  1.00  0.00     0.041 C 
ATOM      9  O   UNL     1      16.682  34.680  13.751  1.00  0.00    -0.550 OA
ATOM     10  O   UNL     1      16.851  35.408  11.586  1.00  0.00    -0.550 OA
ENDBRANCH   7   8
ENDBRANCH   6   7
ENDBRANCH   5   6
ENDBRANCH   4   5
ENDBRANCH   3   4
ENDBRANCH   2   3
ENDBRANCH   1   2
BRANCH   1  11
ATOM     11  C   UNL     1      14.819  39.081   6.765  1.00  0.00     0.000 C 
BRANCH  11  12
ATOM     12  C   UNL     1      16.320  38.761   6.876  1.00  0.00    -0.000 C 
BRANCH  12  13
ATOM     13  C   UNL     1      17.114  39.891   7.552  1.00  0.00    -0.000 C 
BRANCH  13  14
ATOM     14  C   UNL     1      17.111  41.191   6.729  1.00  0.00    -0.000 C 
BRANCH  14  15
ATOM     15  C   UNL     1      16.837  42.433   7.593  1.00  0.00    -0.000 C 
BRANCH  15  16
ATOM     16  C   UNL     1      15.451  42.393   8.259  1.00  0.00    -0.000 C 
BRANCH  16  17
ATOM     17  C   UNL     1      15.405  43.193   9.570  1.00  0.00    -0.003 C 
ATOM     18  C   UNL     1      16.607  42.917  10.473  1.00  0.00     0.004 C 
ENDBRANCH  16  17
ENDBRANCH  15  16
ENDBRANCH  14  15
ENDBRANCH  13  14
ENDBRANCH  12  13
ENDBRANCH  11  12
ENDBRANCH   1  11
TORSDOF 14
ENDMDL
MODEL 2
REMARK VINA RESULT:    -2.660      2.218      2.740
REMARK INTER + INTRA:          -6.589
REMARK INTER:                  -5.366
REMARK INTRA:                  -1.224
REMARK UNBOUND:                -1.752
REMARK SMILES CCCCCCCCCCCCCCCC(=O)[O-]
REMARK SMILES IDX 9 1 10 2 11 3 12 4 13 5 14 6 15 7 16 8 17 9 18 10 8 11 7 12
REMARK SMILES IDX 6 13 5 14 4 15 3 16 2 17 1 18
REMARK H PARENT
REMARK Flexibility Score: inf
ROOT
ATOM      1  C   UNL     1      14.226  38.941   9.307  1.00  0.00     0.000 C 
ENDROOT
BRANCH   1   2
ATOM      2  C   UNL     1      14.533  37.928  10.424  1.00  0.00     0.000 C 
BRANCH   2   3
ATOM      3  C   UNL     1      15.944  38.098  11.016  1.00  0.00     0.000 C 
BRANCH   3   4
ATOM      4  C   UNL     1      16.665  36.784  11.369  1.00  0.00     0.000 C 
BRANCH   4   5
ATOM      5  C   UNL     1      16.484  36.379  12.842  1.00  0.00     0.000 C 
BRANCH   5   6
ATOM      6  C   UNL     1      16.062  37.560  13.736  1.00  0.00     0.006 C 
BRANCH   6   7
ATOM      7  C   UNL     1      14.575  37.557  14.123  1.00  0.00     0.053 C 
BRANCH   7   8
ATOM      8  C   UNL     1      13.965  38.922  14.025  1.00  0.00     0.041 C 
ATOM      9  O   UNL     1      12.714  39.060  14.040  1.00  0.00    -0.550 OA
ATOM     10  O   UNL     1      14.778  40.039  13.880  1.00  0.00    -0.550 OA
ENDBRANCH   7   8
ENDBRANCH   6   7
ENDBRANCH   5   6
ENDBRANCH   4   5
ENDBRANCH   3   4
ENDBRANCH   2   3
ENDBRANCH   1   2
BRANCH   1  11
ATOM     11  C   UNL     1      13.843  38.259   7.983  1.00  0.00     0.000 C 
BRANCH  11  12
ATOM     12  C   UNL     1      14.735  38.704   6.811  1.00  0.00    -0.000 C 
BRANCH  12  13
ATOM     13  C   UNL     1      15.230  40.152   6.965  1.00  0.00    -0.000 C 
BRANCH  13  14
ATOM     14  C   UNL     1      16.735  40.233   7.278  1.00  0.00    -0.000 C 
BRANCH  14  15
ATOM     15  C   UNL     1      17.125  41.562   7.947  1.00  0.00    -0.000 C 
BRANCH  15  16
ATOM     16  C   UNL     1      16.739  41.607   9.435  1.00  0.00    -0.000 C 
BRANCH  16  17
ATOM     17  C   UNL     1      16.824  43.024  10.022  1.00  0.00    -0.003 C 
ATOM     18  C   UNL     1      17.111  44.086   8.961  1.00  0.00     0.004 C 
ENDBRANCH  16  17
ENDBRANCH  15  16
ENDBRANCH  14  15
ENDBRANCH  13  14
ENDBRANCH  12  13
ENDBRANCH  11  12
ENDBRANCH   1  11
TORSDOF 14
ENDMDL
MODEL 3
REMARK VINA RESULT:    -2.547      2.981      6.443
REMARK INTER + INTRA:          -6.384
REMARK INTER:                  -5.457
REMARK INTRA:                  -0.927
REMARK UNBOUND:                -1.752
REMARK SMILES CCCCCCCCCCCCCCCC(=O)[O-]
REMARK SMILES IDX 9 1 10 2 11 3 12 4 13 5 14 6 15 7 16 8 17 9 18 10 8 11 7 12
REMARK SMILES IDX 6 13 5 14 4 15 3 16 2 17 1 18
REMARK H PARENT
REMARK Flexibility Score: inf
ROOT
ATOM      1  C   UNL     1      13.842  38.382   7.932  1.00  0.00     0.000 C 
ENDROOT
BRANCH   1   2
ATOM      2  C   UNL     1      14.525  38.767   6.608  1.00  0.00     0.000 C 
BRANCH   2   3
ATOM      3  C   UNL     1      16.019  38.397   6.575  1.00  0.00     0.000 C 
BRANCH   3   4
ATOM      4  C   UNL     1      16.987  39.579   6.767  1.00  0.00     0.000 C 
BRANCH   4   5
ATOM      5  C   UNL     1      16.288  40.946   6.668  1.00  0.00     0.000 C 
BRANCH   5   6
ATOM      6  C   UNL     1      17.125  42.087   7.277  1.00  0.00     0.006 C 
BRANCH   6   7
ATOM      7  C   UNL     1      17.125  42.118   8.813  1.00  0.00     0.053 C 
BRANCH   7   8
ATOM      8  C   UNL     1      15.863  42.708   9.364  1.00  0.00     0.041 C 
ATOM      9  O   UNL     1      15.853  43.226  10.512  1.00  0.00    -0.550 OA
ATOM     10  O   UNL     1      14.689  42.656   8.623  1.00  0.00    -0.550 OA
ENDBRANCH   7   8
ENDBRANCH   6   7
ENDBRANCH   5   6
ENDBRANCH   4   5
ENDBRANCH   3   4
ENDBRANCH   2   3
ENDBRANCH   1   2
BRANCH   1  11
ATOM     11  C   UNL     1      14.698  38.734   9.160  1.00  0.00     0.000 C 
BRANCH  11  12
ATOM     12  C   UNL     1      14.178  38.076  10.450  1.00  0.00    -0.000 C 
BRANCH  12  13
ATOM     13  C   UNL     1      14.838  38.653  11.713  1.00  0.00    -0.000 C 
BRANCH  13  14
ATOM     14  C   UNL     1      14.130  38.212  13.006  1.00  0.00    -0.000 C 
BRANCH  14  15
ATOM     15  C   UNL     1      15.044  37.386  13.926  1.00  0.00    -0.000 C 
BRANCH  15  16
ATOM     16  C   UNL     1      16.502  37.357  13.435  1.00  0.00    -0.000 C 
BRANCH  16  17
ATOM     17  C   UNL     1      17.004  35.930  13.168  1.00  0.00    -0.003 C 
ATOM     18  C   UNL     1      16.574  35.399  11.801  1.00  0.00     0.004 C 
ENDBRANCH  16  17
ENDBRANCH  15  16
ENDBRANCH  14  15
ENDBRANCH  13  14
ENDBRANCH  12  13
ENDBRANCH  11  12
ENDBRANCH   1  11
TORSDOF 14
ENDMDL
MODEL 4
REMARK VINA RESULT:    -2.414      3.230      5.217
REMARK INTER + INTRA:          -6.142
REMARK INTER:                  -4.307
REMARK INTRA:                  -1.835
REMARK UNBOUND:                -1.752
REMARK SMILES CCCCCCCCCCCCCCCC(=O)[O-]
REMARK SMILES IDX 9 1 10 2 11 3 12 4 13 5 14 6 15 7 16 8 17 9 18 10 8 11 7 12
REMARK SMILES IDX 6 13 5 14 4 15 3 16 2 17 1 18
REMARK H PARENT
REMARK Flexibility Score: inf
ROOT
ATOM      1  C   UNL     1      15.016  42.076   7.923  1.00  0.00     0.000 C 
ENDROOT
BRANCH   1   2
ATOM      2  C   UNL     1      16.283  42.667   8.564  1.00  0.00     0.000 C 
BRANCH   2   3
ATOM      3  C   UNL     1      16.029  43.251   9.966  1.00  0.00     0.000 C 
BRANCH   3   4
ATOM      4  C   UNL     1      17.070  42.862  11.031  1.00  0.00     0.000 C 
BRANCH   4   5
ATOM      5  C   UNL     1      16.919  41.409  11.513  1.00  0.00     0.000 C 
BRANCH   5   6
ATOM      6  C   UNL     1      16.969  41.283  13.048  1.00  0.00     0.006 C 
BRANCH   6   7
ATOM      7  C   UNL     1      16.611  42.577  13.798  1.00  0.00     0.053 C 
BRANCH   7   8
ATOM      8  C   UNL     1      15.135  42.708  14.018  1.00  0.00     0.041 C 
ATOM      9  O   UNL     1      14.416  41.680  14.125  1.00  0.00    -0.550 OA
ATOM     10  O   UNL     1      14.548  43.966  14.070  1.00  0.00    -0.550 OA
ENDBRANCH   7   8
ENDBRANCH   6   7
ENDBRANCH   5   6
ENDBRANCH   4   5
ENDBRANCH   3   4
ENDBRANCH   2   3
ENDBRANCH   1   2
BRANCH   1  11
ATOM     11  C   UNL     1      15.235  40.649   7.393  1.00  0.00     0.000 C 
BRANCH  11  12
ATOM     12  C   UNL     1      16.495  39.989   7.979  1.00  0.00    -0.000 C 
BRANCH  12  13
ATOM     13  C   UNL     1      16.163  38.924   9.038  1.00  0.00    -0.000 C 
BRANCH  13  14
ATOM     14  C   UNL     1      14.652  38.794   9.295  1.00  0.00    -0.000 C 
BRANCH  14  15
ATOM     15  C   UNL     1      14.337  37.944  10.537  1.00  0.00    -0.000 C 
BRANCH  15  16
ATOM     16  C   UNL     1      15.562  37.758  11.449  1.00  0.00    -0.000 C 
BRANCH  16  17
ATOM     17  C   UNL     1      15.213  37.904  12.938  1.00  0.00    -0.003 C 
ATOM     18  C   UNL     1      13.764  38.333  13.166  1.00  0.00     0.004 C 
ENDBRANCH  16  17
ENDBRANCH  15  16
ENDBRANCH  14  15
ENDBRANCH  13  14
ENDBRANCH  12  13
ENDBRANCH  11  12
ENDBRANCH   1  11
TORSDOF 14
ENDMDL
MODEL 5
REMARK VINA RESULT:    -2.211      2.702      5.596
REMARK INTER + INTRA:          -5.773
REMARK INTER:                  -4.255
REMARK INTRA:                  -1.518
REMARK UNBOUND:                -1.752
REMARK SMILES CCCCCCCCCCCCCCCC(=O)[O-]
REMARK SMILES IDX 9 1 10 2 11 3 12 4 13 5 14 6 15 7 16 8 17 9 18 10 8 11 7 12
REMARK SMILES IDX 6 13 5 14 4 15 3 16 2 17 1 18
REMARK H PARENT
REMARK Flexibility Score: inf
ROOT
ATOM      1  C   UNL     1      13.748  38.398   7.955  1.00  0.00     0.000 C 
ENDROOT
BRANCH   1   2
ATOM      2  C   UNL     1      14.839  38.871   6.978  1.00  0.00     0.000 C 
BRANCH   2   3
ATOM      3  C   UNL     1      15.277  40.326   7.227  1.00  0.00     0.000 C 
BRANCH   3   4
ATOM      4  C   UNL     1      16.707  40.491   7.772  1.00  0.00     0.000 C 
BRANCH   4   5
ATOM      5  C   UNL     1      16.913  41.821   8.517  1.00  0.00     0.000 C 
BRANCH   5   6
ATOM      6  C   UNL     1      17.125  41.629  10.031  1.00  0.00     0.006 C 
BRANCH   6   7
ATOM      7  C   UNL     1      16.575  42.775  10.894  1.00  0.00     0.053 C 
BRANCH   7   8
ATOM      8  C   UNL     1      16.500  42.401  12.343  1.00  0.00     0.041 C 
ATOM      9  O   UNL     1      16.795  41.233  12.712  1.00  0.00    -0.550 OA
ATOM     10  O   UNL     1      16.071  43.331  13.281  1.00  0.00    -0.550 OA
ENDBRANCH   7   8
ENDBRANCH   6   7
ENDBRANCH   5   6
ENDBRANCH   4   5
ENDBRANCH   3   4
ENDBRANCH   2   3
ENDBRANCH   1   2
BRANCH   1  11
ATOM     11  C   UNL     1      14.332  37.738   9.215  1.00  0.00     0.000 C 
BRANCH  11  12
ATOM     12  C   UNL     1      14.515  38.736  10.372  1.00  0.00    -0.000 C 
BRANCH  12  13
ATOM     13  C   UNL     1      15.814  38.494  11.158  1.00  0.00    -0.000 C 
BRANCH  13  14
ATOM     14  C   UNL     1      15.956  37.037  11.634  1.00  0.00    -0.000 C 
BRANCH  14  15
ATOM     15  C   UNL     1      15.949  36.915  13.166  1.00  0.00    -0.000 C 
BRANCH  15  16
ATOM     16  C   UNL     1      15.269  38.114  13.850  1.00  0.00    -0.000 C 
BRANCH  16  17
ATOM     17  C   UNL     1      13.772  37.877  14.100  1.00  0.00    -0.003 C 
ATOM     18  C   UNL     1      12.928  39.129  13.860  1.00  0.00     0.004 C 
ENDBRANCH  16  17
ENDBRANCH  15  16
ENDBRANCH  14  15
ENDBRANCH  13  14
ENDBRANCH  12  13
ENDBRANCH  11  12
ENDBRANCH   1  11
TORSDOF 14
ENDMDL
MODEL 6
REMARK VINA RESULT:    -2.104      2.302      4.173
REMARK INTER + INTRA:          -5.579
REMARK INTER:                  -4.132
REMARK INTRA:                  -1.447
REMARK UNBOUND:                -1.752
REMARK SMILES CCCCCCCCCCCCCCCC(=O)[O-]
REMARK SMILES IDX 9 1 10 2 11 3 12 4 13 5 14 6 15 7 16 8 17 9 18 10 8 11 7 12
REMARK SMILES IDX 6 13 5 14 4 15 3 16 2 17 1 18
REMARK H PARENT
REMARK Flexibility Score: inf
ROOT
ATOM      1  C   UNL     1      15.192  41.799   7.477  1.00  0.00     0.000 C 
ENDROOT
BRANCH   1   2
ATOM      2  C   UNL     1      16.524  41.370   6.839  1.00  0.00     0.000 C 
BRANCH   2   3
ATOM      3  C   UNL     1      16.805  39.864   6.994  1.00  0.00     0.000 C 
BRANCH   3   4
ATOM      4  C   UNL     1      16.463  39.277   8.375  1.00  0.00     0.000 C 
BRANCH   4   5
ATOM      5  C   UNL     1      15.034  38.712   8.448  1.00  0.00     0.000 C 
BRANCH   5   6
ATOM      6  C   UNL     1      14.466  38.711   9.880  1.00  0.00     0.006 C 
BRANCH   6   7
ATOM      7  C   UNL     1      15.353  37.992  10.908  1.00  0.00     0.053 C 
BRANCH   7   8
ATOM      8  C   UNL     1      14.977  38.340  12.316  1.00  0.00     0.041 C 
ATOM      9  O   UNL     1      15.870  38.594  13.166  1.00  0.00    -0.550 OA
ATOM     10  O   UNL     1      13.641  38.350  12.697  1.00  0.00    -0.550 OA
ENDBRANCH   7   8
ENDBRANCH   6   7
ENDBRANCH   5   6
ENDBRANCH   4   5
ENDBRANCH   3   4
ENDBRANCH   2   3
ENDBRANCH   1   2
BRANCH   1  11
ATOM     11  C   UNL     1      15.382  42.835   8.597  1.00  0.00     0.000 C 
BRANCH  11  12
ATOM     12  C   UNL     1      16.864  43.080   8.929  1.00  0.00    -0.000 C 
BRANCH  12  13
ATOM     13  C   UNL     1      17.125  43.154  10.442  1.00  0.00    -0.000 C 
BRANCH  13  14
ATOM     14  C   UNL     1      16.881  41.812  11.152  1.00  0.00    -0.000 C 
BRANCH  14  15
ATOM     15  C   UNL     1      17.097  41.902  12.672  1.00  0.00    -0.000 C 
BRANCH  15  16
ATOM     16  C   UNL     1      15.778  42.074  13.445  1.00  0.00    -0.000 C 
BRANCH  16  17
ATOM     17  C   UNL     1      15.649  43.463  14.087  1.00  0.00    -0.003 C 
ATOM     18  C   UNL     1      14.213  43.985  14.082  1.00  0.00     0.004 C 
ENDBRANCH  16  17
ENDBRANCH  15  16
ENDBRANCH  14  15
ENDBRANCH  13  14
ENDBRANCH  12  13
ENDBRANCH  11  12
ENDBRANCH   1  11
TORSDOF 14
ENDMDL
MODEL 7
REMARK VINA RESULT:    -0.157      1.541      4.295
REMARK INTER + INTRA:          -2.038
REMARK INTER:                  -1.004
REMARK INTRA:                  -1.034
REMARK UNBOUND:                -1.752
REMARK SMILES CCCCCCCCCCCCCCCC(=O)[O-]
REMARK SMILES IDX 9 1 10 2 11 3 12 4 13 5 14 6 15 7 16 8 17 9 18 10 8 11 7 12
REMARK SMILES IDX 6 13 5 14 4 15 3 16 2 17 1 18
REMARK H PARENT
REMARK Flexibility Score: inf
ROOT
ATOM      1  C   UNL     1      15.213  41.904   8.312  1.00  0.00     0.000 C 
ENDROOT
BRANCH   1   2
ATOM      2  C   UNL     1      15.884  41.345   7.045  1.00  0.00     0.000 C 
BRANCH   2   3
ATOM      3  C   UNL     1      16.343  39.884   7.205  1.00  0.00     0.000 C 
BRANCH   3   4
ATOM      4  C   UNL     1      15.229  38.832   7.053  1.00  0.00     0.000 C 
BRANCH   4   5
ATOM      5  C   UNL     1      14.222  38.855   8.215  1.00  0.00     0.000 C 
BRANCH   5   6
ATOM      6  C   UNL     1      14.905  38.851   9.595  1.00  0.00     0.006 C 
BRANCH   6   7
ATOM      7  C   UNL     1      14.527  37.654  10.481  1.00  0.00     0.053 C 
BRANCH   7   8
ATOM      8  C   UNL     1      15.731  37.005  11.093  1.00  0.00     0.041 C 
ATOM      9  O   UNL     1      15.679  35.808  11.479  1.00  0.00    -0.550 OA
ATOM     10  O   UNL     1      16.900  37.734  11.270  1.00  0.00    -0.550 OA
ENDBRANCH   7   8
ENDBRANCH   6   7
ENDBRANCH   5   6
ENDBRANCH   4   5
ENDBRANCH   3   4
ENDBRANCH   2   3
ENDBRANCH   1   2
BRANCH   1  11
ATOM     11  C   UNL     1      15.744  43.296   8.695  1.00  0.00     0.000 C 
BRANCH  11  12
ATOM     12  C   UNL     1      17.125  43.235   9.371  1.00  0.00    -0.000 C 
BRANCH  12  13
ATOM     13  C   UNL     1      17.102  42.441  10.687  1.00  0.00    -0.000 C 
BRANCH  13  14
ATOM     14  C   UNL     1      16.173  43.069  11.742  1.00  0.00    -0.000 C 
BRANCH  14  15
ATOM     15  C   UNL     1      15.991  42.170  12.975  1.00  0.00    -0.000 C 
BRANCH  15  16
ATOM     16  C   UNL     1      16.877  40.913  12.924  1.00  0.00    -0.000 C 
BRANCH  16  17
ATOM     17  C   UNL     1      16.366  39.795  13.847  1.00  0.00    -0.003 C 
ATOM     18  C   UNL     1      14.845  39.798  13.990  1.00  0.00     0.004 C 
ENDBRANCH  16  17
ENDBRANCH  15  16
ENDBRANCH  14  15
ENDBRANCH  13  14
ENDBRANCH  12  13
ENDBRANCH  11  12
ENDBRANCH   1  11
TORSDOF 14
ENDMDL
