MODEL 1
REMARK VINA RESULT:     4.315      0.000      0.000
REMARK INTER + INTRA:           9.489
REMARK INTER:                  10.874
REMARK INTRA:                  -1.384
REMARK UNBOUND:                -1.384
REMARK SMILES CCCCCCCCCCCCCCCCCCCCCCCCCCCC(=O)[O-]
REMARK SMILES IDX 15 1 16 2 17 3 18 4 19 5 20 6 21 7 22 8 23 9 24 10 25 11
REMARK SMILES IDX 26 12 27 13 28 14 29 15 30 16 14 17 13 18 12 19 11 20 10 21
REMARK SMILES IDX 9 22 8 23 7 24 6 25 5 26 4 27 3 28 2 29 1 30
REMARK H PARENT
REMARK Flexibility Score: inf
ROOT
ATOM      1  C   UNL     1     -30.262 -21.163 -34.593  1.00  0.00     0.000 C 
ENDROOT
BRANCH   1   2
ATOM      2  C   UNL     1     -31.278 -22.005 -35.385  1.00  0.00     0.000 C 
BRANCH   2   3
ATOM      3  C   UNL     1     -31.974 -23.078 -34.528  1.00  0.00     0.000 C 
BRANCH   3   4
ATOM      4  C   UNL     1     -33.513 -23.038 -34.552  1.00  0.00     0.000 C 
BRANCH   4   5
ATOM      5  C   UNL     1     -34.075 -21.813 -35.294  1.00  0.00     0.000 C 
BRANCH   5   6
ATOM      6  C   UNL     1     -33.827 -20.509 -34.517  1.00  0.00     0.000 C 
BRANCH   6   7
ATOM      7  C   UNL     1     -34.081 -19.261 -35.380  1.00  0.00     0.000 C 
BRANCH   7   8
ATOM      8  C   UNL     1     -33.231 -19.257 -36.662  1.00  0.00     0.000 C 
BRANCH   8   9
ATOM      9  C   UNL     1     -34.080 -19.001 -37.921  1.00  0.00     0.000 C 
BRANCH   9  10
ATOM     10  C   UNL     1     -33.627 -19.855 -39.124  1.00  0.00     0.000 C 
BRANCH  10  11
ATOM     11  C   UNL     1     -33.678 -21.374 -38.871  1.00  0.00     0.000 C 
BRANCH  11  12
ATOM     12  C   UNL     1     -32.462 -21.957 -38.124  1.00  0.00     0.006 C 
BRANCH  12  13
ATOM     13  C   UNL     1     -31.655 -22.986 -38.934  1.00  0.00     0.053 C 
BRANCH  13  14
ATOM     14  C   UNL     1     -31.803 -24.372 -38.387  1.00  0.00     0.041 C 
ATOM     15  O   UNL     1     -32.314 -25.280 -39.094  1.00  0.00    -0.550 OA
ATOM     16  O   UNL     1     -31.411 -24.653 -37.085  1.00  0.00    -0.550 OA
ENDBRANCH  13  14
ENDBRANCH  12  13
ENDBRANCH  11  12
ENDBRANCH  10  11
ENDBRANCH   9  10
ENDBRANCH   8   9
ENDBRANCH   7   8
ENDBRANCH   6   7
ENDBRANCH   5   6
ENDBRANCH   4   5
ENDBRANCH   3   4
ENDBRANCH   2   3
ENDBRANCH   1   2
BRANCH   1  17
ATOM     17  C   UNL     1     -30.817 -20.727 -33.226  1.00  0.00     0.000 C 
BRANCH  17  18
ATOM     18  C   UNL     1     -30.444 -19.274 -32.891  1.00  0.00     0.000 C 
BRANCH  18  19
ATOM     19  C   UNL     1     -29.050 -18.889 -33.419  1.00  0.00     0.000 C 
BRANCH  19  20
ATOM     20  C   UNL     1     -27.879 -19.468 -32.601  1.00  0.00     0.000 C 
BRANCH  20  21
ATOM     21  C   UNL     1     -27.716 -18.877 -31.186  1.00  0.00     0.000 C 
BRANCH  21  22
ATOM     22  C   UNL     1     -28.304 -19.765 -30.068  1.00  0.00    -0.000 C 
BRANCH  22  23
ATOM     23  C   UNL     1     -29.424 -19.056 -29.285  1.00  0.00    -0.000 C 
BRANCH  23  24
ATOM     24  C   UNL     1     -30.819 -19.322 -29.891  1.00  0.00    -0.000 C 
BRANCH  24  25
ATOM     25  C   UNL     1     -31.418 -20.679 -29.488  1.00  0.00    -0.000 C 
BRANCH  25  26
ATOM     26  C   UNL     1     -30.490 -21.491 -28.572  1.00  0.00    -0.000 C 
BRANCH  26  27
ATOM     27  C   UNL     1     -30.453 -22.988 -28.933  1.00  0.00    -0.000 C 
BRANCH  27  28
ATOM     28  C   UNL     1     -30.811 -23.315 -30.397  1.00  0.00    -0.000 C 
BRANCH  28  29
ATOM     29  C   UNL     1     -31.188 -24.784 -30.661  1.00  0.00    -0.003 C 
ATOM     30  C   UNL     1     -32.335 -25.273 -29.776  1.00  0.00     0.004 C 
ENDBRANCH  28  29
ENDBRANCH  27  28
ENDBRANCH  26  27
ENDBRANCH  25  26
ENDBRANCH  24  25
ENDBRANCH  23  24
ENDBRANCH  22  23
ENDBRANCH  21  22
ENDBRANCH  20  21
ENDBRANCH  19  20
ENDBRANCH  18  19
ENDBRANCH  17  18
ENDBRANCH   1  17
TORSDOF 26
ENDMDL
MODEL 2
REMARK VINA RESULT:     4.554      3.474      5.032
REMARK INTER + INTRA:          10.092
REMARK INTER:                  11.012
REMARK INTRA:                  -0.919
REMARK UNBOUND:                -1.384
REMARK SMILES CCCCCCCCCCCCCCCCCCCCCCCCCCCC(=O)[O-]
REMARK SMILES IDX 15 1 16 2 17 3 18 4 19 5 20 6 21 7 22 8 23 9 24 10 25 11
REMARK SMILES IDX 26 12 27 13 28 14 29 15 30 16 14 17 13 18 12 19 11 20 10 21
REMARK SMILES IDX 9 22 8 23 7 24 6 25 5 26 4 27 3 28 2 29 1 30
REMARK H PARENT
REMARK Flexibility Score: inf
ROOT
ATOM      1  C   UNL     1     -30.774 -19.022 -31.627  1.00  0.00     0.000 C 
ENDROOT
BRANCH   1   2
ATOM      2  C   UNL     1     -29.442 -19.648 -32.076  1.00  0.00     0.000 C 
BRANCH   2   3
ATOM      3  C   UNL     1     -29.627 -20.891 -32.965  1.00  0.00     0.000 C 
BRANCH   3   4
ATOM      4  C   UNL     1     -31.041 -21.501 -32.952  1.00  0.00     0.000 C 
BRANCH   4   5
ATOM      5  C   UNL     1     -31.581 -21.805 -34.360  1.00  0.00     0.000 C 
BRANCH   5   6
ATOM      6  C   UNL     1     -32.505 -20.689 -34.874  1.00  0.00     0.000 C 
BRANCH   6   7
ATOM      7  C   UNL     1     -33.694 -21.242 -35.677  1.00  0.00     0.000 C 
BRANCH   7   8
ATOM      8  C   UNL     1     -33.270 -21.760 -37.062  1.00  0.00     0.000 C 
BRANCH   8   9
ATOM      9  C   UNL     1     -31.779 -22.140 -37.109  1.00  0.00     0.000 C 
BRANCH   9  10
ATOM     10  C   UNL     1     -31.368 -22.763 -38.460  1.00  0.00     0.000 C 
BRANCH  10  11
ATOM     11  C   UNL     1     -32.432 -23.697 -39.070  1.00  0.00     0.000 C 
BRANCH  11  12
ATOM     12  C   UNL     1     -32.051 -25.190 -39.108  1.00  0.00     0.006 C 
BRANCH  12  13
ATOM     13  C   UNL     1     -32.778 -26.056 -38.065  1.00  0.00     0.053 C 
BRANCH  13  14
ATOM     14  C   UNL     1     -32.984 -27.459 -38.545  1.00  0.00     0.041 C 
ATOM     15  O   UNL     1     -34.125 -27.840 -38.915  1.00  0.00    -0.550 OA
ATOM     16  O   UNL     1     -31.923 -28.356 -38.552  1.00  0.00    -0.550 OA
ENDBRANCH  13  14
ENDBRANCH  12  13
ENDBRANCH  11  12
ENDBRANCH  10  11
ENDBRANCH   9  10
ENDBRANCH   8   9
ENDBRANCH   7   8
ENDBRANCH   6   7
ENDBRANCH   5   6
ENDBRANCH   4   5
ENDBRANCH   3   4
ENDBRANCH   2   3
ENDBRANCH   1   2
BRANCH   1  17
ATOM     17  C   UNL     1     -30.881 -18.936 -30.095  1.00  0.00     0.000 C 
BRANCH  17  18
ATOM     18  C   UNL     1     -31.836 -19.998 -29.524  1.00  0.00     0.000 C 
BRANCH  18  19
ATOM     19  C   UNL     1     -31.361 -21.433 -29.817  1.00  0.00     0.000 C 
BRANCH  19  20
ATOM     20  C   UNL     1     -29.939 -21.746 -29.313  1.00  0.00     0.000 C 
BRANCH  20  21
ATOM     21  C   UNL     1     -29.868 -22.378 -27.908  1.00  0.00     0.000 C 
BRANCH  21  22
ATOM     22  C   UNL     1     -28.659 -21.906 -27.073  1.00  0.00    -0.000 C 
BRANCH  22  23
ATOM     23  C   UNL     1     -27.905 -20.742 -27.740  1.00  0.00    -0.000 C 
BRANCH  23  24
ATOM     24  C   UNL     1     -26.562 -20.438 -27.041  1.00  0.00    -0.000 C 
BRANCH  24  25
ATOM     25  C   UNL     1     -26.709 -20.082 -25.553  1.00  0.00    -0.000 C 
BRANCH  25  26
ATOM     26  C   UNL     1     -25.369 -20.098 -24.800  1.00  0.00    -0.000 C 
BRANCH  26  27
ATOM     27  C   UNL     1     -25.541 -20.220 -23.275  1.00  0.00    -0.000 C 
BRANCH  27  28
ATOM     28  C   UNL     1     -26.890 -20.809 -22.816  1.00  0.00    -0.000 C 
BRANCH  28  29
ATOM     29  C   UNL     1     -26.855 -21.528 -21.455  1.00  0.00    -0.003 C 
ATOM     30  C   UNL     1     -28.122 -22.338 -21.177  1.00  0.00     0.004 C 
ENDBRANCH  28  29
ENDBRANCH  27  28
ENDBRANCH  26  27
ENDBRANCH  25  26
ENDBRANCH  24  25
ENDBRANCH  23  24
ENDBRANCH  22  23
ENDBRANCH  21  22
ENDBRANCH  20  21
ENDBRANCH  19  20
ENDBRANCH  18  19
ENDBRANCH  17  18
ENDBRANCH   1  17
TORSDOF 26
ENDMDL
MODEL 3
REMARK VINA RESULT:     4.692      1.270      2.134
REMARK INTER + INTRA:          10.438
REMARK INTER:                   8.450
REMARK INTRA:                   1.989
REMARK UNBOUND:                -1.384
REMARK SMILES CCCCCCCCCCCCCCCCCCCCCCCCCCCC(=O)[O-]
REMARK SMILES IDX 15 1 16 2 17 3 18 4 19 5 20 6 21 7 22 8 23 9 24 10 25 11
REMARK SMILES IDX 26 12 27 13 28 14 29 15 30 16 14 17 13 18 12 19 11 20 10 21
REMARK SMILES IDX 9 22 8 23 7 24 6 25 5 26 4 27 3 28 2 29 1 30
REMARK H PARENT
REMARK Flexibility Score: inf
ROOT
ATOM      1  C   UNL     1     -30.473 -20.671 -35.176  1.00  0.00     0.000 C 
ENDROOT
BRANCH   1   2
ATOM      2  C   UNL     1     -31.320 -21.642 -36.020  1.00  0.00     0.000 C 
BRANCH   2   3
ATOM      3  C   UNL     1     -31.517 -23.013 -35.349  1.00  0.00     0.000 C 
BRANCH   3   4
ATOM      4  C   UNL     1     -32.960 -23.327 -34.912  1.00  0.00     0.000 C 
BRANCH   4   5
ATOM      5  C   UNL     1     -33.962 -22.225 -35.296  1.00  0.00     0.000 C 
BRANCH   5   6
ATOM      6  C   UNL     1     -33.701 -20.919 -34.527  1.00  0.00     0.000 C 
BRANCH   6   7
ATOM      7  C   UNL     1     -34.106 -19.677 -35.337  1.00  0.00     0.000 C 
BRANCH   7   8
ATOM      8  C   UNL     1     -33.264 -19.515 -36.615  1.00  0.00     0.000 C 
BRANCH   8   9
ATOM      9  C   UNL     1     -34.124 -19.129 -37.832  1.00  0.00     0.000 C 
BRANCH   9  10
ATOM     10  C   UNL     1     -33.676 -19.845 -39.124  1.00  0.00     0.000 C 
BRANCH  10  11
ATOM     11  C   UNL     1     -33.939 -21.364 -39.124  1.00  0.00     0.000 C 
BRANCH  11  12
ATOM     12  C   UNL     1     -32.692 -22.246 -38.913  1.00  0.00     0.006 C 
BRANCH  12  13
ATOM     13  C   UNL     1     -32.946 -23.753 -39.081  1.00  0.00     0.053 C 
BRANCH  13  14
ATOM     14  C   UNL     1     -31.867 -24.578 -38.449  1.00  0.00     0.041 C 
ATOM     15  O   UNL     1     -30.704 -24.112 -38.328  1.00  0.00    -0.550 OA
ATOM     16  O   UNL     1     -32.137 -25.873 -38.027  1.00  0.00    -0.550 OA
ENDBRANCH  13  14
ENDBRANCH  12  13
ENDBRANCH  11  12
ENDBRANCH  10  11
ENDBRANCH   9  10
ENDBRANCH   8   9
ENDBRANCH   7   8
ENDBRANCH   6   7
ENDBRANCH   5   6
ENDBRANCH   4   5
ENDBRANCH   3   4
ENDBRANCH   2   3
ENDBRANCH   1   2
BRANCH   1  17
ATOM     17  C   UNL     1     -30.838 -20.739 -33.683  1.00  0.00     0.000 C 
BRANCH  17  18
ATOM     18  C   UNL     1     -30.475 -19.441 -32.943  1.00  0.00     0.000 C 
BRANCH  18  19
ATOM     19  C   UNL     1     -29.062 -18.940 -33.294  1.00  0.00     0.000 C 
BRANCH  19  20
ATOM     20  C   UNL     1     -27.946 -19.509 -32.396  1.00  0.00     0.000 C 
BRANCH  20  21
ATOM     21  C   UNL     1     -27.893 -18.923 -30.970  1.00  0.00     0.000 C 
BRANCH  21  22
ATOM     22  C   UNL     1     -29.002 -19.454 -30.037  1.00  0.00    -0.000 C 
BRANCH  22  23
ATOM     23  C   UNL     1     -30.387 -18.881 -30.389  1.00  0.00    -0.000 C 
BRANCH  23  24
ATOM     24  C   UNL     1     -31.478 -19.974 -30.434  1.00  0.00    -0.000 C 
BRANCH  24  25
ATOM     25  C   UNL     1     -31.367 -21.002 -29.296  1.00  0.00    -0.000 C 
BRANCH  25  26
ATOM     26  C   UNL     1     -30.305 -22.079 -29.567  1.00  0.00    -0.000 C 
BRANCH  26  27
ATOM     27  C   UNL     1     -29.607 -22.567 -28.284  1.00  0.00    -0.000 C 
BRANCH  27  28
ATOM     28  C   UNL     1     -28.569 -21.592 -27.694  1.00  0.00    -0.000 C 
BRANCH  28  29
ATOM     29  C   UNL     1     -28.395 -21.673 -26.167  1.00  0.00    -0.003 C 
ATOM     30  C   UNL     1     -27.636 -20.478 -25.590  1.00  0.00     0.004 C 
ENDBRANCH  28  29
ENDBRANCH  27  28
ENDBRANCH  26  27
ENDBRANCH  25  26
ENDBRANCH  24  25
ENDBRANCH  23  24
ENDBRANCH  22  23
ENDBRANCH  21  22
ENDBRANCH  20  21
ENDBRANCH  19  20
ENDBRANCH  18  19
ENDBRANCH  17  18
ENDBRANCH   1  17
TORSDOF 26
ENDMDL
MODEL 4
REMARK VINA RESULT:     5.243      5.164     10.505
REMARK INTER + INTRA:          11.828
REMARK INTER:                  12.002
REMARK INTRA:                  -0.174
REMARK UNBOUND:                -1.384
REMARK SMILES CCCCCCCCCCCCCCCCCCCCCCCCCCCC(=O)[O-]
REMARK SMILES IDX 15 1 16 2 17 3 18 4 19 5 20 6 21 7 22 8 23 9 24 10 25 11
REMARK SMILES IDX 26 12 27 13 28 14 29 15 30 16 14 17 13 18 12 19 11 20 10 21
REMARK SMILES IDX 9 22 8 23 7 24 6 25 5 26 4 27 3 28 2 29 1 30
REMARK H PARENT
REMARK Flexibility Score: inf
ROOT
ATOM      1  C   UNL     1     -28.292 -19.126 -31.515  1.00  0.00     0.000 C 
ENDROOT
BRANCH   1   2
ATOM      2  C   UNL     1     -29.333 -18.896 -30.404  1.00  0.00     0.000 C 
BRANCH   2   3
ATOM      3  C   UNL     1     -30.781 -18.879 -30.925  1.00  0.00     0.000 C 
BRANCH   3   4
ATOM      4  C   UNL     1     -31.641 -20.087 -30.510  1.00  0.00     0.000 C 
BRANCH   4   5
ATOM      5  C   UNL     1     -30.819 -21.370 -30.299  1.00  0.00     0.000 C 
BRANCH   5   6
ATOM      6  C   UNL     1     -30.591 -21.667 -28.807  1.00  0.00     0.000 C 
BRANCH   6   7
ATOM      7  C   UNL     1     -29.241 -21.126 -28.307  1.00  0.00     0.000 C 
BRANCH   7   8
ATOM      8  C   UNL     1     -28.739 -21.874 -27.060  1.00  0.00     0.000 C 
BRANCH   8   9
ATOM      9  C   UNL     1     -27.379 -21.343 -26.572  1.00  0.00     0.000 C 
BRANCH   9  10
ATOM     10  C   UNL     1     -27.509 -20.031 -25.770  1.00  0.00     0.000 C 
BRANCH  10  11
ATOM     11  C   UNL     1     -28.250 -20.187 -24.427  1.00  0.00     0.000 C 
BRANCH  11  12
ATOM     12  C   UNL     1     -28.194 -21.597 -23.806  1.00  0.00     0.006 C 
BRANCH  12  13
ATOM     13  C   UNL     1     -28.513 -21.640 -22.302  1.00  0.00     0.053 C 
BRANCH  13  14
ATOM     14  C   UNL     1     -27.301 -21.952 -21.480  1.00  0.00     0.041 C 
ATOM     15  O   UNL     1     -27.015 -23.146 -21.202  1.00  0.00    -0.550 OA
ATOM     16  O   UNL     1     -26.507 -20.923 -20.990  1.00  0.00    -0.550 OA
ENDBRANCH  13  14
ENDBRANCH  12  13
ENDBRANCH  11  12
ENDBRANCH  10  11
ENDBRANCH   9  10
ENDBRANCH   8   9
ENDBRANCH   7   8
ENDBRANCH   6   7
ENDBRANCH   5   6
ENDBRANCH   4   5
ENDBRANCH   3   4
ENDBRANCH   2   3
ENDBRANCH   1   2
BRANCH   1  17
ATOM     17  C   UNL     1     -28.937 -19.144 -32.911  1.00  0.00     0.000 C 
BRANCH  17  18
ATOM     18  C   UNL     1     -29.390 -20.556 -33.318  1.00  0.00     0.000 C 
BRANCH  18  19
ATOM     19  C   UNL     1     -30.714 -20.545 -34.105  1.00  0.00     0.000 C 
BRANCH  19  20
ATOM     20  C   UNL     1     -30.914 -21.763 -35.028  1.00  0.00     0.000 C 
BRANCH  20  21
ATOM     21  C   UNL     1     -32.122 -22.655 -34.678  1.00  0.00     0.000 C 
BRANCH  21  22
ATOM     22  C   UNL     1     -33.180 -22.738 -35.800  1.00  0.00    -0.000 C 
BRANCH  22  23
ATOM     23  C   UNL     1     -33.767 -21.359 -36.154  1.00  0.00    -0.000 C 
BRANCH  23  24
ATOM     24  C   UNL     1     -33.994 -21.193 -37.672  1.00  0.00    -0.000 C 
BRANCH  24  25
ATOM     25  C   UNL     1     -32.714 -21.359 -38.508  1.00  0.00    -0.000 C 
BRANCH  25  26
ATOM     26  C   UNL     1     -31.984 -22.680 -38.223  1.00  0.00    -0.000 C 
BRANCH  26  27
ATOM     27  C   UNL     1     -32.535 -23.858 -39.048  1.00  0.00    -0.000 C 
BRANCH  27  28
ATOM     28  C   UNL     1     -32.012 -25.247 -38.633  1.00  0.00    -0.000 C 
BRANCH  28  29
ATOM     29  C   UNL     1     -33.008 -26.403 -38.835  1.00  0.00    -0.003 C 
ATOM     30  C   UNL     1     -32.378 -27.778 -38.611  1.00  0.00     0.004 C 
ENDBRANCH  28  29
ENDBRANCH  27  28
ENDBRANCH  26  27
ENDBRANCH  25  26
ENDBRANCH  24  25
ENDBRANCH  23  24
ENDBRANCH  22  23
ENDBRANCH  21  22
ENDBRANCH  20  21
ENDBRANCH  19  20
ENDBRANCH  18  19
ENDBRANCH  17  18
ENDBRANCH   1  17
TORSDOF 26
ENDMDL
MODEL 5
REMARK VINA RESULT:     5.331      5.471     10.986
REMARK INTER + INTRA:          12.050
REMARK INTER:                  13.402
REMARK INTRA:                  -1.352
REMARK UNBOUND:                -1.384
REMARK SMILES CCCCCCCCCCCCCCCCCCCCCCCCCCCC(=O)[O-]
REMARK SMILES IDX 15 1 16 2 17 3 18 4 19 5 20 6 21 7 22 8 23 9 24 10 25 11
REMARK SMILES IDX 26 12 27 13 28 14 29 15 30 16 14 17 13 18 12 19 11 20 10 21
REMARK SMILES IDX 9 22 8 23 7 24 6 25 5 26 4 27 3 28 2 29 1 30
REMARK H PARENT
REMARK Flexibility Score: inf
ROOT
ATOM      1  C   UNL     1     -30.107 -19.503 -30.432  1.00  0.00     0.000 C 
ENDROOT
BRANCH   1   2
ATOM      2  C   UNL     1     -31.222 -20.502 -30.075  1.00  0.00     0.000 C 
BRANCH   2   3
ATOM      3  C   UNL     1     -30.911 -21.942 -30.523  1.00  0.00     0.000 C 
BRANCH   3   4
ATOM      4  C   UNL     1     -30.286 -22.844 -29.443  1.00  0.00     0.000 C 
BRANCH   4   5
ATOM      5  C   UNL     1     -30.280 -22.199 -28.046  1.00  0.00     0.000 C 
BRANCH   5   6
ATOM      6  C   UNL     1     -28.860 -22.111 -27.462  1.00  0.00     0.000 C 
BRANCH   6   7
ATOM      7  C   UNL     1     -28.193 -20.757 -27.760  1.00  0.00     0.000 C 
BRANCH   7   8
ATOM      8  C   UNL     1     -26.810 -20.631 -27.099  1.00  0.00     0.000 C 
BRANCH   8   9
ATOM      9  C   UNL     1     -26.910 -20.224 -25.618  1.00  0.00     0.000 C 
BRANCH   9  10
ATOM     10  C   UNL     1     -25.530 -19.937 -24.988  1.00  0.00     0.000 C 
BRANCH  10  11
ATOM     11  C   UNL     1     -25.402 -20.393 -23.521  1.00  0.00     0.000 C 
BRANCH  11  12
ATOM     12  C   UNL     1     -26.737 -20.643 -22.792  1.00  0.00     0.006 C 
BRANCH  12  13
ATOM     13  C   UNL     1     -26.587 -21.248 -21.386  1.00  0.00     0.053 C 
BRANCH  13  14
ATOM     14  C   UNL     1     -27.160 -22.629 -21.306  1.00  0.00     0.041 C 
ATOM     15  O   UNL     1     -26.413 -23.633 -21.447  1.00  0.00    -0.550 OA
ATOM     16  O   UNL     1     -28.523 -22.808 -21.110  1.00  0.00    -0.550 OA
ENDBRANCH  13  14
ENDBRANCH  12  13
ENDBRANCH  11  12
ENDBRANCH  10  11
ENDBRANCH   9  10
ENDBRANCH   8   9
ENDBRANCH   7   8
ENDBRANCH   6   7
ENDBRANCH   5   6
ENDBRANCH   4   5
ENDBRANCH   3   4
ENDBRANCH   2   3
ENDBRANCH   1   2
BRANCH   1  17
ATOM     17  C   UNL     1     -29.979 -19.304 -31.952  1.00  0.00     0.000 C 
BRANCH  17  18
ATOM     18  C   UNL     1     -31.341 -19.040 -32.615  1.00  0.00     0.000 C 
BRANCH  18  19
ATOM     19  C   UNL     1     -31.988 -20.327 -33.160  1.00  0.00     0.000 C 
BRANCH  19  20
ATOM     20  C   UNL     1     -31.053 -21.187 -34.033  1.00  0.00     0.000 C 
BRANCH  20  21
ATOM     21  C   UNL     1     -31.719 -22.411 -34.693  1.00  0.00     0.000 C 
BRANCH  21  22
ATOM     22  C   UNL     1     -33.000 -22.072 -35.484  1.00  0.00    -0.000 C 
BRANCH  22  23
ATOM     23  C   UNL     1     -32.717 -21.174 -36.702  1.00  0.00    -0.000 C 
BRANCH  23  24
ATOM     24  C   UNL     1     -33.152 -21.832 -38.029  1.00  0.00    -0.000 C 
BRANCH  24  25
ATOM     25  C   UNL     1     -31.988 -22.445 -38.824  1.00  0.00    -0.000 C 
BRANCH  25  26
ATOM     26  C   UNL     1     -31.600 -23.846 -38.329  1.00  0.00    -0.000 C 
BRANCH  26  27
ATOM     27  C   UNL     1     -32.290 -24.972 -39.121  1.00  0.00    -0.000 C 
BRANCH  27  28
ATOM     28  C   UNL     1     -32.602 -26.245 -38.309  1.00  0.00    -0.000 C 
BRANCH  28  29
ATOM     29  C   UNL     1     -32.579 -27.554 -39.119  1.00  0.00    -0.003 C 
ATOM     30  C   UNL     1     -33.696 -28.519 -38.721  1.00  0.00     0.004 C 
ENDBRANCH  28  29
ENDBRANCH  27  28
ENDBRANCH  26  27
ENDBRANCH  25  26
ENDBRANCH  24  25
ENDBRANCH  23  24
ENDBRANCH  22  23
ENDBRANCH  21  22
ENDBRANCH  20  21
ENDBRANCH  19  20
ENDBRANCH  18  19
ENDBRANCH  17  18
ENDBRANCH   1  17
TORSDOF 26
ENDMDL
MODEL 6
REMARK VINA RESULT:     6.365      3.549      5.431
REMARK INTER + INTRA:          14.656
REMARK INTER:                  14.607
REMARK INTRA:                   0.049
REMARK UNBOUND:                -1.384
REMARK SMILES CCCCCCCCCCCCCCCCCCCCCCCCCCCC(=O)[O-]
REMARK SMILES IDX 15 1 16 2 17 3 18 4 19 5 20 6 21 7 22 8 23 9 24 10 25 11
REMARK SMILES IDX 26 12 27 13 28 14 29 15 30 16 14 17 13 18 12 19 11 20 10 21
REMARK SMILES IDX 9 22 8 23 7 24 6 25 5 26 4 27 3 28 2 29 1 30
REMARK H PARENT
REMARK Flexibility Score: inf
ROOT
ATOM      1  C   UNL     1     -31.800 -21.048 -35.129  1.00  0.00     0.000 C 
ENDROOT
BRANCH   1   2
ATOM      2  C   UNL     1     -33.124 -20.354 -35.495  1.00  0.00     0.000 C 
BRANCH   2   3
ATOM      3  C   UNL     1     -34.075 -21.254 -36.305  1.00  0.00     0.000 C 
BRANCH   3   4
ATOM      4  C   UNL     1     -33.637 -21.532 -37.755  1.00  0.00     0.000 C 
BRANCH   4   5
ATOM      5  C   UNL     1     -32.127 -21.790 -37.892  1.00  0.00     0.000 C 
BRANCH   5   6
ATOM      6  C   UNL     1     -31.803 -22.661 -39.118  1.00  0.00     0.000 C 
BRANCH   6   7
ATOM      7  C   UNL     1     -32.548 -24.006 -39.088  1.00  0.00     0.000 C 
BRANCH   7   8
ATOM      8  C   UNL     1     -32.579 -24.624 -37.680  1.00  0.00     0.000 C 
BRANCH   8   9
ATOM      9  C   UNL     1     -32.790 -26.148 -37.719  1.00  0.00     0.000 C 
BRANCH   9  10
ATOM     10  C   UNL     1     -33.201 -26.653 -39.118  1.00  0.00     0.000 C 
BRANCH  10  11
ATOM     11  C   UNL     1     -33.853 -28.050 -39.116  1.00  0.00     0.000 C 
BRANCH  11  12
ATOM     12  C   UNL     1     -32.870 -29.234 -39.026  1.00  0.00     0.006 C 
BRANCH  12  13
ATOM     13  C   UNL     1     -31.393 -28.823 -38.900  1.00  0.00     0.053 C 
BRANCH  13  14
ATOM     14  C   UNL     1     -30.491 -30.010 -38.756  1.00  0.00     0.041 C 
ATOM     15  O   UNL     1     -29.315 -29.863 -38.330  1.00  0.00    -0.550 OA
ATOM     16  O   UNL     1     -30.936 -31.273 -39.125  1.00  0.00    -0.550 OA
ENDBRANCH  13  14
ENDBRANCH  12  13
ENDBRANCH  11  12
ENDBRANCH  10  11
ENDBRANCH   9  10
ENDBRANCH   8   9
ENDBRANCH   7   8
ENDBRANCH   6   7
ENDBRANCH   5   6
ENDBRANCH   4   5
ENDBRANCH   3   4
ENDBRANCH   2   3
ENDBRANCH   1   2
BRANCH   1  17
ATOM     17  C   UNL     1     -31.806 -21.571 -33.682  1.00  0.00     0.000 C 
BRANCH  17  18
ATOM     18  C   UNL     1     -30.902 -20.732 -32.763  1.00  0.00     0.000 C 
BRANCH  18  19
ATOM     19  C   UNL     1     -30.548 -21.468 -31.457  1.00  0.00     0.000 C 
BRANCH  19  20
ATOM     20  C   UNL     1     -30.762 -20.632 -30.180  1.00  0.00     0.000 C 
BRANCH  20  21
ATOM     21  C   UNL     1     -30.307 -19.161 -30.279  1.00  0.00     0.000 C 
BRANCH  21  22
ATOM     22  C   UNL     1     -28.812 -18.994 -30.622  1.00  0.00    -0.000 C 
BRANCH  22  23
ATOM     23  C   UNL     1     -27.902 -19.211 -29.399  1.00  0.00    -0.000 C 
BRANCH  23  24
ATOM     24  C   UNL     1     -28.162 -20.569 -28.711  1.00  0.00    -0.000 C 
BRANCH  24  25
ATOM     25  C   UNL     1     -27.355 -20.769 -27.418  1.00  0.00    -0.000 C 
BRANCH  25  26
ATOM     26  C   UNL     1     -28.241 -21.103 -26.208  1.00  0.00    -0.000 C 
BRANCH  26  27
ATOM     27  C   UNL     1     -27.560 -20.790 -24.863  1.00  0.00    -0.000 C 
BRANCH  27  28
ATOM     28  C   UNL     1     -26.310 -19.892 -24.958  1.00  0.00    -0.000 C 
BRANCH  28  29
ATOM     29  C   UNL     1     -25.127 -20.330 -24.076  1.00  0.00    -0.003 C 
ATOM     30  C   UNL     1     -25.482 -20.385 -22.590  1.00  0.00     0.004 C 
ENDBRANCH  28  29
ENDBRANCH  27  28
ENDBRANCH  26  27
ENDBRANCH  25  26
ENDBRANCH  24  25
ENDBRANCH  23  24
ENDBRANCH  22  23
ENDBRANCH  21  22
ENDBRANCH  20  21
ENDBRANCH  19  20
ENDBRANCH  18  19
ENDBRANCH  17  18
ENDBRANCH   1  17
TORSDOF 26
ENDMDL
