MODEL 1
REMARK VINA RESULT:    -0.529      0.000      0.000
REMARK INTER + INTRA:          -0.310
REMARK INTER:                  -0.575
REMARK INTRA:                   0.266
REMARK UNBOUND:                 0.266
REMARK SMILES C[C@@H]1[C@H](C)CC[C@]2(C(=O)[O-])CC[C@]3(C)C(=CC[C@@H]4[C@@]5(C)CC[C@H](O)C(C)(C)[C@@H]5CC[C@@]43C)[C@@H]12
REMARK SMILES IDX 7 1 6 2 11 3 33 4 5 5 12 6 15 7 2 8 3 9 13 10 16 11 1 12
REMARK SMILES IDX 4 13 14 14 31 15 17 16 18 17 30 18 32 19 19 20 29 21 28 22
REMARK SMILES IDX 21 23 20 24 25 25 22 26 23 27 26 28 27 29 8 30 9 31 10 32
REMARK SMILES IDX 24 33
REMARK H PARENT 24 34
REMARK Flexibility Score: inf
ROOT
ATOM      1  C   UNL     1      79.489 -27.715  84.766  1.00  0.00     0.017 C 
ATOM      2  C   UNL     1      78.437 -28.652  84.105  1.00  0.00     0.014 C 
ATOM      3  C   UNL     1      78.890 -27.124  86.094  1.00  0.00     0.014 C 
ATOM      4  C   UNL     1      79.818 -26.564  83.765  1.00  0.00     0.030 C 
ATOM      5  C   UNL     1      78.921 -29.212  82.761  1.00  0.00     0.004 C 
ATOM      6  C   UNL     1      78.776 -25.573  86.151  1.00  0.00     0.013 C 
ATOM      7  C   UNL     1      80.673 -25.514  84.480  1.00  0.00    -0.063 C 
ATOM      8  C   UNL     1      80.274 -27.070  82.350  1.00  0.00    -0.003 C 
ATOM      9  C   UNL     1      79.251 -28.093  81.753  1.00  0.00    -0.011 C 
ATOM     10  C   UNL     1      80.033 -24.747  85.645  1.00  0.00    -0.006 C 
ATOM     11  C   UNL     1      81.948 -25.273  84.147  1.00  0.00    -0.027 C 
ATOM     12  C   UNL     1      80.509 -25.911  81.351  1.00  0.00     0.008 C 
ATOM     13  C   UNL     1      77.955 -27.453  81.207  1.00  0.00     0.008 C 
ATOM     14  C   UNL     1      79.462 -23.425  85.039  1.00  0.00     0.017 C 
ATOM     15  C   UNL     1      81.110 -24.427  86.820  1.00  0.00    -0.020 C 
ATOM     16  C   UNL     1      82.663 -24.084  84.696  1.00  0.00     0.032 C 
ATOM     17  C   UNL     1      82.547 -23.983  86.240  1.00  0.00     0.006 C 
ATOM     18  C   UNL     1      81.310 -25.668  87.735  1.00  0.00     0.008 C 
ATOM     19  C   UNL     1      80.530 -23.284  87.732  1.00  0.00     0.012 C 
ATOM     20  C   UNL     1      83.859 -24.532  86.993  1.00  0.00    -0.025 C 
ATOM     21  C   UNL     1      82.353 -25.509  88.862  1.00  0.00     0.005 C 
ATOM     22  C   UNL     1      83.550 -24.574  88.529  1.00  0.00     0.003 C 
ATOM     23  C   UNL     1      85.025 -23.508  86.740  1.00  0.00     0.010 C 
ATOM     24  C   UNL     1      84.300 -25.943  86.471  1.00  0.00     0.012 C 
ATOM     25  C   UNL     1      84.784 -24.719  89.516  1.00  0.00    -0.006 C 
ATOM     26  C   UNL     1      86.243 -23.668  87.661  1.00  0.00     0.033 C 
ATOM     27  C   UNL     1      85.839 -23.625  89.145  1.00  0.00     0.120 C 
ATOM     28  C   UNL     1      85.438 -26.133  89.534  1.00  0.00     0.014 C 
ATOM     29  C   UNL     1      84.301 -24.424  90.963  1.00  0.00     0.014 C 
ENDROOT
BRANCH   1  30
ATOM     30  C   UNL     1      80.719 -28.555  85.124  1.00  0.00     0.048 C 
ATOM     31  O   UNL     1      81.585 -28.856  84.261  1.00  0.00    -0.550 OA
ATOM     32  O   UNL     1      80.925 -28.952  86.440  1.00  0.00    -0.550 OA
ENDBRANCH   1  30
BRANCH  27  33
ATOM     33  O   UNL     1      86.977 -23.681  89.976  1.00  0.00    -0.393 OA
ATOM     34  H   UNL     1      87.486 -22.837  89.864  1.00  0.00     0.210 HD
ENDBRANCH  27  33
TORSDOF 2
ENDMDL
MODEL 2
REMARK VINA RESULT:     0.592      2.295      4.297
REMARK INTER + INTRA:           0.909
REMARK INTER:                   0.388
REMARK INTRA:                   0.522
REMARK UNBOUND:                 0.266
REMARK SMILES C[C@@H]1[C@H](C)CC[C@]2(C(=O)[O-])CC[C@]3(C)C(=CC[C@@H]4[C@@]5(C)CC[C@H](O)C(C)(C)[C@@H]5CC[C@@]43C)[C@@H]12
REMARK SMILES IDX 7 1 6 2 11 3 33 4 5 5 12 6 15 7 2 8 3 9 13 10 16 11 1 12
REMARK SMILES IDX 4 13 14 14 31 15 17 16 18 17 30 18 32 19 19 20 29 21 28 22
REMARK SMILES IDX 21 23 20 24 25 25 22 26 23 27 26 28 27 29 8 30 9 31 10 32
REMARK SMILES IDX 24 33
REMARK H PARENT 24 34
REMARK Flexibility Score: inf
ROOT
ATOM      1  C   UNL     1      78.281 -25.215  85.139  1.00  0.00     0.017 C 
ATOM      2  C   UNL     1      76.918 -25.103  84.397  1.00  0.00     0.014 C 
ATOM      3  C   UNL     1      79.388 -25.664  84.118  1.00  0.00     0.014 C 
ATOM      4  C   UNL     1      78.135 -26.275  86.275  1.00  0.00     0.030 C 
ATOM      5  C   UNL     1      75.769 -24.738  85.346  1.00  0.00     0.004 C 
ATOM      6  C   UNL     1      80.105 -27.006  84.445  1.00  0.00     0.013 C 
ATOM      7  C   UNL     1      79.518 -26.564  86.865  1.00  0.00    -0.063 C 
ATOM      8  C   UNL     1      76.942 -25.988  87.256  1.00  0.00    -0.003 C 
ATOM      9  C   UNL     1      75.603 -25.772  86.477  1.00  0.00    -0.011 C 
ATOM     10  C   UNL     1      80.559 -27.221  85.951  1.00  0.00    -0.006 C 
ATOM     11  C   UNL     1      79.850 -26.236  88.122  1.00  0.00    -0.027 C 
ATOM     12  C   UNL     1      76.765 -27.100  88.319  1.00  0.00     0.008 C 
ATOM     13  C   UNL     1      74.964 -27.072  85.937  1.00  0.00     0.008 C 
ATOM     14  C   UNL     1      80.465 -28.759  86.212  1.00  0.00     0.017 C 
ATOM     15  C   UNL     1      82.060 -26.674  86.255  1.00  0.00    -0.020 C 
ATOM     16  C   UNL     1      81.110 -26.751  88.731  1.00  0.00     0.032 C 
ATOM     17  C   UNL     1      82.350 -26.501  87.831  1.00  0.00     0.006 C 
ATOM     18  C   UNL     1      82.299 -25.306  85.557  1.00  0.00     0.008 C 
ATOM     19  C   UNL     1      83.096 -27.683  85.634  1.00  0.00     0.012 C 
ATOM     20  C   UNL     1      83.201 -25.218  88.299  1.00  0.00    -0.025 C 
ATOM     21  C   UNL     1      83.674 -24.652  85.814  1.00  0.00     0.005 C 
ATOM     22  C   UNL     1      84.295 -24.944  87.210  1.00  0.00     0.003 C 
ATOM     23  C   UNL     1      83.916 -25.580  89.652  1.00  0.00     0.010 C 
ATOM     24  C   UNL     1      82.302 -23.954  88.521  1.00  0.00     0.012 C 
ATOM     25  C   UNL     1      85.491 -23.979  87.605  1.00  0.00    -0.006 C 
ATOM     26  C   UNL     1      85.045 -24.626  90.067  1.00  0.00     0.033 C 
ATOM     27  C   UNL     1      86.099 -24.482  88.955  1.00  0.00     0.120 C 
ATOM     28  C   UNL     1      85.103 -22.473  87.703  1.00  0.00     0.014 C 
ATOM     29  C   UNL     1      86.600 -24.094  86.525  1.00  0.00     0.014 C 
ENDROOT
BRANCH   1  30
ATOM     30  C   UNL     1      78.651 -23.827  85.672  1.00  0.00     0.048 C 
ATOM     31  O   UNL     1      77.874 -23.181  86.424  1.00  0.00    -0.550 OA
ATOM     32  O   UNL     1      79.893 -23.281  85.372  1.00  0.00    -0.550 OA
ENDBRANCH   1  30
BRANCH  27  33
ATOM     33  O   UNL     1      87.174 -23.677  89.385  1.00  0.00    -0.393 OA
ATOM     34  H   UNL     1      87.751 -24.221  89.982  1.00  0.00     0.210 HD
ENDBRANCH  27  33
TORSDOF 2
ENDMDL
MODEL 3
REMARK VINA RESULT:     1.205      1.975      7.614
REMARK INTER + INTRA:           1.576
REMARK INTER:                   1.324
REMARK INTRA:                   0.253
REMARK UNBOUND:                 0.266
REMARK SMILES C[C@@H]1[C@H](C)CC[C@]2(C(=O)[O-])CC[C@]3(C)C(=CC[C@@H]4[C@@]5(C)CC[C@H](O)C(C)(C)[C@@H]5CC[C@@]43C)[C@@H]12
REMARK SMILES IDX 7 1 6 2 11 3 33 4 5 5 12 6 15 7 2 8 3 9 13 10 16 11 1 12
REMARK SMILES IDX 4 13 14 14 31 15 17 16 18 17 30 18 32 19 19 20 29 21 28 22
REMARK SMILES IDX 21 23 20 24 25 25 22 26 23 27 26 28 27 29 8 30 9 31 10 32
REMARK SMILES IDX 24 33
REMARK H PARENT 24 34
REMARK Flexibility Score: inf
ROOT
ATOM      1  C   UNL     1      82.799 -24.153  86.918  1.00  0.00     0.017 C 
ATOM      2  C   UNL     1      83.731 -23.084  87.560  1.00  0.00     0.014 C 
ATOM      3  C   UNL     1      81.344 -23.569  86.808  1.00  0.00     0.014 C 
ATOM      4  C   UNL     1      82.804 -25.418  87.831  1.00  0.00     0.030 C 
ATOM      5  C   UNL     1      85.157 -23.607  87.769  1.00  0.00     0.004 C 
ATOM      6  C   UNL     1      80.242 -24.353  87.577  1.00  0.00     0.013 C 
ATOM      7  C   UNL     1      81.725 -26.388  87.341  1.00  0.00    -0.063 C 
ATOM      8  C   UNL     1      84.241 -25.978  88.127  1.00  0.00    -0.003 C 
ATOM      9  C   UNL     1      85.189 -24.857  88.670  1.00  0.00    -0.011 C 
ATOM     10  C   UNL     1      80.263 -25.934  87.437  1.00  0.00    -0.006 C 
ATOM     11  C   UNL     1      82.016 -27.584  86.811  1.00  0.00    -0.027 C 
ATOM     12  C   UNL     1      84.223 -27.178  89.105  1.00  0.00     0.008 C 
ATOM     13  C   UNL     1      84.937 -24.471  90.145  1.00  0.00     0.008 C 
ATOM     14  C   UNL     1      79.717 -26.493  88.789  1.00  0.00     0.017 C 
ATOM     15  C   UNL     1      79.379 -26.481  86.186  1.00  0.00    -0.020 C 
ATOM     16  C   UNL     1      80.940 -28.590  86.576  1.00  0.00     0.032 C 
ATOM     17  C   UNL     1      79.738 -28.002  85.790  1.00  0.00     0.006 C 
ATOM     18  C   UNL     1      79.584 -25.583  84.933  1.00  0.00     0.008 C 
ATOM     19  C   UNL     1      77.856 -26.379  86.568  1.00  0.00     0.012 C 
ATOM     20  C   UNL     1      79.783 -28.376  84.226  1.00  0.00    -0.025 C 
ATOM     21  C   UNL     1      78.838 -26.031  83.658  1.00  0.00     0.005 C 
ATOM     22  C   UNL     1      78.650 -27.567  83.505  1.00  0.00     0.003 C 
ATOM     23  C   UNL     1      79.472 -29.912  84.089  1.00  0.00     0.010 C 
ATOM     24  C   UNL     1      81.180 -28.082  83.581  1.00  0.00     0.012 C 
ATOM     25  C   UNL     1      78.240 -28.031  82.044  1.00  0.00    -0.006 C 
ATOM     26  C   UNL     1      79.117 -30.380  82.670  1.00  0.00     0.033 C 
ATOM     27  C   UNL     1      77.950 -29.568  82.083  1.00  0.00     0.120 C 
ATOM     28  C   UNL     1      79.286 -27.695  80.940  1.00  0.00     0.014 C 
ATOM     29  C   UNL     1      76.917 -27.319  81.649  1.00  0.00     0.014 C 
ENDROOT
BRANCH   1  30
ATOM     30  C   UNL     1      83.310 -24.444  85.503  1.00  0.00     0.048 C 
ATOM     31  O   UNL     1      84.191 -25.319  85.288  1.00  0.00    -0.550 OA
ATOM     32  O   UNL     1      82.757 -23.776  84.418  1.00  0.00    -0.550 OA
ENDBRANCH   1  30
BRANCH  27  33
ATOM     33  O   UNL     1      77.577 -30.069  80.819  1.00  0.00    -0.393 OA
ATOM     34  H   UNL     1      78.282 -29.822  80.165  1.00  0.00     0.210 HD
ENDBRANCH  27  33
TORSDOF 2
ENDMDL
MODEL 4
REMARK VINA RESULT:     2.355      2.612      7.384
REMARK INTER + INTRA:           2.827
REMARK INTER:                   2.576
REMARK INTRA:                   0.251
REMARK UNBOUND:                 0.266
REMARK SMILES C[C@@H]1[C@H](C)CC[C@]2(C(=O)[O-])CC[C@]3(C)C(=CC[C@@H]4[C@@]5(C)CC[C@H](O)C(C)(C)[C@@H]5CC[C@@]43C)[C@@H]12
REMARK SMILES IDX 7 1 6 2 11 3 33 4 5 5 12 6 15 7 2 8 3 9 13 10 16 11 1 12
REMARK SMILES IDX 4 13 14 14 31 15 17 16 18 17 30 18 32 19 19 20 29 21 28 22
REMARK SMILES IDX 21 23 20 24 25 25 22 26 23 27 26 28 27 29 8 30 9 31 10 32
REMARK SMILES IDX 24 33
REMARK H PARENT 24 34
REMARK Flexibility Score: inf
ROOT
ATOM      1  C   UNL     1      82.932 -26.106  87.710  1.00  0.00     0.017 C 
ATOM      2  C   UNL     1      84.262 -26.462  88.436  1.00  0.00     0.014 C 
ATOM      3  C   UNL     1      82.599 -27.231  86.664  1.00  0.00     0.014 C 
ATOM      4  C   UNL     1      83.121 -24.737  86.986  1.00  0.00     0.030 C 
ATOM      5  C   UNL     1      84.694 -25.372  89.424  1.00  0.00     0.004 C 
ATOM      6  C   UNL     1      82.501 -26.767  85.182  1.00  0.00     0.013 C 
ATOM      7  C   UNL     1      81.909 -24.481  86.085  1.00  0.00    -0.063 C 
ATOM      8  C   UNL     1      83.612 -23.584  87.933  1.00  0.00    -0.003 C 
ATOM      9  C   UNL     1      84.889 -24.008  88.732  1.00  0.00    -0.011 C 
ATOM     10  C   UNL     1      81.685 -25.434  84.905  1.00  0.00    -0.006 C 
ATOM     11  C   UNL     1      81.038 -23.488  86.312  1.00  0.00    -0.027 C 
ATOM     12  C   UNL     1      83.876 -22.261  87.174  1.00  0.00     0.008 C 
ATOM     13  C   UNL     1      86.191 -24.002  87.900  1.00  0.00     0.008 C 
ATOM     14  C   UNL     1      82.361 -24.766  83.665  1.00  0.00     0.017 C 
ATOM     15  C   UNL     1      80.103 -25.693  84.631  1.00  0.00    -0.020 C 
ATOM     16  C   UNL     1      80.022 -23.122  85.283  1.00  0.00     0.032 C 
ATOM     17  C   UNL     1      79.221 -24.351  84.777  1.00  0.00     0.006 C 
ATOM     18  C   UNL     1      79.542 -26.761  85.612  1.00  0.00     0.008 C 
ATOM     19  C   UNL     1      79.936 -26.281  83.182  1.00  0.00     0.012 C 
ATOM     20  C   UNL     1      77.779 -24.478  85.479  1.00  0.00    -0.025 C 
ATOM     21  C   UNL     1      78.032 -27.057  85.489  1.00  0.00     0.005 C 
ATOM     22  C   UNL     1      77.154 -25.850  85.051  1.00  0.00     0.003 C 
ATOM     23  C   UNL     1      76.871 -23.317  84.930  1.00  0.00     0.010 C 
ATOM     24  C   UNL     1      77.862 -24.362  87.040  1.00  0.00     0.012 C 
ATOM     25  C   UNL     1      75.599 -26.052  85.299  1.00  0.00    -0.006 C 
ATOM     26  C   UNL     1      75.369 -23.480  85.204  1.00  0.00     0.033 C 
ATOM     27  C   UNL     1      74.843 -24.829  84.683  1.00  0.00     0.120 C 
ATOM     28  C   UNL     1      75.201 -26.251  86.792  1.00  0.00     0.014 C 
ATOM     29  C   UNL     1      75.134 -27.320  84.532  1.00  0.00     0.014 C 
ENDROOT
BRANCH   1  30
ATOM     30  C   UNL     1      81.812 -26.071  88.755  1.00  0.00     0.048 C 
ATOM     31  O   UNL     1      81.583 -25.041  89.442  1.00  0.00    -0.550 OA
ATOM     32  O   UNL     1      80.985 -27.176  88.917  1.00  0.00    -0.550 OA
ENDBRANCH   1  30
BRANCH  27  33
ATOM     33  O   UNL     1      73.448 -24.925  84.859  1.00  0.00    -0.393 OA
ATOM     34  H   UNL     1      73.265 -25.643  85.519  1.00  0.00     0.210 HD
ENDBRANCH  27  33
TORSDOF 2
ENDMDL
