MODEL 1
REMARK VINA RESULT:    -7.552      0.000      0.000
REMARK INTER + INTRA:          -9.332
REMARK INTER:                  -9.098
REMARK INTRA:                  -0.234
REMARK UNBOUND:                -0.234
REMARK SMILES O=c1c(O)c(-c2ccc(O)c(O)c2)oc2cc(O)cc(O)c12
REMARK SMILES IDX 5 1 3 2 2 3 1 4 22 5 20 6 19 7 17 8 16 9 15 10 14 11 6 12
REMARK SMILES IDX 7 13 8 14 9 15 13 16 11 17 10 18 12 20 4 22 21 24 18 26
REMARK H PARENT 10 19 12 21 4 23 21 25 18 27
REMARK Flexibility Score: inf
ROOT
ATOM      1  C   UNL     1     -35.950 -28.890   7.140  1.00  0.00     0.180 A 
ATOM      2  C   UNL     1     -36.876 -28.572   8.150  1.00  0.00     0.208 A 
ATOM      3  C   UNL     1     -36.644 -27.448   8.959  1.00  0.00     0.238 A 
ATOM      4  O   UNL     1     -37.503 -27.140   9.825  1.00  0.00    -0.285 OA
ATOM      5  C   UNL     1     -35.481 -26.665   8.758  1.00  0.00     0.111 A 
ATOM      6  C   UNL     1     -35.125 -25.528   9.546  1.00  0.00     0.134 A 
ATOM      7  C   UNL     1     -34.021 -24.752   9.175  1.00  0.00     0.093 A 
ATOM      8  C   UNL     1     -33.222 -25.106   8.089  1.00  0.00     0.123 A 
ATOM      9  C   UNL     1     -33.526 -26.249   7.348  1.00  0.00     0.094 A 
ATOM     10  C   UNL     1     -34.643 -27.024   7.670  1.00  0.00     0.146 A 
ATOM     11  O   UNL     1     -34.904 -28.098   6.935  1.00  0.00    -0.452 OA
ENDROOT
BRANCH   1  12
ATOM     12  C   UNL     1     -36.113 -30.072   6.264  1.00  0.00     0.025 A 
ATOM     13  C   UNL     1     -37.087 -30.054   5.254  1.00  0.00     0.016 A 
ATOM     14  C   UNL     1     -37.244 -31.151   4.402  1.00  0.00     0.051 A 
ATOM     15  C   UNL     1     -36.422 -32.274   4.537  1.00  0.00     0.157 A 
ATOM     16  C   UNL     1     -35.273 -31.193   6.385  1.00  0.00     0.062 A 
ATOM     17  C   UNL     1     -35.428 -32.295   5.529  1.00  0.00     0.158 A 
BRANCH  15  18
ATOM     18  O   UNL     1     -36.603 -33.354   3.674  1.00  0.00    -0.504 OA
ATOM     19  H   UNL     1     -37.512 -33.593   3.294  1.00  0.00     0.293 HD
ENDBRANCH  15  18
BRANCH  17  20
ATOM     20  O   UNL     1     -34.595 -33.406   5.660  1.00  0.00    -0.504 OA
ATOM     21  H   UNL     1     -34.962 -34.317   5.908  1.00  0.00     0.293 HD
ENDBRANCH  17  20
ENDBRANCH   1  12
BRANCH   2  22
ATOM     22  O   UNL     1     -38.027 -29.347   8.315  1.00  0.00    -0.502 OA
ATOM     23  H   UNL     1     -38.002 -30.360   8.344  1.00  0.00     0.293 HD
ENDBRANCH   2  22
BRANCH   6  24
ATOM     24  O   UNL     1     -35.801 -25.140  10.706  1.00  0.00    -0.507 OA
ATOM     25  H   UNL     1     -36.362 -25.754  11.278  1.00  0.00     0.293 HD
ENDBRANCH   6  24
BRANCH   8  26
ATOM     26  O   UNL     1     -32.122 -24.318   7.759  1.00  0.00    -0.508 OA
ATOM     27  H   UNL     1     -31.737 -23.645   8.414  1.00  0.00     0.293 HD
ENDBRANCH   8  26
TORSDOF 6
ENDMDL
MODEL 2
REMARK VINA RESULT:    -7.345      1.189      2.878
REMARK INTER + INTRA:          -9.082
REMARK INTER:                  -8.909
REMARK INTRA:                  -0.173
REMARK UNBOUND:                -0.234
REMARK SMILES O=c1c(O)c(-c2ccc(O)c(O)c2)oc2cc(O)cc(O)c12
REMARK SMILES IDX 5 1 3 2 2 3 1 4 22 5 20 6 19 7 17 8 16 9 15 10 14 11 6 12
REMARK SMILES IDX 7 13 8 14 9 15 13 16 11 17 10 18 12 20 4 22 21 24 18 26
REMARK H PARENT 10 19 12 21 4 23 21 25 18 27
REMARK Flexibility Score: inf
ROOT
ATOM      1  C   UNL     1     -35.090 -29.042   6.551  1.00  0.00     0.180 A 
ATOM      2  C   UNL     1     -33.894 -28.387   6.211  1.00  0.00     0.208 A 
ATOM      3  C   UNL     1     -33.549 -27.203   6.884  1.00  0.00     0.238 A 
ATOM      4  O   UNL     1     -32.452 -26.651   6.611  1.00  0.00    -0.285 OA
ATOM      5  C   UNL     1     -34.412 -26.682   7.878  1.00  0.00     0.111 A 
ATOM      6  C   UNL     1     -34.182 -25.469   8.594  1.00  0.00     0.134 A 
ATOM      7  C   UNL     1     -35.036 -25.117   9.647  1.00  0.00     0.093 A 
ATOM      8  C   UNL     1     -36.147 -25.898   9.966  1.00  0.00     0.123 A 
ATOM      9  C   UNL     1     -36.415 -27.055   9.232  1.00  0.00     0.094 A 
ATOM     10  C   UNL     1     -35.561 -27.451   8.200  1.00  0.00     0.146 A 
ATOM     11  O   UNL     1     -35.845 -28.563   7.533  1.00  0.00    -0.452 OA
ENDROOT
BRANCH   1  12
ATOM     12  C   UNL     1     -35.533 -30.280   5.870  1.00  0.00     0.025 A 
ATOM     13  C   UNL     1     -36.663 -30.244   5.038  1.00  0.00     0.016 A 
ATOM     14  C   UNL     1     -37.085 -31.396   4.368  1.00  0.00     0.051 A 
ATOM     15  C   UNL     1     -36.379 -32.594   4.508  1.00  0.00     0.157 A 
ATOM     16  C   UNL     1     -34.812 -31.481   5.993  1.00  0.00     0.062 A 
ATOM     17  C   UNL     1     -35.233 -32.638   5.320  1.00  0.00     0.158 A 
BRANCH  15  18
ATOM     18  O   UNL     1     -36.826 -33.728   3.829  1.00  0.00    -0.504 OA
ATOM     19  H   UNL     1     -36.471 -33.982   2.916  1.00  0.00     0.293 HD
ENDBRANCH  15  18
BRANCH  17  20
ATOM     20  O   UNL     1     -34.516 -33.826   5.453  1.00  0.00    -0.504 OA
ATOM     21  H   UNL     1     -34.954 -34.676   5.788  1.00  0.00     0.293 HD
ENDBRANCH  17  20
ENDBRANCH   1  12
BRANCH   2  22
ATOM     22  O   UNL     1     -33.046 -28.931   5.241  1.00  0.00    -0.502 OA
ATOM     23  H   UNL     1     -32.760 -29.903   5.254  1.00  0.00     0.293 HD
ENDBRANCH   2  22
BRANCH   6  24
ATOM     24  O   UNL     1     -33.155 -24.569   8.296  1.00  0.00    -0.507 OA
ATOM     25  H   UNL     1     -32.469 -24.700   7.569  1.00  0.00     0.293 HD
ENDBRANCH   6  24
BRANCH   8  26
ATOM     26  O   UNL     1     -36.983 -25.508  11.009  1.00  0.00    -0.508 OA
ATOM     27  H   UNL     1     -36.636 -25.405  11.956  1.00  0.00     0.293 HD
ENDBRANCH   8  26
TORSDOF 6
ENDMDL
MODEL 3
REMARK VINA RESULT:    -7.311      2.601      6.990
REMARK INTER + INTRA:          -9.041
REMARK INTER:                  -8.749
REMARK INTRA:                  -0.291
REMARK UNBOUND:                -0.234
REMARK SMILES O=c1c(O)c(-c2ccc(O)c(O)c2)oc2cc(O)cc(O)c12
REMARK SMILES IDX 5 1 3 2 2 3 1 4 22 5 20 6 19 7 17 8 16 9 15 10 14 11 6 12
REMARK SMILES IDX 7 13 8 14 9 15 13 16 11 17 10 18 12 20 4 22 21 24 18 26
REMARK H PARENT 10 19 12 21 4 23 21 25 18 27
REMARK Flexibility Score: inf
ROOT
ATOM      1  C   UNL     1     -37.216 -29.878   7.506  1.00  0.00     0.180 A 
ATOM      2  C   UNL     1     -38.368 -30.662   7.320  1.00  0.00     0.208 A 
ATOM      3  C   UNL     1     -38.331 -31.720   6.398  1.00  0.00     0.238 A 
ATOM      4  O   UNL     1     -39.349 -32.450   6.276  1.00  0.00    -0.285 OA
ATOM      5  C   UNL     1     -37.147 -31.972   5.663  1.00  0.00     0.111 A 
ATOM      6  C   UNL     1     -37.010 -32.993   4.674  1.00  0.00     0.134 A 
ATOM      7  C   UNL     1     -35.755 -33.235   4.103  1.00  0.00     0.093 A 
ATOM      8  C   UNL     1     -34.649 -32.455   4.436  1.00  0.00     0.123 A 
ATOM      9  C   UNL     1     -34.785 -31.416   5.357  1.00  0.00     0.094 A 
ATOM     10  C   UNL     1     -36.016 -31.172   5.971  1.00  0.00     0.146 A 
ATOM     11  O   UNL     1     -36.102 -30.181   6.849  1.00  0.00    -0.452 OA
ENDROOT
BRANCH   1  12
ATOM     12  C   UNL     1     -37.185 -28.731   8.441  1.00  0.00     0.025 A 
ATOM     13  C   UNL     1     -36.503 -28.852   9.662  1.00  0.00     0.016 A 
ATOM     14  C   UNL     1     -36.444 -27.775  10.550  1.00  0.00     0.051 A 
ATOM     15  C   UNL     1     -37.051 -26.558  10.226  1.00  0.00     0.157 A 
ATOM     16  C   UNL     1     -37.777 -27.499   8.108  1.00  0.00     0.062 A 
ATOM     17  C   UNL     1     -37.717 -26.416   8.998  1.00  0.00     0.158 A 
BRANCH  15  18
ATOM     18  O   UNL     1     -36.977 -25.501  11.134  1.00  0.00    -0.504 OA
ATOM     19  H   UNL     1     -36.522 -24.626  10.904  1.00  0.00     0.293 HD
ENDBRANCH  15  18
BRANCH  17  20
ATOM     20  O   UNL     1     -38.312 -25.200   8.663  1.00  0.00    -0.504 OA
ATOM     21  H   UNL     1     -38.532 -24.964   7.702  1.00  0.00     0.293 HD
ENDBRANCH  17  20
ENDBRANCH   1  12
BRANCH   2  22
ATOM     22  O   UNL     1     -39.518 -30.409   8.073  1.00  0.00    -0.502 OA
ATOM     23  H   UNL     1     -40.322 -31.025   8.061  1.00  0.00     0.293 HD
ENDBRANCH   2  22
BRANCH   6  24
ATOM     24  O   UNL     1     -38.073 -33.769   4.201  1.00  0.00    -0.507 OA
ATOM     25  H   UNL     1     -39.023 -33.706   4.533  1.00  0.00     0.293 HD
ENDBRANCH   6  24
BRANCH   8  26
ATOM     26  O   UNL     1     -33.419 -32.716   3.835  1.00  0.00    -0.508 OA
ATOM     27  H   UNL     1     -32.891 -31.986   3.370  1.00  0.00     0.293 HD
ENDBRANCH   8  26
TORSDOF 6
ENDMDL
MODEL 4
REMARK VINA RESULT:    -7.076      2.715      3.507
REMARK INTER + INTRA:          -8.758
REMARK INTER:                  -8.449
REMARK INTRA:                  -0.310
REMARK UNBOUND:                -0.234
REMARK SMILES O=c1c(O)c(-c2ccc(O)c(O)c2)oc2cc(O)cc(O)c12
REMARK SMILES IDX 5 1 3 2 2 3 1 4 22 5 20 6 19 7 17 8 16 9 15 10 14 11 6 12
REMARK SMILES IDX 7 13 8 14 9 15 13 16 11 17 10 18 12 20 4 22 21 24 18 26
REMARK H PARENT 10 19 12 21 4 23 21 25 18 27
REMARK Flexibility Score: inf
ROOT
ATOM      1  C   UNL     1     -36.587 -29.251   8.364  1.00  0.00     0.180 A 
ATOM      2  C   UNL     1     -36.809 -27.976   8.912  1.00  0.00     0.208 A 
ATOM      3  C   UNL     1     -35.874 -26.957   8.668  1.00  0.00     0.238 A 
ATOM      4  O   UNL     1     -36.106 -25.804   9.117  1.00  0.00    -0.285 OA
ATOM      5  C   UNL     1     -34.721 -27.231   7.893  1.00  0.00     0.111 A 
ATOM      6  C   UNL     1     -33.688 -26.284   7.617  1.00  0.00     0.134 A 
ATOM      7  C   UNL     1     -32.659 -26.627   6.730  1.00  0.00     0.093 A 
ATOM      8  C   UNL     1     -32.590 -27.898   6.163  1.00  0.00     0.123 A 
ATOM      9  C   UNL     1     -33.561 -28.850   6.474  1.00  0.00     0.094 A 
ATOM     10  C   UNL     1     -34.621 -28.528   7.325  1.00  0.00     0.146 A 
ATOM     11  O   UNL     1     -35.530 -29.458   7.587  1.00  0.00    -0.452 OA
ENDROOT
BRANCH   1  12
ATOM     12  C   UNL     1     -37.514 -30.382   8.597  1.00  0.00     0.025 A 
ATOM     13  C   UNL     1     -38.642 -30.532   7.774  1.00  0.00     0.016 A 
ATOM     14  C   UNL     1     -39.518 -31.604   7.963  1.00  0.00     0.051 A 
ATOM     15  C   UNL     1     -39.275 -32.548   8.966  1.00  0.00     0.157 A 
ATOM     16  C   UNL     1     -37.260 -31.344   9.591  1.00  0.00     0.062 A 
ATOM     17  C   UNL     1     -38.138 -32.422   9.782  1.00  0.00     0.158 A 
BRANCH  15  18
ATOM     18  O   UNL     1     -40.169 -33.606   9.132  1.00  0.00    -0.504 OA
ATOM     19  H   UNL     1     -40.510 -34.150   8.349  1.00  0.00     0.293 HD
ENDBRANCH  15  18
BRANCH  17  20
ATOM     20  O   UNL     1     -37.882 -33.368  10.774  1.00  0.00    -0.504 OA
ATOM     21  H   UNL     1     -37.761 -34.349  10.553  1.00  0.00     0.293 HD
ENDBRANCH  17  20
ENDBRANCH   1  12
BRANCH   2  22
ATOM     22  O   UNL     1     -37.965 -27.723   9.656  1.00  0.00    -0.502 OA
ATOM     23  H   UNL     1     -38.647 -28.443   9.863  1.00  0.00     0.293 HD
ENDBRANCH   2  22
BRANCH   6  24
ATOM     24  O   UNL     1     -33.612 -25.018   8.203  1.00  0.00    -0.507 OA
ATOM     25  H   UNL     1     -34.059 -24.189   7.841  1.00  0.00     0.293 HD
ENDBRANCH   6  24
BRANCH   8  26
ATOM     26  O   UNL     1     -31.542 -28.208   5.298  1.00  0.00    -0.508 OA
ATOM     27  H   UNL     1     -30.654 -28.552   5.644  1.00  0.00     0.293 HD
ENDBRANCH   8  26
TORSDOF 6
ENDMDL
MODEL 5
REMARK VINA RESULT:    -7.002      2.624      3.906
REMARK INTER + INTRA:          -8.669
REMARK INTER:                  -8.371
REMARK INTRA:                  -0.298
REMARK UNBOUND:                -0.234
REMARK SMILES O=c1c(O)c(-c2ccc(O)c(O)c2)oc2cc(O)cc(O)c12
REMARK SMILES IDX 5 1 3 2 2 3 1 4 22 5 20 6 19 7 17 8 16 9 15 10 14 11 6 12
REMARK SMILES IDX 7 13 8 14 9 15 13 16 11 17 10 18 12 20 4 22 21 24 18 26
REMARK H PARENT 10 19 12 21 4 23 21 25 18 27
REMARK Flexibility Score: inf
ROOT
ATOM      1  C   UNL     1     -36.538 -29.594   8.105  1.00  0.00     0.180 A 
ATOM      2  C   UNL     1     -35.583 -29.624   7.073  1.00  0.00     0.208 A 
ATOM      3  C   UNL     1     -34.717 -28.530   6.915  1.00  0.00     0.238 A 
ATOM      4  O   UNL     1     -33.830 -28.586   6.023  1.00  0.00    -0.285 OA
ATOM      5  C   UNL     1     -34.827 -27.414   7.779  1.00  0.00     0.111 A 
ATOM      6  C   UNL     1     -34.029 -26.234   7.683  1.00  0.00     0.134 A 
ATOM      7  C   UNL     1     -34.135 -25.248   8.672  1.00  0.00     0.093 A 
ATOM      8  C   UNL     1     -35.054 -25.367   9.714  1.00  0.00     0.123 A 
ATOM      9  C   UNL     1     -35.882 -26.489   9.783  1.00  0.00     0.094 A 
ATOM     10  C   UNL     1     -35.774 -27.507   8.833  1.00  0.00     0.146 A 
ATOM     11  O   UNL     1     -36.572 -28.562   8.939  1.00  0.00    -0.452 OA
ENDROOT
BRANCH   1  12
ATOM     12  C   UNL     1     -37.501 -30.698   8.320  1.00  0.00     0.025 A 
ATOM     13  C   UNL     1     -37.304 -31.590   9.386  1.00  0.00     0.016 A 
ATOM     14  C   UNL     1     -38.212 -32.626   9.619  1.00  0.00     0.051 A 
ATOM     15  C   UNL     1     -39.336 -32.778   8.802  1.00  0.00     0.157 A 
ATOM     16  C   UNL     1     -38.643 -30.841   7.512  1.00  0.00     0.062 A 
ATOM     17  C   UNL     1     -39.557 -31.880   7.745  1.00  0.00     0.158 A 
BRANCH  15  18
ATOM     18  O   UNL     1     -40.223 -33.824   9.058  1.00  0.00    -0.504 OA
ATOM     19  H   UNL     1     -40.794 -33.852   9.895  1.00  0.00     0.293 HD
ENDBRANCH  15  18
BRANCH  17  20
ATOM     20  O   UNL     1     -40.683 -32.018   6.935  1.00  0.00    -0.504 OA
ATOM     21  H   UNL     1     -41.453 -31.360   6.980  1.00  0.00     0.293 HD
ENDBRANCH  17  20
ENDBRANCH   1  12
BRANCH   2  22
ATOM     22  O   UNL     1     -35.478 -30.745   6.245  1.00  0.00    -0.502 OA
ATOM     23  H   UNL     1     -35.683 -31.683   6.571  1.00  0.00     0.293 HD
ENDBRANCH   2  22
BRANCH   6  24
ATOM     24  O   UNL     1     -33.146 -25.972   6.632  1.00  0.00    -0.507 OA
ATOM     25  H   UNL     1     -33.419 -25.850   5.669  1.00  0.00     0.293 HD
ENDBRANCH   6  24
BRANCH   8  26
ATOM     26  O   UNL     1     -35.143 -24.359  10.670  1.00  0.00    -0.508 OA
ATOM     27  H   UNL     1     -34.476 -24.290  11.431  1.00  0.00     0.293 HD
ENDBRANCH   8  26
TORSDOF 6
ENDMDL
MODEL 6
REMARK VINA RESULT:    -6.795      2.481      7.654
REMARK INTER + INTRA:          -8.420
REMARK INTER:                  -8.107
REMARK INTRA:                  -0.313
REMARK UNBOUND:                -0.234
REMARK SMILES O=c1c(O)c(-c2ccc(O)c(O)c2)oc2cc(O)cc(O)c12
REMARK SMILES IDX 5 1 3 2 2 3 1 4 22 5 20 6 19 7 17 8 16 9 15 10 14 11 6 12
REMARK SMILES IDX 7 13 8 14 9 15 13 16 11 17 10 18 12 20 4 22 21 24 18 26
REMARK H PARENT 10 19 12 21 4 23 21 25 18 27
REMARK Flexibility Score: inf
ROOT
ATOM      1  C   UNL     1     -37.076 -29.684   7.221  1.00  0.00     0.180 A 
ATOM      2  C   UNL     1     -35.967 -29.854   6.373  1.00  0.00     0.208 A 
ATOM      3  C   UNL     1     -35.984 -30.894   5.430  1.00  0.00     0.238 A 
ATOM      4  O   UNL     1     -35.012 -31.007   4.638  1.00  0.00    -0.285 OA
ATOM      5  C   UNL     1     -37.101 -31.761   5.357  1.00  0.00     0.111 A 
ATOM      6  C   UNL     1     -37.207 -32.872   4.467  1.00  0.00     0.134 A 
ATOM      7  C   UNL     1     -38.412 -33.582   4.390  1.00  0.00     0.093 A 
ATOM      8  C   UNL     1     -39.489 -33.263   5.216  1.00  0.00     0.123 A 
ATOM      9  C   UNL     1     -39.376 -32.217   6.132  1.00  0.00     0.094 A 
ATOM     10  C   UNL     1     -38.200 -31.467   6.206  1.00  0.00     0.146 A 
ATOM     11  O   UNL     1     -38.135 -30.473   7.084  1.00  0.00    -0.452 OA
ENDROOT
BRANCH   1  12
ATOM     12  C   UNL     1     -37.122 -28.627   8.256  1.00  0.00     0.025 A 
ATOM     13  C   UNL     1     -36.508 -28.849   9.499  1.00  0.00     0.016 A 
ATOM     14  C   UNL     1     -36.521 -27.856  10.482  1.00  0.00     0.051 A 
ATOM     15  C   UNL     1     -37.134 -26.624  10.235  1.00  0.00     0.157 A 
ATOM     16  C   UNL     1     -37.719 -27.379   8.002  1.00  0.00     0.062 A 
ATOM     17  C   UNL     1     -37.732 -26.381   8.988  1.00  0.00     0.158 A 
BRANCH  15  18
ATOM     18  O   UNL     1     -37.133 -25.653  11.237  1.00  0.00    -0.504 OA
ATOM     19  H   UNL     1     -36.368 -25.558  11.893  1.00  0.00     0.293 HD
ENDBRANCH  15  18
BRANCH  17  20
ATOM     20  O   UNL     1     -38.333 -25.149   8.729  1.00  0.00    -0.504 OA
ATOM     21  H   UNL     1     -38.031 -24.563   7.961  1.00  0.00     0.293 HD
ENDBRANCH  17  20
ENDBRANCH   1  12
BRANCH   2  22
ATOM     22  O   UNL     1     -34.885 -28.973   6.448  1.00  0.00    -0.502 OA
ATOM     23  H   UNL     1     -34.979 -27.980   6.271  1.00  0.00     0.293 HD
ENDBRANCH   2  22
BRANCH   6  24
ATOM     24  O   UNL     1     -36.158 -33.333   3.665  1.00  0.00    -0.507 OA
ATOM     25  H   UNL     1     -35.231 -33.547   3.998  1.00  0.00     0.293 HD
ENDBRANCH   6  24
BRANCH   8  26
ATOM     26  O   UNL     1     -40.667 -34.002   5.123  1.00  0.00    -0.508 OA
ATOM     27  H   UNL     1     -40.926 -34.678   5.833  1.00  0.00     0.293 HD
ENDBRANCH   8  26
TORSDOF 6
ENDMDL
MODEL 7
REMARK VINA RESULT:    -6.791     16.602     17.576
REMARK INTER + INTRA:          -8.414
REMARK INTER:                  -8.096
REMARK INTRA:                  -0.318
REMARK UNBOUND:                -0.234
REMARK SMILES O=c1c(O)c(-c2ccc(O)c(O)c2)oc2cc(O)cc(O)c12
REMARK SMILES IDX 5 1 3 2 2 3 1 4 22 5 20 6 19 7 17 8 16 9 15 10 14 11 6 12
REMARK SMILES IDX 7 13 8 14 9 15 13 16 11 17 10 18 12 20 4 22 21 24 18 26
REMARK H PARENT 10 19 12 21 4 23 21 25 18 27
REMARK Flexibility Score: inf
ROOT
ATOM      1  C   UNL     1     -46.141 -20.633  -4.013  1.00  0.00     0.180 A 
ATOM      2  C   UNL     1     -45.178 -19.942  -4.770  1.00  0.00     0.208 A 
ATOM      3  C   UNL     1     -44.458 -18.899  -4.166  1.00  0.00     0.238 A 
ATOM      4  O   UNL     1     -43.561 -18.320  -4.833  1.00  0.00    -0.285 OA
ATOM      5  C   UNL     1     -44.721 -18.549  -2.820  1.00  0.00     0.111 A 
ATOM      6  C   UNL     1     -44.079 -17.482  -2.120  1.00  0.00     0.134 A 
ATOM      7  C   UNL     1     -44.323 -17.310  -0.752  1.00  0.00     0.093 A 
ATOM      8  C   UNL     1     -45.231 -18.121  -0.074  1.00  0.00     0.123 A 
ATOM      9  C   UNL     1     -45.908 -19.129  -0.762  1.00  0.00     0.094 A 
ATOM     10  C   UNL     1     -45.660 -19.350  -2.118  1.00  0.00     0.146 A 
ATOM     11  O   UNL     1     -46.317 -20.325  -2.734  1.00  0.00    -0.452 OA
ENDROOT
BRANCH   1  12
ATOM     12  C   UNL     1     -46.956 -21.728  -4.587  1.00  0.00     0.025 A 
ATOM     13  C   UNL     1     -46.460 -23.041  -4.570  1.00  0.00     0.016 A 
ATOM     14  C   UNL     1     -47.222 -24.092  -5.087  1.00  0.00     0.051 A 
ATOM     15  C   UNL     1     -48.495 -23.851  -5.613  1.00  0.00     0.157 A 
ATOM     16  C   UNL     1     -48.245 -21.491  -5.097  1.00  0.00     0.062 A 
ATOM     17  C   UNL     1     -49.013 -22.545  -5.614  1.00  0.00     0.158 A 
BRANCH  15  18
ATOM     18  O   UNL     1     -49.231 -24.920  -6.123  1.00  0.00    -0.504 OA
ATOM     19  H   UNL     1     -48.793 -25.687  -6.619  1.00  0.00     0.293 HD
ENDBRANCH  15  18
BRANCH  17  20
ATOM     20  O   UNL     1     -50.287 -22.299  -6.125  1.00  0.00    -0.504 OA
ATOM     21  H   UNL     1     -50.443 -22.157  -7.115  1.00  0.00     0.293 HD
ENDBRANCH  17  20
ENDBRANCH   1  12
BRANCH   2  22
ATOM     22  O   UNL     1     -44.920 -20.319  -6.091  1.00  0.00    -0.502 OA
ATOM     23  H   UNL     1     -44.531 -21.223  -6.332  1.00  0.00     0.293 HD
ENDBRANCH   2  22
BRANCH   6  24
ATOM     24  O   UNL     1     -43.224 -16.555  -2.724  1.00  0.00    -0.507 OA
ATOM     25  H   UNL     1     -43.348 -15.555  -2.695  1.00  0.00     0.293 HD
ENDBRANCH   6  24
BRANCH   8  26
ATOM     26  O   UNL     1     -45.460 -17.910   1.284  1.00  0.00    -0.508 OA
ATOM     27  H   UNL     1     -46.381 -18.025   1.690  1.00  0.00     0.293 HD
ENDBRANCH   8  26
TORSDOF 6
ENDMDL
MODEL 8
REMARK VINA RESULT:    -6.638     15.566     17.387
REMARK INTER + INTRA:          -8.231
REMARK INTER:                  -7.897
REMARK INTRA:                  -0.334
REMARK UNBOUND:                -0.234
REMARK SMILES O=c1c(O)c(-c2ccc(O)c(O)c2)oc2cc(O)cc(O)c12
REMARK SMILES IDX 5 1 3 2 2 3 1 4 22 5 20 6 19 7 17 8 16 9 15 10 14 11 6 12
REMARK SMILES IDX 7 13 8 14 9 15 13 16 11 17 10 18 12 20 4 22 21 24 18 26
REMARK H PARENT 10 19 12 21 4 23 21 25 18 27
REMARK Flexibility Score: inf
ROOT
ATOM      1  C   UNL     1     -45.538 -18.795  -0.128  1.00  0.00     0.180 A 
ATOM      2  C   UNL     1     -46.329 -19.932   0.115  1.00  0.00     0.208 A 
ATOM      3  C   UNL     1     -46.742 -20.719  -0.972  1.00  0.00     0.238 A 
ATOM      4  O   UNL     1     -47.405 -21.764  -0.743  1.00  0.00    -0.285 OA
ATOM      5  C   UNL     1     -46.373 -20.351  -2.288  1.00  0.00     0.111 A 
ATOM      6  C   UNL     1     -46.770 -21.053  -3.467  1.00  0.00     0.134 A 
ATOM      7  C   UNL     1     -46.238 -20.675  -4.706  1.00  0.00     0.093 A 
ATOM      8  C   UNL     1     -45.378 -19.584  -4.819  1.00  0.00     0.123 A 
ATOM      9  C   UNL     1     -45.031 -18.854  -3.682  1.00  0.00     0.094 A 
ATOM     10  C   UNL     1     -45.516 -19.228  -2.426  1.00  0.00     0.146 A 
ATOM     11  O   UNL     1     -45.153 -18.514  -1.367  1.00  0.00    -0.452 OA
ENDROOT
BRANCH   1  12
ATOM     12  C   UNL     1     -45.084 -17.903   0.963  1.00  0.00     0.025 A 
ATOM     13  C   UNL     1     -43.816 -18.098   1.534  1.00  0.00     0.016 A 
ATOM     14  C   UNL     1     -43.360 -17.254   2.550  1.00  0.00     0.051 A 
ATOM     15  C   UNL     1     -44.155 -16.196   3.000  1.00  0.00     0.157 A 
ATOM     16  C   UNL     1     -45.873 -16.825   1.403  1.00  0.00     0.062 A 
ATOM     17  C   UNL     1     -45.416 -15.975   2.422  1.00  0.00     0.158 A 
BRANCH  15  18
ATOM     18  O   UNL     1     -43.673 -15.372   4.018  1.00  0.00    -0.504 OA
ATOM     19  H   UNL     1     -42.858 -14.784   3.893  1.00  0.00     0.293 HD
ENDBRANCH  15  18
BRANCH  17  20
ATOM     20  O   UNL     1     -46.207 -14.913   2.857  1.00  0.00    -0.504 OA
ATOM     21  H   UNL     1     -46.255 -14.653   3.834  1.00  0.00     0.293 HD
ENDBRANCH  17  20
ENDBRANCH   1  12
BRANCH   2  22
ATOM     22  O   UNL     1     -46.663 -20.288   1.425  1.00  0.00    -0.502 OA
ATOM     23  H   UNL     1     -47.431 -20.914   1.639  1.00  0.00     0.293 HD
ENDBRANCH   2  22
BRANCH   6  24
ATOM     24  O   UNL     1     -47.696 -22.100  -3.477  1.00  0.00    -0.507 OA
ATOM     25  H   UNL     1     -48.664 -22.008  -3.745  1.00  0.00     0.293 HD
ENDBRANCH   6  24
BRANCH   8  26
ATOM     26  O   UNL     1     -44.882 -19.228  -6.071  1.00  0.00    -0.508 OA
ATOM     27  H   UNL     1     -45.229 -19.659  -6.921  1.00  0.00     0.293 HD
ENDBRANCH   8  26
TORSDOF 6
ENDMDL
MODEL 9
REMARK VINA RESULT:    -6.557      1.851      6.943
REMARK INTER + INTRA:          -8.133
REMARK INTER:                  -8.352
REMARK INTRA:                   0.220
REMARK UNBOUND:                -0.234
REMARK SMILES O=c1c(O)c(-c2ccc(O)c(O)c2)oc2cc(O)cc(O)c12
REMARK SMILES IDX 5 1 3 2 2 3 1 4 22 5 20 6 19 7 17 8 16 9 15 10 14 11 6 12
REMARK SMILES IDX 7 13 8 14 9 15 13 16 11 17 10 18 12 20 4 22 21 24 18 26
REMARK H PARENT 10 19 12 21 4 23 21 25 18 27
REMARK Flexibility Score: inf
ROOT
ATOM      1  C   UNL     1     -36.455 -29.396   8.121  1.00  0.00     0.180 A 
ATOM      2  C   UNL     1     -36.861 -30.550   8.814  1.00  0.00     0.208 A 
ATOM      3  C   UNL     1     -37.126 -31.723   8.090  1.00  0.00     0.238 A 
ATOM      4  O   UNL     1     -37.437 -32.766   8.722  1.00  0.00    -0.285 OA
ATOM      5  C   UNL     1     -36.998 -31.724   6.680  1.00  0.00     0.111 A 
ATOM      6  C   UNL     1     -37.280 -32.845   5.842  1.00  0.00     0.134 A 
ATOM      7  C   UNL     1     -36.992 -32.772   4.473  1.00  0.00     0.093 A 
ATOM      8  C   UNL     1     -36.496 -31.601   3.902  1.00  0.00     0.123 A 
ATOM      9  C   UNL     1     -36.273 -30.480   4.703  1.00  0.00     0.094 A 
ATOM     10  C   UNL     1     -36.515 -30.532   6.077  1.00  0.00     0.146 A 
ATOM     11  O   UNL     1     -36.281 -29.448   6.805  1.00  0.00    -0.452 OA
ENDROOT
BRANCH   1  12
ATOM     12  C   UNL     1     -36.181 -28.116   8.812  1.00  0.00     0.025 A 
ATOM     13  C   UNL     1     -35.244 -27.224   8.268  1.00  0.00     0.016 A 
ATOM     14  C   UNL     1     -34.986 -26.001   8.893  1.00  0.00     0.051 A 
ATOM     15  C   UNL     1     -35.670 -25.644  10.059  1.00  0.00     0.157 A 
ATOM     16  C   UNL     1     -36.883 -27.746   9.973  1.00  0.00     0.062 A 
ATOM     17  C   UNL     1     -36.627 -26.518  10.601  1.00  0.00     0.158 A 
BRANCH  15  18
ATOM     18  O   UNL     1     -35.389 -24.418  10.662  1.00  0.00    -0.504 OA
ATOM     19  H   UNL     1     -35.039 -24.352  11.610  1.00  0.00     0.293 HD
ENDBRANCH  15  18
BRANCH  17  20
ATOM     20  O   UNL     1     -37.322 -26.163  11.756  1.00  0.00    -0.504 OA
ATOM     21  H   UNL     1     -36.982 -25.441  12.380  1.00  0.00     0.293 HD
ENDBRANCH  17  20
ENDBRANCH   1  12
BRANCH   2  22
ATOM     22  O   UNL     1     -36.961 -30.532  10.209  1.00  0.00    -0.502 OA
ATOM     23  H   UNL     1     -36.461 -31.187  10.798  1.00  0.00     0.293 HD
ENDBRANCH   2  22
BRANCH   6  24
ATOM     24  O   UNL     1     -37.863 -34.031   6.295  1.00  0.00    -0.507 OA
ATOM     25  H   UNL     1     -37.372 -34.762   6.788  1.00  0.00     0.293 HD
ENDBRANCH   6  24
BRANCH   8  26
ATOM     26  O   UNL     1     -36.237 -31.560   2.534  1.00  0.00    -0.508 OA
ATOM     27  H   UNL     1     -36.383 -32.371   1.943  1.00  0.00     0.293 HD
ENDBRANCH   8  26
TORSDOF 6
ENDMDL
