MODEL 1
REMARK VINA RESULT:    -4.897      0.000      0.000
REMARK INTER + INTRA:          -9.881
REMARK INTER:                  -8.905
REMARK INTRA:                  -0.976
REMARK UNBOUND:                -0.976
REMARK SMILES CCCCCCCCCCCCCCCC(=O)[O-]
REMARK SMILES IDX 9 1 10 2 11 3 12 4 13 5 14 6 15 7 16 8 17 9 18 10 8 11 7 12
REMARK SMILES IDX 6 13 5 14 4 15 3 16 2 17 1 18
REMARK H PARENT
REMARK Flexibility Score: inf
ROOT
ATOM      1  C   UNL     1      49.438  61.886  93.646  1.00  0.00     0.000 C 
ENDROOT
BRANCH   1   2
ATOM      2  C   UNL     1      50.207  60.550  93.700  1.00  0.00     0.000 C 
BRANCH   2   3
ATOM      3  C   UNL     1      49.822  59.624  94.867  1.00  0.00     0.000 C 
BRANCH   3   4
ATOM      4  C   UNL     1      50.010  58.136  94.535  1.00  0.00     0.000 C 
BRANCH   4   5
ATOM      5  C   UNL     1      50.001  57.906  93.019  1.00  0.00     0.000 C 
BRANCH   5   6
ATOM      6  C   UNL     1      51.004  56.813  92.621  1.00  0.00     0.006 C 
BRANCH   6   7
ATOM      7  C   UNL     1      52.000  57.296  91.561  1.00  0.00     0.053 C 
BRANCH   7   8
ATOM      8  C   UNL     1      52.942  58.324  92.112  1.00  0.00     0.041 C 
ATOM      9  O   UNL     1      53.304  59.298  91.403  1.00  0.00    -0.550 OA
ATOM     10  O   UNL     1      53.443  58.187  93.401  1.00  0.00    -0.550 OA
ENDBRANCH   7   8
ENDBRANCH   6   7
ENDBRANCH   5   6
ENDBRANCH   4   5
ENDBRANCH   3   4
ENDBRANCH   2   3
ENDBRANCH   1   2
BRANCH   1  11
ATOM     11  C   UNL     1      48.249  61.916  92.667  1.00  0.00     0.000 C 
BRANCH  11  12
ATOM     12  C   UNL     1      47.630  63.309  92.435  1.00  0.00    -0.000 C 
BRANCH  12  13
ATOM     13  C   UNL     1      48.562  64.493  92.749  1.00  0.00    -0.000 C 
BRANCH  13  14
ATOM     14  C   UNL     1      47.866  65.855  92.606  1.00  0.00    -0.000 C 
BRANCH  14  15
ATOM     15  C   UNL     1      48.002  66.393  91.174  1.00  0.00    -0.000 C 
BRANCH  15  16
ATOM     16  C   UNL     1      48.897  67.642  91.085  1.00  0.00    -0.000 C 
BRANCH  16  17
ATOM     17  C   UNL     1      50.362  67.363  90.699  1.00  0.00    -0.003 C 
ATOM     18  C   UNL     1      51.359  67.835  91.757  1.00  0.00     0.004 C 
ENDBRANCH  16  17
ENDBRANCH  15  16
ENDBRANCH  14  15
ENDBRANCH  13  14
ENDBRANCH  12  13
ENDBRANCH  11  12
ENDBRANCH   1  11
TORSDOF 14
ENDMDL
MODEL 2
REMARK VINA RESULT:    -4.740      0.776      1.681
REMARK INTER + INTRA:          -9.595
REMARK INTER:                  -8.518
REMARK INTRA:                  -1.077
REMARK UNBOUND:                -0.976
REMARK SMILES CCCCCCCCCCCCCCCC(=O)[O-]
REMARK SMILES IDX 9 1 10 2 11 3 12 4 13 5 14 6 15 7 16 8 17 9 18 10 8 11 7 12
REMARK SMILES IDX 6 13 5 14 4 15 3 16 2 17 1 18
REMARK H PARENT
REMARK Flexibility Score: inf
ROOT
ATOM      1  C   UNL     1      48.636  62.751  92.876  1.00  0.00     0.000 C 
ENDROOT
BRANCH   1   2
ATOM      2  C   UNL     1      49.589  62.007  93.833  1.00  0.00     0.000 C 
BRANCH   2   3
ATOM      3  C   UNL     1      49.811  60.520  93.505  1.00  0.00     0.000 C 
BRANCH   3   4
ATOM      4  C   UNL     1      49.860  59.633  94.758  1.00  0.00     0.000 C 
BRANCH   4   5
ATOM      5  C   UNL     1      49.873  58.148  94.379  1.00  0.00     0.000 C 
BRANCH   5   6
ATOM      6  C   UNL     1      50.305  57.956  92.917  1.00  0.00     0.006 C 
BRANCH   6   7
ATOM      7  C   UNL     1      51.598  57.142  92.796  1.00  0.00     0.053 C 
BRANCH   7   8
ATOM      8  C   UNL     1      52.804  58.027  92.696  1.00  0.00     0.041 C 
ATOM      9  O   UNL     1      53.081  58.602  91.611  1.00  0.00    -0.550 OA
ATOM     10  O   UNL     1      53.637  58.192  93.795  1.00  0.00    -0.550 OA
ENDBRANCH   7   8
ENDBRANCH   6   7
ENDBRANCH   5   6
ENDBRANCH   4   5
ENDBRANCH   3   4
ENDBRANCH   2   3
ENDBRANCH   1   2
BRANCH   1  11
ATOM     11  C   UNL     1      48.673  64.288  92.981  1.00  0.00     0.000 C 
BRANCH  11  12
ATOM     12  C   UNL     1      47.498  65.016  92.299  1.00  0.00    -0.000 C 
BRANCH  12  13
ATOM     13  C   UNL     1      47.650  66.544  92.199  1.00  0.00    -0.000 C 
BRANCH  13  14
ATOM     14  C   UNL     1      48.220  67.001  90.848  1.00  0.00    -0.000 C 
BRANCH  14  15
ATOM     15  C   UNL     1      49.481  67.855  91.044  1.00  0.00    -0.000 C 
BRANCH  15  16
ATOM     16  C   UNL     1      50.772  67.017  91.084  1.00  0.00    -0.000 C 
BRANCH  16  17
ATOM     17  C   UNL     1      51.361  66.802  92.490  1.00  0.00    -0.003 C 
ATOM     18  C   UNL     1      50.961  67.897  93.479  1.00  0.00     0.004 C 
ENDBRANCH  16  17
ENDBRANCH  15  16
ENDBRANCH  14  15
ENDBRANCH  13  14
ENDBRANCH  12  13
ENDBRANCH  11  12
ENDBRANCH   1  11
TORSDOF 14
ENDMDL
MODEL 3
REMARK VINA RESULT:    -4.736      3.679      8.540
REMARK INTER + INTRA:          -9.589
REMARK INTER:                  -8.770
REMARK INTRA:                  -0.818
REMARK UNBOUND:                -0.976
REMARK SMILES CCCCCCCCCCCCCCCC(=O)[O-]
REMARK SMILES IDX 9 1 10 2 11 3 12 4 13 5 14 6 15 7 16 8 17 9 18 10 8 11 7 12
REMARK SMILES IDX 6 13 5 14 4 15 3 16 2 17 1 18
REMARK H PARENT
REMARK Flexibility Score: inf
ROOT
ATOM      1  C   UNL     1      49.296  61.390  93.233  1.00  0.00     0.000 C 
ENDROOT
BRANCH   1   2
ATOM      2  C   UNL     1      49.313  62.838  93.762  1.00  0.00     0.000 C 
BRANCH   2   3
ATOM      3  C   UNL     1      48.658  63.877  92.834  1.00  0.00     0.000 C 
BRANCH   3   4
ATOM      4  C   UNL     1      48.839  65.319  93.332  1.00  0.00     0.000 C 
BRANCH   4   5
ATOM      5  C   UNL     1      48.890  66.303  92.157  1.00  0.00     0.000 C 
BRANCH   5   6
ATOM      6  C   UNL     1      47.537  66.364  91.431  1.00  0.00     0.006 C 
BRANCH   6   7
ATOM      7  C   UNL     1      46.355  66.397  92.406  1.00  0.00     0.053 C 
BRANCH   7   8
ATOM      8  C   UNL     1      45.177  65.638  91.875  1.00  0.00     0.041 C 
ATOM      9  O   UNL     1      44.340  66.206  91.127  1.00  0.00    -0.550 OA
ATOM     10  O   UNL     1      44.988  64.309  92.234  1.00  0.00    -0.550 OA
ENDBRANCH   7   8
ENDBRANCH   6   7
ENDBRANCH   5   6
ENDBRANCH   4   5
ENDBRANCH   3   4
ENDBRANCH   2   3
ENDBRANCH   1   2
BRANCH   1  11
ATOM     11  C   UNL     1      50.280  60.429  93.927  1.00  0.00     0.000 C 
BRANCH  11  12
ATOM     12  C   UNL     1      49.628  59.392  94.864  1.00  0.00    -0.000 C 
BRANCH  12  13
ATOM     13  C   UNL     1      49.994  57.928  94.566  1.00  0.00    -0.000 C 
BRANCH  13  14
ATOM     14  C   UNL     1      50.086  57.628  93.062  1.00  0.00    -0.000 C 
BRANCH  14  15
ATOM     15  C   UNL     1      51.269  56.696  92.760  1.00  0.00    -0.000 C 
BRANCH  15  16
ATOM     16  C   UNL     1      52.481  56.949  93.676  1.00  0.00    -0.000 C 
BRANCH  16  17
ATOM     17  C   UNL     1      53.323  58.184  93.309  1.00  0.00    -0.003 C 
ATOM     18  C   UNL     1      53.130  58.630  91.860  1.00  0.00     0.004 C 
ENDBRANCH  16  17
ENDBRANCH  15  16
ENDBRANCH  14  15
ENDBRANCH  13  14
ENDBRANCH  12  13
ENDBRANCH  11  12
ENDBRANCH   1  11
TORSDOF 14
ENDMDL
MODEL 4
REMARK VINA RESULT:    -4.713      3.823      7.980
REMARK INTER + INTRA:          -9.545
REMARK INTER:                  -7.647
REMARK INTRA:                  -1.898
REMARK UNBOUND:                -0.976
REMARK SMILES CCCCCCCCCCCCCCCC(=O)[O-]
REMARK SMILES IDX 9 1 10 2 11 3 12 4 13 5 14 6 15 7 16 8 17 9 18 10 8 11 7 12
REMARK SMILES IDX 6 13 5 14 4 15 3 16 2 17 1 18
REMARK H PARENT
REMARK Flexibility Score: inf
ROOT
ATOM      1  C   UNL     1      52.565  58.258  94.376  1.00  0.00     0.000 C 
ENDROOT
BRANCH   1   2
ATOM      2  C   UNL     1      51.346  57.424  94.818  1.00  0.00     0.000 C 
BRANCH   2   3
ATOM      3  C   UNL     1      49.978  58.060  94.514  1.00  0.00     0.000 C 
BRANCH   3   4
ATOM      4  C   UNL     1      49.742  59.365  95.289  1.00  0.00     0.000 C 
BRANCH   4   5
ATOM      5  C   UNL     1      49.317  60.495  94.344  1.00  0.00     0.000 C 
BRANCH   5   6
ATOM      6  C   UNL     1      50.504  61.413  94.014  1.00  0.00     0.006 C 
BRANCH   6   7
ATOM      7  C   UNL     1      51.183  61.031  92.694  1.00  0.00     0.053 C 
BRANCH   7   8
ATOM      8  C   UNL     1      52.570  61.590  92.601  1.00  0.00     0.041 C 
ATOM      9  O   UNL     1      53.214  61.517  91.522  1.00  0.00    -0.550 OA
ATOM     10  O   UNL     1      53.163  62.166  93.718  1.00  0.00    -0.550 OA
ENDBRANCH   7   8
ENDBRANCH   6   7
ENDBRANCH   5   6
ENDBRANCH   4   5
ENDBRANCH   3   4
ENDBRANCH   2   3
ENDBRANCH   1   2
BRANCH   1  11
ATOM     11  C   UNL     1      53.285  57.745  93.114  1.00  0.00     0.000 C 
BRANCH  11  12
ATOM     12  C   UNL     1      52.507  57.936  91.797  1.00  0.00    -0.000 C 
BRANCH  12  13
ATOM     13  C   UNL     1      51.540  56.792  91.442  1.00  0.00    -0.000 C 
BRANCH  13  14
ATOM     14  C   UNL     1      52.154  55.767  90.477  1.00  0.00    -0.000 C 
BRANCH  14  15
ATOM     15  C   UNL     1      52.168  54.364  91.101  1.00  0.00    -0.000 C 
BRANCH  15  16
ATOM     16  C   UNL     1      51.979  54.386  92.630  1.00  0.00    -0.000 C 
BRANCH  16  17
ATOM     17  C   UNL     1      53.224  53.983  93.441  1.00  0.00    -0.003 C 
ATOM     18  C   UNL     1      53.201  54.514  94.874  1.00  0.00     0.004 C 
ENDBRANCH  16  17
ENDBRANCH  15  16
ENDBRANCH  14  15
ENDBRANCH  13  14
ENDBRANCH  12  13
ENDBRANCH  11  12
ENDBRANCH   1  11
TORSDOF 14
ENDMDL
MODEL 5
REMARK VINA RESULT:    -4.648      3.114      8.232
REMARK INTER + INTRA:          -9.427
REMARK INTER:                  -8.565
REMARK INTRA:                  -0.862
REMARK UNBOUND:                -0.976
REMARK SMILES CCCCCCCCCCCCCCCC(=O)[O-]
REMARK SMILES IDX 9 1 10 2 11 3 12 4 13 5 14 6 15 7 16 8 17 9 18 10 8 11 7 12
REMARK SMILES IDX 6 13 5 14 4 15 3 16 2 17 1 18
REMARK H PARENT
REMARK Flexibility Score: inf
ROOT
ATOM      1  C   UNL     1      48.907  64.228  93.034  1.00  0.00     0.000 C 
ENDROOT
BRANCH   1   2
ATOM      2  C   UNL     1      48.338  65.655  92.893  1.00  0.00     0.000 C 
BRANCH   2   3
ATOM      3  C   UNL     1      48.337  66.216  91.460  1.00  0.00     0.000 C 
BRANCH   3   4
ATOM      4  C   UNL     1      49.070  67.561  91.345  1.00  0.00     0.000 C 
BRANCH   4   5
ATOM      5  C   UNL     1      50.478  67.370  90.769  1.00  0.00     0.000 C 
BRANCH   5   6
ATOM      6  C   UNL     1      51.529  68.081  91.637  1.00  0.00     0.006 C 
BRANCH   6   7
ATOM      7  C   UNL     1      51.146  68.091  93.121  1.00  0.00     0.053 C 
BRANCH   7   8
ATOM      8  C   UNL     1      52.320  67.780  93.999  1.00  0.00     0.041 C 
ATOM      9  O   UNL     1      53.411  67.408  93.492  1.00  0.00    -0.550 OA
ATOM     10  O   UNL     1      52.198  67.870  95.380  1.00  0.00    -0.550 OA
ENDBRANCH   7   8
ENDBRANCH   6   7
ENDBRANCH   5   6
ENDBRANCH   4   5
ENDBRANCH   3   4
ENDBRANCH   2   3
ENDBRANCH   1   2
BRANCH   1  11
ATOM     11  C   UNL     1      47.943  63.097  92.626  1.00  0.00     0.000 C 
BRANCH  11  12
ATOM     12  C   UNL     1      48.509  61.672  92.780  1.00  0.00    -0.000 C 
BRANCH  12  13
ATOM     13  C   UNL     1      49.816  61.575  93.586  1.00  0.00    -0.000 C 
BRANCH  13  14
ATOM     14  C   UNL     1      49.637  60.864  94.936  1.00  0.00    -0.000 C 
BRANCH  14  15
ATOM     15  C   UNL     1      49.717  59.340  94.767  1.00  0.00    -0.000 C 
BRANCH  15  16
ATOM     16  C   UNL     1      50.592  58.914  93.574  1.00  0.00    -0.000 C 
BRANCH  16  17
ATOM     17  C   UNL     1      50.394  57.458  93.113  1.00  0.00    -0.003 C 
ATOM     18  C   UNL     1      51.382  57.035  92.027  1.00  0.00     0.004 C 
ENDBRANCH  16  17
ENDBRANCH  15  16
ENDBRANCH  14  15
ENDBRANCH  13  14
ENDBRANCH  12  13
ENDBRANCH  11  12
ENDBRANCH   1  11
TORSDOF 14
ENDMDL
MODEL 6
REMARK VINA RESULT:    -4.638      1.679      2.126
REMARK INTER + INTRA:          -9.409
REMARK INTER:                  -8.512
REMARK INTRA:                  -0.897
REMARK UNBOUND:                -0.976
REMARK SMILES CCCCCCCCCCCCCCCC(=O)[O-]
REMARK SMILES IDX 9 1 10 2 11 3 12 4 13 5 14 6 15 7 16 8 17 9 18 10 8 11 7 12
REMARK SMILES IDX 6 13 5 14 4 15 3 16 2 17 1 18
REMARK H PARENT
REMARK Flexibility Score: inf
ROOT
ATOM      1  C   UNL     1      48.431  61.748  92.708  1.00  0.00     0.000 C 
ENDROOT
BRANCH   1   2
ATOM      2  C   UNL     1      49.440  61.481  93.844  1.00  0.00     0.000 C 
BRANCH   2   3
ATOM      3  C   UNL     1      50.844  61.056  93.380  1.00  0.00     0.000 C 
BRANCH   3   4
ATOM      4  C   UNL     1      51.038  59.532  93.382  1.00  0.00     0.000 C 
BRANCH   4   5
ATOM      5  C   UNL     1      52.391  59.150  92.771  1.00  0.00     0.000 C 
BRANCH   5   6
ATOM      6  C   UNL     1      53.211  58.287  93.744  1.00  0.00     0.006 C 
BRANCH   6   7
ATOM      7  C   UNL     1      52.359  57.210  94.424  1.00  0.00     0.053 C 
BRANCH   7   8
ATOM      8  C   UNL     1      52.397  55.915  93.672  1.00  0.00     0.041 C 
ATOM      9  O   UNL     1      51.692  55.758  92.641  1.00  0.00    -0.550 OA
ATOM     10  O   UNL     1      53.191  54.869  94.129  1.00  0.00    -0.550 OA
ENDBRANCH   7   8
ENDBRANCH   6   7
ENDBRANCH   5   6
ENDBRANCH   4   5
ENDBRANCH   3   4
ENDBRANCH   2   3
ENDBRANCH   1   2
BRANCH   1  11
ATOM     11  C   UNL     1      47.907  63.195  92.628  1.00  0.00     0.000 C 
BRANCH  11  12
ATOM     12  C   UNL     1      48.926  64.280  93.027  1.00  0.00    -0.000 C 
BRANCH  12  13
ATOM     13  C   UNL     1      48.377  65.718  93.030  1.00  0.00    -0.000 C 
BRANCH  13  14
ATOM     14  C   UNL     1      47.246  65.928  92.012  1.00  0.00    -0.000 C 
BRANCH  14  15
ATOM     15  C   UNL     1      47.764  66.645  90.756  1.00  0.00    -0.000 C 
BRANCH  15  16
ATOM     16  C   UNL     1      48.759  67.775  91.079  1.00  0.00    -0.000 C 
BRANCH  16  17
ATOM     17  C   UNL     1      50.179  67.567  90.523  1.00  0.00    -0.003 C 
ATOM     18  C   UNL     1      51.266  67.716  91.588  1.00  0.00     0.004 C 
ENDBRANCH  16  17
ENDBRANCH  15  16
ENDBRANCH  14  15
ENDBRANCH  13  14
ENDBRANCH  12  13
ENDBRANCH  11  12
ENDBRANCH   1  11
TORSDOF 14
ENDMDL
MODEL 7
REMARK VINA RESULT:    -4.603      1.780      2.568
REMARK INTER + INTRA:          -9.346
REMARK INTER:                  -8.245
REMARK INTRA:                  -1.102
REMARK UNBOUND:                -0.976
REMARK SMILES CCCCCCCCCCCCCCCC(=O)[O-]
REMARK SMILES IDX 9 1 10 2 11 3 12 4 13 5 14 6 15 7 16 8 17 9 18 10 8 11 7 12
REMARK SMILES IDX 6 13 5 14 4 15 3 16 2 17 1 18
REMARK H PARENT
REMARK Flexibility Score: inf
ROOT
ATOM      1  C   UNL     1      47.967  62.932  92.562  1.00  0.00     0.000 C 
ENDROOT
BRANCH   1   2
ATOM      2  C   UNL     1      48.588  61.596  93.018  1.00  0.00     0.000 C 
BRANCH   2   3
ATOM      3  C   UNL     1      49.981  61.712  93.661  1.00  0.00     0.000 C 
BRANCH   3   4
ATOM      4  C   UNL     1      50.806  60.422  93.535  1.00  0.00     0.000 C 
BRANCH   4   5
ATOM      5  C   UNL     1      50.079  59.239  94.184  1.00  0.00     0.000 C 
BRANCH   5   6
ATOM      6  C   UNL     1      50.833  57.924  93.934  1.00  0.00     0.006 C 
BRANCH   6   7
ATOM      7  C   UNL     1      50.560  57.355  92.537  1.00  0.00     0.053 C 
BRANCH   7   8
ATOM      8  C   UNL     1      51.817  57.245  91.728  1.00  0.00     0.041 C 
ATOM      9  O   UNL     1      52.799  57.991  91.977  1.00  0.00    -0.550 OA
ATOM     10  O   UNL     1      51.889  56.340  90.677  1.00  0.00    -0.550 OA
ENDBRANCH   7   8
ENDBRANCH   6   7
ENDBRANCH   5   6
ENDBRANCH   4   5
ENDBRANCH   3   4
ENDBRANCH   2   3
ENDBRANCH   1   2
BRANCH   1  11
ATOM     11  C   UNL     1      48.702  64.194  93.053  1.00  0.00     0.000 C 
BRANCH  11  12
ATOM     12  C   UNL     1      48.327  65.495  92.316  1.00  0.00    -0.000 C 
BRANCH  12  13
ATOM     13  C   UNL     1      46.894  65.995  92.570  1.00  0.00    -0.000 C 
BRANCH  13  14
ATOM     14  C   UNL     1      46.810  67.010  93.720  1.00  0.00    -0.000 C 
BRANCH  14  15
ATOM     15  C   UNL     1      48.074  67.881  93.776  1.00  0.00    -0.000 C 
BRANCH  15  16
ATOM     16  C   UNL     1      48.719  67.912  95.174  1.00  0.00    -0.000 C 
BRANCH  16  17
ATOM     17  C   UNL     1      50.243  67.691  95.188  1.00  0.00    -0.003 C 
ATOM     18  C   UNL     1      50.879  67.824  93.804  1.00  0.00     0.004 C 
ENDBRANCH  16  17
ENDBRANCH  15  16
ENDBRANCH  14  15
ENDBRANCH  13  14
ENDBRANCH  12  13
ENDBRANCH  11  12
ENDBRANCH   1  11
TORSDOF 14
ENDMDL
MODEL 8
REMARK VINA RESULT:    -4.580      1.375      2.331
REMARK INTER + INTRA:          -9.305
REMARK INTER:                  -8.280
REMARK INTRA:                  -1.025
REMARK UNBOUND:                -0.976
REMARK SMILES CCCCCCCCCCCCCCCC(=O)[O-]
REMARK SMILES IDX 9 1 10 2 11 3 12 4 13 5 14 6 15 7 16 8 17 9 18 10 8 11 7 12
REMARK SMILES IDX 6 13 5 14 4 15 3 16 2 17 1 18
REMARK H PARENT
REMARK Flexibility Score: inf
ROOT
ATOM      1  C   UNL     1      48.518  61.414  92.634  1.00  0.00     0.000 C 
ENDROOT
BRANCH   1   2
ATOM      2  C   UNL     1      49.777  61.134  93.481  1.00  0.00     0.000 C 
BRANCH   2   3
ATOM      3  C   UNL     1      49.528  60.328  94.767  1.00  0.00     0.000 C 
BRANCH   3   4
ATOM      4  C   UNL     1      50.016  58.875  94.664  1.00  0.00     0.000 C 
BRANCH   4   5
ATOM      5  C   UNL     1      50.007  58.395  93.208  1.00  0.00     0.000 C 
BRANCH   5   6
ATOM      6  C   UNL     1      50.919  57.171  93.025  1.00  0.00     0.006 C 
BRANCH   6   7
ATOM      7  C   UNL     1      51.921  57.360  91.881  1.00  0.00     0.053 C 
BRANCH   7   8
ATOM      8  C   UNL     1      53.002  58.333  92.245  1.00  0.00     0.041 C 
ATOM      9  O   UNL     1      53.476  58.348  93.411  1.00  0.00    -0.550 OA
ATOM     10  O   UNL     1      53.463  59.243  91.302  1.00  0.00    -0.550 OA
ENDBRANCH   7   8
ENDBRANCH   6   7
ENDBRANCH   5   6
ENDBRANCH   4   5
ENDBRANCH   3   4
ENDBRANCH   2   3
ENDBRANCH   1   2
BRANCH   1  11
ATOM     11  C   UNL     1      48.054  62.883  92.619  1.00  0.00     0.000 C 
BRANCH  11  12
ATOM     12  C   UNL     1      49.001  63.873  93.329  1.00  0.00    -0.000 C 
BRANCH  12  13
ATOM     13  C   UNL     1      49.065  65.275  92.699  1.00  0.00    -0.000 C 
BRANCH  13  14
ATOM     14  C   UNL     1      48.325  66.337  93.528  1.00  0.00    -0.000 C 
BRANCH  14  15
ATOM     15  C   UNL     1      47.527  67.284  92.619  1.00  0.00    -0.000 C 
BRANCH  15  16
ATOM     16  C   UNL     1      47.096  66.624  91.296  1.00  0.00    -0.000 C 
BRANCH  16  17
ATOM     17  C   UNL     1      45.609  66.234  91.222  1.00  0.00    -0.003 C 
ATOM     18  C   UNL     1      45.222  65.159  92.238  1.00  0.00     0.004 C 
ENDBRANCH  16  17
ENDBRANCH  15  16
ENDBRANCH  14  15
ENDBRANCH  13  14
ENDBRANCH  12  13
ENDBRANCH  11  12
ENDBRANCH   1  11
TORSDOF 14
ENDMDL
MODEL 9
REMARK VINA RESULT:    -4.483      1.590      3.215
REMARK INTER + INTRA:          -9.128
REMARK INTER:                  -8.453
REMARK INTRA:                  -0.676
REMARK UNBOUND:                -0.976
REMARK SMILES CCCCCCCCCCCCCCCC(=O)[O-]
REMARK SMILES IDX 9 1 10 2 11 3 12 4 13 5 14 6 15 7 16 8 17 9 18 10 8 11 7 12
REMARK SMILES IDX 6 13 5 14 4 15 3 16 2 17 1 18
REMARK H PARENT
REMARK Flexibility Score: inf
ROOT
ATOM      1  C   UNL     1      48.611  64.019  92.652  1.00  0.00     0.000 C 
ENDROOT
BRANCH   1   2
ATOM      2  C   UNL     1      47.770  62.726  92.616  1.00  0.00     0.000 C 
BRANCH   2   3
ATOM      3  C   UNL     1      48.585  61.421  92.605  1.00  0.00     0.000 C 
BRANCH   3   4
ATOM      4  C   UNL     1      49.573  61.324  93.777  1.00  0.00     0.000 C 
BRANCH   4   5
ATOM      5  C   UNL     1      50.714  60.351  93.454  1.00  0.00     0.000 C 
BRANCH   5   6
ATOM      6  C   UNL     1      50.427  58.956  94.029  1.00  0.00     0.006 C 
BRANCH   6   7
ATOM      7  C   UNL     1      50.218  57.907  92.931  1.00  0.00     0.053 C 
BRANCH   7   8
ATOM      8  C   UNL     1      51.505  57.244  92.545  1.00  0.00     0.041 C 
ATOM      9  O   UNL     1      52.121  57.607  91.509  1.00  0.00    -0.550 OA
ATOM     10  O   UNL     1      52.008  56.202  93.314  1.00  0.00    -0.550 OA
ENDBRANCH   7   8
ENDBRANCH   6   7
ENDBRANCH   5   6
ENDBRANCH   4   5
ENDBRANCH   3   4
ENDBRANCH   2   3
ENDBRANCH   1   2
BRANCH   1  11
ATOM     11  C   UNL     1      47.851  65.302  92.264  1.00  0.00     0.000 C 
BRANCH  11  12
ATOM     12  C   UNL     1      48.658  66.608  92.415  1.00  0.00    -0.000 C 
BRANCH  12  13
ATOM     13  C   UNL     1      49.154  67.221  91.094  1.00  0.00    -0.000 C 
BRANCH  13  14
ATOM     14  C   UNL     1      50.658  67.532  91.108  1.00  0.00    -0.000 C 
BRANCH  14  15
ATOM     15  C   UNL     1      51.106  68.014  92.495  1.00  0.00    -0.000 C 
BRANCH  15  16
ATOM     16  C   UNL     1      52.467  67.434  92.921  1.00  0.00    -0.000 C 
BRANCH  16  17
ATOM     17  C   UNL     1      52.864  67.719  94.381  1.00  0.00    -0.003 C 
ATOM     18  C   UNL     1      54.377  67.718  94.601  1.00  0.00     0.004 C 
ENDBRANCH  16  17
ENDBRANCH  15  16
ENDBRANCH  14  15
ENDBRANCH  13  14
ENDBRANCH  12  13
ENDBRANCH  11  12
ENDBRANCH   1  11
TORSDOF 14
ENDMDL
