MODEL 1
REMARK VINA RESULT:     0.861      0.000      0.000
REMARK INTER + INTRA:           0.731
REMARK INTER:                   1.011
REMARK INTRA:                  -0.281
REMARK UNBOUND:                -0.281
REMARK SMILES O=c1cc(-c2ccc(O)c(O)c2)oc2cc(O)cc(O)c12
REMARK SMILES IDX 4 1 3 2 2 3 1 4 21 5 19 6 18 7 16 8 15 9 14 10 13 11 5 12
REMARK SMILES IDX 6 13 7 14 8 15 12 16 10 17 9 18 11 20 20 22 17 24
REMARK H PARENT 9 19 11 21 20 23 17 25
REMARK Flexibility Score: inf
ROOT
ATOM      1  C   UNL     1      13.875  39.146 -11.250  1.00  0.00     0.138 A 
ATOM      2  C   UNL     1      14.409  37.873 -11.497  1.00  0.00     0.100 A 
ATOM      3  C   UNL     1      15.569  37.749 -12.262  1.00  0.00     0.197 A 
ATOM      4  O   UNL     1      16.060  36.600 -12.413  1.00  0.00    -0.289 OA
ATOM      5  C   UNL     1      16.179  38.903 -12.809  1.00  0.00     0.107 A 
ATOM      6  C   UNL     1      17.340  38.893 -13.638  1.00  0.00     0.134 A 
ATOM      7  C   UNL     1      17.920  40.107 -14.026  1.00  0.00     0.093 A 
ATOM      8  C   UNL     1      17.347  41.329 -13.665  1.00  0.00     0.123 A 
ATOM      9  C   UNL     1      16.183  41.347 -12.902  1.00  0.00     0.094 A 
ATOM     10  C   UNL     1      15.599  40.154 -12.469  1.00  0.00     0.146 A 
ATOM     11  O   UNL     1      14.496  40.217 -11.730  1.00  0.00    -0.456 OA
ENDROOT
BRANCH   1  12
ATOM     12  C   UNL     1      12.642  39.336 -10.444  1.00  0.00     0.021 A 
ATOM     13  C   UNL     1      11.417  38.750 -10.816  1.00  0.00     0.016 A 
ATOM     14  C   UNL     1      10.271  38.953 -10.044  1.00  0.00     0.051 A 
ATOM     15  C   UNL     1      10.324  39.750  -8.893  1.00  0.00     0.157 A 
ATOM     16  C   UNL     1      12.684  40.146  -9.295  1.00  0.00     0.062 A 
ATOM     17  C   UNL     1      11.538  40.350  -8.519  1.00  0.00     0.158 A 
BRANCH  15  18
ATOM     18  O   UNL     1       9.179  39.949  -8.125  1.00  0.00    -0.504 OA
ATOM     19  H   UNL     1       8.430  39.267  -8.100  1.00  0.00     0.293 HD
ENDBRANCH  15  18
BRANCH  17  20
ATOM     20  O   UNL     1      11.624  41.152  -7.381  1.00  0.00    -0.504 OA
ATOM     21  H   UNL     1      12.505  41.330  -6.915  1.00  0.00     0.293 HD
ENDBRANCH  17  20
ENDBRANCH   1  12
BRANCH   6  22
ATOM     22  O   UNL     1      17.943  37.729 -14.125  1.00  0.00    -0.507 OA
ATOM     23  H   UNL     1      18.894  37.452 -13.938  1.00  0.00     0.293 HD
ENDBRANCH   6  22
BRANCH   8  24
ATOM     24  O   UNL     1      17.924  42.531 -14.069  1.00  0.00    -0.508 OA
ATOM     25  H   UNL     1      17.704  42.951 -14.965  1.00  0.00     0.293 HD
ENDBRANCH   8  24
TORSDOF 5
ENDMDL
MODEL 2
REMARK VINA RESULT:     1.513      1.466      6.909
REMARK INTER + INTRA:           1.498
REMARK INTER:                   1.782
REMARK INTRA:                  -0.284
REMARK UNBOUND:                -0.281
REMARK SMILES O=c1cc(-c2ccc(O)c(O)c2)oc2cc(O)cc(O)c12
REMARK SMILES IDX 4 1 3 2 2 3 1 4 21 5 19 6 18 7 16 8 15 9 14 10 13 11 5 12
REMARK SMILES IDX 6 13 7 14 8 15 12 16 10 17 9 18 11 20 20 22 17 24
REMARK H PARENT 9 19 11 21 20 23 17 25
REMARK Flexibility Score: inf
ROOT
ATOM      1  C   UNL     1      14.071  39.168 -11.886  1.00  0.00     0.138 A 
ATOM      2  C   UNL     1      13.010  38.553 -12.564  1.00  0.00     0.100 A 
ATOM      3  C   UNL     1      11.754  38.484 -11.960  1.00  0.00     0.197 A 
ATOM      4  O   UNL     1      10.806  37.983 -12.618  1.00  0.00    -0.289 OA
ATOM      5  C   UNL     1      11.569  39.006 -10.657  1.00  0.00     0.107 A 
ATOM      6  C   UNL     1      10.344  38.954  -9.927  1.00  0.00     0.134 A 
ATOM      7  C   UNL     1      10.249  39.607  -8.692  1.00  0.00     0.093 A 
ATOM      8  C   UNL     1      11.352  40.257  -8.134  1.00  0.00     0.123 A 
ATOM      9  C   UNL     1      12.567  40.266  -8.814  1.00  0.00     0.094 A 
ATOM     10  C   UNL     1      12.685  39.654 -10.064  1.00  0.00     0.146 A 
ATOM     11  O   UNL     1      13.858  39.698 -10.686  1.00  0.00    -0.456 OA
ENDROOT
BRANCH   1  12
ATOM     12  C   UNL     1      15.429  39.268 -12.480  1.00  0.00     0.021 A 
ATOM     13  C   UNL     1      16.131  38.129 -12.917  1.00  0.00     0.016 A 
ATOM     14  C   UNL     1      17.410  38.251 -13.464  1.00  0.00     0.051 A 
ATOM     15  C   UNL     1      18.015  39.509 -13.577  1.00  0.00     0.157 A 
ATOM     16  C   UNL     1      16.048  40.527 -12.585  1.00  0.00     0.062 A 
ATOM     17  C   UNL     1      17.329  40.652 -13.133  1.00  0.00     0.158 A 
BRANCH  15  18
ATOM     18  O   UNL     1      19.291  39.627 -14.125  1.00  0.00    -0.504 OA
ATOM     19  H   UNL     1      20.063  39.058 -13.799  1.00  0.00     0.293 HD
ENDBRANCH  15  18
BRANCH  17  20
ATOM     20  O   UNL     1      17.904  41.919 -13.228  1.00  0.00    -0.504 OA
ATOM     21  H   UNL     1      18.295  42.269 -14.095  1.00  0.00     0.293 HD
ENDBRANCH  17  20
ENDBRANCH   1  12
BRANCH   6  22
ATOM     22  O   UNL     1       9.208  38.261 -10.356  1.00  0.00    -0.507 OA
ATOM     23  H   UNL     1       9.090  37.858 -11.272  1.00  0.00     0.293 HD
ENDBRANCH   6  22
BRANCH   8  24
ATOM     24  O   UNL     1      11.252  40.891  -6.897  1.00  0.00    -0.508 OA
ATOM     25  H   UNL     1      12.075  41.191  -6.386  1.00  0.00     0.293 HD
ENDBRANCH   8  24
TORSDOF 5
ENDMDL
MODEL 3
REMARK VINA RESULT:     3.035      2.552      4.026
REMARK INTER + INTRA:           3.287
REMARK INTER:                   3.581
REMARK INTRA:                  -0.294
REMARK UNBOUND:                -0.281
REMARK SMILES O=c1cc(-c2ccc(O)c(O)c2)oc2cc(O)cc(O)c12
REMARK SMILES IDX 4 1 3 2 2 3 1 4 21 5 19 6 18 7 16 8 15 9 14 10 13 11 5 12
REMARK SMILES IDX 6 13 7 14 8 15 12 16 10 17 9 18 11 20 20 22 17 24
REMARK H PARENT 9 19 11 21 20 23 17 25
REMARK Flexibility Score: inf
ROOT
ATOM      1  C   UNL     1      14.941  41.187 -10.974  1.00  0.00     0.138 A 
ATOM      2  C   UNL     1      16.202  41.482 -11.510  1.00  0.00     0.100 A 
ATOM      3  C   UNL     1      16.798  40.590 -12.403  1.00  0.00     0.197 A 
ATOM      4  O   UNL     1      17.900  40.912 -12.916  1.00  0.00    -0.289 OA
ATOM      5  C   UNL     1      16.140  39.382 -12.735  1.00  0.00     0.107 A 
ATOM      6  C   UNL     1      16.670  38.379 -13.601  1.00  0.00     0.134 A 
ATOM      7  C   UNL     1      15.878  37.278 -13.947  1.00  0.00     0.093 A 
ATOM      8  C   UNL     1      14.598  37.113 -13.411  1.00  0.00     0.123 A 
ATOM      9  C   UNL     1      14.094  38.058 -12.522  1.00  0.00     0.094 A 
ATOM     10  C   UNL     1      14.846  39.186 -12.184  1.00  0.00     0.146 A 
ATOM     11  O   UNL     1      14.321  40.072 -11.343  1.00  0.00    -0.456 OA
ENDROOT
BRANCH   1  12
ATOM     12  C   UNL     1      14.262  42.100 -10.018  1.00  0.00     0.021 A 
ATOM     13  C   UNL     1      13.058  41.744  -9.384  1.00  0.00     0.016 A 
ATOM     14  C   UNL     1      12.436  42.625  -8.498  1.00  0.00     0.051 A 
ATOM     15  C   UNL     1      13.000  43.880  -8.233  1.00  0.00     0.157 A 
ATOM     16  C   UNL     1      14.816  43.367  -9.759  1.00  0.00     0.062 A 
ATOM     17  C   UNL     1      14.196  44.252  -8.870  1.00  0.00     0.158 A 
BRANCH  15  18
ATOM     18  O   UNL     1      12.377  44.756  -7.347  1.00  0.00    -0.504 OA
ATOM     19  H   UNL     1      12.589  44.750  -6.356  1.00  0.00     0.293 HD
ENDBRANCH  15  18
BRANCH  17  20
ATOM     20  O   UNL     1      14.782  45.495  -8.632  1.00  0.00    -0.504 OA
ATOM     21  H   UNL     1      15.757  45.589  -8.374  1.00  0.00     0.293 HD
ENDBRANCH  17  20
ENDBRANCH   1  12
BRANCH   6  22
ATOM     22  O   UNL     1      17.966  38.405 -14.125  1.00  0.00    -0.507 OA
ATOM     23  H   UNL     1      18.804  38.555 -13.584  1.00  0.00     0.293 HD
ENDBRANCH   6  22
BRANCH   8  24
ATOM     24  O   UNL     1      13.824  36.006 -13.749  1.00  0.00    -0.508 OA
ATOM     25  H   UNL     1      13.158  35.604 -13.098  1.00  0.00     0.293 HD
ENDBRANCH   8  24
TORSDOF 5
ENDMDL
MODEL 4
REMARK VINA RESULT:     3.628      2.330      3.261
REMARK INTER + INTRA:           3.984
REMARK INTER:                   4.297
REMARK INTRA:                  -0.313
REMARK UNBOUND:                -0.281
REMARK SMILES O=c1cc(-c2ccc(O)c(O)c2)oc2cc(O)cc(O)c12
REMARK SMILES IDX 4 1 3 2 2 3 1 4 21 5 19 6 18 7 16 8 15 9 14 10 13 11 5 12
REMARK SMILES IDX 6 13 7 14 8 15 12 16 10 17 9 18 11 20 20 22 17 24
REMARK H PARENT 9 19 11 21 20 23 17 25
REMARK Flexibility Score: inf
ROOT
ATOM      1  C   UNL     1      13.982  40.339 -10.877  1.00  0.00     0.138 A 
ATOM      2  C   UNL     1      13.132  39.254 -11.133  1.00  0.00     0.100 A 
ATOM      3  C   UNL     1      13.553  38.235 -11.990  1.00  0.00     0.197 A 
ATOM      4  O   UNL     1      12.795  37.244 -12.151  1.00  0.00    -0.289 OA
ATOM      5  C   UNL     1      14.819  38.321 -12.617  1.00  0.00     0.107 A 
ATOM      6  C   UNL     1      15.335  37.364 -13.541  1.00  0.00     0.134 A 
ATOM      7  C   UNL     1      16.648  37.495 -14.009  1.00  0.00     0.093 A 
ATOM      8  C   UNL     1      17.442  38.582 -13.633  1.00  0.00     0.123 A 
ATOM      9  C   UNL     1      16.928  39.550 -12.775  1.00  0.00     0.094 A 
ATOM     10  C   UNL     1      15.634  39.430 -12.264  1.00  0.00     0.146 A 
ATOM     11  O   UNL     1      15.187  40.369 -11.436  1.00  0.00    -0.456 OA
ENDROOT
BRANCH   1  12
ATOM     12  C   UNL     1      13.584  41.450  -9.975  1.00  0.00     0.021 A 
ATOM     13  C   UNL     1      12.522  41.317  -9.062  1.00  0.00     0.016 A 
ATOM     14  C   UNL     1      12.163  42.382  -8.232  1.00  0.00     0.051 A 
ATOM     15  C   UNL     1      12.852  43.600  -8.305  1.00  0.00     0.157 A 
ATOM     16  C   UNL     1      14.262  42.680 -10.052  1.00  0.00     0.062 A 
ATOM     17  C   UNL     1      13.906  43.748  -9.222  1.00  0.00     0.158 A 
BRANCH  15  18
ATOM     18  O   UNL     1      12.492  44.660  -7.475  1.00  0.00    -0.504 OA
ATOM     19  H   UNL     1      11.524  44.844  -7.238  1.00  0.00     0.293 HD
ENDBRANCH  15  18
BRANCH  17  20
ATOM     20  O   UNL     1      14.610  44.948  -9.322  1.00  0.00    -0.504 OA
ATOM     21  H   UNL     1      14.139  45.843  -9.390  1.00  0.00     0.293 HD
ENDBRANCH  17  20
ENDBRANCH   1  12
BRANCH   6  22
ATOM     22  O   UNL     1      14.598  36.288 -14.045  1.00  0.00    -0.507 OA
ATOM     23  H   UNL     1      14.944  35.613 -14.709  1.00  0.00     0.293 HD
ENDBRANCH   6  22
BRANCH   8  24
ATOM     24  O   UNL     1      18.743  38.712 -14.116  1.00  0.00    -0.508 OA
ATOM     25  H   UNL     1      19.433  37.980 -13.987  1.00  0.00     0.293 HD
ENDBRANCH   8  24
TORSDOF 5
ENDMDL
MODEL 5
REMARK VINA RESULT:     3.673      1.274      2.732
REMARK INTER + INTRA:           4.037
REMARK INTER:                   4.314
REMARK INTRA:                  -0.277
REMARK UNBOUND:                -0.281
REMARK SMILES O=c1cc(-c2ccc(O)c(O)c2)oc2cc(O)cc(O)c12
REMARK SMILES IDX 4 1 3 2 2 3 1 4 21 5 19 6 18 7 16 8 15 9 14 10 13 11 5 12
REMARK SMILES IDX 6 13 7 14 8 15 12 16 10 17 9 18 11 20 20 22 17 24
REMARK H PARENT 9 19 11 21 20 23 17 25
REMARK Flexibility Score: inf
ROOT
ATOM      1  C   UNL     1      13.582  39.540 -11.015  1.00  0.00     0.138 A 
ATOM      2  C   UNL     1      14.347  40.682 -11.290  1.00  0.00     0.100 A 
ATOM      3  C   UNL     1      15.491  40.571 -12.081  1.00  0.00     0.197 A 
ATOM      4  O   UNL     1      16.122  41.623 -12.363  1.00  0.00    -0.289 OA
ATOM      5  C   UNL     1      15.886  39.304 -12.574  1.00  0.00     0.107 A 
ATOM      6  C   UNL     1      17.056  39.065 -13.355  1.00  0.00     0.134 A 
ATOM      7  C   UNL     1      17.283  37.789 -13.883  1.00  0.00     0.093 A 
ATOM      8  C   UNL     1      16.415  36.729 -13.607  1.00  0.00     0.123 A 
ATOM      9  C   UNL     1      15.301  36.940 -12.800  1.00  0.00     0.094 A 
ATOM     10  C   UNL     1      15.027  38.211 -12.287  1.00  0.00     0.146 A 
ATOM     11  O   UNL     1      13.945  38.372 -11.533  1.00  0.00    -0.456 OA
ENDROOT
BRANCH   1  12
ATOM     12  C   UNL     1      12.356  39.601 -10.177  1.00  0.00     0.021 A 
ATOM     13  C   UNL     1      11.172  38.939 -10.550  1.00  0.00     0.016 A 
ATOM     14  C   UNL     1      10.032  39.021  -9.748  1.00  0.00     0.051 A 
ATOM     15  C   UNL     1      10.050  39.769  -8.564  1.00  0.00     0.157 A 
ATOM     16  C   UNL     1      12.364  40.361  -8.994  1.00  0.00     0.062 A 
ATOM     17  C   UNL     1      11.223  40.444  -8.187  1.00  0.00     0.158 A 
BRANCH  15  18
ATOM     18  O   UNL     1       8.911  39.847  -7.766  1.00  0.00    -0.504 OA
ATOM     19  H   UNL     1       8.433  40.726  -7.606  1.00  0.00     0.293 HD
ENDBRANCH  15  18
BRANCH  17  20
ATOM     20  O   UNL     1      11.274  41.201  -7.017  1.00  0.00    -0.504 OA
ATOM     21  H   UNL     1      12.115  41.267  -6.456  1.00  0.00     0.293 HD
ENDBRANCH  17  20
ENDBRANCH   1  12
BRANCH   6  22
ATOM     22  O   UNL     1      18.030  40.033 -13.620  1.00  0.00    -0.507 OA
ATOM     23  H   UNL     1      18.827  39.898 -14.223  1.00  0.00     0.293 HD
ENDBRANCH   6  22
BRANCH   8  24
ATOM     24  O   UNL     1      16.658  35.459 -14.125  1.00  0.00    -0.508 OA
ATOM     25  H   UNL     1      16.156  34.644 -13.790  1.00  0.00     0.293 HD
ENDBRANCH   8  24
TORSDOF 5
ENDMDL
