MODEL 1
REMARK VINA RESULT:    -6.604      0.000      0.000
REMARK INTER + INTRA:          -7.888
REMARK INTER:                  -7.762
REMARK INTRA:                  -0.126
REMARK UNBOUND:                -0.126
REMARK SMILES O=C([O-])C=Cc1ccc(O)c(O)c1
REMARK SMILES IDX 6 1 13 2 7 3 11 4 8 5 9 6 5 7 4 8 2 9 1 10 3 11 12 12 10 14
REMARK H PARENT 12 13 10 15
REMARK Flexibility Score: inf
ROOT
ATOM      1  C   UNL     1      -1.157  45.273   0.946  1.00  0.00    -0.022 A 
ATOM      2  C   UNL     1      -1.737  45.512  -0.316  1.00  0.00     0.058 A 
ATOM      3  C   UNL     1       0.145  44.747   1.005  1.00  0.00     0.012 A 
ATOM      4  C   UNL     1      -1.018  45.253  -1.492  1.00  0.00     0.157 A 
ATOM      5  C   UNL     1       0.862  44.491  -0.167  1.00  0.00     0.051 A 
ATOM      6  C   UNL     1       0.285  44.746  -1.416  1.00  0.00     0.157 A 
ENDROOT
BRANCH   1   7
ATOM      7  C   UNL     1      -1.880  45.518   2.218  1.00  0.00     0.010 C 
ATOM      8  C   UNL     1      -2.592  44.583   2.861  1.00  0.00     0.025 C 
BRANCH   8   9
ATOM      9  C   UNL     1      -3.305  44.873   4.115  1.00  0.00     0.064 C 
ATOM     10  O   UNL     1      -4.556  44.745   4.162  1.00  0.00    -0.545 OA
ATOM     11  O   UNL     1      -2.619  45.285   5.252  1.00  0.00    -0.545 OA
ENDBRANCH   8   9
ENDBRANCH   1   7
BRANCH   4  12
ATOM     12  O   UNL     1      -1.592  45.493  -2.739  1.00  0.00    -0.504 OA
ATOM     13  H   UNL     1      -1.050  45.866  -3.509  1.00  0.00     0.293 HD
ENDBRANCH   4  12
BRANCH   6  14
ATOM     14  O   UNL     1       0.998  44.493  -2.587  1.00  0.00    -0.504 OA
ATOM     15  H   UNL     1       0.582  44.629  -3.502  1.00  0.00     0.293 HD
ENDBRANCH   6  14
TORSDOF 4
ENDMDL
MODEL 2
REMARK VINA RESULT:    -6.595      1.085      5.869
REMARK INTER + INTRA:          -7.878
REMARK INTER:                  -7.750
REMARK INTRA:                  -0.128
REMARK UNBOUND:                -0.126
REMARK SMILES O=C([O-])C=Cc1ccc(O)c(O)c1
REMARK SMILES IDX 6 1 13 2 7 3 11 4 8 5 9 6 5 7 4 8 2 9 1 10 3 11 12 12 10 14
REMARK H PARENT 12 13 10 15
REMARK Flexibility Score: inf
ROOT
ATOM      1  C   UNL     1      -1.577  44.908   1.975  1.00  0.00    -0.022 A 
ATOM      2  C   UNL     1      -2.759  44.491   2.620  1.00  0.00     0.058 A 
ATOM      3  C   UNL     1      -0.650  45.682   2.693  1.00  0.00     0.012 A 
ATOM      4  C   UNL     1      -2.993  44.822   3.963  1.00  0.00     0.157 A 
ATOM      5  C   UNL     1      -0.883  46.010   4.032  1.00  0.00     0.051 A 
ATOM      6  C   UNL     1      -2.052  45.580   4.670  1.00  0.00     0.157 A 
ENDROOT
BRANCH   1   7
ATOM      7  C   UNL     1      -1.288  44.595   0.555  1.00  0.00     0.010 C 
ATOM      8  C   UNL     1      -1.502  45.451  -0.454  1.00  0.00     0.025 C 
BRANCH   8   9
ATOM      9  C   UNL     1      -1.212  45.093  -1.852  1.00  0.00     0.064 C 
ATOM     10  O   UNL     1      -0.017  44.961  -2.224  1.00  0.00    -0.545 OA
ATOM     11  O   UNL     1      -2.238  44.897  -2.770  1.00  0.00    -0.545 OA
ENDBRANCH   8   9
ENDBRANCH   1   7
BRANCH   4  12
ATOM     12  O   UNL     1      -4.161  44.406   4.600  1.00  0.00    -0.504 OA
ATOM     13  H   UNL     1      -5.060  44.438   4.133  1.00  0.00     0.293 HD
ENDBRANCH   4  12
BRANCH   6  14
ATOM     14  O   UNL     1      -2.287  45.903   6.005  1.00  0.00    -0.504 OA
ATOM     15  H   UNL     1      -2.670  45.227   6.656  1.00  0.00     0.293 HD
ENDBRANCH   6  14
TORSDOF 4
ENDMDL
MODEL 3
REMARK VINA RESULT:    -6.416      1.195      6.172
REMARK INTER + INTRA:          -7.667
REMARK INTER:                  -7.513
REMARK INTRA:                  -0.153
REMARK UNBOUND:                -0.126
REMARK SMILES O=C([O-])C=Cc1ccc(O)c(O)c1
REMARK SMILES IDX 6 1 13 2 7 3 11 4 8 5 9 6 5 7 4 8 2 9 1 10 3 11 12 12 10 14
REMARK H PARENT 12 13 10 15
REMARK Flexibility Score: inf
ROOT
ATOM      1  C   UNL     1      -1.453  45.114   2.448  1.00  0.00    -0.022 A 
ATOM      2  C   UNL     1      -1.209  45.754   3.680  1.00  0.00     0.058 A 
ATOM      3  C   UNL     1      -2.616  44.340   2.304  1.00  0.00     0.012 A 
ATOM      4  C   UNL     1      -2.127  45.641   4.735  1.00  0.00     0.157 A 
ATOM      5  C   UNL     1      -3.531  44.229   3.355  1.00  0.00     0.051 A 
ATOM      6  C   UNL     1      -3.291  44.880   4.571  1.00  0.00     0.157 A 
ENDROOT
BRANCH   1   7
ATOM      7  C   UNL     1      -0.509  45.193   1.306  1.00  0.00     0.010 C 
ATOM      8  C   UNL     1      -0.775  44.707   0.086  1.00  0.00     0.025 C 
BRANCH   8   9
ATOM      9  C   UNL     1       0.197  44.795  -1.015  1.00  0.00     0.064 C 
ATOM     10  O   UNL     1       1.427  44.707  -0.767  1.00  0.00    -0.545 OA
ATOM     11  O   UNL     1      -0.222  44.973  -2.329  1.00  0.00    -0.545 OA
ENDBRANCH   8   9
ENDBRANCH   1   7
BRANCH   4  12
ATOM     12  O   UNL     1      -1.886  46.277   5.952  1.00  0.00    -0.504 OA
ATOM     13  H   UNL     1      -2.616  46.782   6.439  1.00  0.00     0.293 HD
ENDBRANCH   4  12
BRANCH   6  14
ATOM     14  O   UNL     1      -4.201  44.773   5.621  1.00  0.00    -0.504 OA
ATOM     15  H   UNL     1      -5.045  44.218   5.537  1.00  0.00     0.293 HD
ENDBRANCH   6  14
TORSDOF 4
ENDMDL
MODEL 4
REMARK VINA RESULT:    -6.380      1.482      5.803
REMARK INTER + INTRA:          -7.624
REMARK INTER:                  -7.497
REMARK INTRA:                  -0.127
REMARK UNBOUND:                -0.126
REMARK SMILES O=C([O-])C=Cc1ccc(O)c(O)c1
REMARK SMILES IDX 6 1 13 2 7 3 11 4 8 5 9 6 5 7 4 8 2 9 1 10 3 11 12 12 10 14
REMARK H PARENT 12 13 10 15
REMARK Flexibility Score: inf
ROOT
ATOM      1  C   UNL     1      -1.959  45.109   1.564  1.00  0.00    -0.022 A 
ATOM      2  C   UNL     1      -0.877  45.792   2.156  1.00  0.00     0.058 A 
ATOM      3  C   UNL     1      -2.996  44.639   2.386  1.00  0.00     0.012 A 
ATOM      4  C   UNL     1      -0.851  46.020   3.540  1.00  0.00     0.157 A 
ATOM      5  C   UNL     1      -2.971  44.868   3.765  1.00  0.00     0.051 A 
ATOM      6  C   UNL     1      -1.901  45.561   4.344  1.00  0.00     0.157 A 
ENDROOT
BRANCH   1   7
ATOM      7  C   UNL     1      -2.028  44.832   0.108  1.00  0.00     0.010 C 
ATOM      8  C   UNL     1      -1.103  45.239  -0.771  1.00  0.00     0.025 C 
BRANCH   8   9
ATOM      9  C   UNL     1      -1.217  44.952  -2.210  1.00  0.00     0.064 C 
ATOM     10  O   UNL     1      -2.357  44.826  -2.729  1.00  0.00    -0.545 OA
ATOM     11  O   UNL     1      -0.087  44.821  -3.008  1.00  0.00    -0.545 OA
ENDBRANCH   8   9
ENDBRANCH   1   7
BRANCH   4  12
ATOM     12  O   UNL     1       0.218  46.699   4.124  1.00  0.00    -0.504 OA
ATOM     13  H   UNL     1       0.084  47.318   4.914  1.00  0.00     0.293 HD
ENDBRANCH   4  12
BRANCH   6  14
ATOM     14  O   UNL     1      -1.873  45.793   5.718  1.00  0.00    -0.504 OA
ATOM     15  H   UNL     1      -1.851  46.732   6.098  1.00  0.00     0.293 HD
ENDBRANCH   6  14
TORSDOF 4
ENDMDL
MODEL 5
REMARK VINA RESULT:    -6.327      0.866      2.092
REMARK INTER + INTRA:          -7.563
REMARK INTER:                  -7.411
REMARK INTRA:                  -0.152
REMARK UNBOUND:                -0.126
REMARK SMILES O=C([O-])C=Cc1ccc(O)c(O)c1
REMARK SMILES IDX 6 1 13 2 7 3 11 4 8 5 9 6 5 7 4 8 2 9 1 10 3 11 12 12 10 14
REMARK H PARENT 12 13 10 15
REMARK Flexibility Score: inf
ROOT
ATOM      1  C   UNL     1      -1.077  45.221   0.991  1.00  0.00    -0.022 A 
ATOM      2  C   UNL     1       0.094  44.802   0.328  1.00  0.00     0.058 A 
ATOM      3  C   UNL     1      -2.185  45.620   0.225  1.00  0.00     0.012 A 
ATOM      4  C   UNL     1       0.142  44.760  -1.074  1.00  0.00     0.157 A 
ATOM      5  C   UNL     1      -2.137  45.577  -1.171  1.00  0.00     0.051 A 
ATOM      6  C   UNL     1      -0.976  45.145  -1.823  1.00  0.00     0.157 A 
ENDROOT
BRANCH   1   7
ATOM      7  C   UNL     1      -1.175  45.294   2.470  1.00  0.00     0.010 C 
ATOM      8  C   UNL     1      -2.335  45.273   3.140  1.00  0.00     0.025 C 
BRANCH   8   9
ATOM      9  C   UNL     1      -2.387  45.362   4.608  1.00  0.00     0.064 C 
ATOM     10  O   UNL     1      -1.363  45.722   5.245  1.00  0.00    -0.545 OA
ATOM     11  O   UNL     1      -3.550  45.056   5.305  1.00  0.00    -0.545 OA
ENDBRANCH   8   9
ENDBRANCH   1   7
BRANCH   4  12
ATOM     12  O   UNL     1       1.300  44.343  -1.728  1.00  0.00    -0.504 OA
ATOM     13  H   UNL     1       2.216  44.462  -1.313  1.00  0.00     0.293 HD
ENDBRANCH   4  12
BRANCH   6  14
ATOM     14  O   UNL     1      -0.925  45.098  -3.215  1.00  0.00    -0.504 OA
ATOM     15  H   UNL     1      -1.742  44.868  -3.770  1.00  0.00     0.293 HD
ENDBRANCH   6  14
TORSDOF 4
ENDMDL
MODEL 6
REMARK VINA RESULT:    -6.254      5.762      6.818
REMARK INTER + INTRA:          -7.477
REMARK INTER:                  -7.346
REMARK INTRA:                  -0.132
REMARK UNBOUND:                -0.126
REMARK SMILES O=C([O-])C=Cc1ccc(O)c(O)c1
REMARK SMILES IDX 6 1 13 2 7 3 11 4 8 5 9 6 5 7 4 8 2 9 1 10 3 11 12 12 10 14
REMARK H PARENT 12 13 10 15
REMARK Flexibility Score: inf
ROOT
ATOM      1  C   UNL     1       3.779  45.979   3.230  1.00  0.00    -0.022 A 
ATOM      2  C   UNL     1       4.639  45.342   4.148  1.00  0.00     0.058 A 
ATOM      3  C   UNL     1       4.290  47.013   2.429  1.00  0.00     0.012 A 
ATOM      4  C   UNL     1       5.988  45.717   4.240  1.00  0.00     0.157 A 
ATOM      5  C   UNL     1       5.635  47.386   2.519  1.00  0.00     0.051 A 
ATOM      6  C   UNL     1       6.486  46.738   3.421  1.00  0.00     0.157 A 
ENDROOT
BRANCH   1   7
ATOM      7  C   UNL     1       2.344  45.628   3.104  1.00  0.00     0.010 C 
ATOM      8  C   UNL     1       1.350  46.357   3.630  1.00  0.00     0.025 C 
BRANCH   8   9
ATOM      9  C   UNL     1      -0.061  45.964   3.490  1.00  0.00     0.064 C 
ATOM     10  O   UNL     1      -0.814  45.987   4.498  1.00  0.00    -0.545 OA
ATOM     11  O   UNL     1      -0.579  45.570   2.262  1.00  0.00    -0.545 OA
ENDBRANCH   8   9
ENDBRANCH   1   7
BRANCH   4  12
ATOM     12  O   UNL     1       6.837  45.083   5.145  1.00  0.00    -0.504 OA
ATOM     13  H   UNL     1       6.886  45.370   6.116  1.00  0.00     0.293 HD
ENDBRANCH   4  12
BRANCH   6  14
ATOM     14  O   UNL     1       7.828  47.105   3.513  1.00  0.00    -0.504 OA
ATOM     15  H   UNL     1       8.159  47.995   3.162  1.00  0.00     0.293 HD
ENDBRANCH   6  14
TORSDOF 4
ENDMDL
MODEL 7
REMARK VINA RESULT:    -6.254      5.834      7.397
REMARK INTER + INTRA:          -7.477
REMARK INTER:                  -7.348
REMARK INTRA:                  -0.129
REMARK UNBOUND:                -0.126
REMARK SMILES O=C([O-])C=Cc1ccc(O)c(O)c1
REMARK SMILES IDX 6 1 13 2 7 3 11 4 8 5 9 6 5 7 4 8 2 9 1 10 3 11 12 12 10 14
REMARK H PARENT 12 13 10 15
REMARK Flexibility Score: inf
ROOT
ATOM      1  C   UNL     1       3.893  45.514   3.393  1.00  0.00    -0.022 A 
ATOM      2  C   UNL     1       4.966  46.385   3.117  1.00  0.00     0.058 A 
ATOM      3  C   UNL     1       4.019  44.597   4.449  1.00  0.00     0.012 A 
ATOM      4  C   UNL     1       6.130  46.353   3.900  1.00  0.00     0.157 A 
ATOM      5  C   UNL     1       5.177  44.566   5.231  1.00  0.00     0.051 A 
ATOM      6  C   UNL     1       6.233  45.444   4.961  1.00  0.00     0.157 A 
ENDROOT
BRANCH   1   7
ATOM      7  C   UNL     1       2.648  45.500   2.587  1.00  0.00     0.010 C 
ATOM      8  C   UNL     1       2.468  44.725   1.509  1.00  0.00     0.025 C 
BRANCH   8   9
ATOM      9  C   UNL     1       1.220  44.753   0.730  1.00  0.00     0.064 C 
ATOM     10  O   UNL     1       1.266  44.636  -0.522  1.00  0.00    -0.545 OA
ATOM     11  O   UNL     1      -0.013  44.903   1.355  1.00  0.00    -0.545 OA
ENDBRANCH   8   9
ENDBRANCH   1   7
BRANCH   4  12
ATOM     12  O   UNL     1       7.189  47.217   3.628  1.00  0.00    -0.504 OA
ATOM     13  H   UNL     1       8.148  46.958   3.824  1.00  0.00     0.293 HD
ENDBRANCH   4  12
BRANCH   6  14
ATOM     14  O   UNL     1       7.389  45.418   5.739  1.00  0.00    -0.504 OA
ATOM     15  H   UNL     1       7.780  44.548   6.080  1.00  0.00     0.293 HD
ENDBRANCH   6  14
TORSDOF 4
ENDMDL
MODEL 8
REMARK VINA RESULT:    -6.220      6.688      9.047
REMARK INTER + INTRA:          -7.436
REMARK INTER:                  -7.311
REMARK INTRA:                  -0.126
REMARK UNBOUND:                -0.126
REMARK SMILES O=C([O-])C=Cc1ccc(O)c(O)c1
REMARK SMILES IDX 6 1 13 2 7 3 11 4 8 5 9 6 5 7 4 8 2 9 1 10 3 11 12 12 10 14
REMARK H PARENT 12 13 10 15
REMARK Flexibility Score: inf
ROOT
ATOM      1  C   UNL     1       4.874  46.468   3.021  1.00  0.00    -0.022 A 
ATOM      2  C   UNL     1       6.041  46.363   3.806  1.00  0.00     0.058 A 
ATOM      3  C   UNL     1       3.815  45.577   3.258  1.00  0.00     0.012 A 
ATOM      4  C   UNL     1       6.130  45.401   4.824  1.00  0.00     0.157 A 
ATOM      5  C   UNL     1       3.904  44.620   4.274  1.00  0.00     0.051 A 
ATOM      6  C   UNL     1       5.059  44.532   5.059  1.00  0.00     0.157 A 
ENDROOT
BRANCH   1   7
ATOM      7  C   UNL     1       4.735  47.459   1.926  1.00  0.00     0.010 C 
ATOM      8  C   UNL     1       5.763  47.908   1.194  1.00  0.00     0.025 C 
BRANCH   8   9
ATOM      9  C   UNL     1       5.581  48.902   0.124  1.00  0.00     0.064 C 
ATOM     10  O   UNL     1       4.875  48.614  -0.877  1.00  0.00    -0.545 OA
ATOM     11  O   UNL     1       6.174  50.157   0.201  1.00  0.00    -0.545 OA
ENDBRANCH   8   9
ENDBRANCH   1   7
BRANCH   4  12
ATOM     12  O   UNL     1       7.283  45.301   5.601  1.00  0.00    -0.504 OA
ATOM     13  H   UNL     1       7.436  45.903   6.401  1.00  0.00     0.293 HD
ENDBRANCH   4  12
BRANCH   6  14
ATOM     14  O   UNL     1       5.151  43.580   6.074  1.00  0.00    -0.504 OA
ATOM     15  H   UNL     1       5.462  43.827   7.006  1.00  0.00     0.293 HD
ENDBRANCH   6  14
TORSDOF 4
ENDMDL
MODEL 9
REMARK VINA RESULT:    -6.120      5.422      6.272
REMARK INTER + INTRA:          -7.319
REMARK INTER:                  -7.197
REMARK INTRA:                  -0.122
REMARK UNBOUND:                -0.126
REMARK SMILES O=C([O-])C=Cc1ccc(O)c(O)c1
REMARK SMILES IDX 6 1 13 2 7 3 11 4 8 5 9 6 5 7 4 8 2 9 1 10 3 11 12 12 10 14
REMARK H PARENT 12 13 10 15
REMARK Flexibility Score: inf
ROOT
ATOM      1  C   UNL     1       3.576  46.016   3.239  1.00  0.00    -0.022 A 
ATOM      2  C   UNL     1       4.101  47.046   2.432  1.00  0.00     0.058 A 
ATOM      3  C   UNL     1       4.440  45.331   4.109  1.00  0.00     0.012 A 
ATOM      4  C   UNL     1       5.456  47.397   2.516  1.00  0.00     0.157 A 
ATOM      5  C   UNL     1       5.790  45.682   4.195  1.00  0.00     0.051 A 
ATOM      6  C   UNL     1       6.301  46.716   3.402  1.00  0.00     0.157 A 
ENDROOT
BRANCH   1   7
ATOM      7  C   UNL     1       2.154  45.599   3.179  1.00  0.00     0.010 C 
ATOM      8  C   UNL     1       1.134  46.375   3.570  1.00  0.00     0.025 C 
BRANCH   8   9
ATOM      9  C   UNL     1      -0.263  45.915   3.505  1.00  0.00     0.064 C 
ATOM     10  O   UNL     1      -0.784  45.673   2.385  1.00  0.00    -0.545 OA
ATOM     11  O   UNL     1      -1.016  45.741   4.660  1.00  0.00    -0.545 OA
ENDBRANCH   8   9
ENDBRANCH   1   7
BRANCH   4  12
ATOM     12  O   UNL     1       5.972  48.418   1.720  1.00  0.00    -0.504 OA
ATOM     13  H   UNL     1       6.283  48.245   0.772  1.00  0.00     0.293 HD
ENDBRANCH   4  12
BRANCH   6  14
ATOM     14  O   UNL     1       7.646  47.071   3.485  1.00  0.00    -0.504 OA
ATOM     15  H   UNL     1       8.250  46.697   4.208  1.00  0.00     0.293 HD
ENDBRANCH   6  14
TORSDOF 4
ENDMDL
