MODEL 1
REMARK VINA RESULT:    -1.220      0.000      0.000
REMARK INTER + INTRA:          -7.771
REMARK INTER:                  -2.790
REMARK INTRA:                  -4.981
REMARK UNBOUND:                -4.981
REMARK SMILES CCCCCCCCCCCCCCCCCCCCCCCC(=O)[O-]
REMARK SMILES IDX 13 1 14 2 15 3 16 4 17 5 18 6 19 7 20 8 21 9 22 10 23 11
REMARK SMILES IDX 24 12 25 13 26 14 12 15 11 16 10 17 9 18 8 19 7 20 6 21 5 22
REMARK SMILES IDX 4 23 3 24 2 25 1 26
REMARK H PARENT
REMARK Flexibility Score: inf
ROOT
ATOM      1  C   UNL     1      20.589 -26.728   2.321  1.00  0.00     0.000 C 
ENDROOT
BRANCH   1   2
ATOM      2  C   UNL     1      20.023 -27.516   3.514  1.00  0.00     0.000 C 
BRANCH   2   3
ATOM      3  C   UNL     1      20.814 -28.802   3.809  1.00  0.00     0.000 C 
BRANCH   3   4
ATOM      4  C   UNL     1      19.901 -30.014   4.067  1.00  0.00     0.000 C 
BRANCH   4   5
ATOM      5  C   UNL     1      18.449 -29.761   3.628  1.00  0.00     0.000 C 
BRANCH   5   6
ATOM      6  C   UNL     1      17.844 -30.957   2.871  1.00  0.00     0.000 C 
BRANCH   6   7
ATOM      7  C   UNL     1      18.689 -32.233   3.014  1.00  0.00     0.000 C 
BRANCH   7   8
ATOM      8  C   UNL     1      18.941 -32.927   1.664  1.00  0.00     0.000 C 
BRANCH   8   9
ATOM      9  C   UNL     1      19.575 -34.319   1.825  1.00  0.00     0.000 C 
BRANCH   9  10
ATOM     10  C   UNL     1      20.274 -34.493   3.185  1.00  0.00     0.006 C 
BRANCH  10  11
ATOM     11  C   UNL     1      21.786 -34.249   3.093  1.00  0.00     0.053 C 
BRANCH  11  12
ATOM     12  C   UNL     1      22.276 -33.370   4.202  1.00  0.00     0.041 C 
ATOM     13  O   UNL     1      23.440 -32.889   4.163  1.00  0.00    -0.550 OA
ATOM     14  O   UNL     1      21.437 -33.055   5.264  1.00  0.00    -0.550 OA
ENDBRANCH  11  12
ENDBRANCH  10  11
ENDBRANCH   9  10
ENDBRANCH   8   9
ENDBRANCH   7   8
ENDBRANCH   6   7
ENDBRANCH   5   6
ENDBRANCH   4   5
ENDBRANCH   3   4
ENDBRANCH   2   3
ENDBRANCH   1   2
BRANCH   1  15
ATOM     15  C   UNL     1      22.074 -27.029   2.056  1.00  0.00     0.000 C 
BRANCH  15  16
ATOM     16  C   UNL     1      22.608 -26.429   0.739  1.00  0.00     0.000 C 
BRANCH  16  17
ATOM     17  C   UNL     1      21.554 -25.569   0.022  1.00  0.00     0.000 C 
BRANCH  17  18
ATOM     18  C   UNL     1      21.148 -26.149  -1.343  1.00  0.00    -0.000 C 
BRANCH  18  19
ATOM     19  C   UNL     1      21.960 -27.403  -1.713  1.00  0.00    -0.000 C 
BRANCH  19  20
ATOM     20  C   UNL     1      21.084 -28.659  -1.861  1.00  0.00    -0.000 C 
BRANCH  20  21
ATOM     21  C   UNL     1      19.918 -28.756  -0.860  1.00  0.00    -0.000 C 
BRANCH  21  22
ATOM     22  C   UNL     1      20.190 -29.749   0.279  1.00  0.00    -0.000 C 
BRANCH  22  23
ATOM     23  C   UNL     1      21.367 -30.672  -0.063  1.00  0.00    -0.000 C 
BRANCH  23  24
ATOM     24  C   UNL     1      22.127 -31.086   1.206  1.00  0.00    -0.000 C 
BRANCH  24  25
ATOM     25  C   UNL     1      23.425 -30.287   1.404  1.00  0.00    -0.003 C 
ATOM     26  C   UNL     1      24.120 -29.951   0.084  1.00  0.00     0.004 C 
ENDBRANCH  24  25
ENDBRANCH  23  24
ENDBRANCH  22  23
ENDBRANCH  21  22
ENDBRANCH  20  21
ENDBRANCH  19  20
ENDBRANCH  18  19
ENDBRANCH  17  18
ENDBRANCH  16  17
ENDBRANCH  15  16
ENDBRANCH   1  15
TORSDOF 22
ENDMDL
MODEL 2
REMARK VINA RESULT:    -1.142      3.973      8.217
REMARK INTER + INTRA:          -7.592
REMARK INTER:                  -3.522
REMARK INTRA:                  -4.070
REMARK UNBOUND:                -4.981
REMARK SMILES CCCCCCCCCCCCCCCCCCCCCCCC(=O)[O-]
REMARK SMILES IDX 13 1 14 2 15 3 16 4 17 5 18 6 19 7 20 8 21 9 22 10 23 11
REMARK SMILES IDX 24 12 25 13 26 14 12 15 11 16 10 17 9 18 8 19 7 20 6 21 5 22
REMARK SMILES IDX 4 23 3 24 2 25 1 26
REMARK H PARENT
REMARK Flexibility Score: inf
ROOT
ATOM      1  C   UNL     1      15.728 -34.996  -0.070  1.00  0.00     0.000 C 
ENDROOT
BRANCH   1   2
ATOM      2  C   UNL     1      16.809 -34.612   0.954  1.00  0.00     0.000 C 
BRANCH   2   3
ATOM      3  C   UNL     1      18.228 -34.976   0.487  1.00  0.00     0.000 C 
BRANCH   3   4
ATOM      4  C   UNL     1      19.296 -34.003   1.019  1.00  0.00     0.000 C 
BRANCH   4   5
ATOM      5  C   UNL     1      18.714 -32.969   1.997  1.00  0.00     0.000 C 
BRANCH   5   6
ATOM      6  C   UNL     1      19.607 -32.757   3.233  1.00  0.00     0.000 C 
BRANCH   6   7
ATOM      7  C   UNL     1      19.810 -31.270   3.565  1.00  0.00     0.000 C 
BRANCH   7   8
ATOM      8  C   UNL     1      18.983 -30.345   2.655  1.00  0.00     0.000 C 
BRANCH   8   9
ATOM      9  C   UNL     1      19.863 -29.405   1.815  1.00  0.00     0.000 C 
BRANCH   9  10
ATOM     10  C   UNL     1      20.199 -29.992   0.433  1.00  0.00     0.006 C 
BRANCH  10  11
ATOM     11  C   UNL     1      20.039 -28.957  -0.690  1.00  0.00     0.053 C 
BRANCH  11  12
ATOM     12  C   UNL     1      21.118 -27.919  -0.648  1.00  0.00     0.041 C 
ATOM     13  O   UNL     1      22.321 -28.247  -0.833  1.00  0.00    -0.550 OA
ATOM     14  O   UNL     1      20.793 -26.586  -0.434  1.00  0.00    -0.550 OA
ENDBRANCH  11  12
ENDBRANCH  10  11
ENDBRANCH   9  10
ENDBRANCH   8   9
ENDBRANCH   7   8
ENDBRANCH   6   7
ENDBRANCH   5   6
ENDBRANCH   4   5
ENDBRANCH   3   4
ENDBRANCH   2   3
ENDBRANCH   1   2
BRANCH   1  15
ATOM     15  C   UNL     1      14.438 -34.173   0.085  1.00  0.00     0.000 C 
BRANCH  15  16
ATOM     16  C   UNL     1      14.176 -33.686   1.525  1.00  0.00     0.000 C 
BRANCH  16  17
ATOM     17  C   UNL     1      13.359 -32.382   1.558  1.00  0.00     0.000 C 
BRANCH  17  18
ATOM     18  C   UNL     1      14.037 -31.283   2.392  1.00  0.00    -0.000 C 
BRANCH  18  19
ATOM     19  C   UNL     1      15.445 -31.688   2.865  1.00  0.00    -0.000 C 
BRANCH  19  20
ATOM     20  C   UNL     1      15.727 -31.275   4.320  1.00  0.00    -0.000 C 
BRANCH  20  21
ATOM     21  C   UNL     1      16.442 -32.342   5.168  1.00  0.00    -0.000 C 
BRANCH  21  22
ATOM     22  C   UNL     1      16.270 -33.763   4.610  1.00  0.00    -0.000 C 
BRANCH  22  23
ATOM     23  C   UNL     1      15.393 -34.616   5.536  1.00  0.00    -0.000 C 
BRANCH  23  24
ATOM     24  C   UNL     1      13.936 -34.634   5.048  1.00  0.00    -0.000 C 
BRANCH  24  25
ATOM     25  C   UNL     1      12.995 -33.843   5.971  1.00  0.00    -0.003 C 
ATOM     26  C   UNL     1      12.293 -32.691   5.252  1.00  0.00     0.004 C 
ENDBRANCH  24  25
ENDBRANCH  23  24
ENDBRANCH  22  23
ENDBRANCH  21  22
ENDBRANCH  20  21
ENDBRANCH  19  20
ENDBRANCH  18  19
ENDBRANCH  17  18
ENDBRANCH  16  17
ENDBRANCH  15  16
ENDBRANCH   1  15
TORSDOF 22
ENDMDL
MODEL 3
REMARK VINA RESULT:    -1.132      3.340      5.960
REMARK INTER + INTRA:          -7.570
REMARK INTER:                  -3.763
REMARK INTRA:                  -3.807
REMARK UNBOUND:                -4.981
REMARK SMILES CCCCCCCCCCCCCCCCCCCCCCCC(=O)[O-]
REMARK SMILES IDX 13 1 14 2 15 3 16 4 17 5 18 6 19 7 20 8 21 9 22 10 23 11
REMARK SMILES IDX 24 12 25 13 26 14 12 15 11 16 10 17 9 18 8 19 7 20 6 21 5 22
REMARK SMILES IDX 4 23 3 24 2 25 1 26
REMARK H PARENT
REMARK Flexibility Score: inf
ROOT
ATOM      1  C   UNL     1      18.823 -32.581   4.585  1.00  0.00     0.000 C 
ENDROOT
BRANCH   1   2
ATOM      2  C   UNL     1      18.135 -33.635   3.702  1.00  0.00     0.000 C 
BRANCH   2   3
ATOM      3  C   UNL     1      19.132 -34.597   3.035  1.00  0.00     0.000 C 
BRANCH   3   4
ATOM      4  C   UNL     1      18.755 -34.927   1.580  1.00  0.00     0.000 C 
BRANCH   4   5
ATOM      5  C   UNL     1      17.525 -34.140   1.098  1.00  0.00     0.000 C 
BRANCH   5   6
ATOM      6  C   UNL     1      16.638 -34.959   0.141  1.00  0.00     0.000 C 
BRANCH   6   7
ATOM      7  C   UNL     1      15.182 -34.468   0.123  1.00  0.00     0.000 C 
BRANCH   7   8
ATOM      8  C   UNL     1      14.856 -33.546   1.311  1.00  0.00     0.000 C 
BRANCH   8   9
ATOM      9  C   UNL     1      13.413 -33.018   1.269  1.00  0.00     0.000 C 
BRANCH   9  10
ATOM     10  C   UNL     1      13.258 -31.669   1.993  1.00  0.00     0.006 C 
BRANCH  10  11
ATOM     11  C   UNL     1      14.570 -31.205   2.639  1.00  0.00     0.053 C 
BRANCH  11  12
ATOM     12  C   UNL     1      14.596 -29.721   2.844  1.00  0.00     0.041 C 
ATOM     13  O   UNL     1      14.208 -28.948   1.928  1.00  0.00    -0.550 OA
ATOM     14  O   UNL     1      15.020 -29.193   4.057  1.00  0.00    -0.550 OA
ENDBRANCH  11  12
ENDBRANCH  10  11
ENDBRANCH   9  10
ENDBRANCH   8   9
ENDBRANCH   7   8
ENDBRANCH   6   7
ENDBRANCH   5   6
ENDBRANCH   4   5
ENDBRANCH   3   4
ENDBRANCH   2   3
ENDBRANCH   1   2
BRANCH   1  15
ATOM     15  C   UNL     1      18.377 -31.145   4.261  1.00  0.00     0.000 C 
BRANCH  15  16
ATOM     16  C   UNL     1      18.085 -30.903   2.765  1.00  0.00     0.000 C 
BRANCH  16  17
ATOM     17  C   UNL     1      19.309 -30.349   2.016  1.00  0.00     0.000 C 
BRANCH  17  18
ATOM     18  C   UNL     1      20.037 -31.428   1.196  1.00  0.00    -0.000 C 
BRANCH  18  19
ATOM     19  C   UNL     1      21.453 -31.713   1.726  1.00  0.00    -0.000 C 
BRANCH  19  20
ATOM     20  C   UNL     1      22.005 -30.571   2.598  1.00  0.00    -0.000 C 
BRANCH  20  21
ATOM     21  C   UNL     1      22.672 -29.424   1.817  1.00  0.00    -0.000 C 
BRANCH  21  22
ATOM     22  C   UNL     1      23.401 -29.908   0.554  1.00  0.00    -0.000 C 
BRANCH  22  23
ATOM     23  C   UNL     1      22.950 -29.115  -0.680  1.00  0.00    -0.000 C 
BRANCH  23  24
ATOM     24  C   UNL     1      22.017 -29.958  -1.562  1.00  0.00    -0.000 C 
BRANCH  24  25
ATOM     25  C   UNL     1      20.674 -29.262  -1.833  1.00  0.00    -0.003 C 
ATOM     26  C   UNL     1      20.363 -28.161  -0.820  1.00  0.00     0.004 C 
ENDBRANCH  24  25
ENDBRANCH  23  24
ENDBRANCH  22  23
ENDBRANCH  21  22
ENDBRANCH  20  21
ENDBRANCH  19  20
ENDBRANCH  18  19
ENDBRANCH  17  18
ENDBRANCH  16  17
ENDBRANCH  15  16
ENDBRANCH   1  15
TORSDOF 22
ENDMDL
MODEL 4
REMARK VINA RESULT:    -1.102      2.633      6.873
REMARK INTER + INTRA:          -7.502
REMARK INTER:                  -2.978
REMARK INTRA:                  -4.523
REMARK UNBOUND:                -4.981
REMARK SMILES CCCCCCCCCCCCCCCCCCCCCCCC(=O)[O-]
REMARK SMILES IDX 13 1 14 2 15 3 16 4 17 5 18 6 19 7 20 8 21 9 22 10 23 11
REMARK SMILES IDX 24 12 25 13 26 14 12 15 11 16 10 17 9 18 8 19 7 20 6 21 5 22
REMARK SMILES IDX 4 23 3 24 2 25 1 26
REMARK H PARENT
REMARK Flexibility Score: inf
ROOT
ATOM      1  C   UNL     1      15.785 -34.229   0.926  1.00  0.00     0.000 C 
ENDROOT
BRANCH   1   2
ATOM      2  C   UNL     1      17.031 -34.571   1.760  1.00  0.00     0.000 C 
BRANCH   2   3
ATOM      3  C   UNL     1      18.339 -34.116   1.091  1.00  0.00     0.000 C 
BRANCH   3   4
ATOM      4  C   UNL     1      18.780 -32.712   1.545  1.00  0.00     0.000 C 
BRANCH   4   5
ATOM      5  C   UNL     1      20.298 -32.616   1.768  1.00  0.00     0.000 C 
BRANCH   5   6
ATOM      6  C   UNL     1      20.786 -31.161   1.890  1.00  0.00     0.000 C 
BRANCH   6   7
ATOM      7  C   UNL     1      19.672 -30.141   1.606  1.00  0.00     0.000 C 
BRANCH   7   8
ATOM      8  C   UNL     1      19.903 -29.365   0.297  1.00  0.00     0.000 C 
BRANCH   8   9
ATOM      9  C   UNL     1      21.235 -28.598   0.294  1.00  0.00     0.000 C 
BRANCH   9  10
ATOM     10  C   UNL     1      22.004 -28.757  -1.029  1.00  0.00     0.006 C 
BRANCH  10  11
ATOM     11  C   UNL     1      21.697 -30.093  -1.719  1.00  0.00     0.053 C 
BRANCH  11  12
ATOM     12  C   UNL     1      22.655 -31.166  -1.303  1.00  0.00     0.041 C 
ATOM     13  O   UNL     1      22.276 -32.366  -1.242  1.00  0.00    -0.550 OA
ATOM     14  O   UNL     1      23.975 -30.846  -1.010  1.00  0.00    -0.550 OA
ENDBRANCH  11  12
ENDBRANCH  10  11
ENDBRANCH   9  10
ENDBRANCH   8   9
ENDBRANCH   7   8
ENDBRANCH   6   7
ENDBRANCH   5   6
ENDBRANCH   4   5
ENDBRANCH   3   4
ENDBRANCH   2   3
ENDBRANCH   1   2
BRANCH   1  15
ATOM     15  C   UNL     1      14.779 -33.349   1.687  1.00  0.00     0.000 C 
BRANCH  15  16
ATOM     16  C   UNL     1      15.381 -32.622   2.908  1.00  0.00     0.000 C 
BRANCH  16  17
ATOM     17  C   UNL     1      15.525 -31.108   2.671  1.00  0.00     0.000 C 
BRANCH  17  18
ATOM     18  C   UNL     1      16.586 -30.467   3.582  1.00  0.00    -0.000 C 
BRANCH  18  19
ATOM     19  C   UNL     1      17.051 -31.417   4.700  1.00  0.00    -0.000 C 
BRANCH  19  20
ATOM     20  C   UNL     1      18.560 -31.311   4.982  1.00  0.00    -0.000 C 
BRANCH  20  21
ATOM     21  C   UNL     1      19.230 -32.626   5.421  1.00  0.00    -0.000 C 
BRANCH  21  22
ATOM     22  C   UNL     1      18.374 -33.863   5.114  1.00  0.00    -0.000 C 
BRANCH  22  23
ATOM     23  C   UNL     1      19.247 -35.035   4.647  1.00  0.00    -0.000 C 
BRANCH  23  24
ATOM     24  C   UNL     1      20.738 -34.668   4.709  1.00  0.00    -0.000 C 
BRANCH  24  25
ATOM     25  C   UNL     1      21.612 -35.604   3.859  1.00  0.00    -0.003 C 
ATOM     26  C   UNL     1      20.874 -36.158   2.640  1.00  0.00     0.004 C 
ENDBRANCH  24  25
ENDBRANCH  23  24
ENDBRANCH  22  23
ENDBRANCH  21  22
ENDBRANCH  20  21
ENDBRANCH  19  20
ENDBRANCH  18  19
ENDBRANCH  17  18
ENDBRANCH  16  17
ENDBRANCH  15  16
ENDBRANCH   1  15
TORSDOF 22
ENDMDL
MODEL 5
REMARK VINA RESULT:    -1.091      4.079      8.345
REMARK INTER + INTRA:          -7.474
REMARK INTER:                  -2.678
REMARK INTRA:                  -4.796
REMARK UNBOUND:                -4.981
REMARK SMILES CCCCCCCCCCCCCCCCCCCCCCCC(=O)[O-]
REMARK SMILES IDX 13 1 14 2 15 3 16 4 17 5 18 6 19 7 20 8 21 9 22 10 23 11
REMARK SMILES IDX 24 12 25 13 26 14 12 15 11 16 10 17 9 18 8 19 7 20 6 21 5 22
REMARK SMILES IDX 4 23 3 24 2 25 1 26
REMARK H PARENT
REMARK Flexibility Score: inf
ROOT
ATOM      1  C   UNL     1      16.337 -34.644   0.511  1.00  0.00     0.000 C 
ENDROOT
BRANCH   1   2
ATOM      2  C   UNL     1      15.031 -34.324  -0.235  1.00  0.00     0.000 C 
BRANCH   2   3
ATOM      3  C   UNL     1      13.796 -34.363   0.680  1.00  0.00     0.000 C 
BRANCH   3   4
ATOM      4  C   UNL     1      13.357 -32.962   1.143  1.00  0.00     0.000 C 
BRANCH   4   5
ATOM      5  C   UNL     1      13.722 -32.685   2.611  1.00  0.00     0.000 C 
BRANCH   5   6
ATOM      6  C   UNL     1      14.798 -31.594   2.755  1.00  0.00     0.000 C 
BRANCH   6   7
ATOM      7  C   UNL     1      16.190 -32.174   3.053  1.00  0.00     0.000 C 
BRANCH   7   8
ATOM      8  C   UNL     1      17.322 -31.180   2.742  1.00  0.00     0.000 C 
BRANCH   8   9
ATOM      9  C   UNL     1      18.717 -31.814   2.874  1.00  0.00     0.000 C 
BRANCH   9  10
ATOM     10  C   UNL     1      19.163 -32.529   1.587  1.00  0.00     0.006 C 
BRANCH  10  11
ATOM     11  C   UNL     1      20.652 -32.902   1.619  1.00  0.00     0.053 C 
BRANCH  11  12
ATOM     12  C   UNL     1      21.522 -31.752   1.218  1.00  0.00     0.041 C 
ATOM     13  O   UNL     1      22.191 -31.130   2.087  1.00  0.00    -0.550 OA
ATOM     14  O   UNL     1      21.620 -31.385  -0.118  1.00  0.00    -0.550 OA
ENDBRANCH  11  12
ENDBRANCH  10  11
ENDBRANCH   9  10
ENDBRANCH   8   9
ENDBRANCH   7   8
ENDBRANCH   6   7
ENDBRANCH   5   6
ENDBRANCH   4   5
ENDBRANCH   3   4
ENDBRANCH   2   3
ENDBRANCH   1   2
BRANCH   1  15
ATOM     15  C   UNL     1      17.322 -35.469  -0.333  1.00  0.00     0.000 C 
BRANCH  15  16
ATOM     16  C   UNL     1      16.665 -36.636  -1.100  1.00  0.00     0.000 C 
BRANCH  16  17
ATOM     17  C   UNL     1      16.217 -37.769  -0.161  1.00  0.00     0.000 C 
BRANCH  17  18
ATOM     18  C   UNL     1      14.699 -38.008  -0.207  1.00  0.00    -0.000 C 
BRANCH  18  19
ATOM     19  C   UNL     1      14.074 -38.088   1.197  1.00  0.00    -0.000 C 
BRANCH  19  20
ATOM     20  C   UNL     1      15.066 -37.721   2.313  1.00  0.00    -0.000 C 
BRANCH  20  21
ATOM     21  C   UNL     1      14.503 -36.783   3.397  1.00  0.00    -0.000 C 
BRANCH  21  22
ATOM     22  C   UNL     1      15.511 -35.714   3.843  1.00  0.00    -0.000 C 
BRANCH  22  23
ATOM     23  C   UNL     1      16.881 -36.337   4.138  1.00  0.00    -0.000 C 
BRANCH  23  24
ATOM     24  C   UNL     1      18.015 -35.371   3.764  1.00  0.00    -0.000 C 
BRANCH  24  25
ATOM     25  C   UNL     1      19.129 -36.054   2.955  1.00  0.00    -0.003 C 
ATOM     26  C   UNL     1      18.748 -37.461   2.495  1.00  0.00     0.004 C 
ENDBRANCH  24  25
ENDBRANCH  23  24
ENDBRANCH  22  23
ENDBRANCH  21  22
ENDBRANCH  20  21
ENDBRANCH  19  20
ENDBRANCH  18  19
ENDBRANCH  17  18
ENDBRANCH  16  17
ENDBRANCH  15  16
ENDBRANCH   1  15
TORSDOF 22
ENDMDL
MODEL 6
REMARK VINA RESULT:    -1.086      2.843      6.594
REMARK INTER + INTRA:          -7.464
REMARK INTER:                  -3.223
REMARK INTRA:                  -4.241
REMARK UNBOUND:                -4.981
REMARK SMILES CCCCCCCCCCCCCCCCCCCCCCCC(=O)[O-]
REMARK SMILES IDX 13 1 14 2 15 3 16 4 17 5 18 6 19 7 20 8 21 9 22 10 23 11
REMARK SMILES IDX 24 12 25 13 26 14 12 15 11 16 10 17 9 18 8 19 7 20 6 21 5 22
REMARK SMILES IDX 4 23 3 24 2 25 1 26
REMARK H PARENT
REMARK Flexibility Score: inf
ROOT
ATOM      1  C   UNL     1      18.286 -32.143   3.736  1.00  0.00     0.000 C 
ENDROOT
BRANCH   1   2
ATOM      2  C   UNL     1      18.637 -31.472   2.399  1.00  0.00     0.000 C 
BRANCH   2   3
ATOM      3  C   UNL     1      19.038 -29.996   2.559  1.00  0.00     0.000 C 
BRANCH   3   4
ATOM      4  C   UNL     1      20.108 -29.788   3.646  1.00  0.00     0.000 C 
BRANCH   4   5
ATOM      5  C   UNL     1      21.460 -29.343   3.063  1.00  0.00     0.000 C 
BRANCH   5   6
ATOM      6  C   UNL     1      22.321 -30.531   2.596  1.00  0.00     0.000 C 
BRANCH   6   7
ATOM      7  C   UNL     1      22.737 -30.413   1.121  1.00  0.00     0.000 C 
BRANCH   7   8
ATOM      8  C   UNL     1      21.722 -31.068   0.169  1.00  0.00     0.000 C 
BRANCH   8   9
ATOM      9  C   UNL     1      21.375 -30.171  -1.031  1.00  0.00     0.000 C 
BRANCH   9  10
ATOM     10  C   UNL     1      20.266 -29.155  -0.705  1.00  0.00     0.006 C 
BRANCH  10  11
ATOM     11  C   UNL     1      20.702 -27.712  -0.988  1.00  0.00     0.053 C 
BRANCH  11  12
ATOM     12  C   UNL     1      21.222 -27.036   0.244  1.00  0.00     0.041 C 
ATOM     13  O   UNL     1      22.463 -26.921   0.428  1.00  0.00    -0.550 OA
ATOM     14  O   UNL     1      20.336 -26.508   1.174  1.00  0.00    -0.550 OA
ENDBRANCH  11  12
ENDBRANCH  10  11
ENDBRANCH   9  10
ENDBRANCH   8   9
ENDBRANCH   7   8
ENDBRANCH   6   7
ENDBRANCH   5   6
ENDBRANCH   4   5
ENDBRANCH   3   4
ENDBRANCH   2   3
ENDBRANCH   1   2
BRANCH   1  15
ATOM     15  C   UNL     1      16.771 -32.304   3.946  1.00  0.00     0.000 C 
BRANCH  15  16
ATOM     16  C   UNL     1      15.934 -32.062   2.673  1.00  0.00     0.000 C 
BRANCH  16  17
ATOM     17  C   UNL     1      14.792 -33.083   2.524  1.00  0.00     0.000 C 
BRANCH  17  18
ATOM     18  C   UNL     1      14.643 -33.595   1.082  1.00  0.00    -0.000 C 
BRANCH  18  19
ATOM     19  C   UNL     1      15.277 -34.983   0.882  1.00  0.00    -0.000 C 
BRANCH  19  20
ATOM     20  C   UNL     1      16.519 -34.946  -0.026  1.00  0.00    -0.000 C 
BRANCH  20  21
ATOM     21  C   UNL     1      17.845 -34.661   0.702  1.00  0.00    -0.000 C 
BRANCH  21  22
ATOM     22  C   UNL     1      17.960 -35.399   2.043  1.00  0.00    -0.000 C 
BRANCH  22  23
ATOM     23  C   UNL     1      19.428 -35.667   2.401  1.00  0.00    -0.000 C 
BRANCH  23  24
ATOM     24  C   UNL     1      20.362 -34.722   1.629  1.00  0.00    -0.000 C 
BRANCH  24  25
ATOM     25  C   UNL     1      21.339 -33.976   2.552  1.00  0.00    -0.003 C 
ATOM     26  C   UNL     1      22.803 -34.237   2.197  1.00  0.00     0.004 C 
ENDBRANCH  24  25
ENDBRANCH  23  24
ENDBRANCH  22  23
ENDBRANCH  21  22
ENDBRANCH  20  21
ENDBRANCH  19  20
ENDBRANCH  18  19
ENDBRANCH  17  18
ENDBRANCH  16  17
ENDBRANCH  15  16
ENDBRANCH   1  15
TORSDOF 22
ENDMDL
MODEL 7
REMARK VINA RESULT:    -1.081      4.816      7.978
REMARK INTER + INTRA:          -7.453
REMARK INTER:                  -2.476
REMARK INTRA:                  -4.976
REMARK UNBOUND:                -4.981
REMARK SMILES CCCCCCCCCCCCCCCCCCCCCCCC(=O)[O-]
REMARK SMILES IDX 13 1 14 2 15 3 16 4 17 5 18 6 19 7 20 8 21 9 22 10 23 11
REMARK SMILES IDX 24 12 25 13 26 14 12 15 11 16 10 17 9 18 8 19 7 20 6 21 5 22
REMARK SMILES IDX 4 23 3 24 2 25 1 26
REMARK H PARENT
REMARK Flexibility Score: inf
ROOT
ATOM      1  C   UNL     1      16.164 -34.273   0.740  1.00  0.00     0.000 C 
ENDROOT
BRANCH   1   2
ATOM      2  C   UNL     1      16.461 -35.387  -0.277  1.00  0.00     0.000 C 
BRANCH   2   3
ATOM      3  C   UNL     1      15.443 -35.430  -1.428  1.00  0.00     0.000 C 
BRANCH   3   4
ATOM      4  C   UNL     1      14.456 -34.249  -1.392  1.00  0.00     0.000 C 
BRANCH   4   5
ATOM      5  C   UNL     1      12.989 -34.706  -1.419  1.00  0.00     0.000 C 
BRANCH   5   6
ATOM      6  C   UNL     1      12.434 -34.995  -0.012  1.00  0.00     0.000 C 
BRANCH   6   7
ATOM      7  C   UNL     1      12.155 -36.489   0.215  1.00  0.00     0.000 C 
BRANCH   7   8
ATOM      8  C   UNL     1      12.932 -37.057   1.416  1.00  0.00     0.000 C 
BRANCH   8   9
ATOM      9  C   UNL     1      14.068 -38.002   0.990  1.00  0.00     0.000 C 
BRANCH   9  10
ATOM     10  C   UNL     1      14.888 -38.514   2.187  1.00  0.00     0.006 C 
BRANCH  10  11
ATOM     11  C   UNL     1      16.398 -38.397   1.946  1.00  0.00     0.053 C 
BRANCH  11  12
ATOM     12  C   UNL     1      17.172 -38.441   3.228  1.00  0.00     0.041 C 
ATOM     13  O   UNL     1      17.040 -37.522   4.080  1.00  0.00    -0.550 OA
ATOM     14  O   UNL     1      18.016 -39.511   3.496  1.00  0.00    -0.550 OA
ENDBRANCH  11  12
ENDBRANCH  10  11
ENDBRANCH   9  10
ENDBRANCH   8   9
ENDBRANCH   7   8
ENDBRANCH   6   7
ENDBRANCH   5   6
ENDBRANCH   4   5
ENDBRANCH   3   4
ENDBRANCH   2   3
ENDBRANCH   1   2
BRANCH   1  15
ATOM     15  C   UNL     1      15.711 -34.816   2.106  1.00  0.00     0.000 C 
BRANCH  15  16
ATOM     16  C   UNL     1      14.741 -33.883   2.861  1.00  0.00     0.000 C 
BRANCH  16  17
ATOM     17  C   UNL     1      14.337 -32.661   2.018  1.00  0.00     0.000 C 
BRANCH  17  18
ATOM     18  C   UNL     1      14.755 -31.332   2.669  1.00  0.00    -0.000 C 
BRANCH  18  19
ATOM     19  C   UNL     1      15.386 -31.531   4.058  1.00  0.00    -0.000 C 
BRANCH  19  20
ATOM     20  C   UNL     1      16.840 -31.030   4.130  1.00  0.00    -0.000 C 
BRANCH  20  21
ATOM     21  C   UNL     1      17.520 -30.821   2.765  1.00  0.00    -0.000 C 
BRANCH  21  22
ATOM     22  C   UNL     1      18.520 -31.933   2.419  1.00  0.00    -0.000 C 
BRANCH  22  23
ATOM     23  C   UNL     1      18.958 -32.692   3.679  1.00  0.00    -0.000 C 
BRANCH  23  24
ATOM     24  C   UNL     1      18.951 -34.209   3.436  1.00  0.00    -0.000 C 
BRANCH  24  25
ATOM     25  C   UNL     1      19.806 -34.617   2.227  1.00  0.00    -0.003 C 
ATOM     26  C   UNL     1      19.497 -36.030   1.733  1.00  0.00     0.004 C 
ENDBRANCH  24  25
ENDBRANCH  23  24
ENDBRANCH  22  23
ENDBRANCH  21  22
ENDBRANCH  20  21
ENDBRANCH  19  20
ENDBRANCH  18  19
ENDBRANCH  17  18
ENDBRANCH  16  17
ENDBRANCH  15  16
ENDBRANCH   1  15
TORSDOF 22
ENDMDL
MODEL 8
REMARK VINA RESULT:    -1.072      4.530      8.353
REMARK INTER + INTRA:          -7.431
REMARK INTER:                  -2.898
REMARK INTRA:                  -4.533
REMARK UNBOUND:                -4.981
REMARK SMILES CCCCCCCCCCCCCCCCCCCCCCCC(=O)[O-]
REMARK SMILES IDX 13 1 14 2 15 3 16 4 17 5 18 6 19 7 20 8 21 9 22 10 23 11
REMARK SMILES IDX 24 12 25 13 26 14 12 15 11 16 10 17 9 18 8 19 7 20 6 21 5 22
REMARK SMILES IDX 4 23 3 24 2 25 1 26
REMARK H PARENT
REMARK Flexibility Score: inf
ROOT
ATOM      1  C   UNL     1      17.060 -35.487   1.363  1.00  0.00     0.000 C 
ENDROOT
BRANCH   1   2
ATOM      2  C   UNL     1      16.470 -36.146   0.105  1.00  0.00     0.000 C 
BRANCH   2   3
ATOM      3  C   UNL     1      15.012 -35.735  -0.155  1.00  0.00     0.000 C 
BRANCH   3   4
ATOM      4  C   UNL     1      14.842 -34.952  -1.470  1.00  0.00     0.000 C 
BRANCH   4   5
ATOM      5  C   UNL     1      13.766 -33.858  -1.368  1.00  0.00     0.000 C 
BRANCH   5   6
ATOM      6  C   UNL     1      13.371 -33.552   0.088  1.00  0.00     0.000 C 
BRANCH   6   7
ATOM      7  C   UNL     1      12.374 -32.387   0.195  1.00  0.00     0.000 C 
BRANCH   7   8
ATOM      8  C   UNL     1      12.667 -31.469   1.395  1.00  0.00     0.000 C 
BRANCH   8   9
ATOM      9  C   UNL     1      12.670 -32.228   2.732  1.00  0.00     0.000 C 
BRANCH   9  10
ATOM     10  C   UNL     1      12.913 -31.301   3.935  1.00  0.00     0.006 C 
BRANCH  10  11
ATOM     11  C   UNL     1      14.221 -30.510   3.801  1.00  0.00     0.053 C 
BRANCH  11  12
ATOM     12  C   UNL     1      13.992 -29.034   3.912  1.00  0.00     0.041 C 
ATOM     13  O   UNL     1      12.827 -28.584   4.079  1.00  0.00    -0.550 OA
ATOM     14  O   UNL     1      15.068 -28.157   3.860  1.00  0.00    -0.550 OA
ENDBRANCH  11  12
ENDBRANCH  10  11
ENDBRANCH   9  10
ENDBRANCH   8   9
ENDBRANCH   7   8
ENDBRANCH   6   7
ENDBRANCH   5   6
ENDBRANCH   4   5
ENDBRANCH   3   4
ENDBRANCH   2   3
ENDBRANCH   1   2
BRANCH   1  15
ATOM     15  C   UNL     1      17.181 -33.959   1.239  1.00  0.00     0.000 C 
BRANCH  15  16
ATOM     16  C   UNL     1      16.278 -33.178   2.216  1.00  0.00     0.000 C 
BRANCH  16  17
ATOM     17  C   UNL     1      15.702 -34.079   3.322  1.00  0.00     0.000 C 
BRANCH  17  18
ATOM     18  C   UNL     1      16.104 -33.612   4.731  1.00  0.00    -0.000 C 
BRANCH  18  19
ATOM     19  C   UNL     1      17.197 -34.498   5.355  1.00  0.00    -0.000 C 
BRANCH  19  20
ATOM     20  C   UNL     1      18.612 -33.931   5.152  1.00  0.00    -0.000 C 
BRANCH  20  21
ATOM     21  C   UNL     1      19.464 -34.677   4.108  1.00  0.00    -0.000 C 
BRANCH  21  22
ATOM     22  C   UNL     1      20.340 -33.735   3.269  1.00  0.00    -0.000 C 
BRANCH  22  23
ATOM     23  C   UNL     1      19.961 -32.268   3.511  1.00  0.00    -0.000 C 
BRANCH  23  24
ATOM     24  C   UNL     1      19.661 -31.553   2.185  1.00  0.00    -0.000 C 
BRANCH  24  25
ATOM     25  C   UNL     1      18.743 -30.334   2.366  1.00  0.00    -0.003 C 
ATOM     26  C   UNL     1      17.999 -30.347   3.701  1.00  0.00     0.004 C 
ENDBRANCH  24  25
ENDBRANCH  23  24
ENDBRANCH  22  23
ENDBRANCH  21  22
ENDBRANCH  20  21
ENDBRANCH  19  20
ENDBRANCH  18  19
ENDBRANCH  17  18
ENDBRANCH  16  17
ENDBRANCH  15  16
ENDBRANCH   1  15
TORSDOF 22
ENDMDL
MODEL 9
REMARK VINA RESULT:    -1.063      5.182      8.686
REMARK INTER + INTRA:          -7.412
REMARK INTER:                  -2.438
REMARK INTRA:                  -4.974
REMARK UNBOUND:                -4.981
REMARK SMILES CCCCCCCCCCCCCCCCCCCCCCCC(=O)[O-]
REMARK SMILES IDX 13 1 14 2 15 3 16 4 17 5 18 6 19 7 20 8 21 9 22 10 23 11
REMARK SMILES IDX 24 12 25 13 26 14 12 15 11 16 10 17 9 18 8 19 7 20 6 21 5 22
REMARK SMILES IDX 4 23 3 24 2 25 1 26
REMARK H PARENT
REMARK Flexibility Score: inf
ROOT
ATOM      1  C   UNL     1      16.836 -36.505   1.165  1.00  0.00     0.000 C 
ENDROOT
BRANCH   1   2
ATOM      2  C   UNL     1      16.911 -36.243  -0.349  1.00  0.00     0.000 C 
BRANCH   2   3
ATOM      3  C   UNL     1      16.045 -37.217  -1.165  1.00  0.00     0.000 C 
BRANCH   3   4
ATOM      4  C   UNL     1      14.964 -36.498  -1.993  1.00  0.00     0.000 C 
BRANCH   4   5
ATOM      5  C   UNL     1      14.989 -34.973  -1.796  1.00  0.00     0.000 C 
BRANCH   5   6
ATOM      6  C   UNL     1      13.648 -34.423  -1.276  1.00  0.00     0.000 C 
BRANCH   6   7
ATOM      7  C   UNL     1      13.790 -33.706   0.076  1.00  0.00     0.000 C 
BRANCH   7   8
ATOM      8  C   UNL     1      13.088 -34.459   1.219  1.00  0.00     0.000 C 
BRANCH   8   9
ATOM      9  C   UNL     1      12.526 -35.818   0.772  1.00  0.00     0.000 C 
BRANCH   9  10
ATOM     10  C   UNL     1      13.158 -36.996   1.534  1.00  0.00     0.006 C 
BRANCH  10  11
ATOM     11  C   UNL     1      13.506 -36.629   2.983  1.00  0.00     0.053 C 
BRANCH  11  12
ATOM     12  C   UNL     1      13.952 -37.823   3.768  1.00  0.00     0.041 C 
ATOM     13  O   UNL     1      13.198 -38.827   3.880  1.00  0.00    -0.550 OA
ATOM     14  O   UNL     1      15.212 -37.841   4.353  1.00  0.00    -0.550 OA
ENDBRANCH  11  12
ENDBRANCH  10  11
ENDBRANCH   9  10
ENDBRANCH   8   9
ENDBRANCH   7   8
ENDBRANCH   6   7
ENDBRANCH   5   6
ENDBRANCH   4   5
ENDBRANCH   3   4
ENDBRANCH   2   3
ENDBRANCH   1   2
BRANCH   1  15
ATOM     15  C   UNL     1      16.795 -35.211   1.995  1.00  0.00     0.000 C 
BRANCH  15  16
ATOM     16  C   UNL     1      17.172 -33.945   1.199  1.00  0.00     0.000 C 
BRANCH  16  17
ATOM     17  C   UNL     1      18.552 -33.394   1.600  1.00  0.00     0.000 C 
BRANCH  17  18
ATOM     18  C   UNL     1      18.581 -32.877   3.048  1.00  0.00    -0.000 C 
BRANCH  18  19
ATOM     19  C   UNL     1      18.521 -31.341   3.125  1.00  0.00    -0.000 C 
BRANCH  19  20
ATOM     20  C   UNL     1      17.212 -30.826   3.748  1.00  0.00    -0.000 C 
BRANCH  20  21
ATOM     21  C   UNL     1      16.081 -30.550   2.741  1.00  0.00    -0.000 C 
BRANCH  21  22
ATOM     22  C   UNL     1      14.919 -31.547   2.861  1.00  0.00    -0.000 C 
BRANCH  22  23
ATOM     23  C   UNL     1      14.675 -31.935   4.325  1.00  0.00    -0.000 C 
BRANCH  23  24
ATOM     24  C   UNL     1      14.624 -33.462   4.486  1.00  0.00    -0.000 C 
BRANCH  24  25
ATOM     25  C   UNL     1      15.806 -34.008   5.303  1.00  0.00    -0.003 C 
ATOM     26  C   UNL     1      15.360 -34.825   6.516  1.00  0.00     0.004 C 
ENDBRANCH  24  25
ENDBRANCH  23  24
ENDBRANCH  22  23
ENDBRANCH  21  22
ENDBRANCH  20  21
ENDBRANCH  19  20
ENDBRANCH  18  19
ENDBRANCH  17  18
ENDBRANCH  16  17
ENDBRANCH  15  16
ENDBRANCH   1  15
TORSDOF 22
ENDMDL
