MODEL 1
REMARK VINA RESULT:    -3.760      0.000      0.000
REMARK INTER + INTRA:         -13.641
REMARK INTER:                  -9.914
REMARK INTRA:                  -3.727
REMARK UNBOUND:                -3.727
REMARK SMILES CCCCCCCCCCCCCCCCCCCCCCCCCCCCCC(=O)[O-]
REMARK SMILES IDX 16 1 17 2 18 3 19 4 20 5 21 6 22 7 23 8 24 9 25 10 26 11
REMARK SMILES IDX 27 12 28 13 29 14 30 15 31 16 32 17 15 18 14 19 13 20 12 21
REMARK SMILES IDX 11 22 10 23 9 24 8 25 7 26 6 27 5 28 4 29 3 30 2 31 1 32
REMARK H PARENT
REMARK Flexibility Score: inf
ROOT
ATOM      1  C   UNL     1     -19.673  29.623  20.320  1.00  0.00     0.000 C 
ENDROOT
BRANCH   1   2
ATOM      2  C   UNL     1     -20.185  30.050  21.710  1.00  0.00     0.000 C 
BRANCH   2   3
ATOM      3  C   UNL     1     -20.971  31.378  21.753  1.00  0.00     0.000 C 
BRANCH   3   4
ATOM      4  C   UNL     1     -22.496  31.240  21.962  1.00  0.00     0.000 C 
BRANCH   4   5
ATOM      5  C   UNL     1     -23.345  31.812  20.812  1.00  0.00     0.000 C 
BRANCH   5   6
ATOM      6  C   UNL     1     -23.652  33.319  20.947  1.00  0.00     0.000 C 
BRANCH   6   7
ATOM      7  C   UNL     1     -22.796  34.200  20.011  1.00  0.00     0.000 C 
BRANCH   7   8
ATOM      8  C   UNL     1     -22.071  35.348  20.734  1.00  0.00     0.000 C 
BRANCH   8   9
ATOM      9  C   UNL     1     -21.489  34.927  22.094  1.00  0.00     0.000 C 
BRANCH   9  10
ATOM     10  C   UNL     1     -21.872  35.893  23.227  1.00  0.00     0.000 C 
BRANCH  10  11
ATOM     11  C   UNL     1     -22.336  37.265  22.711  1.00  0.00     0.000 C 
BRANCH  11  12
ATOM     12  C   UNL     1     -21.636  38.429  23.448  1.00  0.00     0.000 C 
BRANCH  12  13
ATOM     13  C   UNL     1     -21.866  39.800  22.785  1.00  0.00     0.006 C 
BRANCH  13  14
ATOM     14  C   UNL     1     -22.285  39.718  21.310  1.00  0.00     0.053 C 
BRANCH  14  15
ATOM     15  C   UNL     1     -21.874  40.936  20.537  1.00  0.00     0.041 C 
ATOM     16  O   UNL     1     -20.716  41.018  20.048  1.00  0.00    -0.550 OA
ATOM     17  O   UNL     1     -22.768  41.986  20.365  1.00  0.00    -0.550 OA
ENDBRANCH  14  15
ENDBRANCH  13  14
ENDBRANCH  12  13
ENDBRANCH  11  12
ENDBRANCH  10  11
ENDBRANCH   9  10
ENDBRANCH   8   9
ENDBRANCH   7   8
ENDBRANCH   6   7
ENDBRANCH   5   6
ENDBRANCH   4   5
ENDBRANCH   3   4
ENDBRANCH   2   3
ENDBRANCH   1   2
BRANCH   1  18
ATOM     18  C   UNL     1     -20.408  28.392  19.762  1.00  0.00     0.000 C 
BRANCH  18  19
ATOM     19  C   UNL     1     -21.806  28.727  19.218  1.00  0.00     0.000 C 
BRANCH  19  20
ATOM     20  C   UNL     1     -22.848  27.649  19.560  1.00  0.00     0.000 C 
BRANCH  20  21
ATOM     21  C   UNL     1     -23.871  28.118  20.610  1.00  0.00     0.000 C 
BRANCH  21  22
ATOM     22  C   UNL     1     -23.840  27.293  21.914  1.00  0.00     0.000 C 
BRANCH  22  23
ATOM     23  C   UNL     1     -22.563  27.553  22.733  1.00  0.00     0.000 C 
BRANCH  23  24
ATOM     24  C   UNL     1     -21.659  26.314  22.837  1.00  0.00    -0.000 C 
BRANCH  24  25
ATOM     25  C   UNL     1     -20.211  26.676  23.213  1.00  0.00    -0.000 C 
BRANCH  25  26
ATOM     26  C   UNL     1     -19.197  25.603  22.773  1.00  0.00    -0.000 C 
BRANCH  26  27
ATOM     27  C   UNL     1     -18.255  26.041  21.636  1.00  0.00    -0.000 C 
BRANCH  27  28
ATOM     28  C   UNL     1     -17.061  25.086  21.450  1.00  0.00    -0.000 C 
BRANCH  28  29
ATOM     29  C   UNL     1     -17.461  23.755  20.793  1.00  0.00    -0.000 C 
BRANCH  29  30
ATOM     30  C   UNL     1     -18.450  23.946  19.630  1.00  0.00    -0.000 C 
BRANCH  30  31
ATOM     31  C   UNL     1     -18.139  23.030  18.436  1.00  0.00    -0.003 C 
ATOM     32  C   UNL     1     -18.971  23.364  17.198  1.00  0.00     0.004 C 
ENDBRANCH  30  31
ENDBRANCH  29  30
ENDBRANCH  28  29
ENDBRANCH  27  28
ENDBRANCH  26  27
ENDBRANCH  25  26
ENDBRANCH  24  25
ENDBRANCH  23  24
ENDBRANCH  22  23
ENDBRANCH  21  22
ENDBRANCH  20  21
ENDBRANCH  19  20
ENDBRANCH  18  19
ENDBRANCH   1  18
TORSDOF 28
ENDMDL
MODEL 2
REMARK VINA RESULT:    -3.731      4.855     11.350
REMARK INTER + INTRA:         -13.564
REMARK INTER:                  -9.549
REMARK INTRA:                  -4.015
REMARK UNBOUND:                -3.727
REMARK SMILES CCCCCCCCCCCCCCCCCCCCCCCCCCCCCC(=O)[O-]
REMARK SMILES IDX 16 1 17 2 18 3 19 4 20 5 21 6 22 7 23 8 24 9 25 10 26 11
REMARK SMILES IDX 27 12 28 13 29 14 30 15 31 16 32 17 15 18 14 19 13 20 12 21
REMARK SMILES IDX 11 22 10 23 9 24 8 25 7 26 6 27 5 28 4 29 3 30 2 31 1 32
REMARK H PARENT
REMARK Flexibility Score: inf
ROOT
ATOM      1  C   UNL     1     -18.670  31.992  23.687  1.00  0.00     0.000 C 
ENDROOT
BRANCH   1   2
ATOM      2  C   UNL     1     -18.625  30.492  24.037  1.00  0.00     0.000 C 
BRANCH   2   3
ATOM      3  C   UNL     1     -17.468  29.692  23.400  1.00  0.00     0.000 C 
BRANCH   3   4
ATOM      4  C   UNL     1     -17.854  28.817  22.188  1.00  0.00     0.000 C 
BRANCH   4   5
ATOM      5  C   UNL     1     -19.345  28.439  22.129  1.00  0.00     0.000 C 
BRANCH   5   6
ATOM      6  C   UNL     1     -19.812  27.932  20.747  1.00  0.00     0.000 C 
BRANCH   6   7
ATOM      7  C   UNL     1     -20.211  29.074  19.785  1.00  0.00     0.000 C 
BRANCH   7   8
ATOM      8  C   UNL     1     -21.618  28.913  19.186  1.00  0.00     0.000 C 
BRANCH   8   9
ATOM      9  C   UNL     1     -22.567  28.108  20.092  1.00  0.00     0.000 C 
BRANCH   9  10
ATOM     10  C   UNL     1     -23.076  26.822  19.422  1.00  0.00     0.000 C 
BRANCH  10  11
ATOM     11  C   UNL     1     -23.269  25.666  20.417  1.00  0.00     0.000 C 
BRANCH  11  12
ATOM     12  C   UNL     1     -21.953  24.901  20.682  1.00  0.00     0.000 C 
BRANCH  12  13
ATOM     13  C   UNL     1     -21.363  24.242  19.421  1.00  0.00     0.006 C 
BRANCH  13  14
ATOM     14  C   UNL     1     -19.951  24.730  19.064  1.00  0.00     0.053 C 
BRANCH  14  15
ATOM     15  C   UNL     1     -18.905  23.695  19.353  1.00  0.00     0.041 C 
ATOM     16  O   UNL     1     -18.362  23.060  18.410  1.00  0.00    -0.550 OA
ATOM     17  O   UNL     1     -18.537  23.423  20.665  1.00  0.00    -0.550 OA
ENDBRANCH  14  15
ENDBRANCH  13  14
ENDBRANCH  12  13
ENDBRANCH  11  12
ENDBRANCH  10  11
ENDBRANCH   9  10
ENDBRANCH   8   9
ENDBRANCH   7   8
ENDBRANCH   6   7
ENDBRANCH   5   6
ENDBRANCH   4   5
ENDBRANCH   3   4
ENDBRANCH   2   3
ENDBRANCH   1   2
BRANCH   1  18
ATOM     18  C   UNL     1     -20.093  32.499  23.396  1.00  0.00     0.000 C 
BRANCH  18  19
ATOM     19  C   UNL     1     -20.752  31.777  22.209  1.00  0.00     0.000 C 
BRANCH  19  20
ATOM     20  C   UNL     1     -21.970  30.938  22.629  1.00  0.00     0.000 C 
BRANCH  20  21
ATOM     21  C   UNL     1     -23.309  31.602  22.261  1.00  0.00     0.000 C 
BRANCH  21  22
ATOM     22  C   UNL     1     -23.332  32.195  20.837  1.00  0.00     0.000 C 
BRANCH  22  23
ATOM     23  C   UNL     1     -23.621  33.707  20.843  1.00  0.00     0.000 C 
BRANCH  23  24
ATOM     24  C   UNL     1     -22.683  34.497  19.916  1.00  0.00    -0.000 C 
BRANCH  24  25
ATOM     25  C   UNL     1     -21.602  35.268  20.694  1.00  0.00    -0.000 C 
BRANCH  25  26
ATOM     26  C   UNL     1     -21.903  35.354  22.202  1.00  0.00    -0.000 C 
BRANCH  26  27
ATOM     27  C   UNL     1     -22.160  36.781  22.723  1.00  0.00    -0.000 C 
BRANCH  27  28
ATOM     28  C   UNL     1     -23.056  37.607  21.781  1.00  0.00    -0.000 C 
BRANCH  28  29
ATOM     29  C   UNL     1     -23.340  39.019  22.320  1.00  0.00    -0.000 C 
BRANCH  29  30
ATOM     30  C   UNL     1     -22.199  40.006  22.018  1.00  0.00    -0.000 C 
BRANCH  30  31
ATOM     31  C   UNL     1     -21.911  40.131  20.514  1.00  0.00    -0.003 C 
ATOM     32  C   UNL     1     -20.900  41.232  20.192  1.00  0.00     0.004 C 
ENDBRANCH  30  31
ENDBRANCH  29  30
ENDBRANCH  28  29
ENDBRANCH  27  28
ENDBRANCH  26  27
ENDBRANCH  25  26
ENDBRANCH  24  25
ENDBRANCH  23  24
ENDBRANCH  22  23
ENDBRANCH  21  22
ENDBRANCH  20  21
ENDBRANCH  19  20
ENDBRANCH  18  19
ENDBRANCH   1  18
TORSDOF 28
ENDMDL
MODEL 3
REMARK VINA RESULT:    -3.708      4.787     12.295
REMARK INTER + INTRA:         -13.505
REMARK INTER:                 -10.519
REMARK INTRA:                  -2.986
REMARK UNBOUND:                -3.727
REMARK SMILES CCCCCCCCCCCCCCCCCCCCCCCCCCCCCC(=O)[O-]
REMARK SMILES IDX 16 1 17 2 18 3 19 4 20 5 21 6 22 7 23 8 24 9 25 10 26 11
REMARK SMILES IDX 27 12 28 13 29 14 30 15 31 16 32 17 15 18 14 19 13 20 12 21
REMARK SMILES IDX 11 22 10 23 9 24 8 25 7 26 6 27 5 28 4 29 3 30 2 31 1 32
REMARK H PARENT
REMARK Flexibility Score: inf
ROOT
ATOM      1  C   UNL     1     -19.628  29.615  20.207  1.00  0.00     0.000 C 
ENDROOT
BRANCH   1   2
ATOM      2  C   UNL     1     -20.513  28.802  19.242  1.00  0.00     0.000 C 
BRANCH   2   3
ATOM      3  C   UNL     1     -21.923  28.452  19.763  1.00  0.00     0.000 C 
BRANCH   3   4
ATOM      4  C   UNL     1     -22.345  26.975  19.598  1.00  0.00     0.000 C 
BRANCH   4   5
ATOM      5  C   UNL     1     -22.929  26.338  20.873  1.00  0.00     0.000 C 
BRANCH   5   6
ATOM      6  C   UNL     1     -22.140  26.667  22.158  1.00  0.00     0.000 C 
BRANCH   6   7
ATOM      7  C   UNL     1     -20.936  25.727  22.389  1.00  0.00     0.000 C 
BRANCH   7   8
ATOM      8  C   UNL     1     -19.576  26.445  22.358  1.00  0.00     0.000 C 
BRANCH   8   9
ATOM      9  C   UNL     1     -18.713  26.042  21.150  1.00  0.00     0.000 C 
BRANCH   9  10
ATOM     10  C   UNL     1     -19.351  24.922  20.313  1.00  0.00     0.000 C 
BRANCH  10  11
ATOM     11  C   UNL     1     -18.415  23.719  20.112  1.00  0.00     0.000 C 
BRANCH  11  12
ATOM     12  C   UNL     1     -18.345  23.278  18.633  1.00  0.00     0.000 C 
BRANCH  12  13
ATOM     13  C   UNL     1     -19.578  23.697  17.810  1.00  0.00     0.006 C 
BRANCH  13  14
ATOM     14  C   UNL     1     -19.349  23.683  16.291  1.00  0.00     0.053 C 
BRANCH  14  15
ATOM     15  C   UNL     1     -20.637  23.613  15.526  1.00  0.00     0.041 C 
ATOM     16  O   UNL     1     -21.735  23.534  16.138  1.00  0.00    -0.550 OA
ATOM     17  O   UNL     1     -20.624  23.627  14.137  1.00  0.00    -0.550 OA
ENDBRANCH  14  15
ENDBRANCH  13  14
ENDBRANCH  12  13
ENDBRANCH  11  12
ENDBRANCH  10  11
ENDBRANCH   9  10
ENDBRANCH   8   9
ENDBRANCH   7   8
ENDBRANCH   6   7
ENDBRANCH   5   6
ENDBRANCH   4   5
ENDBRANCH   3   4
ENDBRANCH   2   3
ENDBRANCH   1   2
BRANCH   1  18
ATOM     18  C   UNL     1     -20.291  29.854  21.574  1.00  0.00     0.000 C 
BRANCH  18  19
ATOM     19  C   UNL     1     -19.313  30.406  22.624  1.00  0.00     0.000 C 
BRANCH  19  20
ATOM     20  C   UNL     1     -20.015  31.243  23.706  1.00  0.00     0.000 C 
BRANCH  20  21
ATOM     21  C   UNL     1     -20.018  32.749  23.388  1.00  0.00     0.000 C 
BRANCH  21  22
ATOM     22  C   UNL     1     -21.158  33.176  22.439  1.00  0.00     0.000 C 
BRANCH  22  23
ATOM     23  C   UNL     1     -21.130  34.687  22.145  1.00  0.00     0.000 C 
BRANCH  23  24
ATOM     24  C   UNL     1     -22.011  35.078  20.947  1.00  0.00    -0.000 C 
BRANCH  24  25
ATOM     25  C   UNL     1     -22.761  36.401  21.180  1.00  0.00    -0.000 C 
BRANCH  25  26
ATOM     26  C   UNL     1     -22.540  36.970  22.594  1.00  0.00    -0.000 C 
BRANCH  26  27
ATOM     27  C   UNL     1     -22.284  38.488  22.641  1.00  0.00    -0.000 C 
BRANCH  27  28
ATOM     28  C   UNL     1     -22.969  39.244  21.487  1.00  0.00    -0.000 C 
BRANCH  28  29
ATOM     29  C   UNL     1     -21.969  39.768  20.444  1.00  0.00    -0.000 C 
BRANCH  29  30
ATOM     30  C   UNL     1     -21.784  41.294  20.520  1.00  0.00    -0.000 C 
BRANCH  30  31
ATOM     31  C   UNL     1     -20.651  41.703  21.474  1.00  0.00    -0.003 C 
ATOM     32  C   UNL     1     -19.292  41.790  20.781  1.00  0.00     0.004 C 
ENDBRANCH  30  31
ENDBRANCH  29  30
ENDBRANCH  28  29
ENDBRANCH  27  28
ENDBRANCH  26  27
ENDBRANCH  25  26
ENDBRANCH  24  25
ENDBRANCH  23  24
ENDBRANCH  22  23
ENDBRANCH  21  22
ENDBRANCH  20  21
ENDBRANCH  19  20
ENDBRANCH  18  19
ENDBRANCH   1  18
TORSDOF 28
ENDMDL
MODEL 4
REMARK VINA RESULT:    -3.682      5.103     10.980
REMARK INTER + INTRA:         -13.435
REMARK INTER:                  -9.056
REMARK INTRA:                  -4.378
REMARK UNBOUND:                -3.727
REMARK SMILES CCCCCCCCCCCCCCCCCCCCCCCCCCCCCC(=O)[O-]
REMARK SMILES IDX 16 1 17 2 18 3 19 4 20 5 21 6 22 7 23 8 24 9 25 10 26 11
REMARK SMILES IDX 27 12 28 13 29 14 30 15 31 16 32 17 15 18 14 19 13 20 12 21
REMARK SMILES IDX 11 22 10 23 9 24 8 25 7 26 6 27 5 28 4 29 3 30 2 31 1 32
REMARK H PARENT
REMARK Flexibility Score: inf
ROOT
ATOM      1  C   UNL     1     -18.871  29.229  21.387  1.00  0.00     0.000 C 
ENDROOT
BRANCH   1   2
ATOM      2  C   UNL     1     -18.931  27.700  21.560  1.00  0.00     0.000 C 
BRANCH   2   3
ATOM      3  C   UNL     1     -18.848  27.189  23.014  1.00  0.00     0.000 C 
BRANCH   3   4
ATOM      4  C   UNL     1     -17.451  26.719  23.476  1.00  0.00     0.000 C 
BRANCH   4   5
ATOM      5  C   UNL     1     -17.201  25.210  23.300  1.00  0.00     0.000 C 
BRANCH   5   6
ATOM      6  C   UNL     1     -16.626  24.825  21.919  1.00  0.00     0.000 C 
BRANCH   6   7
ATOM      7  C   UNL     1     -17.526  23.842  21.139  1.00  0.00     0.000 C 
BRANCH   7   8
ATOM      8  C   UNL     1     -18.916  23.644  21.768  1.00  0.00     0.000 C 
BRANCH   8   9
ATOM      9  C   UNL     1     -20.065  23.930  20.786  1.00  0.00     0.000 C 
BRANCH   9  10
ATOM     10  C   UNL     1     -19.617  24.770  19.579  1.00  0.00     0.000 C 
BRANCH  10  11
ATOM     11  C   UNL     1     -19.667  23.988  18.256  1.00  0.00     0.000 C 
BRANCH  11  12
ATOM     12  C   UNL     1     -21.113  23.622  17.851  1.00  0.00     0.000 C 
BRANCH  12  13
ATOM     13  C   UNL     1     -21.257  23.249  16.364  1.00  0.00     0.006 C 
BRANCH  13  14
ATOM     14  C   UNL     1     -20.031  23.604  15.510  1.00  0.00     0.053 C 
BRANCH  14  15
ATOM     15  C   UNL     1     -20.312  23.486  14.041  1.00  0.00     0.041 C 
ATOM     16  O   UNL     1     -21.485  23.634  13.606  1.00  0.00    -0.550 OA
ATOM     17  O   UNL     1     -19.281  23.202  13.154  1.00  0.00    -0.550 OA
ENDBRANCH  14  15
ENDBRANCH  13  14
ENDBRANCH  12  13
ENDBRANCH  11  12
ENDBRANCH  10  11
ENDBRANCH   9  10
ENDBRANCH   8   9
ENDBRANCH   7   8
ENDBRANCH   6   7
ENDBRANCH   5   6
ENDBRANCH   4   5
ENDBRANCH   3   4
ENDBRANCH   2   3
ENDBRANCH   1   2
BRANCH   1  18
ATOM     18  C   UNL     1     -19.895  29.760  20.367  1.00  0.00     0.000 C 
BRANCH  18  19
ATOM     19  C   UNL     1     -20.396  28.671  19.405  1.00  0.00     0.000 C 
BRANCH  19  20
ATOM     20  C   UNL     1     -21.919  28.722  19.194  1.00  0.00     0.000 C 
BRANCH  20  21
ATOM     21  C   UNL     1     -22.611  27.386  19.516  1.00  0.00     0.000 C 
BRANCH  21  22
ATOM     22  C   UNL     1     -22.321  26.867  20.939  1.00  0.00     0.000 C 
BRANCH  22  23
ATOM     23  C   UNL     1     -23.274  27.476  21.983  1.00  0.00     0.000 C 
BRANCH  23  24
ATOM     24  C   UNL     1     -22.535  28.049  23.203  1.00  0.00    -0.000 C 
BRANCH  24  25
ATOM     25  C   UNL     1     -22.199  29.542  23.036  1.00  0.00    -0.000 C 
BRANCH  25  26
ATOM     26  C   UNL     1     -23.252  30.299  22.205  1.00  0.00    -0.000 C 
BRANCH  26  27
ATOM     27  C   UNL     1     -23.926  31.472  22.940  1.00  0.00    -0.000 C 
BRANCH  27  28
ATOM     28  C   UNL     1     -24.012  32.746  22.079  1.00  0.00    -0.000 C 
BRANCH  28  29
ATOM     29  C   UNL     1     -22.803  32.913  21.145  1.00  0.00    -0.000 C 
BRANCH  29  30
ATOM     30  C   UNL     1     -22.902  34.176  20.272  1.00  0.00    -0.000 C 
BRANCH  30  31
ATOM     31  C   UNL     1     -21.838  35.225  20.631  1.00  0.00    -0.003 C 
ATOM     32  C   UNL     1     -22.201  36.041  21.871  1.00  0.00     0.004 C 
ENDBRANCH  30  31
ENDBRANCH  29  30
ENDBRANCH  28  29
ENDBRANCH  27  28
ENDBRANCH  26  27
ENDBRANCH  25  26
ENDBRANCH  24  25
ENDBRANCH  23  24
ENDBRANCH  22  23
ENDBRANCH  21  22
ENDBRANCH  20  21
ENDBRANCH  19  20
ENDBRANCH  18  19
ENDBRANCH   1  18
TORSDOF 28
ENDMDL
MODEL 5
REMARK VINA RESULT:    -3.653      5.581     10.691
REMARK INTER + INTRA:         -13.358
REMARK INTER:                  -8.597
REMARK INTRA:                  -4.761
REMARK UNBOUND:                -3.727
REMARK SMILES CCCCCCCCCCCCCCCCCCCCCCCCCCCCCC(=O)[O-]
REMARK SMILES IDX 16 1 17 2 18 3 19 4 20 5 21 6 22 7 23 8 24 9 25 10 26 11
REMARK SMILES IDX 27 12 28 13 29 14 30 15 31 16 32 17 15 18 14 19 13 20 12 21
REMARK SMILES IDX 11 22 10 23 9 24 8 25 7 26 6 27 5 28 4 29 3 30 2 31 1 32
REMARK H PARENT
REMARK Flexibility Score: inf
ROOT
ATOM      1  C   UNL     1     -19.728  29.625  20.263  1.00  0.00     0.000 C 
ENDROOT
BRANCH   1   2
ATOM      2  C   UNL     1     -19.554  28.999  21.660  1.00  0.00     0.000 C 
BRANCH   2   3
ATOM      3  C   UNL     1     -18.118  28.565  22.023  1.00  0.00     0.000 C 
BRANCH   3   4
ATOM      4  C   UNL     1     -17.877  27.039  22.071  1.00  0.00     0.000 C 
BRANCH   4   5
ATOM      5  C   UNL     1     -18.913  26.262  22.904  1.00  0.00     0.000 C 
BRANCH   5   6
ATOM      6  C   UNL     1     -18.932  24.744  22.623  1.00  0.00     0.000 C 
BRANCH   6   7
ATOM      7  C   UNL     1     -17.600  24.215  22.048  1.00  0.00     0.000 C 
BRANCH   7   8
ATOM      8  C   UNL     1     -17.773  23.059  21.049  1.00  0.00     0.000 C 
BRANCH   8   9
ATOM      9  C   UNL     1     -17.150  23.356  19.674  1.00  0.00     0.000 C 
BRANCH   9  10
ATOM     10  C   UNL     1     -18.125  23.099  18.514  1.00  0.00     0.000 C 
BRANCH  10  11
ATOM     11  C   UNL     1     -19.410  23.936  18.617  1.00  0.00     0.000 C 
BRANCH  11  12
ATOM     12  C   UNL     1     -20.462  23.517  17.565  1.00  0.00     0.000 C 
BRANCH  12  13
ATOM     13  C   UNL     1     -19.920  23.520  16.123  1.00  0.00     0.006 C 
BRANCH  13  14
ATOM     14  C   UNL     1     -21.014  23.508  15.045  1.00  0.00     0.053 C 
BRANCH  14  15
ATOM     15  C   UNL     1     -20.445  23.597  13.661  1.00  0.00     0.041 C 
ATOM     16  O   UNL     1     -19.228  23.342  13.457  1.00  0.00    -0.550 OA
ATOM     17  O   UNL     1     -21.255  23.973  12.596  1.00  0.00    -0.550 OA
ENDBRANCH  14  15
ENDBRANCH  13  14
ENDBRANCH  12  13
ENDBRANCH  11  12
ENDBRANCH  10  11
ENDBRANCH   9  10
ENDBRANCH   8   9
ENDBRANCH   7   8
ENDBRANCH   6   7
ENDBRANCH   5   6
ENDBRANCH   4   5
ENDBRANCH   3   4
ENDBRANCH   2   3
ENDBRANCH   1   2
BRANCH   1  18
ATOM     18  C   UNL     1     -20.402  28.675  19.258  1.00  0.00     0.000 C 
BRANCH  18  19
ATOM     19  C   UNL     1     -20.882  27.365  19.905  1.00  0.00     0.000 C 
BRANCH  19  20
ATOM     20  C   UNL     1     -22.220  26.874  19.327  1.00  0.00     0.000 C 
BRANCH  20  21
ATOM     21  C   UNL     1     -22.911  25.831  20.223  1.00  0.00     0.000 C 
BRANCH  21  22
ATOM     22  C   UNL     1     -22.245  25.668  21.606  1.00  0.00     0.000 C 
BRANCH  22  23
ATOM     23  C   UNL     1     -23.280  25.445  22.723  1.00  0.00     0.000 C 
BRANCH  23  24
ATOM     24  C   UNL     1     -23.530  26.707  23.565  1.00  0.00    -0.000 C 
BRANCH  24  25
ATOM     25  C   UNL     1     -22.481  27.803  23.303  1.00  0.00    -0.000 C 
BRANCH  25  26
ATOM     26  C   UNL     1     -23.114  29.187  23.067  1.00  0.00    -0.000 C 
BRANCH  26  27
ATOM     27  C   UNL     1     -23.246  29.585  21.585  1.00  0.00    -0.000 C 
BRANCH  27  28
ATOM     28  C   UNL     1     -23.661  31.056  21.397  1.00  0.00    -0.000 C 
BRANCH  28  29
ATOM     29  C   UNL     1     -22.899  32.012  22.330  1.00  0.00    -0.000 C 
BRANCH  29  30
ATOM     30  C   UNL     1     -21.515  32.396  21.778  1.00  0.00    -0.000 C 
BRANCH  30  31
ATOM     31  C   UNL     1     -20.715  33.273  22.753  1.00  0.00    -0.003 C 
ATOM     32  C   UNL     1     -19.559  32.525  23.416  1.00  0.00     0.004 C 
ENDBRANCH  30  31
ENDBRANCH  29  30
ENDBRANCH  28  29
ENDBRANCH  27  28
ENDBRANCH  26  27
ENDBRANCH  25  26
ENDBRANCH  24  25
ENDBRANCH  23  24
ENDBRANCH  22  23
ENDBRANCH  21  22
ENDBRANCH  20  21
ENDBRANCH  19  20
ENDBRANCH  18  19
ENDBRANCH   1  18
TORSDOF 28
ENDMDL
MODEL 6
REMARK VINA RESULT:    -3.616      1.482      3.226
REMARK INTER + INTRA:         -13.262
REMARK INTER:                  -9.072
REMARK INTRA:                  -4.190
REMARK UNBOUND:                -3.727
REMARK SMILES CCCCCCCCCCCCCCCCCCCCCCCCCCCCCC(=O)[O-]
REMARK SMILES IDX 16 1 17 2 18 3 19 4 20 5 21 6 22 7 23 8 24 9 25 10 26 11
REMARK SMILES IDX 27 12 28 13 29 14 30 15 31 16 32 17 15 18 14 19 13 20 12 21
REMARK SMILES IDX 11 22 10 23 9 24 8 25 7 26 6 27 5 28 4 29 3 30 2 31 1 32
REMARK H PARENT
REMARK Flexibility Score: inf
ROOT
ATOM      1  C   UNL     1     -20.476  29.253  19.237  1.00  0.00     0.000 C 
ENDROOT
BRANCH   1   2
ATOM      2  C   UNL     1     -21.885  28.631  19.248  1.00  0.00     0.000 C 
BRANCH   2   3
ATOM      3  C   UNL     1     -23.056  29.631  19.363  1.00  0.00     0.000 C 
BRANCH   3   4
ATOM      4  C   UNL     1     -23.837  29.590  20.694  1.00  0.00     0.000 C 
BRANCH   4   5
ATOM      5  C   UNL     1     -24.035  30.967  21.355  1.00  0.00     0.000 C 
BRANCH   5   6
ATOM      6  C   UNL     1     -23.761  32.160  20.414  1.00  0.00     0.000 C 
BRANCH   6   7
ATOM      7  C   UNL     1     -22.750  33.173  20.996  1.00  0.00     0.000 C 
BRANCH   7   8
ATOM      8  C   UNL     1     -22.554  34.423  20.121  1.00  0.00     0.000 C 
BRANCH   8   9
ATOM      9  C   UNL     1     -22.511  35.725  20.939  1.00  0.00     0.000 C 
BRANCH   9  10
ATOM     10  C   UNL     1     -21.790  35.555  22.286  1.00  0.00     0.000 C 
BRANCH  10  11
ATOM     11  C   UNL     1     -22.243  36.579  23.339  1.00  0.00     0.000 C 
BRANCH  11  12
ATOM     12  C   UNL     1     -22.659  37.924  22.701  1.00  0.00     0.000 C 
BRANCH  12  13
ATOM     13  C   UNL     1     -21.698  39.081  23.030  1.00  0.00     0.006 C 
BRANCH  13  14
ATOM     14  C   UNL     1     -22.129  40.435  22.446  1.00  0.00     0.053 C 
BRANCH  14  15
ATOM     15  C   UNL     1     -21.482  40.711  21.122  1.00  0.00     0.041 C 
ATOM     16  O   UNL     1     -21.867  40.101  20.088  1.00  0.00    -0.550 OA
ATOM     17  O   UNL     1     -20.447  41.634  21.029  1.00  0.00    -0.550 OA
ENDBRANCH  14  15
ENDBRANCH  13  14
ENDBRANCH  12  13
ENDBRANCH  11  12
ENDBRANCH  10  11
ENDBRANCH   9  10
ENDBRANCH   8   9
ENDBRANCH   7   8
ENDBRANCH   6   7
ENDBRANCH   5   6
ENDBRANCH   4   5
ENDBRANCH   3   4
ENDBRANCH   2   3
ENDBRANCH   1   2
BRANCH   1  18
ATOM     18  C   UNL     1     -19.762  29.151  20.596  1.00  0.00     0.000 C 
BRANCH  18  19
ATOM     19  C   UNL     1     -20.127  30.301  21.549  1.00  0.00     0.000 C 
BRANCH  19  20
ATOM     20  C   UNL     1     -20.812  29.810  22.836  1.00  0.00     0.000 C 
BRANCH  20  21
ATOM     21  C   UNL     1     -19.822  29.594  23.994  1.00  0.00     0.000 C 
BRANCH  21  22
ATOM     22  C   UNL     1     -18.553  30.467  23.892  1.00  0.00     0.000 C 
BRANCH  22  23
ATOM     23  C   UNL     1     -17.301  29.634  23.567  1.00  0.00     0.000 C 
BRANCH  23  24
ATOM     24  C   UNL     1     -17.533  28.122  23.724  1.00  0.00    -0.000 C 
BRANCH  24  25
ATOM     25  C   UNL     1     -17.438  27.373  22.383  1.00  0.00    -0.000 C 
BRANCH  25  26
ATOM     26  C   UNL     1     -17.662  25.856  22.532  1.00  0.00    -0.000 C 
BRANCH  26  27
ATOM     27  C   UNL     1     -17.413  25.043  21.248  1.00  0.00    -0.000 C 
BRANCH  27  28
ATOM     28  C   UNL     1     -18.703  24.432  20.670  1.00  0.00    -0.000 C 
BRANCH  28  29
ATOM     29  C   UNL     1     -19.713  25.498  20.214  1.00  0.00    -0.000 C 
BRANCH  29  30
ATOM     30  C   UNL     1     -21.119  25.265  20.794  1.00  0.00    -0.000 C 
BRANCH  30  31
ATOM     31  C   UNL     1     -21.386  26.112  22.048  1.00  0.00    -0.003 C 
ATOM     32  C   UNL     1     -22.866  26.446  22.235  1.00  0.00     0.004 C 
ENDBRANCH  30  31
ENDBRANCH  29  30
ENDBRANCH  28  29
ENDBRANCH  27  28
ENDBRANCH  26  27
ENDBRANCH  25  26
ENDBRANCH  24  25
ENDBRANCH  23  24
ENDBRANCH  22  23
ENDBRANCH  21  22
ENDBRANCH  20  21
ENDBRANCH  19  20
ENDBRANCH  18  19
ENDBRANCH   1  18
TORSDOF 28
ENDMDL
MODEL 7
REMARK VINA RESULT:    -3.609      4.713     10.648
REMARK INTER + INTRA:         -13.243
REMARK INTER:                  -8.601
REMARK INTRA:                  -4.642
REMARK UNBOUND:                -3.727
REMARK SMILES CCCCCCCCCCCCCCCCCCCCCCCCCCCCCC(=O)[O-]
REMARK SMILES IDX 16 1 17 2 18 3 19 4 20 5 21 6 22 7 23 8 24 9 25 10 26 11
REMARK SMILES IDX 27 12 28 13 29 14 30 15 31 16 32 17 15 18 14 19 13 20 12 21
REMARK SMILES IDX 11 22 10 23 9 24 8 25 7 26 6 27 5 28 4 29 3 30 2 31 1 32
REMARK H PARENT
REMARK Flexibility Score: inf
ROOT
ATOM      1  C   UNL     1     -19.648  29.645  19.940  1.00  0.00     0.000 C 
ENDROOT
BRANCH   1   2
ATOM      2  C   UNL     1     -19.533  29.467  21.466  1.00  0.00     0.000 C 
BRANCH   2   3
ATOM      3  C   UNL     1     -18.252  28.761  21.961  1.00  0.00     0.000 C 
BRANCH   3   4
ATOM      4  C   UNL     1     -18.308  27.217  21.976  1.00  0.00     0.000 C 
BRANCH   4   5
ATOM      5  C   UNL     1     -19.315  26.631  22.983  1.00  0.00     0.000 C 
BRANCH   5   6
ATOM      6  C   UNL     1     -19.959  25.304  22.526  1.00  0.00     0.000 C 
BRANCH   6   7
ATOM      7  C   UNL     1     -19.216  24.056  23.052  1.00  0.00     0.000 C 
BRANCH   7   8
ATOM      8  C   UNL     1     -18.431  23.301  21.966  1.00  0.00     0.000 C 
BRANCH   8   9
ATOM      9  C   UNL     1     -17.125  24.011  21.568  1.00  0.00     0.000 C 
BRANCH   9  10
ATOM     10  C   UNL     1     -16.896  24.019  20.048  1.00  0.00     0.000 C 
BRANCH  10  11
ATOM     11  C   UNL     1     -17.627  22.875  19.327  1.00  0.00     0.000 C 
BRANCH  11  12
ATOM     12  C   UNL     1     -18.482  23.386  18.145  1.00  0.00     0.000 C 
BRANCH  12  13
ATOM     13  C   UNL     1     -19.998  23.253  18.384  1.00  0.00     0.006 C 
BRANCH  13  14
ATOM     14  C   UNL     1     -20.637  24.486  19.040  1.00  0.00     0.053 C 
BRANCH  14  15
ATOM     15  C   UNL     1     -22.136  24.426  19.016  1.00  0.00     0.041 C 
ATOM     16  O   UNL     1     -22.786  24.375  20.094  1.00  0.00    -0.550 OA
ATOM     17  O   UNL     1     -22.814  24.416  17.804  1.00  0.00    -0.550 OA
ENDBRANCH  14  15
ENDBRANCH  13  14
ENDBRANCH  12  13
ENDBRANCH  11  12
ENDBRANCH  10  11
ENDBRANCH   9  10
ENDBRANCH   8   9
ENDBRANCH   7   8
ENDBRANCH   6   7
ENDBRANCH   5   6
ENDBRANCH   4   5
ENDBRANCH   3   4
ENDBRANCH   2   3
ENDBRANCH   1   2
BRANCH   1  18
ATOM     18  C   UNL     1     -20.386  28.484  19.252  1.00  0.00     0.000 C 
BRANCH  18  19
ATOM     19  C   UNL     1     -21.454  27.840  20.152  1.00  0.00     0.000 C 
BRANCH  19  20
ATOM     20  C   UNL     1     -22.887  28.148  19.685  1.00  0.00     0.000 C 
BRANCH  20  21
ATOM     21  C   UNL     1     -23.835  28.481  20.850  1.00  0.00     0.000 C 
BRANCH  21  22
ATOM     22  C   UNL     1     -23.137  29.184  22.033  1.00  0.00     0.000 C 
BRANCH  22  23
ATOM     23  C   UNL     1     -23.521  30.671  22.131  1.00  0.00     0.000 C 
BRANCH  23  24
ATOM     24  C   UNL     1     -22.860  31.531  21.042  1.00  0.00    -0.000 C 
BRANCH  24  25
ATOM     25  C   UNL     1     -23.874  32.423  20.304  1.00  0.00    -0.000 C 
BRANCH  25  26
ATOM     26  C   UNL     1     -23.516  33.918  20.380  1.00  0.00    -0.000 C 
BRANCH  26  27
ATOM     27  C   UNL     1     -23.652  34.539  21.783  1.00  0.00    -0.000 C 
BRANCH  27  28
ATOM     28  C   UNL     1     -22.471  35.458  22.146  1.00  0.00    -0.000 C 
BRANCH  28  29
ATOM     29  C   UNL     1     -21.123  34.718  22.154  1.00  0.00    -0.000 C 
BRANCH  29  30
ATOM     30  C   UNL     1     -20.942  33.836  23.402  1.00  0.00    -0.000 C 
BRANCH  30  31
ATOM     31  C   UNL     1     -20.066  32.604  23.130  1.00  0.00    -0.003 C 
ATOM     32  C   UNL     1     -18.706  32.677  23.824  1.00  0.00     0.004 C 
ENDBRANCH  30  31
ENDBRANCH  29  30
ENDBRANCH  28  29
ENDBRANCH  27  28
ENDBRANCH  26  27
ENDBRANCH  25  26
ENDBRANCH  24  25
ENDBRANCH  23  24
ENDBRANCH  22  23
ENDBRANCH  21  22
ENDBRANCH  20  21
ENDBRANCH  19  20
ENDBRANCH  18  19
ENDBRANCH   1  18
TORSDOF 28
ENDMDL
MODEL 8
REMARK VINA RESULT:    -3.583      4.767     11.825
REMARK INTER + INTRA:         -13.176
REMARK INTER:                 -10.088
REMARK INTRA:                  -3.088
REMARK UNBOUND:                -3.727
REMARK SMILES CCCCCCCCCCCCCCCCCCCCCCCCCCCCCC(=O)[O-]
REMARK SMILES IDX 16 1 17 2 18 3 19 4 20 5 21 6 22 7 23 8 24 9 25 10 26 11
REMARK SMILES IDX 27 12 28 13 29 14 30 15 31 16 32 17 15 18 14 19 13 20 12 21
REMARK SMILES IDX 11 22 10 23 9 24 8 25 7 26 6 27 5 28 4 29 3 30 2 31 1 32
REMARK H PARENT
REMARK Flexibility Score: inf
ROOT
ATOM      1  C   UNL     1     -22.866  28.928  20.231  1.00  0.00     0.000 C 
ENDROOT
BRANCH   1   2
ATOM      2  C   UNL     1     -21.790  28.572  19.187  1.00  0.00     0.000 C 
BRANCH   2   3
ATOM      3  C   UNL     1     -20.368  28.346  19.742  1.00  0.00     0.000 C 
BRANCH   3   4
ATOM      4  C   UNL     1     -19.685  29.593  20.346  1.00  0.00     0.000 C 
BRANCH   4   5
ATOM      5  C   UNL     1     -19.182  29.402  21.789  1.00  0.00     0.000 C 
BRANCH   5   6
ATOM      6  C   UNL     1     -18.140  28.273  21.947  1.00  0.00     0.000 C 
BRANCH   6   7
ATOM      7  C   UNL     1     -18.491  27.277  23.074  1.00  0.00     0.000 C 
BRANCH   7   8
ATOM      8  C   UNL     1     -18.560  25.813  22.607  1.00  0.00     0.000 C 
BRANCH   8   9
ATOM      9  C   UNL     1     -18.210  25.643  21.118  1.00  0.00     0.000 C 
BRANCH   9  10
ATOM     10  C   UNL     1     -17.416  24.357  20.840  1.00  0.00     0.000 C 
BRANCH  10  11
ATOM     11  C   UNL     1     -17.988  23.543  19.667  1.00  0.00     0.000 C 
BRANCH  11  12
ATOM     12  C   UNL     1     -19.533  23.528  19.670  1.00  0.00     0.000 C 
BRANCH  12  13
ATOM     13  C   UNL     1     -20.151  23.786  18.283  1.00  0.00     0.006 C 
BRANCH  13  14
ATOM     14  C   UNL     1     -19.159  23.636  17.120  1.00  0.00     0.053 C 
BRANCH  14  15
ATOM     15  C   UNL     1     -19.839  23.703  15.785  1.00  0.00     0.041 C 
ATOM     16  O   UNL     1     -21.013  23.266  15.648  1.00  0.00    -0.550 OA
ATOM     17  O   UNL     1     -19.174  24.239  14.689  1.00  0.00    -0.550 OA
ENDBRANCH  14  15
ENDBRANCH  13  14
ENDBRANCH  12  13
ENDBRANCH  11  12
ENDBRANCH  10  11
ENDBRANCH   9  10
ENDBRANCH   8   9
ENDBRANCH   7   8
ENDBRANCH   6   7
ENDBRANCH   5   6
ENDBRANCH   4   5
ENDBRANCH   3   4
ENDBRANCH   2   3
ENDBRANCH   1   2
BRANCH   1  18
ATOM     18  C   UNL     1     -23.755  30.107  19.801  1.00  0.00     0.000 C 
BRANCH  18  19
ATOM     19  C   UNL     1     -23.619  31.326  20.728  1.00  0.00     0.000 C 
BRANCH  19  20
ATOM     20  C   UNL     1     -23.729  30.954  22.216  1.00  0.00     0.000 C 
BRANCH  20  21
ATOM     21  C   UNL     1     -22.640  31.615  23.079  1.00  0.00     0.000 C 
BRANCH  21  22
ATOM     22  C   UNL     1     -21.423  32.107  22.267  1.00  0.00     0.000 C 
BRANCH  22  23
ATOM     23  C   UNL     1     -20.635  33.201  23.010  1.00  0.00     0.000 C 
BRANCH  23  24
ATOM     24  C   UNL     1     -21.165  34.616  22.726  1.00  0.00    -0.000 C 
BRANCH  24  25
ATOM     25  C   UNL     1     -21.578  34.802  21.254  1.00  0.00    -0.000 C 
BRANCH  25  26
ATOM     26  C   UNL     1     -22.417  36.073  21.029  1.00  0.00    -0.000 C 
BRANCH  26  27
ATOM     27  C   UNL     1     -23.671  36.178  21.917  1.00  0.00    -0.000 C 
BRANCH  27  28
ATOM     28  C   UNL     1     -23.586  37.332  22.934  1.00  0.00    -0.000 C 
BRANCH  28  29
ATOM     29  C   UNL     1     -22.284  38.139  22.809  1.00  0.00    -0.000 C 
BRANCH  29  30
ATOM     30  C   UNL     1     -22.529  39.588  22.355  1.00  0.00    -0.000 C 
BRANCH  30  31
ATOM     31  C   UNL     1     -22.300  39.780  20.848  1.00  0.00    -0.003 C 
ATOM     32  C   UNL     1     -21.875  41.203  20.488  1.00  0.00     0.004 C 
ENDBRANCH  30  31
ENDBRANCH  29  30
ENDBRANCH  28  29
ENDBRANCH  27  28
ENDBRANCH  26  27
ENDBRANCH  25  26
ENDBRANCH  24  25
ENDBRANCH  23  24
ENDBRANCH  22  23
ENDBRANCH  21  22
ENDBRANCH  20  21
ENDBRANCH  19  20
ENDBRANCH  18  19
ENDBRANCH   1  18
TORSDOF 28
ENDMDL
MODEL 9
REMARK VINA RESULT:    -3.558      1.632      2.253
REMARK INTER + INTRA:         -13.110
REMARK INTER:                  -9.039
REMARK INTRA:                  -4.071
REMARK UNBOUND:                -3.727
REMARK SMILES CCCCCCCCCCCCCCCCCCCCCCCCCCCCCC(=O)[O-]
REMARK SMILES IDX 16 1 17 2 18 3 19 4 20 5 21 6 22 7 23 8 24 9 25 10 26 11
REMARK SMILES IDX 27 12 28 13 29 14 30 15 31 16 32 17 15 18 14 19 13 20 12 21
REMARK SMILES IDX 11 22 10 23 9 24 8 25 7 26 6 27 5 28 4 29 3 30 2 31 1 32
REMARK H PARENT
REMARK Flexibility Score: inf
ROOT
ATOM      1  C   UNL     1     -18.854  28.877  21.400  1.00  0.00     0.000 C 
ENDROOT
BRANCH   1   2
ATOM      2  C   UNL     1     -18.893  29.596  22.762  1.00  0.00     0.000 C 
BRANCH   2   3
ATOM      3  C   UNL     1     -19.644  30.944  22.784  1.00  0.00     0.000 C 
BRANCH   3   4
ATOM      4  C   UNL     1     -20.841  31.023  23.758  1.00  0.00     0.000 C 
BRANCH   4   5
ATOM      5  C   UNL     1     -21.922  32.041  23.350  1.00  0.00     0.000 C 
BRANCH   5   6
ATOM      6  C   UNL     1     -21.560  33.506  23.675  1.00  0.00     0.000 C 
BRANCH   6   7
ATOM      7  C   UNL     1     -21.043  34.290  22.448  1.00  0.00     0.000 C 
BRANCH   7   8
ATOM      8  C   UNL     1     -21.929  34.140  21.200  1.00  0.00     0.000 C 
BRANCH   8   9
ATOM      9  C   UNL     1     -22.413  35.490  20.643  1.00  0.00     0.000 C 
BRANCH   9  10
ATOM     10  C   UNL     1     -23.215  36.302  21.672  1.00  0.00     0.000 C 
BRANCH  10  11
ATOM     11  C   UNL     1     -22.697  37.741  21.833  1.00  0.00     0.000 C 
BRANCH  11  12
ATOM     12  C   UNL     1     -22.089  37.986  23.232  1.00  0.00     0.000 C 
BRANCH  12  13
ATOM     13  C   UNL     1     -21.984  39.477  23.602  1.00  0.00     0.006 C 
BRANCH  13  14
ATOM     14  C   UNL     1     -20.618  40.104  23.285  1.00  0.00     0.053 C 
BRANCH  14  15
ATOM     15  C   UNL     1     -20.733  41.264  22.342  1.00  0.00     0.041 C 
ATOM     16  O   UNL     1     -20.770  41.069  21.097  1.00  0.00    -0.550 OA
ATOM     17  O   UNL     1     -20.789  42.562  22.835  1.00  0.00    -0.550 OA
ENDBRANCH  14  15
ENDBRANCH  13  14
ENDBRANCH  12  13
ENDBRANCH  11  12
ENDBRANCH  10  11
ENDBRANCH   9  10
ENDBRANCH   8   9
ENDBRANCH   7   8
ENDBRANCH   6   7
ENDBRANCH   5   6
ENDBRANCH   4   5
ENDBRANCH   3   4
ENDBRANCH   2   3
ENDBRANCH   1   2
BRANCH   1  18
ATOM     18  C   UNL     1     -19.666  29.603  20.313  1.00  0.00     0.000 C 
BRANCH  18  19
ATOM     19  C   UNL     1     -20.394  28.635  19.366  1.00  0.00     0.000 C 
BRANCH  19  20
ATOM     20  C   UNL     1     -21.921  28.823  19.387  1.00  0.00     0.000 C 
BRANCH  20  21
ATOM     21  C   UNL     1     -22.381  29.854  20.433  1.00  0.00     0.000 C 
BRANCH  21  22
ATOM     22  C   UNL     1     -23.441  29.308  21.412  1.00  0.00     0.000 C 
BRANCH  22  23
ATOM     23  C   UNL     1     -23.187  27.834  21.777  1.00  0.00     0.000 C 
BRANCH  23  24
ATOM     24  C   UNL     1     -22.135  27.666  22.885  1.00  0.00    -0.000 C 
BRANCH  24  25
ATOM     25  C   UNL     1     -21.186  26.484  22.617  1.00  0.00    -0.000 C 
BRANCH  25  26
ATOM     26  C   UNL     1     -21.556  25.701  21.344  1.00  0.00    -0.000 C 
BRANCH  26  27
ATOM     27  C   UNL     1     -20.396  24.899  20.725  1.00  0.00    -0.000 C 
BRANCH  27  28
ATOM     28  C   UNL     1     -20.603  24.610  19.226  1.00  0.00    -0.000 C 
BRANCH  28  29
ATOM     29  C   UNL     1     -19.361  23.995  18.563  1.00  0.00    -0.000 C 
BRANCH  29  30
ATOM     30  C   UNL     1     -19.718  23.063  17.392  1.00  0.00    -0.000 C 
BRANCH  30  31
ATOM     31  C   UNL     1     -19.340  23.660  16.028  1.00  0.00    -0.003 C 
ATOM     32  C   UNL     1     -20.498  23.644  15.030  1.00  0.00     0.004 C 
ENDBRANCH  30  31
ENDBRANCH  29  30
ENDBRANCH  28  29
ENDBRANCH  27  28
ENDBRANCH  26  27
ENDBRANCH  25  26
ENDBRANCH  24  25
ENDBRANCH  23  24
ENDBRANCH  22  23
ENDBRANCH  21  22
ENDBRANCH  20  21
ENDBRANCH  19  20
ENDBRANCH  18  19
ENDBRANCH   1  18
TORSDOF 28
ENDMDL
