MODEL 1
REMARK VINA RESULT:    -5.497      0.000      0.000
REMARK INTER + INTRA:          -9.584
REMARK INTER:                  -8.068
REMARK INTRA:                  -1.516
REMARK UNBOUND:                -1.516
REMARK SMILES O=c1c(O[C@@H]2O[C@@H](CO)[C@@H](O)[C@@H](O)[C@H]2O)c(-c2ccc(O)c(O)c2)oc2cc(O)cc(O)c12
REMARK SMILES IDX 4 1 3 2 16 3 25 4 2 5 26 6 1 7 33 8 27 9 31 10 28 11 30 12
REMARK SMILES IDX 17 13 18 14 19 15 20 16 24 17 22 18 21 19 23 21 32 23 29 25
REMARK SMILES IDX 5 27 14 28 6 29 12 30 7 31 10 32 15 33 13 35 8 37 9 38 11 40
REMARK H PARENT 21 20 23 22 32 24 29 26 15 34 13 36 9 39 11 41
REMARK Flexibility Score: inf
ROOT
ATOM      1  O   UNL     1       0.372  10.747  42.001  1.00  0.00    -0.454 OA
ENDROOT
BRANCH   1   2
ATOM      2  C   UNL     1      -0.316  11.953  42.253  1.00  0.00     0.214 A 
ATOM      3  C   UNL     1      -1.688  11.877  42.573  1.00  0.00     0.180 A 
ATOM      4  O   UNL     1      -2.370  12.978  42.867  1.00  0.00    -0.452 OA
ATOM      5  C   UNL     1       0.295  13.228  42.234  1.00  0.00     0.239 A 
ATOM      6  C   UNL     1      -1.835  14.191  42.858  1.00  0.00     0.146 A 
ATOM      7  O   UNL     1       1.519  13.346  41.962  1.00  0.00    -0.285 OA
ATOM      8  C   UNL     1      -0.473  14.375  42.532  1.00  0.00     0.111 A 
ATOM      9  C   UNL     1      -2.641  15.289  43.174  1.00  0.00     0.094 A 
ATOM     10  C   UNL     1       0.062  15.687  42.528  1.00  0.00     0.134 A 
ATOM     11  C   UNL     1      -2.107  16.582  43.169  1.00  0.00     0.123 A 
ATOM     12  C   UNL     1      -0.762  16.777  42.847  1.00  0.00     0.093 A 
BRANCH   3  13
ATOM     13  C   UNL     1      -2.408  10.586  42.617  1.00  0.00     0.025 A 
ATOM     14  C   UNL     1      -2.955  10.016  41.456  1.00  0.00     0.016 A 
ATOM     15  C   UNL     1      -3.641   8.800  41.520  1.00  0.00     0.051 A 
ATOM     16  C   UNL     1      -3.803   8.147  42.749  1.00  0.00     0.157 A 
ATOM     17  C   UNL     1      -2.594   9.939  43.849  1.00  0.00     0.062 A 
ATOM     18  C   UNL     1      -3.282   8.719  43.917  1.00  0.00     0.158 A 
BRANCH  16  19
ATOM     19  O   UNL     1      -4.483   6.932  42.818  1.00  0.00    -0.504 OA
ATOM     20  H   UNL     1      -4.020   6.053  42.620  1.00  0.00     0.293 HD
ENDBRANCH  16  19
BRANCH  18  21
ATOM     21  O   UNL     1      -3.453   8.071  45.138  1.00  0.00    -0.504 OA
ATOM     22  H   UNL     1      -3.733   8.577  45.972  1.00  0.00     0.293 HD
ENDBRANCH  18  21
ENDBRANCH   3  13
BRANCH  10  23
ATOM     23  O   UNL     1       1.402  15.918  42.211  1.00  0.00    -0.507 OA
ATOM     24  H   UNL     1       1.690  16.719  41.661  1.00  0.00     0.293 HD
ENDBRANCH  10  23
BRANCH  11  25
ATOM     25  O   UNL     1      -2.905  17.681  43.482  1.00  0.00    -0.508 OA
ATOM     26  H   UNL     1      -3.875  17.731  43.194  1.00  0.00     0.293 HD
ENDBRANCH  11  25
ENDBRANCH   1   2
BRANCH   1  27
ATOM     27  C   UNL     1       0.996   9.883  42.958  1.00  0.00     0.339 C 
ATOM     28  C   UNL     1       0.766   8.411  42.568  1.00  0.00     0.214 C 
ATOM     29  O   UNL     1       2.383  10.168  43.096  1.00  0.00    -0.332 OA
ATOM     30  C   UNL     1       1.568   8.062  41.296  1.00  0.00     0.180 C 
ATOM     31  C   UNL     1       3.079   9.982  41.875  1.00  0.00     0.179 C 
ATOM     32  C   UNL     1       3.035   8.501  41.440  1.00  0.00     0.177 C 
BRANCH  28  33
ATOM     33  O   UNL     1       1.153   7.588  43.639  1.00  0.00    -0.384 OA
ATOM     34  H   UNL     1       0.334   7.125  43.959  1.00  0.00     0.211 HD
ENDBRANCH  28  33
BRANCH  30  35
ATOM     35  O   UNL     1       1.503   6.686  41.026  1.00  0.00    -0.387 OA
ATOM     36  H   UNL     1       1.385   6.591  40.045  1.00  0.00     0.211 HD
ENDBRANCH  30  35
BRANCH  31  37
ATOM     37  C   UNL     1       4.525  10.467  42.047  1.00  0.00     0.191 C 
BRANCH  37  38
ATOM     38  O   UNL     1       5.016  10.094  43.307  1.00  0.00    -0.394 OA
ATOM     39  H   UNL     1       4.800  10.838  43.928  1.00  0.00     0.210 HD
ENDBRANCH  37  38
ENDBRANCH  31  37
BRANCH  32  40
ATOM     40  O   UNL     1       3.696   7.704  42.393  1.00  0.00    -0.387 OA
ATOM     41  H   UNL     1       4.029   8.315  43.101  1.00  0.00     0.211 HD
ENDBRANCH  32  40
ENDBRANCH   1  27
TORSDOF 12
ENDMDL
MODEL 2
REMARK VINA RESULT:    -5.152      2.274      6.958
REMARK INTER + INTRA:          -9.079
REMARK INTER:                  -7.382
REMARK INTRA:                  -1.697
REMARK UNBOUND:                -1.516
REMARK SMILES O=c1c(O[C@@H]2O[C@@H](CO)[C@@H](O)[C@@H](O)[C@H]2O)c(-c2ccc(O)c(O)c2)oc2cc(O)cc(O)c12
REMARK SMILES IDX 4 1 3 2 16 3 25 4 2 5 26 6 1 7 33 8 27 9 31 10 28 11 30 12
REMARK SMILES IDX 17 13 18 14 19 15 20 16 24 17 22 18 21 19 23 21 32 23 29 25
REMARK SMILES IDX 5 27 14 28 6 29 12 30 7 31 10 32 15 33 13 35 8 37 9 38 11 40
REMARK H PARENT 21 20 23 22 32 24 29 26 15 34 13 36 9 39 11 41
REMARK Flexibility Score: inf
ROOT
ATOM      1  O   UNL     1       0.270  11.980  42.492  1.00  0.00    -0.454 OA
ENDROOT
BRANCH   1   2
ATOM      2  C   UNL     1       1.443  12.251  41.756  1.00  0.00     0.214 A 
ATOM      3  C   UNL     1       1.577  13.529  41.173  1.00  0.00     0.180 A 
ATOM      4  O   UNL     1       2.683  13.852  40.513  1.00  0.00    -0.452 OA
ATOM      5  C   UNL     1       2.504  11.330  41.596  1.00  0.00     0.239 A 
ATOM      6  C   UNL     1       3.698  13.018  40.338  1.00  0.00     0.146 A 
ATOM      7  O   UNL     1       2.434  10.180  42.104  1.00  0.00    -0.285 OA
ATOM      8  C   UNL     1       3.653  11.709  40.868  1.00  0.00     0.111 A 
ATOM      9  C   UNL     1       4.816  13.451  39.619  1.00  0.00     0.094 A 
ATOM     10  C   UNL     1       4.755  10.844  40.656  1.00  0.00     0.134 A 
ATOM     11  C   UNL     1       5.901  12.593  39.414  1.00  0.00     0.123 A 
ATOM     12  C   UNL     1       5.868  11.296  39.931  1.00  0.00     0.093 A 
BRANCH   3  13
ATOM     13  C   UNL     1       0.518  14.555  41.292  1.00  0.00     0.025 A 
ATOM     14  C   UNL     1      -0.313  14.874  40.205  1.00  0.00     0.016 A 
ATOM     15  C   UNL     1      -1.301  15.854  40.334  1.00  0.00     0.051 A 
ATOM     16  C   UNL     1      -1.460  16.538  41.545  1.00  0.00     0.157 A 
ATOM     17  C   UNL     1       0.369  15.260  42.496  1.00  0.00     0.062 A 
ATOM     18  C   UNL     1      -0.622  16.244  42.628  1.00  0.00     0.158 A 
BRANCH  16  19
ATOM     19  O   UNL     1      -2.447  17.514  41.680  1.00  0.00    -0.504 OA
ATOM     20  H   UNL     1      -3.374  17.388  41.291  1.00  0.00     0.293 HD
ENDBRANCH  16  19
BRANCH  18  21
ATOM     21  O   UNL     1      -0.777  16.934  43.829  1.00  0.00    -0.504 OA
ATOM     22  H   UNL     1      -1.548  17.577  43.975  1.00  0.00     0.293 HD
ENDBRANCH  18  21
ENDBRANCH   3  13
BRANCH  10  23
ATOM     23  O   UNL     1       4.755   9.541  41.158  1.00  0.00    -0.507 OA
ATOM     24  H   UNL     1       3.913   8.978  41.181  1.00  0.00     0.293 HD
ENDBRANCH  10  23
BRANCH  11  25
ATOM     25  O   UNL     1       7.018  13.019  38.698  1.00  0.00    -0.508 OA
ATOM     26  H   UNL     1       6.951  13.746  37.995  1.00  0.00     0.293 HD
ENDBRANCH  11  25
ENDBRANCH   1   2
BRANCH   1  27
ATOM     27  C   UNL     1      -0.879  11.241  42.060  1.00  0.00     0.339 C 
ATOM     28  C   UNL     1      -1.228  10.156  43.096  1.00  0.00     0.214 C 
ATOM     29  O   UNL     1      -1.990  12.095  41.815  1.00  0.00    -0.332 OA
ATOM     30  C   UNL     1      -1.769  10.804  44.389  1.00  0.00     0.180 C 
ATOM     31  C   UNL     1      -2.380  12.795  42.985  1.00  0.00     0.179 C 
ATOM     32  C   UNL     1      -2.884  11.814  44.066  1.00  0.00     0.177 C 
BRANCH  28  33
ATOM     33  O   UNL     1      -2.181   9.285  42.543  1.00  0.00    -0.384 OA
ATOM     34  H   UNL     1      -3.058   9.518  42.948  1.00  0.00     0.211 HD
ENDBRANCH  28  33
BRANCH  30  35
ATOM     35  O   UNL     1      -2.249   9.826  45.275  1.00  0.00    -0.387 OA
ATOM     36  H   UNL     1      -3.213  10.016  45.416  1.00  0.00     0.211 HD
ENDBRANCH  30  35
BRANCH  31  37
ATOM     37  C   UNL     1      -3.463  13.817  42.616  1.00  0.00     0.191 C 
BRANCH  37  38
ATOM     38  O   UNL     1      -4.216  14.160  43.749  1.00  0.00    -0.394 OA
ATOM     39  H   UNL     1      -4.333  13.327  44.276  1.00  0.00     0.210 HD
ENDBRANCH  37  38
ENDBRANCH  31  37
BRANCH  32  40
ATOM     40  O   UNL     1      -4.034  11.147  43.607  1.00  0.00    -0.387 OA
ATOM     41  H   UNL     1      -4.633  11.031  44.390  1.00  0.00     0.211 HD
ENDBRANCH  32  40
ENDBRANCH   1  27
TORSDOF 12
ENDMDL
MODEL 3
REMARK VINA RESULT:    -5.142      1.784      7.516
REMARK INTER + INTRA:          -9.063
REMARK INTER:                  -7.671
REMARK INTRA:                  -1.392
REMARK UNBOUND:                -1.516
REMARK SMILES O=c1c(O[C@@H]2O[C@@H](CO)[C@@H](O)[C@@H](O)[C@H]2O)c(-c2ccc(O)c(O)c2)oc2cc(O)cc(O)c12
REMARK SMILES IDX 4 1 3 2 16 3 25 4 2 5 26 6 1 7 33 8 27 9 31 10 28 11 30 12
REMARK SMILES IDX 17 13 18 14 19 15 20 16 24 17 22 18 21 19 23 21 32 23 29 25
REMARK SMILES IDX 5 27 14 28 6 29 12 30 7 31 10 32 15 33 13 35 8 37 9 38 11 40
REMARK H PARENT 21 20 23 22 32 24 29 26 15 34 13 36 9 39 11 41
REMARK Flexibility Score: inf
ROOT
ATOM      1  O   UNL     1      -0.796  11.903  42.142  1.00  0.00    -0.454 OA
ENDROOT
BRANCH   1   2
ATOM      2  C   UNL     1      -0.991  10.550  42.490  1.00  0.00     0.214 A 
ATOM      3  C   UNL     1       0.121   9.684  42.425  1.00  0.00     0.180 A 
ATOM      4  O   UNL     1       0.002   8.412  42.790  1.00  0.00    -0.452 OA
ATOM      5  C   UNL     1      -2.226  10.019  42.930  1.00  0.00     0.239 A 
ATOM      6  C   UNL     1      -1.137   7.876  43.205  1.00  0.00     0.146 A 
ATOM      7  O   UNL     1      -3.245  10.754  43.012  1.00  0.00    -0.285 OA
ATOM      8  C   UNL     1      -2.311   8.655  43.288  1.00  0.00     0.111 A 
ATOM      9  C   UNL     1      -1.160   6.523  43.559  1.00  0.00     0.094 A 
ATOM     10  C   UNL     1      -3.511   8.045  43.731  1.00  0.00     0.134 A 
ATOM     11  C   UNL     1      -2.347   5.927  43.996  1.00  0.00     0.123 A 
ATOM     12  C   UNL     1      -3.515   6.687  44.080  1.00  0.00     0.093 A 
BRANCH   3  13
ATOM     13  C   UNL     1       1.450  10.154  41.979  1.00  0.00     0.025 A 
ATOM     14  C   UNL     1       1.670  10.567  40.654  1.00  0.00     0.016 A 
ATOM     15  C   UNL     1       2.935  10.998  40.249  1.00  0.00     0.051 A 
ATOM     16  C   UNL     1       4.002  11.005  41.157  1.00  0.00     0.157 A 
ATOM     17  C   UNL     1       2.527  10.141  42.879  1.00  0.00     0.062 A 
ATOM     18  C   UNL     1       3.799  10.572  42.474  1.00  0.00     0.158 A 
BRANCH  16  19
ATOM     19  O   UNL     1       5.266  11.438  40.758  1.00  0.00    -0.504 OA
ATOM     20  H   UNL     1       6.109  10.973  41.074  1.00  0.00     0.293 HD
ENDBRANCH  16  19
BRANCH  18  21
ATOM     21  O   UNL     1       4.864  10.573  43.373  1.00  0.00    -0.504 OA
ATOM     22  H   UNL     1       4.711  10.572  44.375  1.00  0.00     0.293 HD
ENDBRANCH  18  21
ENDBRANCH   3  13
BRANCH  10  23
ATOM     23  O   UNL     1      -4.697   8.775  43.827  1.00  0.00    -0.507 OA
ATOM     24  H   UNL     1      -5.138   8.962  44.721  1.00  0.00     0.293 HD
ENDBRANCH  10  23
BRANCH  11  25
ATOM     25  O   UNL     1      -2.376   4.579  44.349  1.00  0.00    -0.508 OA
ATOM     26  H   UNL     1      -2.770   3.878  43.732  1.00  0.00     0.293 HD
ENDBRANCH  11  25
ENDBRANCH   1   2
BRANCH   1  27
ATOM     27  C   UNL     1      -0.643  13.018  43.028  1.00  0.00     0.339 C 
ATOM     28  C   UNL     1       0.707  13.713  42.771  1.00  0.00     0.214 C 
ATOM     29  O   UNL     1      -1.724  13.935  42.911  1.00  0.00    -0.332 OA
ATOM     30  C   UNL     1       0.689  14.430  41.404  1.00  0.00     0.180 C 
ATOM     31  C   UNL     1      -1.814  14.472  41.601  1.00  0.00     0.179 C 
ATOM     32  C   UNL     1      -0.563  15.315  41.269  1.00  0.00     0.177 C 
BRANCH  28  33
ATOM     33  O   UNL     1       0.954  14.630  43.808  1.00  0.00    -0.384 OA
ATOM     34  H   UNL     1       0.369  15.416  43.646  1.00  0.00     0.211 HD
ENDBRANCH  28  33
BRANCH  30  35
ATOM     35  O   UNL     1       1.846  15.206  41.232  1.00  0.00    -0.387 OA
ATOM     36  H   UNL     1       2.036  15.635  42.107  1.00  0.00     0.211 HD
ENDBRANCH  30  35
BRANCH  31  37
ATOM     37  C   UNL     1      -3.093  15.314  41.495  1.00  0.00     0.191 C 
BRANCH  37  38
ATOM     38  O   UNL     1      -3.367  15.939  42.720  1.00  0.00    -0.394 OA
ATOM     39  H   UNL     1      -2.909  16.820  42.700  1.00  0.00     0.210 HD
ENDBRANCH  37  38
ENDBRANCH  31  37
BRANCH  32  40
ATOM     40  O   UNL     1      -0.483  16.416  42.141  1.00  0.00    -0.387 OA
ATOM     41  H   UNL     1      -1.382  16.529  42.547  1.00  0.00     0.211 HD
ENDBRANCH  32  40
ENDBRANCH   1  27
TORSDOF 12
ENDMDL
MODEL 4
REMARK VINA RESULT:    -5.141      1.493      4.549
REMARK INTER + INTRA:          -9.061
REMARK INTER:                  -7.276
REMARK INTRA:                  -1.786
REMARK UNBOUND:                -1.516
REMARK SMILES O=c1c(O[C@@H]2O[C@@H](CO)[C@@H](O)[C@@H](O)[C@H]2O)c(-c2ccc(O)c(O)c2)oc2cc(O)cc(O)c12
REMARK SMILES IDX 4 1 3 2 16 3 25 4 2 5 26 6 1 7 33 8 27 9 31 10 28 11 30 12
REMARK SMILES IDX 17 13 18 14 19 15 20 16 24 17 22 18 21 19 23 21 32 23 29 25
REMARK SMILES IDX 5 27 14 28 6 29 12 30 7 31 10 32 15 33 13 35 8 37 9 38 11 40
REMARK H PARENT 21 20 23 22 32 24 29 26 15 34 13 36 9 39 11 41
REMARK Flexibility Score: inf
ROOT
ATOM      1  O   UNL     1      -1.576  11.085  42.544  1.00  0.00    -0.454 OA
ENDROOT
BRANCH   1   2
ATOM      2  C   UNL     1      -1.328  12.473  42.585  1.00  0.00     0.214 A 
ATOM      3  C   UNL     1      -0.054  12.929  42.184  1.00  0.00     0.180 A 
ATOM      4  O   UNL     1       0.215  14.230  42.158  1.00  0.00    -0.452 OA
ATOM      5  C   UNL     1      -2.288  13.435  42.975  1.00  0.00     0.239 A 
ATOM      6  C   UNL     1      -0.656  15.162  42.517  1.00  0.00     0.146 A 
ATOM      7  O   UNL     1      -3.441  13.077  43.333  1.00  0.00    -0.285 OA
ATOM      8  C   UNL     1      -1.952  14.807  42.952  1.00  0.00     0.111 A 
ATOM      9  C   UNL     1      -0.273  16.505  42.462  1.00  0.00     0.094 A 
ATOM     10  C   UNL     1      -2.855  15.831  43.333  1.00  0.00     0.134 A 
ATOM     11  C   UNL     1      -1.168  17.512  42.839  1.00  0.00     0.123 A 
ATOM     12  C   UNL     1      -2.452  17.173  43.272  1.00  0.00     0.093 A 
BRANCH   3  13
ATOM     13  C   UNL     1       1.011  11.995  41.760  1.00  0.00     0.025 A 
ATOM     14  C   UNL     1       1.077  11.515  40.442  1.00  0.00     0.016 A 
ATOM     15  C   UNL     1       2.085  10.625  40.063  1.00  0.00     0.051 A 
ATOM     16  C   UNL     1       3.030  10.190  41.001  1.00  0.00     0.157 A 
ATOM     17  C   UNL     1       1.946  11.538  42.702  1.00  0.00     0.062 A 
ATOM     18  C   UNL     1       2.959  10.643  42.324  1.00  0.00     0.158 A 
BRANCH  16  19
ATOM     19  O   UNL     1       4.039   9.304  40.627  1.00  0.00    -0.504 OA
ATOM     20  H   UNL     1       4.848   9.142  41.216  1.00  0.00     0.293 HD
ENDBRANCH  16  19
BRANCH  18  21
ATOM     21  O   UNL     1       3.895  10.201  43.257  1.00  0.00    -0.504 OA
ATOM     22  H   UNL     1       4.267  10.821  43.968  1.00  0.00     0.293 HD
ENDBRANCH  18  21
ENDBRANCH   3  13
BRANCH  10  23
ATOM     23  O   UNL     1      -4.145  15.528  43.770  1.00  0.00    -0.507 OA
ATOM     24  H   UNL     1      -4.884  15.280  43.122  1.00  0.00     0.293 HD
ENDBRANCH  10  23
BRANCH  11  25
ATOM     25  O   UNL     1      -0.792  18.853  42.787  1.00  0.00    -0.508 OA
ATOM     26  H   UNL     1       0.145  19.150  43.031  1.00  0.00     0.293 HD
ENDBRANCH  11  25
ENDBRANCH   1   2
BRANCH   1  27
ATOM     27  C   UNL     1      -1.550  10.161  43.637  1.00  0.00     0.339 C 
ATOM     28  C   UNL     1      -2.890   9.408  43.723  1.00  0.00     0.214 C 
ATOM     29  O   UNL     1      -0.457   9.257  43.535  1.00  0.00    -0.332 OA
ATOM     30  C   UNL     1      -3.038   8.439  42.529  1.00  0.00     0.180 C 
ATOM     31  C   UNL     1      -0.533   8.477  42.352  1.00  0.00     0.179 C 
ATOM     32  C   UNL     1      -1.781   7.566  42.378  1.00  0.00     0.177 C 
BRANCH  28  33
ATOM     33  O   UNL     1      -2.944   8.706  44.940  1.00  0.00    -0.384 OA
ATOM     34  H   UNL     1      -2.099   8.900  45.424  1.00  0.00     0.211 HD
ENDBRANCH  28  33
BRANCH  30  35
ATOM     35  O   UNL     1      -4.172   7.626  42.684  1.00  0.00    -0.387 OA
ATOM     36  H   UNL     1      -4.716   7.734  41.860  1.00  0.00     0.211 HD
ENDBRANCH  30  35
BRANCH  31  37
ATOM     37  C   UNL     1       0.753   7.650  42.217  1.00  0.00     0.191 C 
BRANCH  37  38
ATOM     38  O   UNL     1       1.412   7.570  43.452  1.00  0.00    -0.394 OA
ATOM     39  H   UNL     1       0.713   7.411  44.139  1.00  0.00     0.210 HD
ENDBRANCH  37  38
ENDBRANCH  31  37
BRANCH  32  40
ATOM     40  O   UNL     1      -1.684   6.654  43.445  1.00  0.00    -0.387 OA
ATOM     41  H   UNL     1      -0.837   6.855  43.922  1.00  0.00     0.211 HD
ENDBRANCH  32  40
ENDBRANCH   1  27
TORSDOF 12
ENDMDL
MODEL 5
REMARK VINA RESULT:    -5.107      1.519      1.765
REMARK INTER + INTRA:          -9.012
REMARK INTER:                  -7.539
REMARK INTRA:                  -1.473
REMARK UNBOUND:                -1.516
REMARK SMILES O=c1c(O[C@@H]2O[C@@H](CO)[C@@H](O)[C@@H](O)[C@H]2O)c(-c2ccc(O)c(O)c2)oc2cc(O)cc(O)c12
REMARK SMILES IDX 4 1 3 2 16 3 25 4 2 5 26 6 1 7 33 8 27 9 31 10 28 11 30 12
REMARK SMILES IDX 17 13 18 14 19 15 20 16 24 17 22 18 21 19 23 21 32 23 29 25
REMARK SMILES IDX 5 27 14 28 6 29 12 30 7 31 10 32 15 33 13 35 8 37 9 38 11 40
REMARK H PARENT 21 20 23 22 32 24 29 26 15 34 13 36 9 39 11 41
REMARK Flexibility Score: inf
ROOT
ATOM      1  O   UNL     1       0.740  12.209  41.541  1.00  0.00    -0.454 OA
ENDROOT
BRANCH   1   2
ATOM      2  C   UNL     1      -0.031  13.336  41.895  1.00  0.00     0.214 A 
ATOM      3  C   UNL     1      -1.285  13.116  42.503  1.00  0.00     0.180 A 
ATOM      4  O   UNL     1      -2.027  14.143  42.901  1.00  0.00    -0.452 OA
ATOM      5  C   UNL     1       0.393  14.672  41.706  1.00  0.00     0.239 A 
ATOM      6  C   UNL     1      -1.668  15.409  42.739  1.00  0.00     0.146 A 
ATOM      7  O   UNL     1       1.508  14.920  41.176  1.00  0.00    -0.285 OA
ATOM      8  C   UNL     1      -0.438  15.734  42.125  1.00  0.00     0.111 A 
ATOM      9  C   UNL     1      -2.525  16.419  43.185  1.00  0.00     0.094 A 
ATOM     10  C   UNL     1      -0.090  17.099  41.965  1.00  0.00     0.134 A 
ATOM     11  C   UNL     1      -2.176  17.764  43.025  1.00  0.00     0.123 A 
ATOM     12  C   UNL     1      -0.964  18.099  42.418  1.00  0.00     0.093 A 
BRANCH   3  13
ATOM     13  C   UNL     1      -1.807  11.753  42.741  1.00  0.00     0.025 A 
ATOM     14  C   UNL     1      -2.374  10.997  41.702  1.00  0.00     0.016 A 
ATOM     15  C   UNL     1      -2.870   9.715  41.948  1.00  0.00     0.051 A 
ATOM     16  C   UNL     1      -2.822   9.178  43.242  1.00  0.00     0.157 A 
ATOM     17  C   UNL     1      -1.782  11.219  44.039  1.00  0.00     0.062 A 
ATOM     18  C   UNL     1      -2.281   9.932  44.290  1.00  0.00     0.158 A 
BRANCH  16  19
ATOM     19  O   UNL     1      -3.314   7.898  43.493  1.00  0.00    -0.504 OA
ATOM     20  H   UNL     1      -4.194   7.582  43.103  1.00  0.00     0.293 HD
ENDBRANCH  16  19
BRANCH  18  21
ATOM     21  O   UNL     1      -2.243   9.399  45.577  1.00  0.00    -0.504 OA
ATOM     22  H   UNL     1      -1.835   9.911  46.351  1.00  0.00     0.293 HD
ENDBRANCH  18  21
ENDBRANCH   3  13
BRANCH  10  23
ATOM     23  O   UNL     1       1.113  17.469  41.363  1.00  0.00    -0.507 OA
ATOM     24  H   UNL     1       1.854  16.798  41.194  1.00  0.00     0.293 HD
ENDBRANCH  10  23
BRANCH  11  25
ATOM     25  O   UNL     1      -3.026  18.775  43.467  1.00  0.00    -0.508 OA
ATOM     26  H   UNL     1      -3.814  19.086  42.910  1.00  0.00     0.293 HD
ENDBRANCH  11  25
ENDBRANCH   1   2
BRANCH   1  27
ATOM     27  C   UNL     1       1.864  11.666  42.243  1.00  0.00     0.339 C 
ATOM     28  C   UNL     1       1.662  10.157  42.474  1.00  0.00     0.214 C 
ATOM     29  O   UNL     1       3.084  11.923  41.560  1.00  0.00    -0.332 OA
ATOM     30  C   UNL     1       1.759   9.392  41.135  1.00  0.00     0.180 C 
ATOM     31  C   UNL     1       3.095  11.335  40.269  1.00  0.00     0.179 C 
ATOM     32  C   UNL     1       3.032   9.795  40.370  1.00  0.00     0.177 C 
BRANCH  28  33
ATOM     33  O   UNL     1       2.635   9.697  43.378  1.00  0.00    -0.384 OA
ATOM     34  H   UNL     1       2.732   8.720  43.228  1.00  0.00     0.211 HD
ENDBRANCH  28  33
BRANCH  30  35
ATOM     35  O   UNL     1       1.747   8.005  41.351  1.00  0.00    -0.387 OA
ATOM     36  H   UNL     1       2.315   7.601  40.644  1.00  0.00     0.211 HD
ENDBRANCH  30  35
BRANCH  31  37
ATOM     37  C   UNL     1       4.357  11.790  39.524  1.00  0.00     0.191 C 
BRANCH  37  38
ATOM     38  O   UNL     1       5.440  11.882  40.412  1.00  0.00    -0.394 OA
ATOM     39  H   UNL     1       5.803  12.801  40.324  1.00  0.00     0.210 HD
ENDBRANCH  37  38
ENDBRANCH  31  37
BRANCH  32  40
ATOM     40  O   UNL     1       4.176   9.312  41.031  1.00  0.00    -0.387 OA
ATOM     41  H   UNL     1       4.885   9.999  40.921  1.00  0.00     0.211 HD
ENDBRANCH  32  40
ENDBRANCH   1  27
TORSDOF 12
ENDMDL
MODEL 6
REMARK VINA RESULT:    -5.103      1.727      6.696
REMARK INTER + INTRA:          -9.007
REMARK INTER:                  -7.328
REMARK INTRA:                  -1.678
REMARK UNBOUND:                -1.516
REMARK SMILES O=c1c(O[C@@H]2O[C@@H](CO)[C@@H](O)[C@@H](O)[C@H]2O)c(-c2ccc(O)c(O)c2)oc2cc(O)cc(O)c12
REMARK SMILES IDX 4 1 3 2 16 3 25 4 2 5 26 6 1 7 33 8 27 9 31 10 28 11 30 12
REMARK SMILES IDX 17 13 18 14 19 15 20 16 24 17 22 18 21 19 23 21 32 23 29 25
REMARK SMILES IDX 5 27 14 28 6 29 12 30 7 31 10 32 15 33 13 35 8 37 9 38 11 40
REMARK H PARENT 21 20 23 22 32 24 29 26 15 34 13 36 9 39 11 41
REMARK Flexibility Score: inf
ROOT
ATOM      1  O   UNL     1       0.611  11.811  41.622  1.00  0.00    -0.454 OA
ENDROOT
BRANCH   1   2
ATOM      2  C   UNL     1       1.490  10.707  41.610  1.00  0.00     0.214 A 
ATOM      3  C   UNL     1       0.985   9.455  42.021  1.00  0.00     0.180 A 
ATOM      4  O   UNL     1       1.756   8.375  41.981  1.00  0.00    -0.452 OA
ATOM      5  C   UNL     1       2.835  10.775  41.180  1.00  0.00     0.239 A 
ATOM      6  C   UNL     1       3.022   8.397  41.588  1.00  0.00     0.146 A 
ATOM      7  O   UNL     1       3.329  11.868  40.796  1.00  0.00    -0.285 OA
ATOM      8  C   UNL     1       3.626   9.605  41.174  1.00  0.00     0.111 A 
ATOM      9  C   UNL     1       3.754   7.206  41.590  1.00  0.00     0.094 A 
ATOM     10  C   UNL     1       4.983   9.590  40.765  1.00  0.00     0.134 A 
ATOM     11  C   UNL     1       5.092   7.197  41.185  1.00  0.00     0.123 A 
ATOM     12  C   UNL     1       5.701   8.385  40.776  1.00  0.00     0.093 A 
BRANCH   3  13
ATOM     13  C   UNL     1      -0.410   9.291  42.484  1.00  0.00     0.025 A 
ATOM     14  C   UNL     1      -1.460   9.081  41.575  1.00  0.00     0.016 A 
ATOM     15  C   UNL     1      -2.773   8.938  42.032  1.00  0.00     0.051 A 
ATOM     16  C   UNL     1      -3.055   9.021  43.402  1.00  0.00     0.157 A 
ATOM     17  C   UNL     1      -0.702   9.396  43.853  1.00  0.00     0.062 A 
ATOM     18  C   UNL     1      -2.019   9.254  44.314  1.00  0.00     0.158 A 
BRANCH  16  19
ATOM     19  O   UNL     1      -4.363   8.876  43.862  1.00  0.00    -0.504 OA
ATOM     20  H   UNL     1      -4.564   8.474  44.770  1.00  0.00     0.293 HD
ENDBRANCH  16  19
BRANCH  18  21
ATOM     21  O   UNL     1      -2.305   9.345  45.675  1.00  0.00    -0.504 OA
ATOM     22  H   UNL     1      -3.149   9.796  46.010  1.00  0.00     0.293 HD
ENDBRANCH  18  21
ENDBRANCH   3  13
BRANCH  10  23
ATOM     23  O   UNL     1       5.623  10.759  40.350  1.00  0.00    -0.507 OA
ATOM     24  H   UNL     1       5.123  11.499  39.869  1.00  0.00     0.293 HD
ENDBRANCH  10  23
BRANCH  11  25
ATOM     25  O   UNL     1       5.827   6.013  41.186  1.00  0.00    -0.508 OA
ATOM     26  H   UNL     1       6.708   5.935  40.691  1.00  0.00     0.293 HD
ENDBRANCH  11  25
ENDBRANCH   1   2
BRANCH   1  27
ATOM     27  C   UNL     1       0.369  12.721  42.701  1.00  0.00     0.339 C 
ATOM     28  C   UNL     1       0.687  14.161  42.257  1.00  0.00     0.214 C 
ATOM     29  O   UNL     1      -0.963  12.615  43.188  1.00  0.00    -0.332 OA
ATOM     30  C   UNL     1      -0.357  14.647  41.229  1.00  0.00     0.180 C 
ATOM     31  C   UNL     1      -1.914  12.924  42.182  1.00  0.00     0.179 C 
ATOM     32  C   UNL     1      -1.785  14.399  41.743  1.00  0.00     0.177 C 
BRANCH  28  33
ATOM     33  O   UNL     1       0.695  14.997  43.387  1.00  0.00    -0.384 OA
ATOM     34  H   UNL     1       0.823  14.412  44.180  1.00  0.00     0.211 HD
ENDBRANCH  28  33
BRANCH  30  35
ATOM     35  O   UNL     1      -0.179  16.011  40.944  1.00  0.00    -0.387 OA
ATOM     36  H   UNL     1       0.799  16.165  40.881  1.00  0.00     0.211 HD
ENDBRANCH  30  35
BRANCH  31  37
ATOM     37  C   UNL     1      -3.321  12.626  42.719  1.00  0.00     0.191 C 
BRANCH  37  38
ATOM     38  O   UNL     1      -3.294  12.506  44.116  1.00  0.00    -0.394 OA
ATOM     39  H   UNL     1      -2.501  11.953  44.339  1.00  0.00     0.210 HD
ENDBRANCH  37  38
ENDBRANCH  31  37
BRANCH  32  40
ATOM     40  O   UNL     1      -2.072  15.247  42.828  1.00  0.00    -0.387 OA
ATOM     41  H   UNL     1      -2.398  16.104  42.446  1.00  0.00     0.211 HD
ENDBRANCH  32  40
ENDBRANCH   1  27
TORSDOF 12
ENDMDL
MODEL 7
REMARK VINA RESULT:    -5.094      8.415     10.884
REMARK INTER + INTRA:          -8.993
REMARK INTER:                  -7.322
REMARK INTRA:                  -1.671
REMARK UNBOUND:                -1.516
REMARK SMILES O=c1c(O[C@@H]2O[C@@H](CO)[C@@H](O)[C@@H](O)[C@H]2O)c(-c2ccc(O)c(O)c2)oc2cc(O)cc(O)c12
REMARK SMILES IDX 4 1 3 2 16 3 25 4 2 5 26 6 1 7 33 8 27 9 31 10 28 11 30 12
REMARK SMILES IDX 17 13 18 14 19 15 20 16 24 17 22 18 21 19 23 21 32 23 29 25
REMARK SMILES IDX 5 27 14 28 6 29 12 30 7 31 10 32 15 33 13 35 8 37 9 38 11 40
REMARK H PARENT 21 20 23 22 32 24 29 26 15 34 13 36 9 39 11 41
REMARK Flexibility Score: inf
ROOT
ATOM      1  O   UNL     1       1.312  11.455  34.451  1.00  0.00    -0.454 OA
ENDROOT
BRANCH   1   2
ATOM      2  C   UNL     1       0.245  10.568  34.194  1.00  0.00     0.214 A 
ATOM      3  C   UNL     1      -0.685  10.925  33.195  1.00  0.00     0.180 A 
ATOM      4  O   UNL     1      -1.680  10.103  32.880  1.00  0.00    -0.452 OA
ATOM      5  C   UNL     1       0.071   9.331  34.857  1.00  0.00     0.239 A 
ATOM      6  C   UNL     1      -1.879   8.937  33.479  1.00  0.00     0.146 A 
ATOM      7  O   UNL     1       0.879   8.965  35.750  1.00  0.00    -0.285 OA
ATOM      8  C   UNL     1      -1.013   8.497  34.505  1.00  0.00     0.111 A 
ATOM      9  C   UNL     1      -2.961   8.146  33.081  1.00  0.00     0.094 A 
ATOM     10  C   UNL     1      -1.261   7.247  35.125  1.00  0.00     0.134 A 
ATOM     11  C   UNL     1      -3.200   6.913  33.696  1.00  0.00     0.123 A 
ATOM     12  C   UNL     1      -2.353   6.469  34.713  1.00  0.00     0.093 A 
BRANCH   3  13
ATOM     13  C   UNL     1      -0.580  12.198  32.451  1.00  0.00     0.025 A 
ATOM     14  C   UNL     1       0.368  12.369  31.429  1.00  0.00     0.016 A 
ATOM     15  C   UNL     1       0.459  13.583  30.744  1.00  0.00     0.051 A 
ATOM     16  C   UNL     1      -0.386  14.648  31.083  1.00  0.00     0.157 A 
ATOM     17  C   UNL     1      -1.408  13.276  32.802  1.00  0.00     0.062 A 
ATOM     18  C   UNL     1      -1.318  14.497  32.117  1.00  0.00     0.158 A 
BRANCH  16  19
ATOM     19  O   UNL     1      -0.301  15.861  30.400  1.00  0.00    -0.504 OA
ATOM     20  H   UNL     1       0.434  16.040  29.726  1.00  0.00     0.293 HD
ENDBRANCH  16  19
BRANCH  18  21
ATOM     21  O   UNL     1      -2.151  15.561  32.457  1.00  0.00    -0.504 OA
ATOM     22  H   UNL     1      -2.706  15.549  33.306  1.00  0.00     0.293 HD
ENDBRANCH  18  21
ENDBRANCH   3  13
BRANCH  10  23
ATOM     23  O   UNL     1      -0.434   6.772  36.144  1.00  0.00    -0.507 OA
ATOM     24  H   UNL     1       0.291   7.349  36.555  1.00  0.00     0.293 HD
ENDBRANCH  10  23
BRANCH  11  25
ATOM     25  O   UNL     1      -4.278   6.122  33.303  1.00  0.00    -0.508 OA
ATOM     26  H   UNL     1      -5.235   6.421  33.445  1.00  0.00     0.293 HD
ENDBRANCH  11  25
ENDBRANCH   1   2
BRANCH   1  27
ATOM     27  C   UNL     1       1.327  12.561  35.360  1.00  0.00     0.339 C 
ATOM     28  C   UNL     1       2.435  12.364  36.412  1.00  0.00     0.214 C 
ATOM     29  O   UNL     1       1.480  13.799  34.678  1.00  0.00    -0.332 OA
ATOM     30  C   UNL     1       3.826  12.507  35.758  1.00  0.00     0.180 C 
ATOM     31  C   UNL     1       2.703  13.853  33.960  1.00  0.00     0.179 C 
ATOM     32  C   UNL     1       3.906  13.799  34.926  1.00  0.00     0.177 C 
BRANCH  28  33
ATOM     33  O   UNL     1       2.269  13.313  37.435  1.00  0.00    -0.384 OA
ATOM     34  H   UNL     1       2.735  14.140  37.143  1.00  0.00     0.211 HD
ENDBRANCH  28  33
BRANCH  30  35
ATOM     35  O   UNL     1       4.838  12.499  36.731  1.00  0.00    -0.387 OA
ATOM     36  H   UNL     1       4.579  11.820  37.408  1.00  0.00     0.211 HD
ENDBRANCH  30  35
BRANCH  31  37
ATOM     37  C   UNL     1       2.728  15.134  33.115  1.00  0.00     0.191 C 
BRANCH  37  38
ATOM     38  O   UNL     1       1.874  16.099  33.667  1.00  0.00    -0.394 OA
ATOM     39  H   UNL     1       2.432  16.898  33.858  1.00  0.00     0.210 HD
ENDBRANCH  37  38
ENDBRANCH  31  37
BRANCH  32  40
ATOM     40  O   UNL     1       3.895  14.927  35.767  1.00  0.00    -0.387 OA
ATOM     41  H   UNL     1       4.760  15.396  35.633  1.00  0.00     0.211 HD
ENDBRANCH  32  40
ENDBRANCH   1  27
TORSDOF 12
ENDMDL
MODEL 8
REMARK VINA RESULT:    -5.057      3.999      8.611
REMARK INTER + INTRA:          -8.939
REMARK INTER:                  -7.152
REMARK INTRA:                  -1.787
REMARK UNBOUND:                -1.516
REMARK SMILES O=c1c(O[C@@H]2O[C@@H](CO)[C@@H](O)[C@@H](O)[C@H]2O)c(-c2ccc(O)c(O)c2)oc2cc(O)cc(O)c12
REMARK SMILES IDX 4 1 3 2 16 3 25 4 2 5 26 6 1 7 33 8 27 9 31 10 28 11 30 12
REMARK SMILES IDX 17 13 18 14 19 15 20 16 24 17 22 18 21 19 23 21 32 23 29 25
REMARK SMILES IDX 5 27 14 28 6 29 12 30 7 31 10 32 15 33 13 35 8 37 9 38 11 40
REMARK H PARENT 21 20 23 22 32 24 29 26 15 34 13 36 9 39 11 41
REMARK Flexibility Score: inf
ROOT
ATOM      1  O   UNL     1       3.307  10.437  40.662  1.00  0.00    -0.454 OA
ENDROOT
BRANCH   1   2
ATOM      2  C   UNL     1       4.160   9.329  40.849  1.00  0.00     0.214 A 
ATOM      3  C   UNL     1       4.384   8.474  39.749  1.00  0.00     0.180 A 
ATOM      4  O   UNL     1       5.217   7.445  39.858  1.00  0.00    -0.452 OA
ATOM      5  C   UNL     1       4.827   9.044  42.063  1.00  0.00     0.239 A 
ATOM      6  C   UNL     1       5.859   7.142  40.978  1.00  0.00     0.146 A 
ATOM      7  O   UNL     1       4.666   9.782  43.070  1.00  0.00    -0.285 OA
ATOM      8  C   UNL     1       5.688   7.926  42.140  1.00  0.00     0.111 A 
ATOM      9  C   UNL     1       6.708   6.032  40.993  1.00  0.00     0.094 A 
ATOM     10  C   UNL     1       6.387   7.568  43.320  1.00  0.00     0.134 A 
ATOM     11  C   UNL     1       7.396   5.684  42.160  1.00  0.00     0.123 A 
ATOM     12  C   UNL     1       7.234   6.450  43.316  1.00  0.00     0.093 A 
BRANCH   3  13
ATOM     13  C   UNL     1       3.729   8.697  38.442  1.00  0.00     0.025 A 
ATOM     14  C   UNL     1       4.247   9.617  37.515  1.00  0.00     0.016 A 
ATOM     15  C   UNL     1       3.609   9.822  36.290  1.00  0.00     0.051 A 
ATOM     16  C   UNL     1       2.435   9.122  35.981  1.00  0.00     0.157 A 
ATOM     17  C   UNL     1       2.540   8.016  38.138  1.00  0.00     0.062 A 
ATOM     18  C   UNL     1       1.897   8.220  36.908  1.00  0.00     0.158 A 
BRANCH  16  19
ATOM     19  O   UNL     1       1.796   9.320  34.758  1.00  0.00    -0.504 OA
ATOM     20  H   UNL     1       1.678  10.246  34.365  1.00  0.00     0.293 HD
ENDBRANCH  16  19
BRANCH  18  21
ATOM     21  O   UNL     1       0.724   7.532  36.602  1.00  0.00    -0.504 OA
ATOM     22  H   UNL     1       0.744   6.634  36.131  1.00  0.00     0.293 HD
ENDBRANCH  18  21
ENDBRANCH   3  13
BRANCH  10  23
ATOM     23  O   UNL     1       6.248   8.312  44.493  1.00  0.00    -0.507 OA
ATOM     24  H   UNL     1       6.306   7.881  45.408  1.00  0.00     0.293 HD
ENDBRANCH  10  23
BRANCH  11  25
ATOM     25  O   UNL     1       8.243   4.578  42.181  1.00  0.00    -0.508 OA
ATOM     26  H   UNL     1       9.039   4.532  42.807  1.00  0.00     0.293 HD
ENDBRANCH  11  25
ENDBRANCH   1   2
BRANCH   1  27
ATOM     27  C   UNL     1       1.918  10.535  40.997  1.00  0.00     0.339 C 
ATOM     28  C   UNL     1       1.682  11.749  41.916  1.00  0.00     0.214 C 
ATOM     29  O   UNL     1       1.102  10.603  39.835  1.00  0.00    -0.332 OA
ATOM     30  C   UNL     1       1.884  13.063  41.130  1.00  0.00     0.180 C 
ATOM     31  C   UNL     1       1.405  11.743  39.048  1.00  0.00     0.179 C 
ATOM     32  C   UNL     1       1.080  13.042  39.819  1.00  0.00     0.177 C 
BRANCH  28  33
ATOM     33  O   UNL     1       0.380  11.680  42.439  1.00  0.00    -0.384 OA
ATOM     34  H   UNL     1       0.457  11.320  43.362  1.00  0.00     0.211 HD
ENDBRANCH  28  33
BRANCH  30  35
ATOM     35  O   UNL     1       1.508  14.171  41.906  1.00  0.00    -0.387 OA
ATOM     36  H   UNL     1       0.552  14.350  41.705  1.00  0.00     0.211 HD
ENDBRANCH  30  35
BRANCH  31  37
ATOM     37  C   UNL     1       0.616  11.667  37.734  1.00  0.00     0.191 C 
BRANCH  37  38
ATOM     38  O   UNL     1      -0.485  10.810  37.877  1.00  0.00    -0.394 OA
ATOM     39  H   UNL     1      -0.147   9.886  37.742  1.00  0.00     0.210 HD
ENDBRANCH  37  38
ENDBRANCH  31  37
BRANCH  32  40
ATOM     40  O   UNL     1      -0.299  13.106  40.086  1.00  0.00    -0.387 OA
ATOM     41  H   UNL     1      -0.658  13.874  39.569  1.00  0.00     0.211 HD
ENDBRANCH  32  40
ENDBRANCH   1  27
TORSDOF 12
ENDMDL
MODEL 9
REMARK VINA RESULT:    -5.040      1.332      2.625
REMARK INTER + INTRA:          -8.914
REMARK INTER:                  -7.180
REMARK INTRA:                  -1.734
REMARK UNBOUND:                -1.516
REMARK SMILES O=c1c(O[C@@H]2O[C@@H](CO)[C@@H](O)[C@@H](O)[C@H]2O)c(-c2ccc(O)c(O)c2)oc2cc(O)cc(O)c12
REMARK SMILES IDX 4 1 3 2 16 3 25 4 2 5 26 6 1 7 33 8 27 9 31 10 28 11 30 12
REMARK SMILES IDX 17 13 18 14 19 15 20 16 24 17 22 18 21 19 23 21 32 23 29 25
REMARK SMILES IDX 5 27 14 28 6 29 12 30 7 31 10 32 15 33 13 35 8 37 9 38 11 40
REMARK H PARENT 21 20 23 22 32 24 29 26 15 34 13 36 9 39 11 41
REMARK Flexibility Score: inf
ROOT
ATOM      1  O   UNL     1       0.441  12.122  42.668  1.00  0.00    -0.454 OA
ENDROOT
BRANCH   1   2
ATOM      2  C   UNL     1      -0.569  13.103  42.749  1.00  0.00     0.214 A 
ATOM      3  C   UNL     1      -1.877  12.682  43.072  1.00  0.00     0.180 A 
ATOM      4  O   UNL     1      -2.853  13.572  43.209  1.00  0.00    -0.452 OA
ATOM      5  C   UNL     1      -0.342  14.486  42.556  1.00  0.00     0.239 A 
ATOM      6  C   UNL     1      -2.682  14.875  43.034  1.00  0.00     0.146 A 
ATOM      7  O   UNL     1       0.809  14.911  42.274  1.00  0.00    -0.285 OA
ATOM      8  C   UNL     1      -1.414  15.395  42.691  1.00  0.00     0.111 A 
ATOM      9  C   UNL     1      -3.777  15.730  43.193  1.00  0.00     0.094 A 
ATOM     10  C   UNL     1      -1.271  16.793  42.508  1.00  0.00     0.134 A 
ATOM     11  C   UNL     1      -3.629  17.109  43.012  1.00  0.00     0.123 A 
ATOM     12  C   UNL     1      -2.382  17.635  42.671  1.00  0.00     0.093 A 
BRANCH   3  13
ATOM     13  C   UNL     1      -2.205  11.257  43.291  1.00  0.00     0.025 A 
ATOM     14  C   UNL     1      -1.916  10.622  44.510  1.00  0.00     0.016 A 
ATOM     15  C   UNL     1      -2.225   9.272  44.695  1.00  0.00     0.051 A 
ATOM     16  C   UNL     1      -2.811   8.535  43.658  1.00  0.00     0.157 A 
ATOM     17  C   UNL     1      -2.770  10.508  42.247  1.00  0.00     0.062 A 
ATOM     18  C   UNL     1      -3.080   9.152  42.430  1.00  0.00     0.158 A 
BRANCH  16  19
ATOM     19  O   UNL     1      -3.123   7.188  43.838  1.00  0.00    -0.504 OA
ATOM     20  H   UNL     1      -3.610   6.657  43.126  1.00  0.00     0.293 HD
ENDBRANCH  16  19
BRANCH  18  21
ATOM     21  O   UNL     1      -3.655   8.414  41.397  1.00  0.00    -0.504 OA
ATOM     22  H   UNL     1      -3.086   7.892  40.739  1.00  0.00     0.293 HD
ENDBRANCH  18  21
ENDBRANCH   3  13
BRANCH  10  23
ATOM     23  O   UNL     1      -0.039  17.352  42.167  1.00  0.00    -0.507 OA
ATOM     24  H   UNL     1       0.807  17.135  42.683  1.00  0.00     0.293 HD
ENDBRANCH  10  23
BRANCH  11  25
ATOM     25  O   UNL     1      -4.717  17.966  43.169  1.00  0.00    -0.508 OA
ATOM     26  H   UNL     1      -5.662  17.667  42.957  1.00  0.00     0.293 HD
ENDBRANCH  11  25
ENDBRANCH   1   2
BRANCH   1  27
ATOM     27  C   UNL     1       0.924  11.462  41.492  1.00  0.00     0.339 C 
ATOM     28  C   UNL     1       2.446  11.658  41.366  1.00  0.00     0.214 C 
ATOM     29  O   UNL     1       0.581  10.082  41.486  1.00  0.00    -0.332 OA
ATOM     30  C   UNL     1       3.182  10.864  42.467  1.00  0.00     0.180 C 
ATOM     31  C   UNL     1       1.148   9.397  42.591  1.00  0.00     0.179 C 
ATOM     32  C   UNL     1       2.690   9.407  42.508  1.00  0.00     0.177 C 
BRANCH  28  33
ATOM     33  O   UNL     1       2.858  11.235  40.091  1.00  0.00    -0.384 OA
ATOM     34  H   UNL     1       2.068  10.822  39.653  1.00  0.00     0.211 HD
ENDBRANCH  28  33
BRANCH  30  35
ATOM     35  O   UNL     1       4.571  10.896  42.262  1.00  0.00    -0.387 OA
ATOM     36  H   UNL     1       4.731  10.578  41.335  1.00  0.00     0.211 HD
ENDBRANCH  30  35
BRANCH  31  37
ATOM     37  C   UNL     1       0.604   7.962  42.621  1.00  0.00     0.191 C 
BRANCH  37  38
ATOM     38  O   UNL     1       1.517   7.108  43.257  1.00  0.00    -0.394 OA
ATOM     39  H   UNL     1       2.423   7.474  43.076  1.00  0.00     0.210 HD
ENDBRANCH  37  38
ENDBRANCH  31  37
BRANCH  32  40
ATOM     40  O   UNL     1       3.111   8.713  41.359  1.00  0.00    -0.387 OA
ATOM     41  H   UNL     1       3.510   9.384  40.746  1.00  0.00     0.211 HD
ENDBRANCH  32  40
ENDBRANCH   1  27
TORSDOF 12
ENDMDL
