MODEL 1
REMARK VINA RESULT:    -5.965      0.000      0.000
REMARK INTER + INTRA:          -7.468
REMARK INTER:                  -7.186
REMARK INTRA:                  -0.282
REMARK UNBOUND:                -0.282
REMARK SMILES O=c1c(O)c(-c2ccc(O)c(O)c2)oc2cc(O)cc(O)c12
REMARK SMILES IDX 5 1 3 2 2 3 1 4 22 5 20 6 19 7 17 8 16 9 15 10 14 11 6 12
REMARK SMILES IDX 7 13 8 14 9 15 13 16 11 17 10 18 12 20 4 22 21 24 18 26
REMARK H PARENT 10 19 12 21 4 23 21 25 18 27
REMARK Flexibility Score: inf
ROOT
ATOM      1  C   UNL     1      33.584  28.186  13.528  1.00  0.00     0.180 A 
ATOM      2  C   UNL     1      34.058  28.285  14.847  1.00  0.00     0.208 A 
ATOM      3  C   UNL     1      33.457  29.205  15.720  1.00  0.00     0.238 A 
ATOM      4  O   UNL     1      33.935  29.342  16.876  1.00  0.00    -0.285 OA
ATOM      5  C   UNL     1      32.353  29.977  15.281  1.00  0.00     0.111 A 
ATOM      6  C   UNL     1      31.638  30.908  16.094  1.00  0.00     0.134 A 
ATOM      7  C   UNL     1      30.629  31.692  15.521  1.00  0.00     0.093 A 
ATOM      8  C   UNL     1      30.266  31.534  14.181  1.00  0.00     0.123 A 
ATOM      9  C   UNL     1      30.921  30.589  13.395  1.00  0.00     0.094 A 
ATOM     10  C   UNL     1      31.957  29.819  13.927  1.00  0.00     0.146 A 
ATOM     11  O   UNL     1      32.567  28.945  13.136  1.00  0.00    -0.452 OA
ENDROOT
BRANCH   1  12
ATOM     12  C   UNL     1      34.175  27.250  12.546  1.00  0.00     0.025 A 
ATOM     13  C   UNL     1      33.826  25.890  12.593  1.00  0.00     0.016 A 
ATOM     14  C   UNL     1      34.355  24.991  11.663  1.00  0.00     0.051 A 
ATOM     15  C   UNL     1      35.225  25.437  10.664  1.00  0.00     0.157 A 
ATOM     16  C   UNL     1      35.034  27.700  11.528  1.00  0.00     0.062 A 
ATOM     17  C   UNL     1      35.564  26.799  10.592  1.00  0.00     0.158 A 
BRANCH  15  18
ATOM     18  O   UNL     1      35.739  24.517   9.751  1.00  0.00    -0.504 OA
ATOM     19  H   UNL     1      35.271  24.305   8.878  1.00  0.00     0.293 HD
ENDBRANCH  15  18
BRANCH  17  20
ATOM     20  O   UNL     1      36.421  27.254   9.591  1.00  0.00    -0.504 OA
ATOM     21  H   UNL     1      36.570  28.243   9.428  1.00  0.00     0.293 HD
ENDBRANCH  17  20
ENDBRANCH   1  12
BRANCH   2  22
ATOM     22  O   UNL     1      35.099  27.461  15.284  1.00  0.00    -0.502 OA
ATOM     23  H   UNL     1      35.909  27.258  14.713  1.00  0.00     0.293 HD
ENDBRANCH   2  22
BRANCH   6  24
ATOM     24  O   UNL     1      31.859  31.083  17.464  1.00  0.00    -0.507 OA
ATOM     25  H   UNL     1      32.357  31.858  17.874  1.00  0.00     0.293 HD
ENDBRANCH   6  24
BRANCH   8  26
ATOM     26  O   UNL     1      29.250  32.306  13.624  1.00  0.00    -0.508 OA
ATOM     27  H   UNL     1      29.422  33.246  13.286  1.00  0.00     0.293 HD
ENDBRANCH   8  26
TORSDOF 6
ENDMDL
MODEL 2
REMARK VINA RESULT:    -5.907      1.441      2.951
REMARK INTER + INTRA:          -7.397
REMARK INTER:                  -7.726
REMARK INTRA:                   0.328
REMARK UNBOUND:                -0.282
REMARK SMILES O=c1c(O)c(-c2ccc(O)c(O)c2)oc2cc(O)cc(O)c12
REMARK SMILES IDX 5 1 3 2 2 3 1 4 22 5 20 6 19 7 17 8 16 9 15 10 14 11 6 12
REMARK SMILES IDX 7 13 8 14 9 15 13 16 11 17 10 18 12 20 4 22 21 24 18 26
REMARK H PARENT 10 19 12 21 4 23 21 25 18 27
REMARK Flexibility Score: inf
ROOT
ATOM      1  C   UNL     1      33.328  28.877  12.909  1.00  0.00     0.180 A 
ATOM      2  C   UNL     1      32.369  29.423  12.038  1.00  0.00     0.208 A 
ATOM      3  C   UNL     1      31.365  30.252  12.565  1.00  0.00     0.238 A 
ATOM      4  O   UNL     1      30.467  30.676  11.793  1.00  0.00    -0.285 OA
ATOM      5  C   UNL     1      31.363  30.568  13.945  1.00  0.00     0.111 A 
ATOM      6  C   UNL     1      30.421  31.432  14.580  1.00  0.00     0.134 A 
ATOM      7  C   UNL     1      30.454  31.588  15.971  1.00  0.00     0.093 A 
ATOM      8  C   UNL     1      31.435  30.962  16.744  1.00  0.00     0.123 A 
ATOM      9  C   UNL     1      32.393  30.161  16.127  1.00  0.00     0.094 A 
ATOM     10  C   UNL     1      32.363  29.955  14.746  1.00  0.00     0.146 A 
ATOM     11  O   UNL     1      33.282  29.167  14.204  1.00  0.00    -0.452 OA
ENDROOT
BRANCH   1  12
ATOM     12  C   UNL     1      34.408  27.985  12.431  1.00  0.00     0.025 A 
ATOM     13  C   UNL     1      34.946  27.024  13.302  1.00  0.00     0.016 A 
ATOM     14  C   UNL     1      35.951  26.157  12.866  1.00  0.00     0.051 A 
ATOM     15  C   UNL     1      36.423  26.225  11.552  1.00  0.00     0.157 A 
ATOM     16  C   UNL     1      34.869  28.038  11.103  1.00  0.00     0.062 A 
ATOM     17  C   UNL     1      35.877  27.166  10.663  1.00  0.00     0.158 A 
BRANCH  15  18
ATOM     18  O   UNL     1      37.428  25.348  11.145  1.00  0.00    -0.504 OA
ATOM     19  H   UNL     1      38.211  25.652  10.579  1.00  0.00     0.293 HD
ENDBRANCH  15  18
BRANCH  17  20
ATOM     20  O   UNL     1      36.332  27.231   9.347  1.00  0.00    -0.504 OA
ATOM     21  H   UNL     1      36.181  28.052   8.772  1.00  0.00     0.293 HD
ENDBRANCH  17  20
ENDBRANCH   1  12
BRANCH   2  22
ATOM     22  O   UNL     1      32.433  29.161  10.667  1.00  0.00    -0.502 OA
ATOM     23  H   UNL     1      31.726  29.484  10.018  1.00  0.00     0.293 HD
ENDBRANCH   2  22
BRANCH   6  24
ATOM     24  O   UNL     1      29.454  32.176  13.894  1.00  0.00    -0.507 OA
ATOM     25  H   UNL     1      28.526  32.371  14.236  1.00  0.00     0.293 HD
ENDBRANCH   6  24
BRANCH   8  26
ATOM     26  O   UNL     1      31.471  31.137  18.125  1.00  0.00    -0.508 OA
ATOM     27  H   UNL     1      30.895  31.832  18.587  1.00  0.00     0.293 HD
ENDBRANCH   8  26
TORSDOF 6
ENDMDL
MODEL 3
REMARK VINA RESULT:    -5.800      1.630      6.657
REMARK INTER + INTRA:          -7.268
REMARK INTER:                  -6.972
REMARK INTRA:                  -0.296
REMARK UNBOUND:                -0.282
REMARK SMILES O=c1c(O)c(-c2ccc(O)c(O)c2)oc2cc(O)cc(O)c12
REMARK SMILES IDX 5 1 3 2 2 3 1 4 22 5 20 6 19 7 17 8 16 9 15 10 14 11 6 12
REMARK SMILES IDX 7 13 8 14 9 15 13 16 11 17 10 18 12 20 4 22 21 24 18 26
REMARK H PARENT 10 19 12 21 4 23 21 25 18 27
REMARK Flexibility Score: inf
ROOT
ATOM      1  C   UNL     1      33.468  28.277  13.796  1.00  0.00     0.180 A 
ATOM      2  C   UNL     1      34.030  27.449  14.782  1.00  0.00     0.208 A 
ATOM      3  C   UNL     1      35.085  26.591  14.430  1.00  0.00     0.238 A 
ATOM      4  O   UNL     1      35.534  25.799  15.298  1.00  0.00    -0.285 OA
ATOM      5  C   UNL     1      35.602  26.612  13.112  1.00  0.00     0.111 A 
ATOM      6  C   UNL     1      36.698  25.819  12.655  1.00  0.00     0.134 A 
ATOM      7  C   UNL     1      37.053  25.846  11.301  1.00  0.00     0.093 A 
ATOM      8  C   UNL     1      36.395  26.685  10.400  1.00  0.00     0.123 A 
ATOM      9  C   UNL     1      35.361  27.503  10.846  1.00  0.00     0.094 A 
ATOM     10  C   UNL     1      34.957  27.470  12.183  1.00  0.00     0.146 A 
ATOM     11  O   UNL     1      33.953  28.252  12.560  1.00  0.00    -0.452 OA
ENDROOT
BRANCH   1  12
ATOM     12  C   UNL     1      32.345  29.197  14.087  1.00  0.00     0.025 A 
ATOM     13  C   UNL     1      31.033  28.803  13.782  1.00  0.00     0.016 A 
ATOM     14  C   UNL     1      29.956  29.645  14.068  1.00  0.00     0.051 A 
ATOM     15  C   UNL     1      30.170  30.886  14.676  1.00  0.00     0.157 A 
ATOM     16  C   UNL     1      32.558  30.436  14.717  1.00  0.00     0.062 A 
ATOM     17  C   UNL     1      31.477  31.283  15.007  1.00  0.00     0.158 A 
BRANCH  15  18
ATOM     18  O   UNL     1      29.077  31.707  14.947  1.00  0.00    -0.504 OA
ATOM     19  H   UNL     1      29.186  32.658  15.278  1.00  0.00     0.293 HD
ENDBRANCH  15  18
BRANCH  17  20
ATOM     20  O   UNL     1      31.698  32.513  15.626  1.00  0.00    -0.504 OA
ATOM     21  H   UNL     1      31.024  32.914  16.267  1.00  0.00     0.293 HD
ENDBRANCH  17  20
ENDBRANCH   1  12
BRANCH   2  22
ATOM     22  O   UNL     1      33.558  27.498  16.096  1.00  0.00    -0.502 OA
ATOM     23  H   UNL     1      33.476  26.672  16.676  1.00  0.00     0.293 HD
ENDBRANCH   2  22
BRANCH   6  24
ATOM     24  O   UNL     1      37.481  25.013  13.488  1.00  0.00    -0.507 OA
ATOM     25  H   UNL     1      37.826  24.096  13.246  1.00  0.00     0.293 HD
ENDBRANCH   6  24
BRANCH   8  26
ATOM     26  O   UNL     1      36.767  26.718   9.058  1.00  0.00    -0.508 OA
ATOM     27  H   UNL     1      36.098  26.538   8.317  1.00  0.00     0.293 HD
ENDBRANCH   8  26
TORSDOF 6
ENDMDL
MODEL 4
REMARK VINA RESULT:    -5.674      4.107      6.637
REMARK INTER + INTRA:          -7.117
REMARK INTER:                  -7.043
REMARK INTRA:                  -0.074
REMARK UNBOUND:                -0.282
REMARK SMILES O=c1c(O)c(-c2ccc(O)c(O)c2)oc2cc(O)cc(O)c12
REMARK SMILES IDX 5 1 3 2 2 3 1 4 22 5 20 6 19 7 17 8 16 9 15 10 14 11 6 12
REMARK SMILES IDX 7 13 8 14 9 15 13 16 11 17 10 18 12 20 4 22 21 24 18 26
REMARK H PARENT 10 19 12 21 4 23 21 25 18 27
REMARK Flexibility Score: inf
ROOT
ATOM      1  C   UNL     1      29.108  28.457  14.184  1.00  0.00     0.180 A 
ATOM      2  C   UNL     1      29.044  29.848  14.379  1.00  0.00     0.208 A 
ATOM      3  C   UNL     1      30.186  30.525  14.837  1.00  0.00     0.238 A 
ATOM      4  O   UNL     1      30.100  31.756  15.081  1.00  0.00    -0.285 OA
ATOM      5  C   UNL     1      31.393  29.814  15.042  1.00  0.00     0.111 A 
ATOM      6  C   UNL     1      32.623  30.404  15.461  1.00  0.00     0.134 A 
ATOM      7  C   UNL     1      33.726  29.584  15.733  1.00  0.00     0.093 A 
ATOM      8  C   UNL     1      33.662  28.203  15.539  1.00  0.00     0.123 A 
ATOM      9  C   UNL     1      32.483  27.624  15.077  1.00  0.00     0.094 A 
ATOM     10  C   UNL     1      31.355  28.409  14.834  1.00  0.00     0.146 A 
ATOM     11  O   UNL     1      30.246  27.812  14.415  1.00  0.00    -0.452 OA
ENDROOT
BRANCH   1  12
ATOM     12  C   UNL     1      27.943  27.673  13.717  1.00  0.00     0.025 A 
ATOM     13  C   UNL     1      27.350  27.987  12.484  1.00  0.00     0.016 A 
ATOM     14  C   UNL     1      26.263  27.247  12.012  1.00  0.00     0.051 A 
ATOM     15  C   UNL     1      25.763  26.173  12.755  1.00  0.00     0.157 A 
ATOM     16  C   UNL     1      27.452  26.580  14.453  1.00  0.00     0.062 A 
ATOM     17  C   UNL     1      26.362  25.834  13.979  1.00  0.00     0.158 A 
BRANCH  15  18
ATOM     18  O   UNL     1      24.676  25.454  12.260  1.00  0.00    -0.504 OA
ATOM     19  H   UNL     1      24.098  25.802  11.505  1.00  0.00     0.293 HD
ENDBRANCH  15  18
BRANCH  17  20
ATOM     20  O   UNL     1      25.878  24.756  14.720  1.00  0.00    -0.504 OA
ATOM     21  H   UNL     1      25.070  24.847  15.325  1.00  0.00     0.293 HD
ENDBRANCH  17  20
ENDBRANCH   1  12
BRANCH   2  22
ATOM     22  O   UNL     1      27.865  30.544  14.098  1.00  0.00    -0.502 OA
ATOM     23  H   UNL     1      27.828  31.555  14.055  1.00  0.00     0.293 HD
ENDBRANCH   2  22
BRANCH   6  24
ATOM     24  O   UNL     1      32.823  31.781  15.601  1.00  0.00    -0.507 OA
ATOM     25  H   UNL     1      32.175  32.493  15.302  1.00  0.00     0.293 HD
ENDBRANCH   6  24
BRANCH   8  26
ATOM     26  O   UNL     1      34.769  27.397  15.795  1.00  0.00    -0.508 OA
ATOM     27  H   UNL     1      35.712  27.713  15.599  1.00  0.00     0.293 HD
ENDBRANCH   8  26
TORSDOF 6
ENDMDL
MODEL 5
REMARK VINA RESULT:    -5.622      4.929      7.233
REMARK INTER + INTRA:          -7.055
REMARK INTER:                  -7.023
REMARK INTRA:                  -0.032
REMARK UNBOUND:                -0.282
REMARK SMILES O=c1c(O)c(-c2ccc(O)c(O)c2)oc2cc(O)cc(O)c12
REMARK SMILES IDX 5 1 3 2 2 3 1 4 22 5 20 6 19 7 17 8 16 9 15 10 14 11 6 12
REMARK SMILES IDX 7 13 8 14 9 15 13 16 11 17 10 18 12 20 4 22 21 24 18 26
REMARK H PARENT 10 19 12 21 4 23 21 25 18 27
REMARK Flexibility Score: inf
ROOT
ATOM      1  C   UNL     1      28.902  28.343  14.609  1.00  0.00     0.180 A 
ATOM      2  C   UNL     1      28.972  27.157  15.359  1.00  0.00     0.208 A 
ATOM      3  C   UNL     1      28.007  26.159  15.147  1.00  0.00     0.238 A 
ATOM      4  O   UNL     1      28.030  25.133  15.875  1.00  0.00    -0.285 OA
ATOM      5  C   UNL     1      27.017  26.335  14.151  1.00  0.00     0.111 A 
ATOM      6  C   UNL     1      26.016  25.372  13.819  1.00  0.00     0.134 A 
ATOM      7  C   UNL     1      25.023  25.700  12.887  1.00  0.00     0.093 A 
ATOM      8  C   UNL     1      25.032  26.931  12.228  1.00  0.00     0.123 A 
ATOM      9  C   UNL     1      26.036  27.855  12.503  1.00  0.00     0.094 A 
ATOM     10  C   UNL     1      27.017  27.573  13.456  1.00  0.00     0.146 A 
ATOM     11  O   UNL     1      27.943  28.493  13.703  1.00  0.00    -0.452 OA
ENDROOT
BRANCH   1  12
ATOM     12  C   UNL     1      29.874  29.445  14.785  1.00  0.00     0.025 A 
ATOM     13  C   UNL     1      30.488  30.010  13.655  1.00  0.00     0.016 A 
ATOM     14  C   UNL     1      31.393  31.066  13.795  1.00  0.00     0.051 A 
ATOM     15  C   UNL     1      31.686  31.583  15.061  1.00  0.00     0.157 A 
ATOM     16  C   UNL     1      30.154  29.980  16.054  1.00  0.00     0.062 A 
ATOM     17  C   UNL     1      31.061  31.041  16.197  1.00  0.00     0.158 A 
BRANCH  15  18
ATOM     18  O   UNL     1      32.594  32.634  15.170  1.00  0.00    -0.504 OA
ATOM     19  H   UNL     1      32.388  33.563  14.823  1.00  0.00     0.293 HD
ENDBRANCH  15  18
BRANCH  17  20
ATOM     20  O   UNL     1      31.338  31.560  17.461  1.00  0.00    -0.504 OA
ATOM     21  H   UNL     1      31.329  32.557  17.640  1.00  0.00     0.293 HD
ENDBRANCH  17  20
ENDBRANCH   1  12
BRANCH   2  22
ATOM     22  O   UNL     1      30.001  26.969  16.285  1.00  0.00    -0.502 OA
ATOM     23  H   UNL     1      30.955  27.257  16.104  1.00  0.00     0.293 HD
ENDBRANCH   2  22
BRANCH   6  24
ATOM     24  O   UNL     1      25.966  24.080  14.352  1.00  0.00    -0.507 OA
ATOM     25  H   UNL     1      26.616  23.708  15.027  1.00  0.00     0.293 HD
ENDBRANCH   6  24
BRANCH   8  26
ATOM     26  O   UNL     1      24.051  27.241  11.289  1.00  0.00    -0.508 OA
ATOM     27  H   UNL     1      23.064  27.212  11.523  1.00  0.00     0.293 HD
ENDBRANCH   8  26
TORSDOF 6
ENDMDL
MODEL 6
REMARK VINA RESULT:    -5.435      1.904      7.185
REMARK INTER + INTRA:          -6.830
REMARK INTER:                  -6.530
REMARK INTRA:                  -0.300
REMARK UNBOUND:                -0.282
REMARK SMILES O=c1c(O)c(-c2ccc(O)c(O)c2)oc2cc(O)cc(O)c12
REMARK SMILES IDX 5 1 3 2 2 3 1 4 22 5 20 6 19 7 17 8 16 9 15 10 14 11 6 12
REMARK SMILES IDX 7 13 8 14 9 15 13 16 11 17 10 18 12 20 4 22 21 24 18 26
REMARK H PARENT 10 19 12 21 4 23 21 25 18 27
REMARK Flexibility Score: inf
ROOT
ATOM      1  C   UNL     1      33.409  28.637  13.220  1.00  0.00     0.180 A 
ATOM      2  C   UNL     1      33.395  29.117  11.899  1.00  0.00     0.208 A 
ATOM      3  C   UNL     1      34.301  28.581  10.970  1.00  0.00     0.238 A 
ATOM      4  O   UNL     1      34.335  29.068   9.810  1.00  0.00    -0.285 OA
ATOM      5  C   UNL     1      35.173  27.535  11.357  1.00  0.00     0.111 A 
ATOM      6  C   UNL     1      36.101  26.886  10.487  1.00  0.00     0.134 A 
ATOM      7  C   UNL     1      36.987  25.934  11.009  1.00  0.00     0.093 A 
ATOM      8  C   UNL     1      36.935  25.562  12.353  1.00  0.00     0.123 A 
ATOM      9  C   UNL     1      35.995  26.148  13.197  1.00  0.00     0.094 A 
ATOM     10  C   UNL     1      35.125  27.128  12.716  1.00  0.00     0.146 A 
ATOM     11  O   UNL     1      34.260  27.676  13.561  1.00  0.00    -0.452 OA
ENDROOT
BRANCH   1  12
ATOM     12  C   UNL     1      32.494  29.162  14.258  1.00  0.00     0.025 A 
ATOM     13  C   UNL     1      31.389  28.392  14.656  1.00  0.00     0.016 A 
ATOM     14  C   UNL     1      30.523  28.857  15.649  1.00  0.00     0.051 A 
ATOM     15  C   UNL     1      30.757  30.087  16.271  1.00  0.00     0.157 A 
ATOM     16  C   UNL     1      32.740  30.388  14.899  1.00  0.00     0.062 A 
ATOM     17  C   UNL     1      31.873  30.856  15.899  1.00  0.00     0.158 A 
BRANCH  15  18
ATOM     18  O   UNL     1      29.876  30.527  17.258  1.00  0.00    -0.504 OA
ATOM     19  H   UNL     1      28.947  30.138  17.363  1.00  0.00     0.293 HD
ENDBRANCH  15  18
BRANCH  17  20
ATOM     20  O   UNL     1      32.120  32.078  16.524  1.00  0.00    -0.504 OA
ATOM     21  H   UNL     1      31.991  32.958  16.040  1.00  0.00     0.293 HD
ENDBRANCH  17  20
ENDBRANCH   1  12
BRANCH   2  22
ATOM     22  O   UNL     1      32.476  30.098  11.516  1.00  0.00    -0.502 OA
ATOM     23  H   UNL     1      32.699  30.819  10.842  1.00  0.00     0.293 HD
ENDBRANCH   2  22
BRANCH   6  24
ATOM     24  O   UNL     1      36.178  27.118   9.110  1.00  0.00    -0.507 OA
ATOM     25  H   UNL     1      35.837  27.944   8.644  1.00  0.00     0.293 HD
ENDBRANCH   6  24
BRANCH   8  26
ATOM     26  O   UNL     1      37.808  24.601  12.859  1.00  0.00    -0.508 OA
ATOM     27  H   UNL     1      38.186  23.866  12.272  1.00  0.00     0.293 HD
ENDBRANCH   8  26
TORSDOF 6
ENDMDL
MODEL 7
REMARK VINA RESULT:    -5.392      4.410      7.019
REMARK INTER + INTRA:          -6.777
REMARK INTER:                  -6.472
REMARK INTRA:                  -0.305
REMARK UNBOUND:                -0.282
REMARK SMILES O=c1c(O)c(-c2ccc(O)c(O)c2)oc2cc(O)cc(O)c12
REMARK SMILES IDX 5 1 3 2 2 3 1 4 22 5 20 6 19 7 17 8 16 9 15 10 14 11 6 12
REMARK SMILES IDX 7 13 8 14 9 15 13 16 11 17 10 18 12 20 4 22 21 24 18 26
REMARK H PARENT 10 19 12 21 4 23 21 25 18 27
REMARK Flexibility Score: inf
ROOT
ATOM      1  C   UNL     1      29.286  28.658  13.905  1.00  0.00     0.180 A 
ATOM      2  C   UNL     1      28.675  29.495  12.955  1.00  0.00     0.208 A 
ATOM      3  C   UNL     1      27.445  29.110  12.399  1.00  0.00     0.238 A 
ATOM      4  O   UNL     1      26.941  29.825  11.495  1.00  0.00    -0.285 OA
ATOM      5  C   UNL     1      26.812  27.922  12.840  1.00  0.00     0.111 A 
ATOM      6  C   UNL     1      25.543  27.457  12.378  1.00  0.00     0.134 A 
ATOM      7  C   UNL     1      25.066  26.213  12.808  1.00  0.00     0.093 A 
ATOM      8  C   UNL     1      25.780  25.446  13.731  1.00  0.00     0.123 A 
ATOM      9  C   UNL     1      26.993  25.916  14.229  1.00  0.00     0.094 A 
ATOM     10  C   UNL     1      27.514  27.135  13.791  1.00  0.00     0.146 A 
ATOM     11  O   UNL     1      28.683  27.534  14.276  1.00  0.00    -0.452 OA
ENDROOT
BRANCH   1  12
ATOM     12  C   UNL     1      30.588  28.989  14.526  1.00  0.00     0.025 A 
ATOM     13  C   UNL     1      31.766  28.443  13.990  1.00  0.00     0.016 A 
ATOM     14  C   UNL     1      33.009  28.759  14.545  1.00  0.00     0.051 A 
ATOM     15  C   UNL     1      33.096  29.636  15.631  1.00  0.00     0.157 A 
ATOM     16  C   UNL     1      30.679  29.887  15.604  1.00  0.00     0.062 A 
ATOM     17  C   UNL     1      31.927  30.207  16.161  1.00  0.00     0.158 A 
BRANCH  15  18
ATOM     18  O   UNL     1      34.349  29.931  16.166  1.00  0.00    -0.504 OA
ATOM     19  H   UNL     1      35.126  30.225  15.587  1.00  0.00     0.293 HD
ENDBRANCH  15  18
BRANCH  17  20
ATOM     20  O   UNL     1      32.006  31.093  17.235  1.00  0.00    -0.504 OA
ATOM     21  H   UNL     1      32.865  31.581  17.459  1.00  0.00     0.293 HD
ENDBRANCH  17  20
ENDBRANCH   1  12
BRANCH   2  22
ATOM     22  O   UNL     1      29.278  30.701  12.589  1.00  0.00    -0.502 OA
ATOM     23  H   UNL     1      29.608  31.373  13.270  1.00  0.00     0.293 HD
ENDBRANCH   2  22
BRANCH   6  24
ATOM     24  O   UNL     1      24.706  28.183  11.525  1.00  0.00    -0.507 OA
ATOM     25  H   UNL     1      24.812  28.240  10.524  1.00  0.00     0.293 HD
ENDBRANCH   6  24
BRANCH   8  26
ATOM     26  O   UNL     1      25.289  24.217  14.166  1.00  0.00    -0.508 OA
ATOM     27  H   UNL     1      24.304  23.986  14.099  1.00  0.00     0.293 HD
ENDBRANCH   8  26
TORSDOF 6
ENDMDL
MODEL 8
REMARK VINA RESULT:    -5.290      4.321      6.238
REMARK INTER + INTRA:          -6.654
REMARK INTER:                  -6.769
REMARK INTRA:                   0.115
REMARK UNBOUND:                -0.282
REMARK SMILES O=c1c(O)c(-c2ccc(O)c(O)c2)oc2cc(O)cc(O)c12
REMARK SMILES IDX 5 1 3 2 2 3 1 4 22 5 20 6 19 7 17 8 16 9 15 10 14 11 6 12
REMARK SMILES IDX 7 13 8 14 9 15 13 16 11 17 10 18 12 20 4 22 21 24 18 26
REMARK H PARENT 10 19 12 21 4 23 21 25 18 27
REMARK Flexibility Score: inf
ROOT
ATOM      1  C   UNL     1      29.347  27.769  14.348  1.00  0.00     0.180 A 
ATOM      2  C   UNL     1      30.342  26.837  14.690  1.00  0.00     0.208 A 
ATOM      3  C   UNL     1      31.566  27.302  15.199  1.00  0.00     0.238 A 
ATOM      4  O   UNL     1      32.478  26.468  15.432  1.00  0.00    -0.285 OA
ATOM      5  C   UNL     1      31.760  28.688  15.410  1.00  0.00     0.111 A 
ATOM      6  C   UNL     1      32.943  29.269  15.962  1.00  0.00     0.134 A 
ATOM      7  C   UNL     1      33.063  30.662  16.026  1.00  0.00     0.093 A 
ATOM      8  C   UNL     1      32.018  31.496  15.620  1.00  0.00     0.123 A 
ATOM      9  C   UNL     1      30.839  30.938  15.132  1.00  0.00     0.094 A 
ATOM     10  C   UNL     1      30.704  29.553  15.019  1.00  0.00     0.146 A 
ATOM     11  O   UNL     1      29.571  29.065  14.529  1.00  0.00    -0.452 OA
ENDROOT
BRANCH   1  12
ATOM     12  C   UNL     1      28.038  27.356  13.795  1.00  0.00     0.025 A 
ATOM     13  C   UNL     1      27.512  28.038  12.686  1.00  0.00     0.016 A 
ATOM     14  C   UNL     1      26.288  27.652  12.133  1.00  0.00     0.051 A 
ATOM     15  C   UNL     1      25.580  26.572  12.667  1.00  0.00     0.157 A 
ATOM     16  C   UNL     1      27.335  26.257  14.318  1.00  0.00     0.062 A 
ATOM     17  C   UNL     1      26.107  25.866  13.762  1.00  0.00     0.158 A 
BRANCH  15  18
ATOM     18  O   UNL     1      24.361  26.210  12.096  1.00  0.00    -0.504 OA
ATOM     19  H   UNL     1      23.664  26.897  11.833  1.00  0.00     0.293 HD
ENDBRANCH  15  18
BRANCH  17  20
ATOM     20  O   UNL     1      25.413  24.779  14.293  1.00  0.00    -0.504 OA
ATOM     21  H   UNL     1      24.843  24.867  15.126  1.00  0.00     0.293 HD
ENDBRANCH  17  20
ENDBRANCH   1  12
BRANCH   2  22
ATOM     22  O   UNL     1      30.103  25.467  14.546  1.00  0.00    -0.502 OA
ATOM     23  H   UNL     1      30.546  24.911  13.825  1.00  0.00     0.293 HD
ENDBRANCH   2  22
BRANCH   6  24
ATOM     24  O   UNL     1      34.010  28.528  16.479  1.00  0.00    -0.507 OA
ATOM     25  H   UNL     1      34.325  27.640  16.121  1.00  0.00     0.293 HD
ENDBRANCH   6  24
BRANCH   8  26
ATOM     26  O   UNL     1      32.140  32.881  15.704  1.00  0.00    -0.508 OA
ATOM     27  H   UNL     1      32.845  33.385  15.178  1.00  0.00     0.293 HD
ENDBRANCH   8  26
TORSDOF 6
ENDMDL
MODEL 9
REMARK VINA RESULT:    -5.184      2.237      3.030
REMARK INTER + INTRA:          -6.527
REMARK INTER:                  -6.196
REMARK INTRA:                  -0.331
REMARK UNBOUND:                -0.282
REMARK SMILES O=c1c(O)c(-c2ccc(O)c(O)c2)oc2cc(O)cc(O)c12
REMARK SMILES IDX 5 1 3 2 2 3 1 4 22 5 20 6 19 7 17 8 16 9 15 10 14 11 6 12
REMARK SMILES IDX 7 13 8 14 9 15 13 16 11 17 10 18 12 20 4 22 21 24 18 26
REMARK H PARENT 10 19 12 21 4 23 21 25 18 27
REMARK Flexibility Score: inf
ROOT
ATOM      1  C   UNL     1      32.849  28.255  14.138  1.00  0.00     0.180 A 
ATOM      2  C   UNL     1      32.908  29.465  14.852  1.00  0.00     0.208 A 
ATOM      3  C   UNL     1      31.889  30.414  14.667  1.00  0.00     0.238 A 
ATOM      4  O   UNL     1      31.987  31.524  15.251  1.00  0.00    -0.285 OA
ATOM      5  C   UNL     1      30.797  30.120  13.816  1.00  0.00     0.111 A 
ATOM      6  C   UNL     1      29.687  30.989  13.589  1.00  0.00     0.134 A 
ATOM      7  C   UNL     1      28.716  30.637  12.643  1.00  0.00     0.093 A 
ATOM      8  C   UNL     1      28.781  29.419  11.962  1.00  0.00     0.123 A 
ATOM      9  C   UNL     1      29.831  28.540  12.217  1.00  0.00     0.094 A 
ATOM     10  C   UNL     1      30.835  28.880  13.126  1.00  0.00     0.146 A 
ATOM     11  O   UNL     1      31.828  28.021  13.323  1.00  0.00    -0.452 OA
ENDROOT
BRANCH   1  12
ATOM     12  C   UNL     1      33.892  27.212  14.270  1.00  0.00     0.025 A 
ATOM     13  C   UNL     1      33.723  26.183  15.210  1.00  0.00     0.016 A 
ATOM     14  C   UNL     1      34.683  25.176  15.336  1.00  0.00     0.051 A 
ATOM     15  C   UNL     1      35.816  25.172  14.517  1.00  0.00     0.157 A 
ATOM     16  C   UNL     1      35.021  27.195  13.432  1.00  0.00     0.062 A 
ATOM     17  C   UNL     1      35.985  26.183  13.556  1.00  0.00     0.158 A 
BRANCH  15  18
ATOM     18  O   UNL     1      36.759  24.156  14.667  1.00  0.00    -0.504 OA
ATOM     19  H   UNL     1      36.629  23.236  14.261  1.00  0.00     0.293 HD
ENDBRANCH  15  18
BRANCH  17  20
ATOM     20  O   UNL     1      37.106  26.179  12.727  1.00  0.00    -0.504 OA
ATOM     21  H   UNL     1      37.041  25.923  11.748  1.00  0.00     0.293 HD
ENDBRANCH  17  20
ENDBRANCH   1  12
BRANCH   2  22
ATOM     22  O   UNL     1      33.955  29.705  15.746  1.00  0.00    -0.502 OA
ATOM     23  H   UNL     1      34.373  30.619  15.861  1.00  0.00     0.293 HD
ENDBRANCH   2  22
BRANCH   6  24
ATOM     24  O   UNL     1      29.476  32.188  14.278  1.00  0.00    -0.507 OA
ATOM     25  H   UNL     1      29.255  32.259  15.259  1.00  0.00     0.293 HD
ENDBRANCH   6  24
BRANCH   8  26
ATOM     26  O   UNL     1      27.802  29.069  11.035  1.00  0.00    -0.508 OA
ATOM     27  H   UNL     1      26.971  29.634  10.903  1.00  0.00     0.293 HD
ENDBRANCH   8  26
TORSDOF 6
ENDMDL
