MODEL 1
REMARK VINA RESULT:    -4.113      0.000      0.000
REMARK INTER + INTRA:         -15.165
REMARK INTER:                 -10.364
REMARK INTRA:                  -4.801
REMARK UNBOUND:                -4.801
REMARK SMILES CCCCCCCCCCCCCCCCCCCCCCCCCCCC(=O)[O-]
REMARK SMILES IDX 15 1 16 2 17 3 18 4 19 5 20 6 21 7 22 8 23 9 24 10 25 11
REMARK SMILES IDX 26 12 27 13 28 14 29 15 30 16 14 17 13 18 12 19 11 20 10 21
REMARK SMILES IDX 9 22 8 23 7 24 6 25 5 26 4 27 3 28 2 29 1 30
REMARK H PARENT
REMARK Flexibility Score: inf
ROOT
ATOM      1  C   UNL     1     -48.216   9.639 -30.319  1.00  0.00     0.000 C 
ENDROOT
BRANCH   1   2
ATOM      2  C   UNL     1     -47.381   8.359 -30.142  1.00  0.00     0.000 C 
BRANCH   2   3
ATOM      3  C   UNL     1     -48.094   7.300 -29.284  1.00  0.00     0.000 C 
BRANCH   3   4
ATOM      4  C   UNL     1     -49.302   6.648 -29.994  1.00  0.00     0.000 C 
BRANCH   4   5
ATOM      5  C   UNL     1     -50.645   7.154 -29.436  1.00  0.00     0.000 C 
BRANCH   5   6
ATOM      6  C   UNL     1     -51.439   7.974 -30.476  1.00  0.00     0.000 C 
BRANCH   6   7
ATOM      7  C   UNL     1     -52.719   8.618 -29.918  1.00  0.00     0.000 C 
BRANCH   7   8
ATOM      8  C   UNL     1     -53.858   8.679 -30.949  1.00  0.00     0.000 C 
BRANCH   8   9
ATOM      9  C   UNL     1     -53.344   8.945 -32.375  1.00  0.00     0.000 C 
BRANCH   9  10
ATOM     10  C   UNL     1     -53.854   7.898 -33.380  1.00  0.00     0.000 C 
BRANCH  10  11
ATOM     11  C   UNL     1     -53.016   6.607 -33.379  1.00  0.00     0.000 C 
BRANCH  11  12
ATOM     12  C   UNL     1     -51.689   6.683 -34.159  1.00  0.00     0.006 C 
BRANCH  12  13
ATOM     13  C   UNL     1     -50.512   5.963 -33.472  1.00  0.00     0.053 C 
BRANCH  13  14
ATOM     14  C   UNL     1     -49.289   6.824 -33.366  1.00  0.00     0.041 C 
ATOM     15  O   UNL     1     -48.150   6.299 -33.252  1.00  0.00    -0.550 OA
ATOM     16  O   UNL     1     -49.414   8.207 -33.344  1.00  0.00    -0.550 OA
ENDBRANCH  13  14
ENDBRANCH  12  13
ENDBRANCH  11  12
ENDBRANCH  10  11
ENDBRANCH   9  10
ENDBRANCH   8   9
ENDBRANCH   7   8
ENDBRANCH   6   7
ENDBRANCH   5   6
ENDBRANCH   4   5
ENDBRANCH   3   4
ENDBRANCH   2   3
ENDBRANCH   1   2
BRANCH   1  17
ATOM     17  C   UNL     1     -48.504  10.335 -28.972  1.00  0.00     0.000 C 
BRANCH  17  18
ATOM     18  C   UNL     1     -49.828  11.118 -28.947  1.00  0.00     0.000 C 
BRANCH  18  19
ATOM     19  C   UNL     1     -49.660  12.586 -29.372  1.00  0.00     0.000 C 
BRANCH  19  20
ATOM     20  C   UNL     1     -50.315  12.907 -30.728  1.00  0.00     0.000 C 
BRANCH  20  21
ATOM     21  C   UNL     1     -51.368  11.893 -31.216  1.00  0.00     0.000 C 
BRANCH  21  22
ATOM     22  C   UNL     1     -52.544  12.550 -31.960  1.00  0.00    -0.000 C 
BRANCH  22  23
ATOM     23  C   UNL     1     -53.803  12.698 -31.084  1.00  0.00    -0.000 C 
BRANCH  23  24
ATOM     24  C   UNL     1     -53.646  12.243 -29.619  1.00  0.00    -0.000 C 
BRANCH  24  25
ATOM     25  C   UNL     1     -54.103  13.308 -28.609  1.00  0.00    -0.000 C 
BRANCH  25  26
ATOM     26  C   UNL     1     -52.927  14.069 -27.967  1.00  0.00    -0.000 C 
BRANCH  26  27
ATOM     27  C   UNL     1     -52.330  15.198 -28.827  1.00  0.00    -0.000 C 
BRANCH  27  28
ATOM     28  C   UNL     1     -53.381  16.228 -29.279  1.00  0.00    -0.000 C 
BRANCH  28  29
ATOM     29  C   UNL     1     -52.749  17.474 -29.918  1.00  0.00    -0.003 C 
ATOM     30  C   UNL     1     -51.764  17.128 -31.033  1.00  0.00     0.004 C 
ENDBRANCH  28  29
ENDBRANCH  27  28
ENDBRANCH  26  27
ENDBRANCH  25  26
ENDBRANCH  24  25
ENDBRANCH  23  24
ENDBRANCH  22  23
ENDBRANCH  21  22
ENDBRANCH  20  21
ENDBRANCH  19  20
ENDBRANCH  18  19
ENDBRANCH  17  18
ENDBRANCH   1  17
TORSDOF 26
ENDMDL
MODEL 2
REMARK VINA RESULT:    -4.073      2.343      8.007
REMARK INTER + INTRA:         -15.066
REMARK INTER:                 -11.732
REMARK INTRA:                  -3.334
REMARK UNBOUND:                -4.801
REMARK SMILES CCCCCCCCCCCCCCCCCCCCCCCCCCCC(=O)[O-]
REMARK SMILES IDX 15 1 16 2 17 3 18 4 19 5 20 6 21 7 22 8 23 9 24 10 25 11
REMARK SMILES IDX 26 12 27 13 28 14 29 15 30 16 14 17 13 18 12 19 11 20 10 21
REMARK SMILES IDX 9 22 8 23 7 24 6 25 5 26 4 27 3 28 2 29 1 30
REMARK H PARENT
REMARK Flexibility Score: inf
ROOT
ATOM      1  C   UNL     1     -50.095  10.633 -29.791  1.00  0.00     0.000 C 
ENDROOT
BRANCH   1   2
ATOM      2  C   UNL     1     -51.168  11.494 -29.103  1.00  0.00     0.000 C 
BRANCH   2   3
ATOM      3  C   UNL     1     -52.596  10.986 -29.369  1.00  0.00     0.000 C 
BRANCH   3   4
ATOM      4  C   UNL     1     -53.635  12.122 -29.504  1.00  0.00     0.000 C 
BRANCH   4   5
ATOM      5  C   UNL     1     -53.634  13.057 -28.281  1.00  0.00     0.000 C 
BRANCH   5   6
ATOM      6  C   UNL     1     -53.978  14.515 -28.659  1.00  0.00     0.000 C 
BRANCH   6   7
ATOM      7  C   UNL     1     -52.991  15.554 -28.101  1.00  0.00     0.000 C 
BRANCH   7   8
ATOM      8  C   UNL     1     -53.653  16.909 -27.803  1.00  0.00     0.000 C 
BRANCH   8   9
ATOM      9  C   UNL     1     -53.000  18.064 -28.583  1.00  0.00     0.000 C 
BRANCH   9  10
ATOM     10  C   UNL     1     -53.464  18.111 -30.049  1.00  0.00     0.000 C 
BRANCH  10  11
ATOM     11  C   UNL     1     -52.293  18.155 -31.047  1.00  0.00     0.000 C 
BRANCH  11  12
ATOM     12  C   UNL     1     -51.134  17.186 -30.744  1.00  0.00     0.006 C 
BRANCH  12  13
ATOM     13  C   UNL     1     -50.835  16.186 -31.879  1.00  0.00     0.053 C 
BRANCH  13  14
ATOM     14  C   UNL     1     -50.924  14.758 -31.431  1.00  0.00     0.041 C 
ATOM     15  O   UNL     1     -52.016  14.136 -31.506  1.00  0.00    -0.550 OA
ATOM     16  O   UNL     1     -49.811  14.130 -30.887  1.00  0.00    -0.550 OA
ENDBRANCH  13  14
ENDBRANCH  12  13
ENDBRANCH  11  12
ENDBRANCH  10  11
ENDBRANCH   9  10
ENDBRANCH   8   9
ENDBRANCH   7   8
ENDBRANCH   6   7
ENDBRANCH   5   6
ENDBRANCH   4   5
ENDBRANCH   3   4
ENDBRANCH   2   3
ENDBRANCH   1   2
BRANCH   1  17
ATOM     17  C   UNL     1     -48.876  10.385 -28.877  1.00  0.00     0.000 C 
BRANCH  17  18
ATOM     18  C   UNL     1     -47.532  10.359 -29.626  1.00  0.00     0.000 C 
BRANCH  18  19
ATOM     19  C   UNL     1     -47.072   8.934 -29.976  1.00  0.00     0.000 C 
BRANCH  19  20
ATOM     20  C   UNL     1     -47.607   8.438 -31.332  1.00  0.00     0.000 C 
BRANCH  20  21
ATOM     21  C   UNL     1     -47.750   6.910 -31.475  1.00  0.00     0.000 C 
BRANCH  21  22
ATOM     22  C   UNL     1     -47.512   6.152 -30.158  1.00  0.00    -0.000 C 
BRANCH  22  23
ATOM     23  C   UNL     1     -48.805   5.920 -29.355  1.00  0.00    -0.000 C 
BRANCH  23  24
ATOM     24  C   UNL     1     -50.109   5.956 -30.176  1.00  0.00    -0.000 C 
BRANCH  24  25
ATOM     25  C   UNL     1     -50.962   7.203 -29.891  1.00  0.00    -0.000 C 
BRANCH  25  26
ATOM     26  C   UNL     1     -52.200   7.303 -30.803  1.00  0.00    -0.000 C 
BRANCH  26  27
ATOM     27  C   UNL     1     -52.094   8.338 -31.939  1.00  0.00    -0.000 C 
BRANCH  27  28
ATOM     28  C   UNL     1     -52.367   7.735 -33.329  1.00  0.00    -0.000 C 
BRANCH  28  29
ATOM     29  C   UNL     1     -52.111   6.222 -33.375  1.00  0.00    -0.003 C 
ATOM     30  C   UNL     1     -50.668   5.879 -33.741  1.00  0.00     0.004 C 
ENDBRANCH  28  29
ENDBRANCH  27  28
ENDBRANCH  26  27
ENDBRANCH  25  26
ENDBRANCH  24  25
ENDBRANCH  23  24
ENDBRANCH  22  23
ENDBRANCH  21  22
ENDBRANCH  20  21
ENDBRANCH  19  20
ENDBRANCH  18  19
ENDBRANCH  17  18
ENDBRANCH   1  17
TORSDOF 26
ENDMDL
MODEL 3
REMARK VINA RESULT:    -4.031      2.310      8.085
REMARK INTER + INTRA:         -14.959
REMARK INTER:                 -11.263
REMARK INTRA:                  -3.696
REMARK UNBOUND:                -4.801
REMARK SMILES CCCCCCCCCCCCCCCCCCCCCCCCCCCC(=O)[O-]
REMARK SMILES IDX 15 1 16 2 17 3 18 4 19 5 20 6 21 7 22 8 23 9 24 10 25 11
REMARK SMILES IDX 26 12 27 13 28 14 29 15 30 16 14 17 13 18 12 19 11 20 10 21
REMARK SMILES IDX 9 22 8 23 7 24 6 25 5 26 4 27 3 28 2 29 1 30
REMARK H PARENT
REMARK Flexibility Score: inf
ROOT
ATOM      1  C   UNL     1     -50.973  10.462 -30.102  1.00  0.00     0.000 C 
ENDROOT
BRANCH   1   2
ATOM      2  C   UNL     1     -51.169  11.757 -29.296  1.00  0.00     0.000 C 
BRANCH   2   3
ATOM      3  C   UNL     1     -52.486  11.766 -28.500  1.00  0.00     0.000 C 
BRANCH   3   4
ATOM      4  C   UNL     1     -53.627  12.528 -29.212  1.00  0.00     0.000 C 
BRANCH   4   5
ATOM      5  C   UNL     1     -54.095  13.755 -28.408  1.00  0.00     0.000 C 
BRANCH   5   6
ATOM      6  C   UNL     1     -53.093  14.926 -28.488  1.00  0.00     0.000 C 
BRANCH   6   7
ATOM      7  C   UNL     1     -53.238  15.952 -27.352  1.00  0.00     0.000 C 
BRANCH   7   8
ATOM      8  C   UNL     1     -53.969  17.231 -27.790  1.00  0.00     0.000 C 
BRANCH   8   9
ATOM      9  C   UNL     1     -53.065  18.174 -28.603  1.00  0.00     0.000 C 
BRANCH   9  10
ATOM     10  C   UNL     1     -53.642  18.472 -29.998  1.00  0.00     0.000 C 
BRANCH  10  11
ATOM     11  C   UNL     1     -52.746  17.960 -31.140  1.00  0.00     0.000 C 
BRANCH  11  12
ATOM     12  C   UNL     1     -51.474  17.213 -30.693  1.00  0.00     0.006 C 
BRANCH  12  13
ATOM     13  C   UNL     1     -50.812  16.376 -31.805  1.00  0.00     0.053 C 
BRANCH  13  14
ATOM     14  C   UNL     1     -50.877  14.902 -31.538  1.00  0.00     0.041 C 
ATOM     15  O   UNL     1     -51.957  14.274 -31.698  1.00  0.00    -0.550 OA
ATOM     16  O   UNL     1     -49.756  14.231 -31.066  1.00  0.00    -0.550 OA
ENDBRANCH  13  14
ENDBRANCH  12  13
ENDBRANCH  11  12
ENDBRANCH  10  11
ENDBRANCH   9  10
ENDBRANCH   8   9
ENDBRANCH   7   8
ENDBRANCH   6   7
ENDBRANCH   5   6
ENDBRANCH   4   5
ENDBRANCH   3   4
ENDBRANCH   2   3
ENDBRANCH   1   2
BRANCH   1  17
ATOM     17  C   UNL     1     -51.136  10.693 -31.620  1.00  0.00     0.000 C 
BRANCH  17  18
ATOM     18  C   UNL     1     -52.519  10.296 -32.165  1.00  0.00     0.000 C 
BRANCH  18  19
ATOM     19  C   UNL     1     -53.308   9.402 -31.195  1.00  0.00     0.000 C 
BRANCH  19  20
ATOM     20  C   UNL     1     -54.034   8.237 -31.894  1.00  0.00     0.000 C 
BRANCH  20  21
ATOM     21  C   UNL     1     -53.826   8.140 -33.418  1.00  0.00     0.000 C 
BRANCH  21  22
ATOM     22  C   UNL     1     -53.199   6.807 -33.862  1.00  0.00    -0.000 C 
BRANCH  22  23
ATOM     23  C   UNL     1     -51.676   6.898 -34.069  1.00  0.00    -0.000 C 
BRANCH  23  24
ATOM     24  C   UNL     1     -50.821   6.168 -33.014  1.00  0.00    -0.000 C 
BRANCH  24  25
ATOM     25  C   UNL     1     -50.613   6.995 -31.734  1.00  0.00    -0.000 C 
BRANCH  25  26
ATOM     26  C   UNL     1     -49.868   6.217 -30.632  1.00  0.00    -0.000 C 
BRANCH  26  27
ATOM     27  C   UNL     1     -48.460   6.743 -30.299  1.00  0.00    -0.000 C 
BRANCH  27  28
ATOM     28  C   UNL     1     -47.710   7.277 -31.532  1.00  0.00    -0.000 C 
BRANCH  28  29
ATOM     29  C   UNL     1     -47.512   8.799 -31.488  1.00  0.00    -0.003 C 
ATOM     30  C   UNL     1     -47.425   9.342 -30.063  1.00  0.00     0.004 C 
ENDBRANCH  28  29
ENDBRANCH  27  28
ENDBRANCH  26  27
ENDBRANCH  25  26
ENDBRANCH  24  25
ENDBRANCH  23  24
ENDBRANCH  22  23
ENDBRANCH  21  22
ENDBRANCH  20  21
ENDBRANCH  19  20
ENDBRANCH  18  19
ENDBRANCH  17  18
ENDBRANCH   1  17
TORSDOF 26
ENDMDL
MODEL 4
REMARK VINA RESULT:    -3.952      3.141      8.136
REMARK INTER + INTRA:         -14.760
REMARK INTER:                 -10.858
REMARK INTRA:                  -3.902
REMARK UNBOUND:                -4.801
REMARK SMILES CCCCCCCCCCCCCCCCCCCCCCCCCCCC(=O)[O-]
REMARK SMILES IDX 15 1 16 2 17 3 18 4 19 5 20 6 21 7 22 8 23 9 24 10 25 11
REMARK SMILES IDX 26 12 27 13 28 14 29 15 30 16 14 17 13 18 12 19 11 20 10 21
REMARK SMILES IDX 9 22 8 23 7 24 6 25 5 26 4 27 3 28 2 29 1 30
REMARK H PARENT
REMARK Flexibility Score: inf
ROOT
ATOM      1  C   UNL     1     -50.121  11.865 -28.991  1.00  0.00     0.000 C 
ENDROOT
BRANCH   1   2
ATOM      2  C   UNL     1     -49.398  12.923 -29.842  1.00  0.00     0.000 C 
BRANCH   2   3
ATOM      3  C   UNL     1     -50.367  13.777 -30.677  1.00  0.00     0.000 C 
BRANCH   3   4
ATOM      4  C   UNL     1     -51.614  12.998 -31.154  1.00  0.00     0.000 C 
BRANCH   4   5
ATOM      5  C   UNL     1     -52.765  13.937 -31.559  1.00  0.00     0.000 C 
BRANCH   5   6
ATOM      6  C   UNL     1     -53.947  13.876 -30.567  1.00  0.00     0.000 C 
BRANCH   6   7
ATOM      7  C   UNL     1     -53.705  12.950 -29.363  1.00  0.00     0.000 C 
BRANCH   7   8
ATOM      8  C   UNL     1     -53.649  13.707 -28.027  1.00  0.00     0.000 C 
BRANCH   8   9
ATOM      9  C   UNL     1     -52.993  15.092 -28.164  1.00  0.00     0.000 C 
BRANCH   9  10
ATOM     10  C   UNL     1     -53.973  16.233 -27.845  1.00  0.00     0.000 C 
BRANCH  10  11
ATOM     11  C   UNL     1     -53.307  17.621 -27.870  1.00  0.00     0.000 C 
BRANCH  11  12
ATOM     12  C   UNL     1     -53.716  18.525 -29.049  1.00  0.00     0.006 C 
BRANCH  12  13
ATOM     13  C   UNL     1     -53.459  17.906 -30.437  1.00  0.00     0.053 C 
BRANCH  13  14
ATOM     14  C   UNL     1     -52.121  18.282 -31.000  1.00  0.00     0.041 C 
ATOM     15  O   UNL     1     -51.101  17.594 -30.728  1.00  0.00    -0.550 OA
ATOM     16  O   UNL     1     -51.993  19.420 -31.786  1.00  0.00    -0.550 OA
ENDBRANCH  13  14
ENDBRANCH  12  13
ENDBRANCH  11  12
ENDBRANCH  10  11
ENDBRANCH   9  10
ENDBRANCH   8   9
ENDBRANCH   7   8
ENDBRANCH   6   7
ENDBRANCH   5   6
ENDBRANCH   4   5
ENDBRANCH   3   4
ENDBRANCH   2   3
ENDBRANCH   1   2
BRANCH   1  17
ATOM     17  C   UNL     1     -49.969  10.446 -29.578  1.00  0.00     0.000 C 
BRANCH  17  18
ATOM     18  C   UNL     1     -48.626   9.774 -29.244  1.00  0.00     0.000 C 
BRANCH  18  19
ATOM     19  C   UNL     1     -48.711   8.239 -29.241  1.00  0.00     0.000 C 
BRANCH  19  20
ATOM     20  C   UNL     1     -47.429   7.558 -29.755  1.00  0.00     0.000 C 
BRANCH  20  21
ATOM     21  C   UNL     1     -47.620   6.164 -30.384  1.00  0.00     0.000 C 
BRANCH  21  22
ATOM     22  C   UNL     1     -47.987   6.217 -31.877  1.00  0.00    -0.000 C 
BRANCH  22  23
ATOM     23  C   UNL     1     -47.763   7.606 -32.503  1.00  0.00    -0.000 C 
BRANCH  23  24
ATOM     24  C   UNL     1     -48.925   8.140 -33.362  1.00  0.00    -0.000 C 
BRANCH  24  25
ATOM     25  C   UNL     1     -49.285   9.601 -33.044  1.00  0.00    -0.000 C 
BRANCH  25  26
ATOM     26  C   UNL     1     -50.793   9.809 -32.806  1.00  0.00    -0.000 C 
BRANCH  26  27
ATOM     27  C   UNL     1     -51.552   8.569 -32.297  1.00  0.00    -0.000 C 
BRANCH  27  28
ATOM     28  C   UNL     1     -53.081   8.740 -32.345  1.00  0.00    -0.000 C 
BRANCH  28  29
ATOM     29  C   UNL     1     -53.599   9.715 -31.278  1.00  0.00    -0.003 C 
ATOM     30  C   UNL     1     -53.325   9.232 -29.855  1.00  0.00     0.004 C 
ENDBRANCH  28  29
ENDBRANCH  27  28
ENDBRANCH  26  27
ENDBRANCH  25  26
ENDBRANCH  24  25
ENDBRANCH  23  24
ENDBRANCH  22  23
ENDBRANCH  21  22
ENDBRANCH  20  21
ENDBRANCH  19  20
ENDBRANCH  18  19
ENDBRANCH  17  18
ENDBRANCH   1  17
TORSDOF 26
ENDMDL
MODEL 5
REMARK VINA RESULT:    -3.916      1.664      4.395
REMARK INTER + INTRA:         -14.669
REMARK INTER:                 -11.235
REMARK INTRA:                  -3.433
REMARK UNBOUND:                -4.801
REMARK SMILES CCCCCCCCCCCCCCCCCCCCCCCCCCCC(=O)[O-]
REMARK SMILES IDX 15 1 16 2 17 3 18 4 19 5 20 6 21 7 22 8 23 9 24 10 25 11
REMARK SMILES IDX 26 12 27 13 28 14 29 15 30 16 14 17 13 18 12 19 11 20 10 21
REMARK SMILES IDX 9 22 8 23 7 24 6 25 5 26 4 27 3 28 2 29 1 30
REMARK H PARENT
REMARK Flexibility Score: inf
ROOT
ATOM      1  C   UNL     1     -51.745  11.444 -31.781  1.00  0.00     0.000 C 
ENDROOT
BRANCH   1   2
ATOM      2  C   UNL     1     -52.611  10.398 -32.504  1.00  0.00     0.000 C 
BRANCH   2   3
ATOM      3  C   UNL     1     -53.535   9.628 -31.546  1.00  0.00     0.000 C 
BRANCH   3   4
ATOM      4  C   UNL     1     -53.762   8.157 -31.962  1.00  0.00     0.000 C 
BRANCH   4   5
ATOM      5  C   UNL     1     -53.371   7.902 -33.429  1.00  0.00     0.000 C 
BRANCH   5   6
ATOM      6  C   UNL     1     -52.971   6.432 -33.682  1.00  0.00     0.000 C 
BRANCH   6   7
ATOM      7  C   UNL     1     -51.475   6.145 -33.469  1.00  0.00     0.000 C 
BRANCH   7   8
ATOM      8  C   UNL     1     -50.706   7.355 -32.915  1.00  0.00     0.000 C 
BRANCH   8   9
ATOM      9  C   UNL     1     -49.242   7.386 -33.388  1.00  0.00     0.000 C 
BRANCH   9  10
ATOM     10  C   UNL     1     -48.531   8.690 -32.989  1.00  0.00     0.000 C 
BRANCH  10  11
ATOM     11  C   UNL     1     -47.377   8.465 -31.996  1.00  0.00     0.000 C 
BRANCH  11  12
ATOM     12  C   UNL     1     -47.457   9.289 -30.696  1.00  0.00     0.006 C 
BRANCH  12  13
ATOM     13  C   UNL     1     -47.458   8.439 -29.410  1.00  0.00     0.053 C 
BRANCH  13  14
ATOM     14  C   UNL     1     -48.414   7.287 -29.477  1.00  0.00     0.041 C 
ATOM     15  O   UNL     1     -49.649   7.493 -29.616  1.00  0.00    -0.550 OA
ATOM     16  O   UNL     1     -47.946   5.987 -29.338  1.00  0.00    -0.550 OA
ENDBRANCH  13  14
ENDBRANCH  12  13
ENDBRANCH  11  12
ENDBRANCH  10  11
ENDBRANCH   9  10
ENDBRANCH   8   9
ENDBRANCH   7   8
ENDBRANCH   6   7
ENDBRANCH   5   6
ENDBRANCH   4   5
ENDBRANCH   3   4
ENDBRANCH   2   3
ENDBRANCH   1   2
BRANCH   1  17
ATOM     17  C   UNL     1     -50.576  10.796 -31.010  1.00  0.00     0.000 C 
BRANCH  17  18
ATOM     18  C   UNL     1     -50.559  11.130 -29.508  1.00  0.00     0.000 C 
BRANCH  18  19
ATOM     19  C   UNL     1     -51.435  12.345 -29.158  1.00  0.00     0.000 C 
BRANCH  19  20
ATOM     20  C   UNL     1     -52.842  11.959 -28.666  1.00  0.00     0.000 C 
BRANCH  20  21
ATOM     21  C   UNL     1     -53.721  13.125 -28.174  1.00  0.00     0.000 C 
BRANCH  21  22
ATOM     22  C   UNL     1     -53.323  14.482 -28.781  1.00  0.00    -0.000 C 
BRANCH  22  23
ATOM     23  C   UNL     1     -53.113  15.578 -27.719  1.00  0.00    -0.000 C 
BRANCH  23  24
ATOM     24  C   UNL     1     -53.478  17.008 -28.162  1.00  0.00    -0.000 C 
BRANCH  24  25
ATOM     25  C   UNL     1     -54.104  17.059 -29.566  1.00  0.00    -0.000 C 
BRANCH  25  26
ATOM     26  C   UNL     1     -53.314  17.952 -30.542  1.00  0.00    -0.000 C 
BRANCH  26  27
ATOM     27  C   UNL     1     -51.830  18.160 -30.184  1.00  0.00    -0.000 C 
BRANCH  27  28
ATOM     28  C   UNL     1     -50.873  17.419 -31.136  1.00  0.00    -0.000 C 
BRANCH  28  29
ATOM     29  C   UNL     1     -51.449  16.084 -31.629  1.00  0.00    -0.003 C 
ATOM     30  C   UNL     1     -50.453  14.932 -31.507  1.00  0.00     0.004 C 
ENDBRANCH  28  29
ENDBRANCH  27  28
ENDBRANCH  26  27
ENDBRANCH  25  26
ENDBRANCH  24  25
ENDBRANCH  23  24
ENDBRANCH  22  23
ENDBRANCH  21  22
ENDBRANCH  20  21
ENDBRANCH  19  20
ENDBRANCH  18  19
ENDBRANCH  17  18
ENDBRANCH   1  17
TORSDOF 26
ENDMDL
MODEL 6
REMARK VINA RESULT:    -3.912      2.256      7.952
REMARK INTER + INTRA:         -14.660
REMARK INTER:                 -11.040
REMARK INTRA:                  -3.620
REMARK UNBOUND:                -4.801
REMARK SMILES CCCCCCCCCCCCCCCCCCCCCCCCCCCC(=O)[O-]
REMARK SMILES IDX 15 1 16 2 17 3 18 4 19 5 20 6 21 7 22 8 23 9 24 10 25 11
REMARK SMILES IDX 26 12 27 13 28 14 29 15 30 16 14 17 13 18 12 19 11 20 10 21
REMARK SMILES IDX 9 22 8 23 7 24 6 25 5 26 4 27 3 28 2 29 1 30
REMARK H PARENT
REMARK Flexibility Score: inf
ROOT
ATOM      1  C   UNL     1     -53.727   9.933 -31.387  1.00  0.00     0.000 C 
ENDROOT
BRANCH   1   2
ATOM      2  C   UNL     1     -53.725  11.186 -30.494  1.00  0.00     0.000 C 
BRANCH   2   3
ATOM      3  C   UNL     1     -52.970  10.970 -29.171  1.00  0.00     0.000 C 
BRANCH   3   4
ATOM      4  C   UNL     1     -52.552  12.289 -28.482  1.00  0.00     0.000 C 
BRANCH   4   5
ATOM      5  C   UNL     1     -53.680  13.338 -28.505  1.00  0.00     0.000 C 
BRANCH   5   6
ATOM      6  C   UNL     1     -53.135  14.783 -28.512  1.00  0.00     0.000 C 
BRANCH   6   7
ATOM      7  C   UNL     1     -54.097  15.816 -27.901  1.00  0.00     0.000 C 
BRANCH   7   8
ATOM      8  C   UNL     1     -53.666  17.267 -28.167  1.00  0.00     0.000 C 
BRANCH   8   9
ATOM      9  C   UNL     1     -53.949  17.707 -29.614  1.00  0.00     0.000 C 
BRANCH   9  10
ATOM     10  C   UNL     1     -52.763  18.468 -30.232  1.00  0.00     0.000 C 
BRANCH  10  11
ATOM     11  C   UNL     1     -51.510  17.590 -30.402  1.00  0.00     0.000 C 
BRANCH  11  12
ATOM     12  C   UNL     1     -51.558  16.595 -31.577  1.00  0.00     0.006 C 
BRANCH  12  13
ATOM     13  C   UNL     1     -50.371  15.614 -31.621  1.00  0.00     0.053 C 
BRANCH  13  14
ATOM     14  C   UNL     1     -50.760  14.215 -31.247  1.00  0.00     0.041 C 
ATOM     15  O   UNL     1     -51.859  13.737 -31.633  1.00  0.00    -0.550 OA
ATOM     16  O   UNL     1     -49.930  13.458 -30.431  1.00  0.00    -0.550 OA
ENDBRANCH  13  14
ENDBRANCH  12  13
ENDBRANCH  11  12
ENDBRANCH  10  11
ENDBRANCH   9  10
ENDBRANCH   8   9
ENDBRANCH   7   8
ENDBRANCH   6   7
ENDBRANCH   5   6
ENDBRANCH   4   5
ENDBRANCH   3   4
ENDBRANCH   2   3
ENDBRANCH   1   2
BRANCH   1  17
ATOM     17  C   UNL     1     -53.541   8.637 -30.569  1.00  0.00     0.000 C 
BRANCH  17  18
ATOM     18  C   UNL     1     -52.948   7.471 -31.377  1.00  0.00     0.000 C 
BRANCH  18  19
ATOM     19  C   UNL     1     -52.566   7.872 -32.811  1.00  0.00     0.000 C 
BRANCH  19  20
ATOM     20  C   UNL     1     -52.418   6.668 -33.761  1.00  0.00     0.000 C 
BRANCH  20  21
ATOM     21  C   UNL     1     -51.068   5.929 -33.696  1.00  0.00     0.000 C 
BRANCH  21  22
ATOM     22  C   UNL     1     -49.961   6.744 -33.005  1.00  0.00    -0.000 C 
BRANCH  22  23
ATOM     23  C   UNL     1     -49.026   5.878 -32.140  1.00  0.00    -0.000 C 
BRANCH  23  24
ATOM     24  C   UNL     1     -48.865   6.335 -30.677  1.00  0.00    -0.000 C 
BRANCH  24  25
ATOM     25  C   UNL     1     -47.397   6.542 -30.271  1.00  0.00    -0.000 C 
BRANCH  25  26
ATOM     26  C   UNL     1     -47.201   7.735 -29.317  1.00  0.00    -0.000 C 
BRANCH  26  27
ATOM     27  C   UNL     1     -47.338   9.124 -29.968  1.00  0.00    -0.000 C 
BRANCH  27  28
ATOM     28  C   UNL     1     -48.430   9.989 -29.315  1.00  0.00    -0.000 C 
BRANCH  28  29
ATOM     29  C   UNL     1     -49.808   9.790 -29.963  1.00  0.00    -0.003 C 
ATOM     30  C   UNL     1     -49.789  10.031 -31.472  1.00  0.00     0.004 C 
ENDBRANCH  28  29
ENDBRANCH  27  28
ENDBRANCH  26  27
ENDBRANCH  25  26
ENDBRANCH  24  25
ENDBRANCH  23  24
ENDBRANCH  22  23
ENDBRANCH  21  22
ENDBRANCH  20  21
ENDBRANCH  19  20
ENDBRANCH  18  19
ENDBRANCH  17  18
ENDBRANCH   1  17
TORSDOF 26
ENDMDL
MODEL 7
REMARK VINA RESULT:    -3.894      1.529      3.246
REMARK INTER + INTRA:         -14.614
REMARK INTER:                 -10.856
REMARK INTRA:                  -3.758
REMARK UNBOUND:                -4.801
REMARK SMILES CCCCCCCCCCCCCCCCCCCCCCCCCCCC(=O)[O-]
REMARK SMILES IDX 15 1 16 2 17 3 18 4 19 5 20 6 21 7 22 8 23 9 24 10 25 11
REMARK SMILES IDX 26 12 27 13 28 14 29 15 30 16 14 17 13 18 12 19 11 20 10 21
REMARK SMILES IDX 9 22 8 23 7 24 6 25 5 26 4 27 3 28 2 29 1 30
REMARK H PARENT
REMARK Flexibility Score: inf
ROOT
ATOM      1  C   UNL     1     -47.947   9.938 -29.997  1.00  0.00     0.000 C 
ENDROOT
BRANCH   1   2
ATOM      2  C   UNL     1     -47.530   8.520 -29.573  1.00  0.00     0.000 C 
BRANCH   2   3
ATOM      3  C   UNL     1     -48.713   7.538 -29.543  1.00  0.00     0.000 C 
BRANCH   3   4
ATOM      4  C   UNL     1     -48.549   6.351 -30.519  1.00  0.00     0.000 C 
BRANCH   4   5
ATOM      5  C   UNL     1     -47.725   6.732 -31.762  1.00  0.00     0.000 C 
BRANCH   5   6
ATOM      6  C   UNL     1     -48.616   7.156 -32.949  1.00  0.00     0.000 C 
BRANCH   6   7
ATOM      7  C   UNL     1     -49.391   5.996 -33.596  1.00  0.00     0.000 C 
BRANCH   7   8
ATOM      8  C   UNL     1     -50.832   5.875 -33.077  1.00  0.00     0.000 C 
BRANCH   8   9
ATOM      9  C   UNL     1     -51.848   6.570 -34.001  1.00  0.00     0.000 C 
BRANCH   9  10
ATOM     10  C   UNL     1     -53.099   7.040 -33.240  1.00  0.00     0.000 C 
BRANCH  10  11
ATOM     11  C   UNL     1     -52.888   7.098 -31.717  1.00  0.00     0.000 C 
BRANCH  11  12
ATOM     12  C   UNL     1     -52.563   8.494 -31.150  1.00  0.00     0.006 C 
BRANCH  12  13
ATOM     13  C   UNL     1     -53.124   9.660 -31.988  1.00  0.00     0.053 C 
BRANCH  13  14
ATOM     14  C   UNL     1     -52.049  10.546 -32.542  1.00  0.00     0.041 C 
ATOM     15  O   UNL     1     -52.222  11.791 -32.609  1.00  0.00    -0.550 OA
ATOM     16  O   UNL     1     -50.873   9.988 -33.029  1.00  0.00    -0.550 OA
ENDBRANCH  13  14
ENDBRANCH  12  13
ENDBRANCH  11  12
ENDBRANCH  10  11
ENDBRANCH   9  10
ENDBRANCH   8   9
ENDBRANCH   7   8
ENDBRANCH   6   7
ENDBRANCH   5   6
ENDBRANCH   4   5
ENDBRANCH   3   4
ENDBRANCH   2   3
ENDBRANCH   1   2
BRANCH   1  17
ATOM     17  C   UNL     1     -49.414  10.246 -29.630  1.00  0.00     0.000 C 
BRANCH  17  18
ATOM     18  C   UNL     1     -49.862  11.671 -29.998  1.00  0.00     0.000 C 
BRANCH  18  19
ATOM     19  C   UNL     1     -50.889  12.247 -29.010  1.00  0.00     0.000 C 
BRANCH  19  20
ATOM     20  C   UNL     1     -52.209  11.455 -28.973  1.00  0.00     0.000 C 
BRANCH  20  21
ATOM     21  C   UNL     1     -53.481  12.262 -29.299  1.00  0.00     0.000 C 
BRANCH  21  22
ATOM     22  C   UNL     1     -53.189  13.711 -29.724  1.00  0.00    -0.000 C 
BRANCH  22  23
ATOM     23  C   UNL     1     -53.968  14.749 -28.895  1.00  0.00    -0.000 C 
BRANCH  23  24
ATOM     24  C   UNL     1     -53.122  15.580 -27.910  1.00  0.00    -0.000 C 
BRANCH  24  25
ATOM     25  C   UNL     1     -53.705  16.979 -27.651  1.00  0.00    -0.000 C 
BRANCH  25  26
ATOM     26  C   UNL     1     -52.923  18.097 -28.366  1.00  0.00    -0.000 C 
BRANCH  26  27
ATOM     27  C   UNL     1     -53.557  18.606 -29.673  1.00  0.00    -0.000 C 
BRANCH  27  28
ATOM     28  C   UNL     1     -52.742  18.230 -30.923  1.00  0.00    -0.000 C 
BRANCH  28  29
ATOM     29  C   UNL     1     -51.494  17.401 -30.586  1.00  0.00    -0.003 C 
ATOM     30  C   UNL     1     -51.191  16.336 -31.639  1.00  0.00     0.004 C 
ENDBRANCH  28  29
ENDBRANCH  27  28
ENDBRANCH  26  27
ENDBRANCH  25  26
ENDBRANCH  24  25
ENDBRANCH  23  24
ENDBRANCH  22  23
ENDBRANCH  21  22
ENDBRANCH  20  21
ENDBRANCH  19  20
ENDBRANCH  18  19
ENDBRANCH  17  18
ENDBRANCH   1  17
TORSDOF 26
ENDMDL
MODEL 8
REMARK VINA RESULT:    -3.843      2.866      8.346
REMARK INTER + INTRA:         -14.487
REMARK INTER:                 -10.668
REMARK INTRA:                  -3.818
REMARK UNBOUND:                -4.801
REMARK SMILES CCCCCCCCCCCCCCCCCCCCCCCCCCCC(=O)[O-]
REMARK SMILES IDX 15 1 16 2 17 3 18 4 19 5 20 6 21 7 22 8 23 9 24 10 25 11
REMARK SMILES IDX 26 12 27 13 28 14 29 15 30 16 14 17 13 18 12 19 11 20 10 21
REMARK SMILES IDX 9 22 8 23 7 24 6 25 5 26 4 27 3 28 2 29 1 30
REMARK H PARENT
REMARK Flexibility Score: inf
ROOT
ATOM      1  C   UNL     1     -49.648  12.196 -28.837  1.00  0.00     0.000 C 
ENDROOT
BRANCH   1   2
ATOM      2  C   UNL     1     -50.003  13.266 -29.883  1.00  0.00     0.000 C 
BRANCH   2   3
ATOM      3  C   UNL     1     -50.582  12.665 -31.174  1.00  0.00     0.000 C 
BRANCH   3   4
ATOM      4  C   UNL     1     -51.931  13.294 -31.592  1.00  0.00     0.000 C 
BRANCH   4   5
ATOM      5  C   UNL     1     -53.015  12.230 -31.844  1.00  0.00     0.000 C 
BRANCH   5   6
ATOM      6  C   UNL     1     -54.069  12.190 -30.716  1.00  0.00     0.000 C 
BRANCH   6   7
ATOM      7  C   UNL     1     -53.473  12.267 -29.300  1.00  0.00     0.000 C 
BRANCH   7   8
ATOM      8  C   UNL     1     -54.074  13.405 -28.459  1.00  0.00     0.000 C 
BRANCH   8   9
ATOM      9  C   UNL     1     -53.464  14.775 -28.806  1.00  0.00     0.000 C 
BRANCH   9  10
ATOM     10  C   UNL     1     -53.327  15.679 -27.569  1.00  0.00     0.000 C 
BRANCH  10  11
ATOM     11  C   UNL     1     -54.084  17.012 -27.713  1.00  0.00     0.000 C 
BRANCH  11  12
ATOM     12  C   UNL     1     -53.803  17.790 -29.014  1.00  0.00     0.006 C 
BRANCH  12  13
ATOM     13  C   UNL     1     -52.333  18.219 -29.187  1.00  0.00     0.053 C 
BRANCH  13  14
ATOM     14  C   UNL     1     -51.810  17.952 -30.566  1.00  0.00     0.041 C 
ATOM     15  O   UNL     1     -51.199  16.879 -30.818  1.00  0.00    -0.550 OA
ATOM     16  O   UNL     1     -51.955  18.910 -31.561  1.00  0.00    -0.550 OA
ENDBRANCH  13  14
ENDBRANCH  12  13
ENDBRANCH  11  12
ENDBRANCH  10  11
ENDBRANCH   9  10
ENDBRANCH   8   9
ENDBRANCH   7   8
ENDBRANCH   6   7
ENDBRANCH   5   6
ENDBRANCH   4   5
ENDBRANCH   3   4
ENDBRANCH   2   3
ENDBRANCH   1   2
BRANCH   1  17
ATOM     17  C   UNL     1     -48.501  11.278 -29.312  1.00  0.00     0.000 C 
BRANCH  17  18
ATOM     18  C   UNL     1     -48.859   9.781 -29.306  1.00  0.00     0.000 C 
BRANCH  18  19
ATOM     19  C   UNL     1     -49.798   9.387 -30.458  1.00  0.00     0.000 C 
BRANCH  19  20
ATOM     20  C   UNL     1     -50.977   8.505 -30.007  1.00  0.00     0.000 C 
BRANCH  20  21
ATOM     21  C   UNL     1     -52.310   8.745 -30.742  1.00  0.00     0.000 C 
BRANCH  21  22
ATOM     22  C   UNL     1     -52.155   8.815 -32.271  1.00  0.00    -0.000 C 
BRANCH  22  23
ATOM     23  C   UNL     1     -53.188   7.950 -33.020  1.00  0.00    -0.000 C 
BRANCH  23  24
ATOM     24  C   UNL     1     -52.602   6.968 -34.053  1.00  0.00    -0.000 C 
BRANCH  24  25
ATOM     25  C   UNL     1     -51.699   5.898 -33.418  1.00  0.00    -0.000 C 
BRANCH  25  26
ATOM     26  C   UNL     1     -50.227   6.020 -33.856  1.00  0.00    -0.000 C 
BRANCH  26  27
ATOM     27  C   UNL     1     -49.308   6.757 -32.864  1.00  0.00    -0.000 C 
BRANCH  27  28
ATOM     28  C   UNL     1     -48.869   5.875 -31.681  1.00  0.00    -0.000 C 
BRANCH  28  29
ATOM     29  C   UNL     1     -47.492   6.271 -31.129  1.00  0.00    -0.003 C 
ATOM     30  C   UNL     1     -47.411   6.154 -29.608  1.00  0.00     0.004 C 
ENDBRANCH  28  29
ENDBRANCH  27  28
ENDBRANCH  26  27
ENDBRANCH  25  26
ENDBRANCH  24  25
ENDBRANCH  23  24
ENDBRANCH  22  23
ENDBRANCH  21  22
ENDBRANCH  20  21
ENDBRANCH  19  20
ENDBRANCH  18  19
ENDBRANCH  17  18
ENDBRANCH   1  17
TORSDOF 26
ENDMDL
