MODEL 1
REMARK VINA RESULT:    -6.559      0.000      0.000
REMARK INTER + INTRA:          -8.041
REMARK INTER:                  -7.902
REMARK INTRA:                  -0.140
REMARK UNBOUND:                -0.140
REMARK SMILES O=c1c(O)c(-c2ccc(O)c(O)c2)oc2cc(O)cc(O)c12
REMARK SMILES IDX 5 1 3 2 2 3 1 4 22 5 20 6 19 7 17 8 16 9 15 10 14 11 6 12
REMARK SMILES IDX 7 13 8 14 9 15 13 16 11 17 10 18 12 20 4 22 21 24 18 26
REMARK H PARENT 10 19 12 21 4 23 21 25 18 27
REMARK Flexibility Score: inf
ROOT
ATOM      1  C   UNL     1      -6.774  63.109  -9.143  1.00  0.00     0.180 A 
ATOM      2  C   UNL     1      -7.356  63.651  -7.981  1.00  0.00     0.208 A 
ATOM      3  C   UNL     1      -8.201  64.766  -8.102  1.00  0.00     0.238 A 
ATOM      4  O   UNL     1      -8.719  65.266  -7.067  1.00  0.00    -0.285 OA
ATOM      5  C   UNL     1      -8.465  65.306  -9.378  1.00  0.00     0.111 A 
ATOM      6  C   UNL     1      -9.307  66.425  -9.586  1.00  0.00     0.134 A 
ATOM      7  C   UNL     1      -9.526  66.897 -10.889  1.00  0.00     0.093 A 
ATOM      8  C   UNL     1      -8.920  66.272 -11.985  1.00  0.00     0.123 A 
ATOM      9  C   UNL     1      -8.090  65.168 -11.784  1.00  0.00     0.094 A 
ATOM     10  C   UNL     1      -7.857  64.683 -10.494  1.00  0.00     0.146 A 
ATOM     11  O   UNL     1      -7.057  63.636 -10.331  1.00  0.00    -0.452 OA
ENDROOT
BRANCH   1  12
ATOM     12  C   UNL     1      -5.858  61.946  -9.096  1.00  0.00     0.025 A 
ATOM     13  C   UNL     1      -6.165  60.795  -9.838  1.00  0.00     0.016 A 
ATOM     14  C   UNL     1      -5.305  59.695  -9.825  1.00  0.00     0.051 A 
ATOM     15  C   UNL     1      -4.120  59.732  -9.084  1.00  0.00     0.157 A 
ATOM     16  C   UNL     1      -4.656  61.990  -8.368  1.00  0.00     0.062 A 
ATOM     17  C   UNL     1      -3.789  60.887  -8.355  1.00  0.00     0.158 A 
BRANCH  15  18
ATOM     18  O   UNL     1      -3.282  58.617  -9.087  1.00  0.00    -0.504 OA
ATOM     19  H   UNL     1      -3.543  57.749  -9.541  1.00  0.00     0.293 HD
ENDBRANCH  15  18
BRANCH  17  20
ATOM     20  O   UNL     1      -2.602  60.937  -7.625  1.00  0.00    -0.504 OA
ATOM     21  H   UNL     1      -2.526  61.478  -6.772  1.00  0.00     0.293 HD
ENDBRANCH  17  20
ENDBRANCH   1  12
BRANCH   2  22
ATOM     22  O   UNL     1      -7.118  63.067  -6.734  1.00  0.00    -0.502 OA
ATOM     23  H   UNL     1      -6.264  62.564  -6.525  1.00  0.00     0.293 HD
ENDBRANCH   2  22
BRANCH   6  24
ATOM     24  O   UNL     1      -9.924  67.069  -8.514  1.00  0.00    -0.507 OA
ATOM     25  H   UNL     1      -9.408  67.673  -7.885  1.00  0.00     0.293 HD
ENDBRANCH   6  24
BRANCH   8  26
ATOM     26  O   UNL     1      -9.139  66.740 -13.278  1.00  0.00    -0.508 OA
ATOM     27  H   UNL     1      -9.992  66.529 -13.782  1.00  0.00     0.293 HD
ENDBRANCH   8  26
TORSDOF 6
ENDMDL
MODEL 2
REMARK VINA RESULT:    -6.195      8.960     14.307
REMARK INTER + INTRA:          -7.603
REMARK INTER:                  -7.374
REMARK INTRA:                  -0.228
REMARK UNBOUND:                -0.140
REMARK SMILES O=c1c(O)c(-c2ccc(O)c(O)c2)oc2cc(O)cc(O)c12
REMARK SMILES IDX 5 1 3 2 2 3 1 4 22 5 20 6 19 7 17 8 16 9 15 10 14 11 6 12
REMARK SMILES IDX 7 13 8 14 9 15 13 16 11 17 10 18 12 20 4 22 21 24 18 26
REMARK H PARENT 10 19 12 21 4 23 21 25 18 27
REMARK Flexibility Score: inf
ROOT
ATOM      1  C   UNL     1       0.753  54.301 -11.076  1.00  0.00     0.180 A 
ATOM      2  C   UNL     1       0.785  54.316 -12.485  1.00  0.00     0.208 A 
ATOM      3  C   UNL     1       1.370  53.233 -13.161  1.00  0.00     0.238 A 
ATOM      4  O   UNL     1       1.414  53.241 -14.421  1.00  0.00    -0.285 OA
ATOM      5  C   UNL     1       1.890  52.150 -12.424  1.00  0.00     0.111 A 
ATOM      6  C   UNL     1       2.491  51.019 -13.029  1.00  0.00     0.134 A 
ATOM      7  C   UNL     1       2.978  49.977 -12.226  1.00  0.00     0.093 A 
ATOM      8  C   UNL     1       2.875  50.044 -10.832  1.00  0.00     0.123 A 
ATOM      9  C   UNL     1       2.283  51.156 -10.231  1.00  0.00     0.094 A 
ATOM     10  C   UNL     1       1.793  52.207 -11.013  1.00  0.00     0.146 A 
ATOM     11  O   UNL     1       1.240  53.255 -10.416  1.00  0.00    -0.452 OA
ENDROOT
BRANCH   1  12
ATOM     12  C   UNL     1       0.171  55.413 -10.291  1.00  0.00     0.025 A 
ATOM     13  C   UNL     1      -0.984  55.188  -9.525  1.00  0.00     0.016 A 
ATOM     14  C   UNL     1      -1.537  56.217  -8.760  1.00  0.00     0.051 A 
ATOM     15  C   UNL     1      -0.939  57.481  -8.736  1.00  0.00     0.157 A 
ATOM     16  C   UNL     1       0.784  56.679 -10.249  1.00  0.00     0.062 A 
ATOM     17  C   UNL     1       0.230  57.714  -9.480  1.00  0.00     0.158 A 
BRANCH  15  18
ATOM     18  O   UNL     1      -1.516  58.490  -7.965  1.00  0.00    -0.504 OA
ATOM     19  H   UNL     1      -1.777  59.386  -8.359  1.00  0.00     0.293 HD
ENDBRANCH  15  18
BRANCH  17  20
ATOM     20  O   UNL     1       0.840  58.967  -9.449  1.00  0.00    -0.504 OA
ATOM     21  H   UNL     1       1.806  59.080  -9.163  1.00  0.00     0.293 HD
ENDBRANCH  17  20
ENDBRANCH   1  12
BRANCH   2  22
ATOM     22  O   UNL     1       0.218  55.378 -13.192  1.00  0.00    -0.502 OA
ATOM     23  H   UNL     1      -0.645  55.823 -12.903  1.00  0.00     0.293 HD
ENDBRANCH   2  22
BRANCH   6  24
ATOM     24  O   UNL     1       2.609  50.924 -14.416  1.00  0.00    -0.507 OA
ATOM     25  H   UNL     1       1.922  50.435 -14.978  1.00  0.00     0.293 HD
ENDBRANCH   6  24
BRANCH   8  26
ATOM     26  O   UNL     1       3.357  49.009 -10.034  1.00  0.00    -0.508 OA
ATOM     27  H   UNL     1       4.147  49.141  -9.414  1.00  0.00     0.293 HD
ENDBRANCH   8  26
TORSDOF 6
ENDMDL
MODEL 3
REMARK VINA RESULT:    -5.811      3.811      6.512
REMARK INTER + INTRA:          -7.140
REMARK INTER:                  -6.845
REMARK INTRA:                  -0.294
REMARK UNBOUND:                -0.140
REMARK SMILES O=c1c(O)c(-c2ccc(O)c(O)c2)oc2cc(O)cc(O)c12
REMARK SMILES IDX 5 1 3 2 2 3 1 4 22 5 20 6 19 7 17 8 16 9 15 10 14 11 6 12
REMARK SMILES IDX 7 13 8 14 9 15 13 16 11 17 10 18 12 20 4 22 21 24 18 26
REMARK H PARENT 10 19 12 21 4 23 21 25 18 27
REMARK Flexibility Score: inf
ROOT
ATOM      1  C   UNL     1      -3.795  63.442  -6.519  1.00  0.00     0.180 A 
ATOM      2  C   UNL     1      -3.084  62.257  -6.794  1.00  0.00     0.208 A 
ATOM      3  C   UNL     1      -3.650  61.315  -7.669  1.00  0.00     0.238 A 
ATOM      4  O   UNL     1      -3.028  60.246  -7.914  1.00  0.00    -0.285 OA
ATOM      5  C   UNL     1      -4.899  61.581  -8.267  1.00  0.00     0.111 A 
ATOM      6  C   UNL     1      -5.535  60.686  -9.161  1.00  0.00     0.134 A 
ATOM      7  C   UNL     1      -6.774  61.027  -9.722  1.00  0.00     0.093 A 
ATOM      8  C   UNL     1      -7.389  62.244  -9.405  1.00  0.00     0.123 A 
ATOM      9  C   UNL     1      -6.766  63.129  -8.524  1.00  0.00     0.094 A 
ATOM     10  C   UNL     1      -5.531  62.808  -7.953  1.00  0.00     0.146 A 
ATOM     11  O   UNL     1      -4.964  63.665  -7.114  1.00  0.00    -0.452 OA
ENDROOT
BRANCH   1  12
ATOM     12  C   UNL     1      -3.274  64.475  -5.594  1.00  0.00     0.025 A 
ATOM     13  C   UNL     1      -2.316  65.393  -6.053  1.00  0.00     0.016 A 
ATOM     14  C   UNL     1      -1.827  66.388  -5.203  1.00  0.00     0.051 A 
ATOM     15  C   UNL     1      -2.297  66.492  -3.891  1.00  0.00     0.157 A 
ATOM     16  C   UNL     1      -3.762  64.594  -4.280  1.00  0.00     0.062 A 
ATOM     17  C   UNL     1      -3.274  65.594  -3.427  1.00  0.00     0.158 A 
BRANCH  15  18
ATOM     18  O   UNL     1      -1.789  67.495  -3.066  1.00  0.00    -0.504 OA
ATOM     19  H   UNL     1      -1.075  67.309  -2.370  1.00  0.00     0.293 HD
ENDBRANCH  15  18
BRANCH  17  20
ATOM     20  O   UNL     1      -3.758  65.701  -2.123  1.00  0.00    -0.504 OA
ATOM     21  H   UNL     1      -3.660  66.557  -1.589  1.00  0.00     0.293 HD
ENDBRANCH  17  20
ENDBRANCH   1  12
BRANCH   2  22
ATOM     22  O   UNL     1      -1.826  62.041  -6.228  1.00  0.00    -0.502 OA
ATOM     23  H   UNL     1      -0.996  61.897  -6.790  1.00  0.00     0.293 HD
ENDBRANCH   2  22
BRANCH   6  24
ATOM     24  O   UNL     1      -4.947  59.466  -9.496  1.00  0.00    -0.507 OA
ATOM     25  H   UNL     1      -4.018  59.216  -9.178  1.00  0.00     0.293 HD
ENDBRANCH   6  24
BRANCH   8  26
ATOM     26  O   UNL     1      -8.620  62.584  -9.962  1.00  0.00    -0.508 OA
ATOM     27  H   UNL     1      -8.685  63.067 -10.851  1.00  0.00     0.293 HD
ENDBRANCH   8  26
TORSDOF 6
ENDMDL
MODEL 4
REMARK VINA RESULT:    -5.801     10.394     13.590
REMARK INTER + INTRA:          -7.127
REMARK INTER:                  -6.794
REMARK INTRA:                  -0.333
REMARK UNBOUND:                -0.140
REMARK SMILES O=c1c(O)c(-c2ccc(O)c(O)c2)oc2cc(O)cc(O)c12
REMARK SMILES IDX 5 1 3 2 2 3 1 4 22 5 20 6 19 7 17 8 16 9 15 10 14 11 6 12
REMARK SMILES IDX 7 13 8 14 9 15 13 16 11 17 10 18 12 20 4 22 21 24 18 26
REMARK H PARENT 10 19 12 21 4 23 21 25 18 27
REMARK Flexibility Score: inf
ROOT
ATOM      1  C   UNL     1       1.300  55.008 -10.737  1.00  0.00     0.180 A 
ATOM      2  C   UNL     1       1.893  56.069 -11.449  1.00  0.00     0.208 A 
ATOM      3  C   UNL     1       2.559  55.789 -12.653  1.00  0.00     0.238 A 
ATOM      4  O   UNL     1       3.103  56.729 -13.293  1.00  0.00    -0.285 OA
ATOM      5  C   UNL     1       2.602  54.464 -13.134  1.00  0.00     0.111 A 
ATOM      6  C   UNL     1       3.248  54.099 -14.340  1.00  0.00     0.134 A 
ATOM      7  C   UNL     1       3.240  52.760 -14.755  1.00  0.00     0.093 A 
ATOM      8  C   UNL     1       2.598  51.780 -13.989  1.00  0.00     0.123 A 
ATOM      9  C   UNL     1       1.960  52.135 -12.800  1.00  0.00     0.094 A 
ATOM     10  C   UNL     1       1.958  53.465 -12.367  1.00  0.00     0.146 A 
ATOM     11  O   UNL     1       1.348  53.773 -11.229  1.00  0.00    -0.452 OA
ENDROOT
BRANCH   1  12
ATOM     12  C   UNL     1       0.596  55.219  -9.451  1.00  0.00     0.025 A 
ATOM     13  C   UNL     1      -0.799  55.374  -9.444  1.00  0.00     0.016 A 
ATOM     14  C   UNL     1      -1.485  55.553  -8.240  1.00  0.00     0.051 A 
ATOM     15  C   UNL     1      -0.792  55.566  -7.026  1.00  0.00     0.157 A 
ATOM     16  C   UNL     1       1.290  55.211  -8.227  1.00  0.00     0.062 A 
ATOM     17  C   UNL     1       0.603  55.389  -7.017  1.00  0.00     0.158 A 
BRANCH  15  18
ATOM     18  O   UNL     1      -1.503  55.749  -5.841  1.00  0.00    -0.504 OA
ATOM     19  H   UNL     1      -1.044  55.977  -4.967  1.00  0.00     0.293 HD
ENDBRANCH  15  18
BRANCH  17  20
ATOM     20  O   UNL     1       1.298  55.385  -5.809  1.00  0.00    -0.504 OA
ATOM     21  H   UNL     1       2.269  55.670  -5.755  1.00  0.00     0.293 HD
ENDBRANCH  17  20
ENDBRANCH   1  12
BRANCH   2  22
ATOM     22  O   UNL     1       1.793  57.379 -10.975  1.00  0.00    -0.502 OA
ATOM     23  H   UNL     1       2.399  58.122 -11.302  1.00  0.00     0.293 HD
ENDBRANCH   2  22
BRANCH   6  24
ATOM     24  O   UNL     1       3.897  55.053 -15.125  1.00  0.00    -0.507 OA
ATOM     25  H   UNL     1       4.694  54.816 -15.704  1.00  0.00     0.293 HD
ENDBRANCH   6  24
BRANCH   8  26
ATOM     26  O   UNL     1       2.589  50.450 -14.402  1.00  0.00    -0.508 OA
ATOM     27  H   UNL     1       2.820  50.188 -15.353  1.00  0.00     0.293 HD
ENDBRANCH   8  26
TORSDOF 6
ENDMDL
MODEL 5
REMARK VINA RESULT:    -5.666     10.762     12.169
REMARK INTER + INTRA:          -6.965
REMARK INTER:                  -6.671
REMARK INTRA:                  -0.295
REMARK UNBOUND:                -0.140
REMARK SMILES O=c1c(O)c(-c2ccc(O)c(O)c2)oc2cc(O)cc(O)c12
REMARK SMILES IDX 5 1 3 2 2 3 1 4 22 5 20 6 19 7 17 8 16 9 15 10 14 11 6 12
REMARK SMILES IDX 7 13 8 14 9 15 13 16 11 17 10 18 12 20 4 22 21 24 18 26
REMARK H PARENT 10 19 12 21 4 23 21 25 18 27
REMARK Flexibility Score: inf
ROOT
ATOM      1  C   UNL     1      -3.093  63.065   1.198  1.00  0.00     0.180 A 
ATOM      2  C   UNL     1      -4.138  63.391   2.086  1.00  0.00     0.208 A 
ATOM      3  C   UNL     1      -5.254  62.542   2.159  1.00  0.00     0.238 A 
ATOM      4  O   UNL     1      -6.200  62.828   2.941  1.00  0.00    -0.285 OA
ATOM      5  C   UNL     1      -5.298  61.378   1.365  1.00  0.00     0.111 A 
ATOM      6  C   UNL     1      -6.383  60.469   1.382  1.00  0.00     0.134 A 
ATOM      7  C   UNL     1      -6.348  59.328   0.567  1.00  0.00     0.093 A 
ATOM      8  C   UNL     1      -5.249  59.079  -0.263  1.00  0.00     0.123 A 
ATOM      9  C   UNL     1      -4.178  59.972  -0.284  1.00  0.00     0.094 A 
ATOM     10  C   UNL     1      -4.193  61.116   0.519  1.00  0.00     0.146 A 
ATOM     11  O   UNL     1      -3.163  61.951   0.475  1.00  0.00    -0.452 OA
ENDROOT
BRANCH   1  12
ATOM     12  C   UNL     1      -1.892  63.919   1.050  1.00  0.00     0.025 A 
ATOM     13  C   UNL     1      -1.966  65.086   0.273  1.00  0.00     0.016 A 
ATOM     14  C   UNL     1      -0.851  65.917   0.138  1.00  0.00     0.051 A 
ATOM     15  C   UNL     1       0.347  65.605   0.787  1.00  0.00     0.157 A 
ATOM     16  C   UNL     1      -0.692  63.618   1.720  1.00  0.00     0.062 A 
ATOM     17  C   UNL     1       0.428  64.453   1.587  1.00  0.00     0.158 A 
BRANCH  15  18
ATOM     18  O   UNL     1       1.444  66.453   0.631  1.00  0.00    -0.504 OA
ATOM     19  H   UNL     1       2.184  66.507   1.320  1.00  0.00     0.293 HD
ENDBRANCH  15  18
BRANCH  17  20
ATOM     20  O   UNL     1       1.615  64.143   2.249  1.00  0.00    -0.504 OA
ATOM     21  H   UNL     1       1.744  63.256   2.721  1.00  0.00     0.293 HD
ENDBRANCH  17  20
ENDBRANCH   1  12
BRANCH   2  22
ATOM     22  O   UNL     1      -4.046  64.523   2.898  1.00  0.00    -0.502 OA
ATOM     23  H   UNL     1      -3.316  64.636   3.592  1.00  0.00     0.293 HD
ENDBRANCH   2  22
BRANCH   6  24
ATOM     24  O   UNL     1      -7.492  60.690   2.199  1.00  0.00    -0.507 OA
ATOM     25  H   UNL     1      -7.460  60.530   3.199  1.00  0.00     0.293 HD
ENDBRANCH   6  24
BRANCH   8  26
ATOM     26  O   UNL     1      -5.214  57.945  -1.072  1.00  0.00    -0.508 OA
ATOM     27  H   UNL     1      -5.791  57.866  -1.901  1.00  0.00     0.293 HD
ENDBRANCH   8  26
TORSDOF 6
ENDMDL
MODEL 6
REMARK VINA RESULT:    -5.622     10.192     11.946
REMARK INTER + INTRA:          -6.912
REMARK INTER:                  -6.653
REMARK INTRA:                  -0.260
REMARK UNBOUND:                -0.140
REMARK SMILES O=c1c(O)c(-c2ccc(O)c(O)c2)oc2cc(O)cc(O)c12
REMARK SMILES IDX 5 1 3 2 2 3 1 4 22 5 20 6 19 7 17 8 16 9 15 10 14 11 6 12
REMARK SMILES IDX 7 13 8 14 9 15 13 16 11 17 10 18 12 20 4 22 21 24 18 26
REMARK H PARENT 10 19 12 21 4 23 21 25 18 27
REMARK Flexibility Score: inf
ROOT
ATOM      1  C   UNL     1      -2.713  63.865   0.862  1.00  0.00     0.180 A 
ATOM      2  C   UNL     1      -1.611  63.904   1.740  1.00  0.00     0.208 A 
ATOM      3  C   UNL     1      -0.511  64.712   1.410  1.00  0.00     0.238 A 
ATOM      4  O   UNL     1       0.485  64.747   2.183  1.00  0.00    -0.285 OA
ATOM      5  C   UNL     1      -0.538  65.479   0.228  1.00  0.00     0.111 A 
ATOM      6  C   UNL     1       0.527  66.321  -0.173  1.00  0.00     0.134 A 
ATOM      7  C   UNL     1       0.420  67.060  -1.361  1.00  0.00     0.093 A 
ATOM      8  C   UNL     1      -0.731  66.973  -2.153  1.00  0.00     0.123 A 
ATOM      9  C   UNL     1      -1.783  66.144  -1.761  1.00  0.00     0.094 A 
ATOM     10  C   UNL     1      -1.696  65.398  -0.582  1.00  0.00     0.146 A 
ATOM     11  O   UNL     1      -2.709  64.613  -0.237  1.00  0.00    -0.452 OA
ENDROOT
BRANCH   1  12
ATOM     12  C   UNL     1      -3.902  63.023   1.129  1.00  0.00     0.025 A 
ATOM     13  C   UNL     1      -4.062  61.814   0.435  1.00  0.00     0.016 A 
ATOM     14  C   UNL     1      -5.165  60.995   0.687  1.00  0.00     0.051 A 
ATOM     15  C   UNL     1      -6.115  61.361   1.645  1.00  0.00     0.157 A 
ATOM     16  C   UNL     1      -4.846  63.381   2.108  1.00  0.00     0.062 A 
ATOM     17  C   UNL     1      -5.954  62.558   2.364  1.00  0.00     0.158 A 
BRANCH  15  18
ATOM     18  O   UNL     1      -7.207  60.525   1.873  1.00  0.00    -0.504 OA
ATOM     19  H   UNL     1      -7.368  59.688   1.325  1.00  0.00     0.293 HD
ENDBRANCH  15  18
BRANCH  17  20
ATOM     20  O   UNL     1      -6.889  62.923   3.332  1.00  0.00    -0.504 OA
ATOM     21  H   UNL     1      -6.673  62.882   4.321  1.00  0.00     0.293 HD
ENDBRANCH  17  20
ENDBRANCH   1  12
BRANCH   2  22
ATOM     22  O   UNL     1      -1.630  63.173   2.929  1.00  0.00    -0.502 OA
ATOM     23  H   UNL     1      -2.202  62.344   3.048  1.00  0.00     0.293 HD
ENDBRANCH   2  22
BRANCH   6  24
ATOM     24  O   UNL     1       1.686  66.429   0.595  1.00  0.00    -0.507 OA
ATOM     25  H   UNL     1       2.548  65.966   0.330  1.00  0.00     0.293 HD
ENDBRANCH   6  24
BRANCH   8  26
ATOM     26  O   UNL     1      -0.838  67.707  -3.332  1.00  0.00    -0.508 OA
ATOM     27  H   UNL     1      -0.568  68.683  -3.375  1.00  0.00     0.293 HD
ENDBRANCH   8  26
TORSDOF 6
ENDMDL
MODEL 7
REMARK VINA RESULT:    -5.562      4.498      6.897
REMARK INTER + INTRA:          -6.840
REMARK INTER:                  -6.549
REMARK INTRA:                  -0.291
REMARK UNBOUND:                -0.140
REMARK SMILES O=c1c(O)c(-c2ccc(O)c(O)c2)oc2cc(O)cc(O)c12
REMARK SMILES IDX 5 1 3 2 2 3 1 4 22 5 20 6 19 7 17 8 16 9 15 10 14 11 6 12
REMARK SMILES IDX 7 13 8 14 9 15 13 16 11 17 10 18 12 20 4 22 21 24 18 26
REMARK H PARENT 10 19 12 21 4 23 21 25 18 27
REMARK Flexibility Score: inf
ROOT
ATOM      1  C   UNL     1      -3.142  63.197  -5.383  1.00  0.00     0.180 A 
ATOM      2  C   UNL     1      -2.547  62.243  -6.233  1.00  0.00     0.208 A 
ATOM      3  C   UNL     1      -3.297  61.729  -7.303  1.00  0.00     0.238 A 
ATOM      4  O   UNL     1      -2.779  60.867  -8.064  1.00  0.00    -0.285 OA
ATOM      5  C   UNL     1      -4.612  62.188  -7.518  1.00  0.00     0.111 A 
ATOM      6  C   UNL     1      -5.431  61.724  -8.576  1.00  0.00     0.134 A 
ATOM      7  C   UNL     1      -6.728  62.237  -8.728  1.00  0.00     0.093 A 
ATOM      8  C   UNL     1      -7.219  63.205  -7.844  1.00  0.00     0.123 A 
ATOM      9  C   UNL     1      -6.415  63.665  -6.801  1.00  0.00     0.094 A 
ATOM     10  C   UNL     1      -5.121  63.165  -6.630  1.00  0.00     0.146 A 
ATOM     11  O   UNL     1      -4.380  63.617  -5.626  1.00  0.00    -0.452 OA
ENDROOT
BRANCH   1  12
ATOM     12  C   UNL     1      -2.424  63.772  -4.223  1.00  0.00     0.025 A 
ATOM     13  C   UNL     1      -2.310  63.024  -3.041  1.00  0.00     0.016 A 
ATOM     14  C   UNL     1      -1.618  63.539  -1.941  1.00  0.00     0.051 A 
ATOM     15  C   UNL     1      -1.019  64.799  -2.010  1.00  0.00     0.157 A 
ATOM     16  C   UNL     1      -1.803  65.032  -4.298  1.00  0.00     0.062 A 
ATOM     17  C   UNL     1      -1.106  65.550  -3.195  1.00  0.00     0.158 A 
BRANCH  15  18
ATOM     18  O   UNL     1      -0.338  65.289  -0.895  1.00  0.00    -0.504 OA
ATOM     19  H   UNL     1      -0.591  65.023   0.049  1.00  0.00     0.293 HD
ENDBRANCH  15  18
BRANCH  17  20
ATOM     20  O   UNL     1      -0.499  66.802  -3.276  1.00  0.00    -0.504 OA
ATOM     21  H   UNL     1      -0.305  67.352  -2.447  1.00  0.00     0.293 HD
ENDBRANCH  17  20
ENDBRANCH   1  12
BRANCH   2  22
ATOM     22  O   UNL     1      -1.225  61.842  -6.028  1.00  0.00    -0.502 OA
ATOM     23  H   UNL     1      -0.935  60.874  -6.100  1.00  0.00     0.293 HD
ENDBRANCH   2  22
BRANCH   6  24
ATOM     24  O   UNL     1      -4.969  60.760  -9.472  1.00  0.00    -0.507 OA
ATOM     25  H   UNL     1      -5.414  59.854  -9.558  1.00  0.00     0.293 HD
ENDBRANCH   6  24
BRANCH   8  26
ATOM     26  O   UNL     1      -8.506  63.715  -7.995  1.00  0.00    -0.508 OA
ATOM     27  H   UNL     1      -9.326  63.156  -7.790  1.00  0.00     0.293 HD
ENDBRANCH   8  26
TORSDOF 6
ENDMDL
MODEL 8
REMARK VINA RESULT:    -5.560      2.574      8.011
REMARK INTER + INTRA:          -6.838
REMARK INTER:                  -6.950
REMARK INTRA:                   0.112
REMARK UNBOUND:                -0.140
REMARK SMILES O=c1c(O)c(-c2ccc(O)c(O)c2)oc2cc(O)cc(O)c12
REMARK SMILES IDX 5 1 3 2 2 3 1 4 22 5 20 6 19 7 17 8 16 9 15 10 14 11 6 12
REMARK SMILES IDX 7 13 8 14 9 15 13 16 11 17 10 18 12 20 4 22 21 24 18 26
REMARK H PARENT 10 19 12 21 4 23 21 25 18 27
REMARK Flexibility Score: inf
ROOT
ATOM      1  C   UNL     1      -4.069  61.480  -8.219  1.00  0.00     0.180 A 
ATOM      2  C   UNL     1      -3.999  60.228  -8.861  1.00  0.00     0.208 A 
ATOM      3  C   UNL     1      -2.744  59.620  -9.027  1.00  0.00     0.238 A 
ATOM      4  O   UNL     1      -2.668  58.505  -9.611  1.00  0.00    -0.285 OA
ATOM      5  C   UNL     1      -1.589  60.259  -8.532  1.00  0.00     0.111 A 
ATOM      6  C   UNL     1      -0.289  59.712  -8.655  1.00  0.00     0.134 A 
ATOM      7  C   UNL     1       0.810  60.406  -8.127  1.00  0.00     0.093 A 
ATOM      8  C   UNL     1       0.634  61.635  -7.481  1.00  0.00     0.123 A 
ATOM      9  C   UNL     1      -0.646  62.178  -7.358  1.00  0.00     0.094 A 
ATOM     10  C   UNL     1      -1.755  61.503  -7.878  1.00  0.00     0.146 A 
ATOM     11  O   UNL     1      -2.960  62.045  -7.752  1.00  0.00    -0.452 OA
ENDROOT
BRANCH   1  12
ATOM     12  C   UNL     1      -5.352  62.193  -8.023  1.00  0.00     0.025 A 
ATOM     13  C   UNL     1      -5.569  62.910  -6.836  1.00  0.00     0.016 A 
ATOM     14  C   UNL     1      -6.763  63.608  -6.640  1.00  0.00     0.051 A 
ATOM     15  C   UNL     1      -7.751  63.612  -7.629  1.00  0.00     0.157 A 
ATOM     16  C   UNL     1      -6.338  62.215  -9.026  1.00  0.00     0.062 A 
ATOM     17  C   UNL     1      -7.537  62.916  -8.831  1.00  0.00     0.158 A 
BRANCH  15  18
ATOM     18  O   UNL     1      -8.934  64.315  -7.403  1.00  0.00    -0.504 OA
ATOM     19  H   UNL     1      -9.186  64.665  -6.486  1.00  0.00     0.293 HD
ENDBRANCH  15  18
BRANCH  17  20
ATOM     20  O   UNL     1      -8.512  62.928  -9.828  1.00  0.00    -0.504 OA
ATOM     21  H   UNL     1      -8.301  63.229 -10.772  1.00  0.00     0.293 HD
ENDBRANCH  17  20
ENDBRANCH   1  12
BRANCH   2  22
ATOM     22  O   UNL     1      -5.164  59.593  -9.298  1.00  0.00    -0.502 OA
ATOM     23  H   UNL     1      -5.153  58.677  -9.731  1.00  0.00     0.293 HD
ENDBRANCH   2  22
BRANCH   6  24
ATOM     24  O   UNL     1      -0.081  58.490  -9.294  1.00  0.00    -0.507 OA
ATOM     25  H   UNL     1      -0.752  58.109  -9.950  1.00  0.00     0.293 HD
ENDBRANCH   6  24
BRANCH   8  26
ATOM     26  O   UNL     1       1.725  62.324  -6.956  1.00  0.00    -0.508 OA
ATOM     27  H   UNL     1       2.278  61.942  -6.198  1.00  0.00     0.293 HD
ENDBRANCH   8  26
TORSDOF 6
ENDMDL
