MODEL 1
REMARK VINA RESULT:    -7.389      0.000      0.000
REMARK INTER + INTRA:          -8.116
REMARK INTER:                  -8.037
REMARK INTRA:                  -0.079
REMARK UNBOUND:                -0.079
REMARK SMILES C[C@H]1[C@H]2C3=CC[C@H]4[C@]5(C)CC[C@H](O)C(C)(C)[C@@H]5CC[C@]4(C)[C@]3(C)CC[C@@]2(C(=O)[O-])CC[C@@H]1C
REMARK SMILES IDX 26 1 30 2 25 3 3 4 31 5 24 6 4 7 2 8 32 9 22 10 5 11 1 12
REMARK SMILES IDX 33 13 23 14 20 15 6 16 7 17 19 18 21 19 8 20 18 21 17 22
REMARK SMILES IDX 10 23 9 24 14 25 11 26 12 27 15 28 16 29 27 30 28 31 29 32
REMARK SMILES IDX 13 33
REMARK H PARENT 13 34
REMARK Flexibility Score: inf
ROOT
ATOM      1  C   UNL     1      25.478  34.892  24.864  1.00  0.00     0.017 C 
ATOM      2  C   UNL     1      23.989  35.355  24.822  1.00  0.00     0.014 C 
ATOM      3  C   UNL     1      26.328  35.783  23.887  1.00  0.00     0.014 C 
ATOM      4  C   UNL     1      25.526  33.367  24.477  1.00  0.00     0.030 C 
ATOM      5  C   UNL     1      23.071  34.522  25.730  1.00  0.00     0.004 C 
ATOM      6  C   UNL     1      27.192  34.974  22.903  1.00  0.00     0.013 C 
ATOM      7  C   UNL     1      25.402  33.182  22.947  1.00  0.00    -0.063 C 
ATOM      8  C   UNL     1      24.598  32.524  25.420  1.00  0.00    -0.003 C 
ATOM      9  C   UNL     1      23.126  33.019  25.386  1.00  0.00    -0.011 C 
ATOM     10  C   UNL     1      26.338  33.989  22.033  1.00  0.00    -0.006 C 
ATOM     11  C   UNL     1      24.613  32.250  22.355  1.00  0.00    -0.027 C 
ATOM     12  C   UNL     1      24.773  30.994  25.260  1.00  0.00     0.008 C 
ATOM     13  C   UNL     1      22.235  32.243  26.371  1.00  0.00     0.008 C 
ATOM     14  C   UNL     1      25.399  34.905  21.160  1.00  0.00     0.017 C 
ATOM     15  C   UNL     1      27.249  32.986  21.119  1.00  0.00    -0.020 C 
ATOM     16  C   UNL     1      24.994  31.691  21.001  1.00  0.00     0.032 C 
ATOM     17  C   UNL     1      26.539  31.582  20.958  1.00  0.00     0.006 C 
ATOM     18  C   UNL     1      28.628  32.635  21.777  1.00  0.00     0.008 C 
ATOM     19  C   UNL     1      27.539  33.697  19.759  1.00  0.00     0.012 C 
ATOM     20  C   UNL     1      27.190  30.563  19.925  1.00  0.00    -0.025 C 
ATOM     21  C   UNL     1      29.274  31.280  21.348  1.00  0.00     0.005 C 
ATOM     22  C   UNL     1      28.790  30.676  19.988  1.00  0.00     0.003 C 
ATOM     23  C   UNL     1      26.698  29.127  20.330  1.00  0.00     0.010 C 
ATOM     24  C   UNL     1      26.673  30.864  18.485  1.00  0.00     0.012 C 
ATOM     25  C   UNL     1      29.604  29.378  19.536  1.00  0.00    -0.006 C 
ATOM     26  C   UNL     1      27.488  27.970  19.726  1.00  0.00     0.033 C 
ATOM     27  C   UNL     1      28.968  28.068  20.081  1.00  0.00     0.120 C 
ATOM     28  C   UNL     1      29.681  29.309  17.982  1.00  0.00     0.014 C 
ATOM     29  C   UNL     1      31.090  29.420  19.995  1.00  0.00     0.014 C 
ENDROOT
BRANCH   1  30
ATOM     30  C   UNL     1      26.055  35.100  26.264  1.00  0.00     0.048 C 
ATOM     31  O   UNL     1      25.735  36.109  26.947  1.00  0.00    -0.550 OA
ATOM     32  O   UNL     1      27.035  34.245  26.757  1.00  0.00    -0.550 OA
ENDBRANCH   1  30
BRANCH  27  33
ATOM     33  O   UNL     1      29.104  27.986  21.481  1.00  0.00    -0.393 OA
ATOM     34  H   UNL     1      29.045  28.908  21.843  1.00  0.00     0.210 HD
ENDBRANCH  27  33
TORSDOF 2
ENDMDL
MODEL 2
REMARK VINA RESULT:    -7.110      9.215     12.888
REMARK INTER + INTRA:          -7.812
REMARK INTER:                  -7.922
REMARK INTRA:                   0.109
REMARK UNBOUND:                -0.079
REMARK SMILES C[C@H]1[C@H]2C3=CC[C@H]4[C@]5(C)CC[C@H](O)C(C)(C)[C@@H]5CC[C@]4(C)[C@]3(C)CC[C@@]2(C(=O)[O-])CC[C@@H]1C
REMARK SMILES IDX 26 1 30 2 25 3 3 4 31 5 24 6 4 7 2 8 32 9 22 10 5 11 1 12
REMARK SMILES IDX 33 13 23 14 20 15 6 16 7 17 19 18 21 19 8 20 18 21 17 22
REMARK SMILES IDX 10 23 9 24 14 25 11 26 12 27 15 28 16 29 27 30 28 31 29 32
REMARK SMILES IDX 13 33
REMARK H PARENT 13 34
REMARK Flexibility Score: inf
ROOT
ATOM      1  C   UNL     1      25.004  22.978  18.864  1.00  0.00     0.017 C 
ATOM      2  C   UNL     1      25.512  21.542  18.528  1.00  0.00     0.014 C 
ATOM      3  C   UNL     1      25.227  23.264  20.394  1.00  0.00     0.014 C 
ATOM      4  C   UNL     1      23.487  23.068  18.453  1.00  0.00     0.030 C 
ATOM      5  C   UNL     1      25.312  21.159  17.053  1.00  0.00     0.004 C 
ATOM      6  C   UNL     1      23.969  23.779  21.117  1.00  0.00     0.013 C 
ATOM      7  C   UNL     1      22.588  22.389  19.511  1.00  0.00    -0.063 C 
ATOM      8  C   UNL     1      23.297  22.692  16.942  1.00  0.00    -0.003 C 
ATOM      9  C   UNL     1      23.835  21.269  16.623  1.00  0.00    -0.011 C 
ATOM     10  C   UNL     1      22.761  22.788  20.986  1.00  0.00    -0.006 C 
ATOM     11  C   UNL     1      21.556  21.558  19.213  1.00  0.00    -0.027 C 
ATOM     12  C   UNL     1      21.876  22.985  16.401  1.00  0.00     0.008 C 
ATOM     13  C   UNL     1      23.720  20.934  15.125  1.00  0.00     0.008 C 
ATOM     14  C   UNL     1      23.208  21.477  21.736  1.00  0.00     0.017 C 
ATOM     15  C   UNL     1      21.366  23.398  21.580  1.00  0.00    -0.020 C 
ATOM     16  C   UNL     1      20.376  21.457  20.154  1.00  0.00     0.032 C 
ATOM     17  C   UNL     1      20.128  22.866  20.749  1.00  0.00     0.006 C 
ATOM     18  C   UNL     1      21.266  24.956  21.443  1.00  0.00     0.008 C 
ATOM     19  C   UNL     1      21.292  23.048  23.100  1.00  0.00     0.012 C 
ATOM     20  C   UNL     1      18.684  23.194  21.326  1.00  0.00    -0.025 C 
ATOM     21  C   UNL     1      19.825  25.555  21.384  1.00  0.00     0.005 C 
ATOM     22  C   UNL     1      18.676  24.666  21.966  1.00  0.00     0.003 C 
ATOM     23  C   UNL     1      17.678  23.083  20.124  1.00  0.00     0.010 C 
ATOM     24  C   UNL     1      18.283  22.127  22.391  1.00  0.00     0.012 C 
ATOM     25  C   UNL     1      17.259  25.402  22.019  1.00  0.00    -0.006 C 
ATOM     26  C   UNL     1      16.311  23.721  20.354  1.00  0.00     0.033 C 
ATOM     27  C   UNL     1      16.444  25.197  20.711  1.00  0.00     0.120 C 
ATOM     28  C   UNL     1      16.432  24.882  23.232  1.00  0.00     0.014 C 
ATOM     29  C   UNL     1      17.394  26.931  22.270  1.00  0.00     0.014 C 
ENDROOT
BRANCH   1  30
ATOM     30  C   UNL     1      25.821  24.018  18.097  1.00  0.00     0.048 C 
ATOM     31  O   UNL     1      26.820  23.672  17.411  1.00  0.00    -0.550 OA
ATOM     32  O   UNL     1      25.552  25.375  18.244  1.00  0.00    -0.550 OA
ENDBRANCH   1  30
BRANCH  27  33
ATOM     33  O   UNL     1      17.047  25.872  19.631  1.00  0.00    -0.393 OA
ATOM     34  H   UNL     1      16.837  26.838  19.725  1.00  0.00     0.210 HD
ENDBRANCH  27  33
TORSDOF 2
ENDMDL
MODEL 3
REMARK VINA RESULT:    -7.068      7.442      9.778
REMARK INTER + INTRA:          -7.766
REMARK INTER:                  -7.689
REMARK INTRA:                  -0.077
REMARK UNBOUND:                -0.079
REMARK SMILES C[C@H]1[C@H]2C3=CC[C@H]4[C@]5(C)CC[C@H](O)C(C)(C)[C@@H]5CC[C@]4(C)[C@]3(C)CC[C@@]2(C(=O)[O-])CC[C@@H]1C
REMARK SMILES IDX 26 1 30 2 25 3 3 4 31 5 24 6 4 7 2 8 32 9 22 10 5 11 1 12
REMARK SMILES IDX 33 13 23 14 20 15 6 16 7 17 19 18 21 19 8 20 18 21 17 22
REMARK SMILES IDX 10 23 9 24 14 25 11 26 12 27 15 28 16 29 27 30 28 31 29 32
REMARK SMILES IDX 13 33
REMARK H PARENT 13 34
REMARK Flexibility Score: inf
ROOT
ATOM      1  C   UNL     1      18.496  37.543  24.295  1.00  0.00     0.017 C 
ATOM      2  C   UNL     1      19.513  38.411  23.491  1.00  0.00     0.014 C 
ATOM      3  C   UNL     1      19.224  36.898  25.530  1.00  0.00     0.014 C 
ATOM      4  C   UNL     1      17.900  36.461  23.319  1.00  0.00     0.030 C 
ATOM      5  C   UNL     1      18.898  39.065  22.244  1.00  0.00     0.004 C 
ATOM      6  C   UNL     1      19.019  35.376  25.644  1.00  0.00     0.013 C 
ATOM      7  C   UNL     1      18.894  35.295  23.115  1.00  0.00    -0.063 C 
ATOM      8  C   UNL     1      17.260  37.141  22.058  1.00  0.00    -0.003 C 
ATOM      9  C   UNL     1      18.282  38.023  21.289  1.00  0.00    -0.011 C 
ATOM     10  C   UNL     1      19.492  34.615  24.358  1.00  0.00    -0.006 C 
ATOM     11  C   UNL     1      19.175  34.736  21.910  1.00  0.00    -0.027 C 
ATOM     12  C   UNL     1      16.445  36.168  21.172  1.00  0.00     0.008 C 
ATOM     13  C   UNL     1      17.631  38.752  20.100  1.00  0.00     0.008 C 
ATOM     14  C   UNL     1      21.046  34.855  24.273  1.00  0.00     0.017 C 
ATOM     15  C   UNL     1      19.110  33.026  24.378  1.00  0.00    -0.020 C 
ATOM     16  C   UNL     1      19.596  33.285  21.834  1.00  0.00     0.032 C 
ATOM     17  C   UNL     1      18.802  32.509  22.914  1.00  0.00     0.006 C 
ATOM     18  C   UNL     1      17.792  32.718  25.168  1.00  0.00     0.008 C 
ATOM     19  C   UNL     1      20.275  32.256  25.078  1.00  0.00     0.012 C 
ATOM     20  C   UNL     1      18.621  30.940  22.731  1.00  0.00    -0.025 C 
ATOM     21  C   UNL     1      17.021  31.425  24.753  1.00  0.00     0.005 C 
ATOM     22  C   UNL     1      17.850  30.331  24.000  1.00  0.00     0.003 C 
ATOM     23  C   UNL     1      17.806  30.728  21.405  1.00  0.00     0.010 C 
ATOM     24  C   UNL     1      20.014  30.263  22.556  1.00  0.00     0.012 C 
ATOM     25  C   UNL     1      17.043  28.976  23.748  1.00  0.00    -0.006 C 
ATOM     26  C   UNL     1      17.191  29.342  21.230  1.00  0.00     0.033 C 
ATOM     27  C   UNL     1      16.273  28.995  22.397  1.00  0.00     0.120 C 
ATOM     28  C   UNL     1      18.018  27.761  23.772  1.00  0.00     0.014 C 
ATOM     29  C   UNL     1      16.022  28.674  24.881  1.00  0.00     0.014 C 
ENDROOT
BRANCH   1  30
ATOM     30  C   UNL     1      17.379  38.424  24.853  1.00  0.00     0.048 C 
ATOM     31  O   UNL     1      17.625  39.588  25.269  1.00  0.00    -0.550 OA
ATOM     32  O   UNL     1      16.096  37.912  25.025  1.00  0.00    -0.550 OA
ENDBRANCH   1  30
BRANCH  27  33
ATOM     33  O   UNL     1      15.215  29.924  22.434  1.00  0.00    -0.393 OA
ATOM     34  H   UNL     1      15.424  30.591  23.139  1.00  0.00     0.210 HD
ENDBRANCH  27  33
TORSDOF 2
ENDMDL
MODEL 4
REMARK VINA RESULT:    -7.046      2.436      7.612
REMARK INTER + INTRA:          -7.742
REMARK INTER:                  -7.687
REMARK INTRA:                  -0.056
REMARK UNBOUND:                -0.079
REMARK SMILES C[C@H]1[C@H]2C3=CC[C@H]4[C@]5(C)CC[C@H](O)C(C)(C)[C@@H]5CC[C@]4(C)[C@]3(C)CC[C@@]2(C(=O)[O-])CC[C@@H]1C
REMARK SMILES IDX 26 1 30 2 25 3 3 4 31 5 24 6 4 7 2 8 32 9 22 10 5 11 1 12
REMARK SMILES IDX 33 13 23 14 20 15 6 16 7 17 19 18 21 19 8 20 18 21 17 22
REMARK SMILES IDX 10 23 9 24 14 25 11 26 12 27 15 28 16 29 27 30 28 31 29 32
REMARK SMILES IDX 13 33
REMARK H PARENT 13 34
REMARK Flexibility Score: inf
ROOT
ATOM      1  C   UNL     1      29.104  30.959  18.981  1.00  0.00     0.017 C 
ATOM      2  C   UNL     1      29.956  29.694  19.311  1.00  0.00     0.014 C 
ATOM      3  C   UNL     1      29.755  32.217  19.662  1.00  0.00     0.014 C 
ATOM      4  C   UNL     1      27.634  30.701  19.484  1.00  0.00     0.030 C 
ATOM      5  C   UNL     1      29.381  28.403  18.707  1.00  0.00     0.004 C 
ATOM      6  C   UNL     1      28.767  33.051  20.499  1.00  0.00     0.013 C 
ATOM      7  C   UNL     1      27.531  30.900  21.013  1.00  0.00    -0.063 C 
ATOM      8  C   UNL     1      27.051  29.390  18.849  1.00  0.00    -0.003 C 
ATOM      9  C   UNL     1      27.930  28.148  19.164  1.00  0.00    -0.011 C 
ATOM     10  C   UNL     1      28.076  32.202  21.621  1.00  0.00    -0.006 C 
ATOM     11  C   UNL     1      26.865  30.060  21.847  1.00  0.00    -0.027 C 
ATOM     12  C   UNL     1      25.536  29.195  19.103  1.00  0.00     0.008 C 
ATOM     13  C   UNL     1      27.400  26.879  18.474  1.00  0.00     0.008 C 
ATOM     14  C   UNL     1      29.237  31.768  22.595  1.00  0.00     0.017 C 
ATOM     15  C   UNL     1      26.887  33.013  22.396  1.00  0.00    -0.020 C 
ATOM     16  C   UNL     1      26.260  30.594  23.126  1.00  0.00     0.032 C 
ATOM     17  C   UNL     1      25.735  32.023  22.837  1.00  0.00     0.006 C 
ATOM     18  C   UNL     1      26.156  34.056  21.484  1.00  0.00     0.008 C 
ATOM     19  C   UNL     1      27.528  33.792  23.589  1.00  0.00     0.012 C 
ATOM     20  C   UNL     1      24.605  32.614  23.786  1.00  0.00    -0.025 C 
ATOM     21  C   UNL     1      24.688  34.412  21.878  1.00  0.00     0.005 C 
ATOM     22  C   UNL     1      24.275  34.126  23.360  1.00  0.00     0.003 C 
ATOM     23  C   UNL     1      23.348  31.685  23.631  1.00  0.00     0.010 C 
ATOM     24  C   UNL     1      25.074  32.549  25.272  1.00  0.00     0.012 C 
ATOM     25  C   UNL     1      22.817  34.660  23.735  1.00  0.00    -0.006 C 
ATOM     26  C   UNL     1      22.036  32.269  24.146  1.00  0.00     0.033 C 
ATOM     27  C   UNL     1      21.716  33.595  23.465  1.00  0.00     0.120 C 
ATOM     28  C   UNL     1      22.772  35.083  25.234  1.00  0.00     0.014 C 
ATOM     29  C   UNL     1      22.440  35.952  22.957  1.00  0.00     0.014 C 
ENDROOT
BRANCH   1  30
ATOM     30  C   UNL     1      29.109  31.220  17.476  1.00  0.00     0.048 C 
ATOM     31  O   UNL     1      30.051  30.796  16.753  1.00  0.00    -0.550 OA
ATOM     32  O   UNL     1      28.140  32.034  16.897  1.00  0.00    -0.550 OA
ENDBRANCH   1  30
BRANCH  27  33
ATOM     33  O   UNL     1      21.563  33.370  22.083  1.00  0.00    -0.393 OA
ATOM     34  H   UNL     1      22.345  33.773  21.623  1.00  0.00     0.210 HD
ENDBRANCH  27  33
TORSDOF 2
ENDMDL
MODEL 5
REMARK VINA RESULT:    -6.976      3.159      7.796
REMARK INTER + INTRA:          -7.666
REMARK INTER:                  -7.707
REMARK INTRA:                   0.041
REMARK UNBOUND:                -0.079
REMARK SMILES C[C@H]1[C@H]2C3=CC[C@H]4[C@]5(C)CC[C@H](O)C(C)(C)[C@@H]5CC[C@]4(C)[C@]3(C)CC[C@@]2(C(=O)[O-])CC[C@@H]1C
REMARK SMILES IDX 26 1 30 2 25 3 3 4 31 5 24 6 4 7 2 8 32 9 22 10 5 11 1 12
REMARK SMILES IDX 33 13 23 14 20 15 6 16 7 17 19 18 21 19 8 20 18 21 17 22
REMARK SMILES IDX 10 23 9 24 14 25 11 26 12 27 15 28 16 29 27 30 28 31 29 32
REMARK SMILES IDX 13 33
REMARK H PARENT 13 34
REMARK Flexibility Score: inf
ROOT
ATOM      1  C   UNL     1      27.447  31.823  19.462  1.00  0.00     0.017 C 
ATOM      2  C   UNL     1      28.524  30.886  20.091  1.00  0.00     0.014 C 
ATOM      3  C   UNL     1      27.694  33.298  19.946  1.00  0.00     0.014 C 
ATOM      4  C   UNL     1      26.028  31.286  19.882  1.00  0.00     0.030 C 
ATOM      5  C   UNL     1      28.349  29.412  19.696  1.00  0.00     0.004 C 
ATOM      6  C   UNL     1      26.441  33.978  20.528  1.00  0.00     0.013 C 
ATOM      7  C   UNL     1      25.690  31.697  21.334  1.00  0.00    -0.063 C 
ATOM      8  C   UNL     1      25.854  29.785  19.459  1.00  0.00    -0.003 C 
ATOM      9  C   UNL     1      26.953  28.874  20.072  1.00  0.00    -0.011 C 
ATOM     10  C   UNL     1      25.834  33.175  21.729  1.00  0.00    -0.006 C 
ATOM     11  C   UNL     1      25.141  30.862  22.253  1.00  0.00    -0.027 C 
ATOM     12  C   UNL     1      24.408  29.257  19.620  1.00  0.00     0.008 C 
ATOM     13  C   UNL     1      26.827  27.418  19.591  1.00  0.00     0.008 C 
ATOM     14  C   UNL     1      26.932  33.212  22.859  1.00  0.00     0.017 C 
ATOM     15  C   UNL     1      24.400  33.772  22.239  1.00  0.00    -0.020 C 
ATOM     16  C   UNL     1      24.272  31.424  23.356  1.00  0.00     0.032 C 
ATOM     17  C   UNL     1      23.467  32.607  22.761  1.00  0.00     0.006 C 
ATOM     18  C   UNL     1      23.565  34.435  21.090  1.00  0.00     0.008 C 
ATOM     19  C   UNL     1      24.685  34.870  23.313  1.00  0.00     0.012 C 
ATOM     20  C   UNL     1      22.120  33.038  23.488  1.00  0.00    -0.025 C 
ATOM     21  C   UNL     1      22.016  34.466  21.290  1.00  0.00     0.005 C 
ATOM     22  C   UNL     1      21.500  34.328  22.760  1.00  0.00     0.003 C 
ATOM     23  C   UNL     1      21.145  31.808  23.407  1.00  0.00     0.010 C 
ATOM     24  C   UNL     1      22.400  33.335  24.992  1.00  0.00     0.012 C 
ATOM     25  C   UNL     1      19.922  34.528  22.908  1.00  0.00    -0.006 C 
ATOM     26  C   UNL     1      19.679  32.116  23.695  1.00  0.00     0.033 C 
ATOM     27  C   UNL     1      19.145  33.190  22.753  1.00  0.00     0.120 C 
ATOM     28  C   UNL     1      19.591  35.162  24.292  1.00  0.00     0.014 C 
ATOM     29  C   UNL     1      19.353  35.539  21.873  1.00  0.00     0.014 C 
ENDROOT
BRANCH   1  30
ATOM     30  C   UNL     1      27.580  31.830  17.940  1.00  0.00     0.048 C 
ATOM     31  O   UNL     1      28.595  31.335  17.381  1.00  0.00    -0.550 OA
ATOM     32  O   UNL     1      26.643  32.493  17.153  1.00  0.00    -0.550 OA
ENDBRANCH   1  30
BRANCH  27  33
ATOM     33  O   UNL     1      19.224  32.713  21.430  1.00  0.00    -0.393 OA
ATOM     34  H   UNL     1      20.131  32.925  21.087  1.00  0.00     0.210 HD
ENDBRANCH  27  33
TORSDOF 2
ENDMDL
MODEL 6
REMARK VINA RESULT:    -6.926      9.299     11.749
REMARK INTER + INTRA:          -7.612
REMARK INTER:                  -7.532
REMARK INTRA:                  -0.080
REMARK UNBOUND:                -0.079
REMARK SMILES C[C@H]1[C@H]2C3=CC[C@H]4[C@]5(C)CC[C@H](O)C(C)(C)[C@@H]5CC[C@]4(C)[C@]3(C)CC[C@@]2(C(=O)[O-])CC[C@@H]1C
REMARK SMILES IDX 26 1 30 2 25 3 3 4 31 5 24 6 4 7 2 8 32 9 22 10 5 11 1 12
REMARK SMILES IDX 33 13 23 14 20 15 6 16 7 17 19 18 21 19 8 20 18 21 17 22
REMARK SMILES IDX 10 23 9 24 14 25 11 26 12 27 15 28 16 29 27 30 28 31 29 32
REMARK SMILES IDX 13 33
REMARK H PARENT 13 34
REMARK Flexibility Score: inf
ROOT
ATOM      1  C   UNL     1      14.517  27.796  23.089  1.00  0.00     0.017 C 
ATOM      2  C   UNL     1      13.931  28.170  24.486  1.00  0.00     0.014 C 
ATOM      3  C   UNL     1      13.921  26.417  22.627  1.00  0.00     0.014 C 
ATOM      4  C   UNL     1      16.086  27.759  23.211  1.00  0.00     0.030 C 
ATOM      5  C   UNL     1      14.478  29.497  25.035  1.00  0.00     0.004 C 
ATOM      6  C   UNL     1      14.988  25.398  22.186  1.00  0.00     0.013 C 
ATOM      7  C   UNL     1      16.556  26.445  23.877  1.00  0.00    -0.063 C 
ATOM      8  C   UNL     1      16.634  29.124  23.757  1.00  0.00    -0.003 C 
ATOM      9  C   UNL     1      16.016  29.491  25.135  1.00  0.00    -0.011 C 
ATOM     10  C   UNL     1      16.038  25.112  23.314  1.00  0.00    -0.006 C 
ATOM     11  C   UNL     1      17.507  26.380  24.844  1.00  0.00    -0.027 C 
ATOM     12  C   UNL     1      18.175  29.252  23.681  1.00  0.00     0.008 C 
ATOM     13  C   UNL     1      16.495  30.868  25.631  1.00  0.00     0.008 C 
ATOM     14  C   UNL     1      15.227  24.438  24.484  1.00  0.00     0.017 C 
ATOM     15  C   UNL     1      17.284  24.183  22.808  1.00  0.00    -0.020 C 
ATOM     16  C   UNL     1      18.356  25.135  24.981  1.00  0.00     0.032 C 
ATOM     17  C   UNL     1      18.618  24.587  23.556  1.00  0.00     0.006 C 
ATOM     18  C   UNL     1      17.629  24.386  21.292  1.00  0.00     0.008 C 
ATOM     19  C   UNL     1      16.886  22.686  23.008  1.00  0.00     0.012 C 
ATOM     20  C   UNL     1      19.878  23.642  23.336  1.00  0.00    -0.025 C 
ATOM     21  C   UNL     1      19.097  24.068  20.868  1.00  0.00     0.005 C 
ATOM     22  C   UNL     1      19.908  23.124  21.817  1.00  0.00     0.003 C 
ATOM     23  C   UNL     1      21.152  24.495  23.679  1.00  0.00     0.010 C 
ATOM     24  C   UNL     1      19.819  22.440  24.327  1.00  0.00     0.012 C 
ATOM     25  C   UNL     1      21.342  22.714  21.243  1.00  0.00    -0.006 C 
ATOM     26  C   UNL     1      22.475  23.923  23.179  1.00  0.00     0.033 C 
ATOM     27  C   UNL     1      22.451  23.717  21.668  1.00  0.00     0.120 C 
ATOM     28  C   UNL     1      21.722  21.284  21.727  1.00  0.00     0.014 C 
ATOM     29  C   UNL     1      21.352  22.612  19.691  1.00  0.00     0.014 C 
ENDROOT
BRANCH   1  30
ATOM     30  C   UNL     1      14.093  28.831  22.046  1.00  0.00     0.048 C 
ATOM     31  O   UNL     1      12.981  29.417  22.138  1.00  0.00    -0.550 OA
ATOM     32  O   UNL     1      14.872  29.052  20.914  1.00  0.00    -0.550 OA
ENDBRANCH   1  30
BRANCH  27  33
ATOM     33  O   UNL     1      22.268  24.966  21.042  1.00  0.00    -0.393 OA
ATOM     34  H   UNL     1      21.594  24.846  20.324  1.00  0.00     0.210 HD
ENDBRANCH  27  33
TORSDOF 2
ENDMDL
MODEL 7
REMARK VINA RESULT:    -6.860      5.292      8.833
REMARK INTER + INTRA:          -7.541
REMARK INTER:                  -7.554
REMARK INTRA:                   0.013
REMARK UNBOUND:                -0.079
REMARK SMILES C[C@H]1[C@H]2C3=CC[C@H]4[C@]5(C)CC[C@H](O)C(C)(C)[C@@H]5CC[C@]4(C)[C@]3(C)CC[C@@]2(C(=O)[O-])CC[C@@H]1C
REMARK SMILES IDX 26 1 30 2 25 3 3 4 31 5 24 6 4 7 2 8 32 9 22 10 5 11 1 12
REMARK SMILES IDX 33 13 23 14 20 15 6 16 7 17 19 18 21 19 8 20 18 21 17 22
REMARK SMILES IDX 10 23 9 24 14 25 11 26 12 27 15 28 16 29 27 30 28 31 29 32
REMARK SMILES IDX 13 33
REMARK H PARENT 13 34
REMARK Flexibility Score: inf
ROOT
ATOM      1  C   UNL     1      19.182  32.412  22.367  1.00  0.00     0.017 C 
ATOM      2  C   UNL     1      18.919  30.890  22.586  1.00  0.00     0.014 C 
ATOM      3  C   UNL     1      20.481  32.596  21.501  1.00  0.00     0.014 C 
ATOM      4  C   UNL     1      19.305  33.094  23.781  1.00  0.00     0.030 C 
ATOM      5  C   UNL     1      17.678  30.608  23.448  1.00  0.00     0.004 C 
ATOM      6  C   UNL     1      21.502  33.572  22.114  1.00  0.00     0.013 C 
ATOM      7  C   UNL     1      20.697  32.834  24.400  1.00  0.00    -0.063 C 
ATOM      8  C   UNL     1      18.027  32.813  24.647  1.00  0.00    -0.003 C 
ATOM      9  C   UNL     1      17.766  31.292  24.827  1.00  0.00    -0.011 C 
ATOM     10  C   UNL     1      21.944  33.141  23.555  1.00  0.00    -0.006 C 
ATOM     11  C   UNL     1      20.901  32.479  25.694  1.00  0.00    -0.027 C 
ATOM     12  C   UNL     1      17.965  33.643  25.952  1.00  0.00     0.008 C 
ATOM     13  C   UNL     1      16.468  31.020  25.609  1.00  0.00     0.008 C 
ATOM     14  C   UNL     1      22.689  31.765  23.372  1.00  0.00     0.017 C 
ATOM     15  C   UNL     1      22.877  34.258  24.298  1.00  0.00    -0.020 C 
ATOM     16  C   UNL     1      22.192  32.860  26.385  1.00  0.00     0.032 C 
ATOM     17  C   UNL     1      22.611  34.255  25.858  1.00  0.00     0.006 C 
ATOM     18  C   UNL     1      22.545  35.727  23.865  1.00  0.00     0.008 C 
ATOM     19  C   UNL     1      24.366  33.976  23.920  1.00  0.00     0.012 C 
ATOM     20  C   UNL     1      23.588  35.133  26.753  1.00  0.00    -0.025 C 
ATOM     21  C   UNL     1      22.889  36.848  24.896  1.00  0.00     0.005 C 
ATOM     22  C   UNL     1      23.957  36.492  25.982  1.00  0.00     0.003 C 
ATOM     23  C   UNL     1      22.834  35.423  28.101  1.00  0.00     0.010 C 
ATOM     24  C   UNL     1      24.877  34.320  27.086  1.00  0.00     0.012 C 
ATOM     25  C   UNL     1      24.377  37.730  26.901  1.00  0.00    -0.006 C 
ATOM     26  C   UNL     1      23.416  36.552  28.946  1.00  0.00     0.033 C 
ATOM     27  C   UNL     1      23.473  37.857  28.160  1.00  0.00     0.120 C 
ATOM     28  C   UNL     1      25.864  37.589  27.342  1.00  0.00     0.014 C 
ATOM     29  C   UNL     1      24.328  39.082  26.133  1.00  0.00     0.014 C 
ENDROOT
BRANCH   1  30
ATOM     30  C   UNL     1      18.033  33.037  21.578  1.00  0.00     0.048 C 
ATOM     31  O   UNL     1      17.206  32.311  20.963  1.00  0.00    -0.550 OA
ATOM     32  O   UNL     1      17.952  34.417  21.422  1.00  0.00    -0.550 OA
ENDBRANCH   1  30
BRANCH  27  33
ATOM     33  O   UNL     1      22.162  38.230  27.803  1.00  0.00    -0.393 OA
ATOM     34  H   UNL     1      22.139  38.342  26.817  1.00  0.00     0.210 HD
ENDBRANCH  27  33
TORSDOF 2
ENDMDL
MODEL 8
REMARK VINA RESULT:    -6.833     10.333     12.480
REMARK INTER + INTRA:          -7.511
REMARK INTER:                  -7.448
REMARK INTRA:                  -0.063
REMARK UNBOUND:                -0.079
REMARK SMILES C[C@H]1[C@H]2C3=CC[C@H]4[C@]5(C)CC[C@H](O)C(C)(C)[C@@H]5CC[C@]4(C)[C@]3(C)CC[C@@]2(C(=O)[O-])CC[C@@H]1C
REMARK SMILES IDX 26 1 30 2 25 3 3 4 31 5 24 6 4 7 2 8 32 9 22 10 5 11 1 12
REMARK SMILES IDX 33 13 23 14 20 15 6 16 7 17 19 18 21 19 8 20 18 21 17 22
REMARK SMILES IDX 10 23 9 24 14 25 11 26 12 27 15 28 16 29 27 30 28 31 29 32
REMARK SMILES IDX 13 33
REMARK H PARENT 13 34
REMARK Flexibility Score: inf
ROOT
ATOM      1  C   UNL     1      13.684  28.415  24.176  1.00  0.00     0.017 C 
ATOM      2  C   UNL     1      12.255  28.235  23.579  1.00  0.00     0.014 C 
ATOM      3  C   UNL     1      14.589  29.176  23.140  1.00  0.00     0.014 C 
ATOM      4  C   UNL     1      14.249  26.988  24.529  1.00  0.00     0.030 C 
ATOM      5  C   UNL     1      11.300  27.475  24.513  1.00  0.00     0.004 C 
ATOM      6  C   UNL     1      15.930  28.474  22.855  1.00  0.00     0.013 C 
ATOM      7  C   UNL     1      14.755  26.266  23.260  1.00  0.00    -0.063 C 
ATOM      8  C   UNL     1      13.275  26.228  25.496  1.00  0.00    -0.003 C 
ATOM      9  C   UNL     1      11.849  26.086  24.895  1.00  0.00    -0.011 C 
ATOM     10  C   UNL     1      15.735  27.008  22.336  1.00  0.00    -0.006 C 
ATOM     11  C   UNL     1      14.501  24.964  22.973  1.00  0.00    -0.027 C 
ATOM     12  C   UNL     1      13.868  24.922  26.078  1.00  0.00     0.008 C 
ATOM     13  C   UNL     1      10.875  25.412  25.878  1.00  0.00     0.008 C 
ATOM     14  C   UNL     1      14.996  27.147  20.951  1.00  0.00     0.017 C 
ATOM     15  C   UNL     1      17.138  26.181  22.209  1.00  0.00    -0.020 C 
ATOM     16  C   UNL     1      15.486  24.170  22.142  1.00  0.00     0.032 C 
ATOM     17  C   UNL     1      16.910  24.647  22.522  1.00  0.00     0.006 C 
ATOM     18  C   UNL     1      18.212  26.622  23.263  1.00  0.00     0.008 C 
ATOM     19  C   UNL     1      17.731  26.445  20.788  1.00  0.00     0.012 C 
ATOM     20  C   UNL     1      18.130  23.668  22.237  1.00  0.00    -0.025 C 
ATOM     21  C   UNL     1      19.284  25.555  23.647  1.00  0.00     0.005 C 
ATOM     22  C   UNL     1      19.509  24.392  22.624  1.00  0.00     0.003 C 
ATOM     23  C   UNL     1      17.893  22.381  23.106  1.00  0.00     0.010 C 
ATOM     24  C   UNL     1      18.132  23.245  20.736  1.00  0.00     0.012 C 
ATOM     25  C   UNL     1      20.726  23.430  23.004  1.00  0.00    -0.006 C 
ATOM     26  C   UNL     1      19.111  21.479  23.285  1.00  0.00     0.033 C 
ATOM     27  C   UNL     1      20.277  22.244  23.903  1.00  0.00     0.120 C 
ATOM     28  C   UNL     1      21.393  22.876  21.710  1.00  0.00     0.014 C 
ATOM     29  C   UNL     1      21.873  24.184  23.737  1.00  0.00     0.014 C 
ENDROOT
BRANCH   1  30
ATOM     30  C   UNL     1      13.625  29.285  25.432  1.00  0.00     0.048 C 
ATOM     31  O   UNL     1      12.698  30.123  25.589  1.00  0.00    -0.550 OA
ATOM     32  O   UNL     1      14.660  29.254  26.361  1.00  0.00    -0.550 OA
ENDBRANCH   1  30
BRANCH  27  33
ATOM     33  O   UNL     1      19.896  22.697  25.181  1.00  0.00    -0.393 OA
ATOM     34  H   UNL     1      20.009  23.683  25.196  1.00  0.00     0.210 HD
ENDBRANCH  27  33
TORSDOF 2
ENDMDL
MODEL 9
REMARK VINA RESULT:    -6.776      3.691      8.942
REMARK INTER + INTRA:          -7.449
REMARK INTER:                  -7.369
REMARK INTRA:                  -0.080
REMARK UNBOUND:                -0.079
REMARK SMILES C[C@H]1[C@H]2C3=CC[C@H]4[C@]5(C)CC[C@H](O)C(C)(C)[C@@H]5CC[C@]4(C)[C@]3(C)CC[C@@]2(C(=O)[O-])CC[C@@H]1C
REMARK SMILES IDX 26 1 30 2 25 3 3 4 31 5 24 6 4 7 2 8 32 9 22 10 5 11 1 12
REMARK SMILES IDX 33 13 23 14 20 15 6 16 7 17 19 18 21 19 8 20 18 21 17 22
REMARK SMILES IDX 10 23 9 24 14 25 11 26 12 27 15 28 16 29 27 30 28 31 29 32
REMARK SMILES IDX 13 33
REMARK H PARENT 13 34
REMARK Flexibility Score: inf
ROOT
ATOM      1  C   UNL     1      25.554  33.210  25.241  1.00  0.00     0.017 C 
ATOM      2  C   UNL     1      25.744  31.662  25.208  1.00  0.00     0.014 C 
ATOM      3  C   UNL     1      25.177  33.657  26.700  1.00  0.00     0.014 C 
ATOM      4  C   UNL     1      24.442  33.588  24.193  1.00  0.00     0.030 C 
ATOM      5  C   UNL     1      26.092  31.125  23.811  1.00  0.00     0.004 C 
ATOM      6  C   UNL     1      23.923  34.549  26.770  1.00  0.00     0.013 C 
ATOM      7  C   UNL     1      23.032  33.297  24.756  1.00  0.00    -0.063 C 
ATOM      8  C   UNL     1      24.815  33.049  22.767  1.00  0.00    -0.003 C 
ATOM      9  C   UNL     1      25.028  31.510  22.762  1.00  0.00    -0.011 C 
ATOM     10  C   UNL     1      22.666  33.856  26.141  1.00  0.00    -0.006 C 
ATOM     11  C   UNL     1      22.041  32.693  24.052  1.00  0.00    -0.027 C 
ATOM     12  C   UNL     1      23.896  33.582  21.641  1.00  0.00     0.008 C 
ATOM     13  C   UNL     1      25.472  30.996  21.381  1.00  0.00     0.008 C 
ATOM     14  C   UNL     1      22.378  32.601  27.048  1.00  0.00     0.017 C 
ATOM     15  C   UNL     1      21.375  34.852  26.031  1.00  0.00    -0.020 C 
ATOM     16  C   UNL     1      20.595  33.007  24.369  1.00  0.00     0.032 C 
ATOM     17  C   UNL     1      20.512  34.505  24.751  1.00  0.00     0.006 C 
ATOM     18  C   UNL     1      21.770  36.354  25.821  1.00  0.00     0.008 C 
ATOM     19  C   UNL     1      20.571  34.754  27.367  1.00  0.00     0.012 C 
ATOM     20  C   UNL     1      19.109  35.240  24.611  1.00  0.00    -0.025 C 
ATOM     21  C   UNL     1      20.713  37.255  25.107  1.00  0.00     0.005 C 
ATOM     22  C   UNL     1      19.232  36.750  25.139  1.00  0.00     0.003 C 
ATOM     23  C   UNL     1      18.719  35.191  23.090  1.00  0.00     0.010 C 
ATOM     24  C   UNL     1      18.022  34.462  25.414  1.00  0.00     0.012 C 
ATOM     25  C   UNL     1      18.185  37.794  24.532  1.00  0.00    -0.006 C 
ATOM     26  C   UNL     1      17.613  36.154  22.667  1.00  0.00     0.033 C 
ATOM     27  C   UNL     1      17.979  37.596  23.004  1.00  0.00     0.120 C 
ATOM     28  C   UNL     1      16.815  37.662  25.262  1.00  0.00     0.014 C 
ATOM     29  C   UNL     1      18.612  39.270  24.774  1.00  0.00     0.014 C 
ENDROOT
BRANCH   1  30
ATOM     30  C   UNL     1      26.868  33.909  24.892  1.00  0.00     0.048 C 
ATOM     31  O   UNL     1      27.972  33.415  25.243  1.00  0.00    -0.550 OA
ATOM     32  O   UNL     1      26.861  35.164  24.291  1.00  0.00    -0.550 OA
ENDBRANCH   1  30
BRANCH  27  33
ATOM     33  O   UNL     1      19.141  37.947  22.289  1.00  0.00    -0.393 OA
ATOM     34  H   UNL     1      18.926  37.897  21.321  1.00  0.00     0.210 HD
ENDBRANCH  27  33
TORSDOF 2
ENDMDL
