MODEL 1
REMARK VINA RESULT:    -5.863      0.000      0.000
REMARK INTER + INTRA:          -7.376
REMARK INTER:                  -7.063
REMARK INTRA:                  -0.313
REMARK UNBOUND:                -0.313
REMARK SMILES O=c1c(O)c(-c2ccc(O)c(O)c2)oc2cc(O)cc(O)c12
REMARK SMILES IDX 5 1 3 2 2 3 1 4 22 5 20 6 19 7 17 8 16 9 15 10 14 11 6 12
REMARK SMILES IDX 7 13 8 14 9 15 13 16 11 17 10 18 12 20 4 22 21 24 18 26
REMARK H PARENT 10 19 12 21 4 23 21 25 18 27
REMARK Flexibility Score: inf
ROOT
ATOM      1  C   UNL     1       3.516  -8.142   7.854  1.00  0.00     0.180 A 
ATOM      2  C   UNL     1       4.607  -8.503   8.664  1.00  0.00     0.208 A 
ATOM      3  C   UNL     1       5.733  -9.092   8.067  1.00  0.00     0.238 A 
ATOM      4  O   UNL     1       6.674  -9.480   8.807  1.00  0.00    -0.285 OA
ATOM      5  C   UNL     1       5.778  -9.263   6.662  1.00  0.00     0.111 A 
ATOM      6  C   UNL     1       6.886  -9.808   5.945  1.00  0.00     0.134 A 
ATOM      7  C   UNL     1       6.775 -10.028   4.566  1.00  0.00     0.093 A 
ATOM      8  C   UNL     1       5.621  -9.663   3.868  1.00  0.00     0.123 A 
ATOM      9  C   UNL     1       4.556  -9.080   4.550  1.00  0.00     0.094 A 
ATOM     10  C   UNL     1       4.622  -8.883   5.932  1.00  0.00     0.146 A 
ATOM     11  O   UNL     1       3.574  -8.345   6.544  1.00  0.00    -0.452 OA
ENDROOT
BRANCH   1  12
ATOM     12  C   UNL     1       2.289  -7.529   8.413  1.00  0.00     0.025 A 
ATOM     13  C   UNL     1       2.096  -6.144   8.296  1.00  0.00     0.016 A 
ATOM     14  C   UNL     1       0.937  -5.547   8.797  1.00  0.00     0.051 A 
ATOM     15  C   UNL     1      -0.053  -6.324   9.406  1.00  0.00     0.157 A 
ATOM     16  C   UNL     1       1.284  -8.312   9.006  1.00  0.00     0.062 A 
ATOM     17  C   UNL     1       0.117  -7.715   9.507  1.00  0.00     0.158 A 
BRANCH  15  18
ATOM     18  O   UNL     1      -1.199  -5.700   9.898  1.00  0.00    -0.504 OA
ATOM     19  H   UNL     1      -1.205  -5.205  10.783  1.00  0.00     0.293 HD
ENDBRANCH  15  18
BRANCH  17  20
ATOM     20  O   UNL     1      -0.872  -8.498  10.100  1.00  0.00    -0.504 OA
ATOM     21  H   UNL     1      -1.723  -8.741   9.607  1.00  0.00     0.293 HD
ENDBRANCH  17  20
ENDBRANCH   1  12
BRANCH   2  22
ATOM     22  O   UNL     1       4.575  -8.256  10.039  1.00  0.00    -0.502 OA
ATOM     23  H   UNL     1       5.057  -7.472  10.464  1.00  0.00     0.293 HD
ENDBRANCH   2  22
BRANCH   6  24
ATOM     24  O   UNL     1       8.116 -10.125   6.527  1.00  0.00    -0.507 OA
ATOM     25  H   UNL     1       8.616  -9.538   7.177  1.00  0.00     0.293 HD
ENDBRANCH   6  24
BRANCH   8  26
ATOM     26  O   UNL     1       5.527  -9.870   2.494  1.00  0.00    -0.508 OA
ATOM     27  H   UNL     1       6.125 -10.533   2.015  1.00  0.00     0.293 HD
ENDBRANCH   8  26
TORSDOF 6
ENDMDL
MODEL 2
REMARK VINA RESULT:    -5.623      1.135      2.856
REMARK INTER + INTRA:          -7.087
REMARK INTER:                  -6.809
REMARK INTRA:                  -0.278
REMARK UNBOUND:                -0.313
REMARK SMILES O=c1c(O)c(-c2ccc(O)c(O)c2)oc2cc(O)cc(O)c12
REMARK SMILES IDX 5 1 3 2 2 3 1 4 22 5 20 6 19 7 17 8 16 9 15 10 14 11 6 12
REMARK SMILES IDX 7 13 8 14 9 15 13 16 11 17 10 18 12 20 4 22 21 24 18 26
REMARK H PARENT 10 19 12 21 4 23 21 25 18 27
REMARK Flexibility Score: inf
ROOT
ATOM      1  C   UNL     1       3.117  -8.145   7.148  1.00  0.00     0.180 A 
ATOM      2  C   UNL     1       3.042  -8.288   5.752  1.00  0.00     0.208 A 
ATOM      3  C   UNL     1       4.151  -8.798   5.058  1.00  0.00     0.238 A 
ATOM      4  O   UNL     1       4.102  -8.853   3.802  1.00  0.00    -0.285 OA
ATOM      5  C   UNL     1       5.301  -9.210   5.773  1.00  0.00     0.111 A 
ATOM      6  C   UNL     1       6.466  -9.783   5.177  1.00  0.00     0.134 A 
ATOM      7  C   UNL     1       7.586 -10.055   5.973  1.00  0.00     0.093 A 
ATOM      8  C   UNL     1       7.560  -9.835   7.353  1.00  0.00     0.123 A 
ATOM      9  C   UNL     1       6.409  -9.329   7.951  1.00  0.00     0.094 A 
ATOM     10  C   UNL     1       5.290  -9.012   7.178  1.00  0.00     0.146 A 
ATOM     11  O   UNL     1       4.222  -8.510   7.788  1.00  0.00    -0.452 OA
ENDROOT
BRANCH   1  12
ATOM     12  C   UNL     1       1.996  -7.602   7.947  1.00  0.00     0.025 A 
ATOM     13  C   UNL     1       1.762  -6.218   7.954  1.00  0.00     0.016 A 
ATOM     14  C   UNL     1       0.697  -5.684   8.684  1.00  0.00     0.051 A 
ATOM     15  C   UNL     1      -0.159  -6.524   9.403  1.00  0.00     0.157 A 
ATOM     16  C   UNL     1       1.122  -8.446   8.653  1.00  0.00     0.062 A 
ATOM     17  C   UNL     1       0.050  -7.913   9.385  1.00  0.00     0.158 A 
BRANCH  15  18
ATOM     18  O   UNL     1      -1.213  -5.962  10.123  1.00  0.00    -0.504 OA
ATOM     19  H   UNL     1      -1.727  -5.157   9.786  1.00  0.00     0.293 HD
ENDBRANCH  15  18
BRANCH  17  20
ATOM     20  O   UNL     1      -0.808  -8.757  10.087  1.00  0.00    -0.504 OA
ATOM     21  H   UNL     1      -1.395  -9.432   9.612  1.00  0.00     0.293 HD
ENDBRANCH  17  20
ENDBRANCH   1  12
BRANCH   2  22
ATOM     22  O   UNL     1       1.869  -7.947   5.072  1.00  0.00    -0.502 OA
ATOM     23  H   UNL     1       0.979  -8.392   5.263  1.00  0.00     0.293 HD
ENDBRANCH   2  22
BRANCH   6  24
ATOM     24  O   UNL     1       6.567 -10.125   3.826  1.00  0.00    -0.507 OA
ATOM     25  H   UNL     1       7.018 -10.955   3.472  1.00  0.00     0.293 HD
ENDBRANCH   6  24
BRANCH   8  26
ATOM     26  O   UNL     1       8.673 -10.125   8.139  1.00  0.00    -0.508 OA
ATOM     27  H   UNL     1       9.255 -10.934   7.955  1.00  0.00     0.293 HD
ENDBRANCH   8  26
TORSDOF 6
ENDMDL
MODEL 3
REMARK VINA RESULT:    -4.831     21.880     23.891
REMARK INTER + INTRA:          -6.132
REMARK INTER:                  -5.900
REMARK INTRA:                  -0.232
REMARK UNBOUND:                -0.313
REMARK SMILES O=c1c(O)c(-c2ccc(O)c(O)c2)oc2cc(O)cc(O)c12
REMARK SMILES IDX 5 1 3 2 2 3 1 4 22 5 20 6 19 7 17 8 16 9 15 10 14 11 6 12
REMARK SMILES IDX 7 13 8 14 9 15 13 16 11 17 10 18 12 20 4 22 21 24 18 26
REMARK H PARENT 10 19 12 21 4 23 21 25 18 27
REMARK Flexibility Score: inf
ROOT
ATOM      1  C   UNL     1       1.664   7.698  -9.142  1.00  0.00     0.180 A 
ATOM      2  C   UNL     1       0.894   8.856  -9.346  1.00  0.00     0.208 A 
ATOM      3  C   UNL     1      -0.502   8.738  -9.446  1.00  0.00     0.238 A 
ATOM      4  O   UNL     1      -1.177   9.768  -9.703  1.00  0.00    -0.285 OA
ATOM      5  C   UNL     1      -1.116   7.472  -9.284  1.00  0.00     0.111 A 
ATOM      6  C   UNL     1      -2.525   7.243  -9.321  1.00  0.00     0.134 A 
ATOM      7  C   UNL     1      -3.012   5.931  -9.254  1.00  0.00     0.093 A 
ATOM      8  C   UNL     1      -2.146   4.847  -9.089  1.00  0.00     0.123 A 
ATOM      9  C   UNL     1      -0.774   5.067  -8.996  1.00  0.00     0.094 A 
ATOM     10  C   UNL     1      -0.255   6.360  -9.097  1.00  0.00     0.146 A 
ATOM     11  O   UNL     1       1.062   6.520  -9.027  1.00  0.00    -0.452 OA
ENDROOT
BRANCH   1  12
ATOM     12  C   UNL     1       3.140   7.740  -9.041  1.00  0.00     0.025 A 
ATOM     13  C   UNL     1       3.917   7.274 -10.113  1.00  0.00     0.016 A 
ATOM     14  C   UNL     1       5.312   7.324 -10.050  1.00  0.00     0.051 A 
ATOM     15  C   UNL     1       5.950   7.852  -8.923  1.00  0.00     0.157 A 
ATOM     16  C   UNL     1       3.783   8.290  -7.919  1.00  0.00     0.062 A 
ATOM     17  C   UNL     1       5.183   8.342  -7.854  1.00  0.00     0.158 A 
BRANCH  15  18
ATOM     18  O   UNL     1       7.344   7.886  -8.887  1.00  0.00    -0.504 OA
ATOM     19  H   UNL     1       7.861   8.757  -8.859  1.00  0.00     0.293 HD
ENDBRANCH  15  18
BRANCH  17  20
ATOM     20  O   UNL     1       5.813   8.884  -6.734  1.00  0.00    -0.504 OA
ATOM     21  H   UNL     1       6.635   8.455  -6.328  1.00  0.00     0.293 HD
ENDBRANCH  17  20
ENDBRANCH   1  12
BRANCH   2  22
ATOM     22  O   UNL     1       1.513  10.107  -9.427  1.00  0.00    -0.502 OA
ATOM     23  H   UNL     1       2.248  10.308 -10.094  1.00  0.00     0.293 HD
ENDBRANCH   2  22
BRANCH   6  24
ATOM     24  O   UNL     1      -3.482   8.258  -9.395  1.00  0.00    -0.507 OA
ATOM     25  H   UNL     1      -4.475   8.109  -9.491  1.00  0.00     0.293 HD
ENDBRANCH   6  24
BRANCH   8  26
ATOM     26  O   UNL     1      -2.641   3.549  -9.006  1.00  0.00    -0.508 OA
ATOM     27  H   UNL     1      -3.621   3.344  -9.164  1.00  0.00     0.293 HD
ENDBRANCH   8  26
TORSDOF 6
ENDMDL
MODEL 4
REMARK VINA RESULT:    -4.048     21.405     23.082
REMARK INTER + INTRA:          -5.190
REMARK INTER:                  -5.138
REMARK INTRA:                  -0.052
REMARK UNBOUND:                -0.313
REMARK SMILES O=c1c(O)c(-c2ccc(O)c(O)c2)oc2cc(O)cc(O)c12
REMARK SMILES IDX 5 1 3 2 2 3 1 4 22 5 20 6 19 7 17 8 16 9 15 10 14 11 6 12
REMARK SMILES IDX 7 13 8 14 9 15 13 16 11 17 10 18 12 20 4 22 21 24 18 26
REMARK H PARENT 10 19 12 21 4 23 21 25 18 27
REMARK Flexibility Score: inf
ROOT
ATOM      1  C   UNL     1       4.875   7.505  -9.261  1.00  0.00     0.180 A 
ATOM      2  C   UNL     1       5.664   8.615  -9.611  1.00  0.00     0.208 A 
ATOM      3  C   UNL     1       7.059   8.529  -9.472  1.00  0.00     0.238 A 
ATOM      4  O   UNL     1       7.752   9.550  -9.716  1.00  0.00    -0.285 OA
ATOM      5  C   UNL     1       7.651   7.318  -9.039  1.00  0.00     0.111 A 
ATOM      6  C   UNL     1       9.057   7.105  -8.906  1.00  0.00     0.134 A 
ATOM      7  C   UNL     1       9.524   5.899  -8.367  1.00  0.00     0.093 A 
ATOM      8  C   UNL     1       8.639   4.875  -8.016  1.00  0.00     0.123 A 
ATOM      9  C   UNL     1       7.270   5.054  -8.196  1.00  0.00     0.094 A 
ATOM     10  C   UNL     1       6.772   6.260  -8.695  1.00  0.00     0.146 A 
ATOM     11  O   UNL     1       5.457   6.394  -8.827  1.00  0.00    -0.452 OA
ENDROOT
BRANCH   1  12
ATOM     12  C   UNL     1       3.398   7.524  -9.366  1.00  0.00     0.025 A 
ATOM     13  C   UNL     1       2.741   6.478 -10.031  1.00  0.00     0.016 A 
ATOM     14  C   UNL     1       1.347   6.463 -10.125  1.00  0.00     0.051 A 
ATOM     15  C   UNL     1       0.589   7.484  -9.543  1.00  0.00     0.157 A 
ATOM     16  C   UNL     1       2.633   8.538  -8.763  1.00  0.00     0.062 A 
ATOM     17  C   UNL     1       1.233   8.525  -8.854  1.00  0.00     0.158 A 
BRANCH  15  18
ATOM     18  O   UNL     1      -0.801   7.444  -9.654  1.00  0.00    -0.504 OA
ATOM     19  H   UNL     1      -1.268   6.898 -10.368  1.00  0.00     0.293 HD
ENDBRANCH  15  18
BRANCH  17  20
ATOM     20  O   UNL     1       0.483   9.537  -8.259  1.00  0.00    -0.504 OA
ATOM     21  H   UNL     1       0.264  10.395  -8.751  1.00  0.00     0.293 HD
ENDBRANCH  17  20
ENDBRANCH   1  12
BRANCH   2  22
ATOM     22  O   UNL     1       5.065   9.775 -10.109  1.00  0.00    -0.502 OA
ATOM     23  H   UNL     1       4.785   9.871 -11.078  1.00  0.00     0.293 HD
ENDBRANCH   2  22
BRANCH   6  24
ATOM     24  O   UNL     1      10.031   8.024  -9.306  1.00  0.00    -0.507 OA
ATOM     25  H   UNL     1      10.354   8.147 -10.254  1.00  0.00     0.293 HD
ENDBRANCH   6  24
BRANCH   8  26
ATOM     26  O   UNL     1       9.114   3.673  -7.498  1.00  0.00    -0.508 OA
ATOM     27  H   UNL     1      10.104   3.458  -7.478  1.00  0.00     0.293 HD
ENDBRANCH   8  26
TORSDOF 6
ENDMDL
MODEL 5
REMARK VINA RESULT:    -3.735     22.791     24.244
REMARK INTER + INTRA:          -4.812
REMARK INTER:                  -4.499
REMARK INTRA:                  -0.313
REMARK UNBOUND:                -0.313
REMARK SMILES O=c1c(O)c(-c2ccc(O)c(O)c2)oc2cc(O)cc(O)c12
REMARK SMILES IDX 5 1 3 2 2 3 1 4 22 5 20 6 19 7 17 8 16 9 15 10 14 11 6 12
REMARK SMILES IDX 7 13 8 14 9 15 13 16 11 17 10 18 12 20 4 22 21 24 18 26
REMARK H PARENT 10 19 12 21 4 23 21 25 18 27
REMARK Flexibility Score: inf
ROOT
ATOM      1  C   UNL     1       2.876   8.046  -9.172  1.00  0.00     0.180 A 
ATOM      2  C   UNL     1       2.588   6.751  -9.637  1.00  0.00     0.208 A 
ATOM      3  C   UNL     1       1.247   6.350  -9.750  1.00  0.00     0.238 A 
ATOM      4  O   UNL     1       0.999   5.166 -10.097  1.00  0.00    -0.285 OA
ATOM      5  C   UNL     1       0.209   7.266  -9.451  1.00  0.00     0.111 A 
ATOM      6  C   UNL     1      -1.184   6.982  -9.573  1.00  0.00     0.134 A 
ATOM      7  C   UNL     1      -2.122   7.931  -9.147  1.00  0.00     0.093 A 
ATOM      8  C   UNL     1      -1.717   9.178  -8.662  1.00  0.00     0.123 A 
ATOM      9  C   UNL     1      -0.361   9.484  -8.591  1.00  0.00     0.094 A 
ATOM     10  C   UNL     1       0.599   8.544  -8.973  1.00  0.00     0.146 A 
ATOM     11  O   UNL     1       1.882   8.871  -8.867  1.00  0.00    -0.452 OA
ENDROOT
BRANCH   1  12
ATOM     12  C   UNL     1       4.264   8.535  -9.012  1.00  0.00     0.025 A 
ATOM     13  C   UNL     1       4.935   9.078 -10.118  1.00  0.00     0.016 A 
ATOM     14  C   UNL     1       6.237   9.566  -9.987  1.00  0.00     0.051 A 
ATOM     15  C   UNL     1       6.883   9.533  -8.747  1.00  0.00     0.157 A 
ATOM     16  C   UNL     1       4.906   8.522  -7.761  1.00  0.00     0.062 A 
ATOM     17  C   UNL     1       6.213   9.013  -7.626  1.00  0.00     0.158 A 
BRANCH  15  18
ATOM     18  O   UNL     1       8.184  10.024  -8.646  1.00  0.00    -0.504 OA
ATOM     19  H   UNL     1       8.993   9.458  -8.873  1.00  0.00     0.293 HD
ENDBRANCH  15  18
BRANCH  17  20
ATOM     20  O   UNL     1       6.845   8.991  -6.384  1.00  0.00    -0.504 OA
ATOM     21  H   UNL     1       7.381   9.782  -6.046  1.00  0.00     0.293 HD
ENDBRANCH  17  20
ENDBRANCH   1  12
BRANCH   2  22
ATOM     22  O   UNL     1       3.625   5.887 -10.001  1.00  0.00    -0.502 OA
ATOM     23  H   UNL     1       4.601   6.118  -9.857  1.00  0.00     0.293 HD
ENDBRANCH   2  22
BRANCH   6  24
ATOM     24  O   UNL     1      -1.699   5.805 -10.125  1.00  0.00    -0.507 OA
ATOM     25  H   UNL     1      -2.460   5.269  -9.736  1.00  0.00     0.293 HD
ENDBRANCH   6  24
BRANCH   8  26
ATOM     26  O   UNL     1      -2.658  10.121  -8.256  1.00  0.00    -0.508 OA
ATOM     27  H   UNL     1      -3.555   9.846  -7.874  1.00  0.00     0.293 HD
ENDBRANCH   8  26
TORSDOF 6
ENDMDL
MODEL 6
REMARK VINA RESULT:    -3.346     22.298     24.035
REMARK INTER + INTRA:          -4.344
REMARK INTER:                  -4.608
REMARK INTRA:                   0.264
REMARK UNBOUND:                -0.313
REMARK SMILES O=c1c(O)c(-c2ccc(O)c(O)c2)oc2cc(O)cc(O)c12
REMARK SMILES IDX 5 1 3 2 2 3 1 4 22 5 20 6 19 7 17 8 16 9 15 10 14 11 6 12
REMARK SMILES IDX 7 13 8 14 9 15 13 16 11 17 10 18 12 20 4 22 21 24 18 26
REMARK H PARENT 10 19 12 21 4 23 21 25 18 27
REMARK Flexibility Score: inf
ROOT
ATOM      1  C   UNL     1       3.210   7.666  -9.279  1.00  0.00     0.180 A 
ATOM      2  C   UNL     1       2.470   8.818  -8.960  1.00  0.00     0.208 A 
ATOM      3  C   UNL     1       1.069   8.741  -8.926  1.00  0.00     0.238 A 
ATOM      4  O   UNL     1       0.412   9.793  -8.713  1.00  0.00    -0.285 OA
ATOM      5  C   UNL     1       0.425   7.500  -9.157  1.00  0.00     0.111 A 
ATOM      6  C   UNL     1      -0.987   7.296  -9.104  1.00  0.00     0.134 A 
ATOM      7  C   UNL     1      -1.518   6.049  -9.454  1.00  0.00     0.093 A 
ATOM      8  C   UNL     1      -0.683   4.980  -9.795  1.00  0.00     0.123 A 
ATOM      9  C   UNL     1       0.698   5.155  -9.795  1.00  0.00     0.094 A 
ATOM     10  C   UNL     1       1.255   6.398  -9.487  1.00  0.00     0.146 A 
ATOM     11  O   UNL     1       2.577   6.525  -9.523  1.00  0.00    -0.452 OA
ENDROOT
BRANCH   1  12
ATOM     12  C   UNL     1       4.688   7.673  -9.349  1.00  0.00     0.025 A 
ATOM     13  C   UNL     1       5.394   6.481  -9.123  1.00  0.00     0.016 A 
ATOM     14  C   UNL     1       6.789   6.458  -9.204  1.00  0.00     0.051 A 
ATOM     15  C   UNL     1       7.497   7.620  -9.526  1.00  0.00     0.157 A 
ATOM     16  C   UNL     1       5.401   8.835  -9.694  1.00  0.00     0.062 A 
ATOM     17  C   UNL     1       6.801   8.813  -9.777  1.00  0.00     0.158 A 
BRANCH  15  18
ATOM     18  O   UNL     1       8.889   7.567  -9.597  1.00  0.00    -0.504 OA
ATOM     19  H   UNL     1       9.406   6.713  -9.421  1.00  0.00     0.293 HD
ENDBRANCH  15  18
BRANCH  17  20
ATOM     20  O   UNL     1       7.500   9.972 -10.114  1.00  0.00    -0.504 OA
ATOM     21  H   UNL     1       7.783  10.162 -11.068  1.00  0.00     0.293 HD
ENDBRANCH  17  20
ENDBRANCH   1  12
BRANCH   2  22
ATOM     22  O   UNL     1       3.127  10.015  -8.660  1.00  0.00    -0.502 OA
ATOM     23  H   UNL     1       3.461  10.648  -9.378  1.00  0.00     0.293 HD
ENDBRANCH   2  22
BRANCH   6  24
ATOM     24  O   UNL     1      -1.904   8.267  -8.692  1.00  0.00    -0.507 OA
ATOM     25  H   UNL     1      -2.365   8.923  -9.305  1.00  0.00     0.293 HD
ENDBRANCH   6  24
BRANCH   8  26
ATOM     26  O   UNL     1      -1.219   3.738 -10.125  1.00  0.00    -0.508 OA
ATOM     27  H   UNL     1      -0.920   2.890  -9.658  1.00  0.00     0.293 HD
ENDBRANCH   8  26
TORSDOF 6
ENDMDL
MODEL 7
REMARK VINA RESULT:    -3.328     22.440     23.191
REMARK INTER + INTRA:          -4.323
REMARK INTER:                  -4.717
REMARK INTRA:                   0.394
REMARK UNBOUND:                -0.313
REMARK SMILES O=c1c(O)c(-c2ccc(O)c(O)c2)oc2cc(O)cc(O)c12
REMARK SMILES IDX 5 1 3 2 2 3 1 4 22 5 20 6 19 7 17 8 16 9 15 10 14 11 6 12
REMARK SMILES IDX 7 13 8 14 9 15 13 16 11 17 10 18 12 20 4 22 21 24 18 26
REMARK H PARENT 10 19 12 21 4 23 21 25 18 27
REMARK Flexibility Score: inf
ROOT
ATOM      1  C   UNL     1       1.686   7.265  -9.124  1.00  0.00     0.180 A 
ATOM      2  C   UNL     1       1.782   8.505  -8.467  1.00  0.00     0.208 A 
ATOM      3  C   UNL     1       3.052   9.052  -8.225  1.00  0.00     0.238 A 
ATOM      4  O   UNL     1       3.131  10.124  -7.571  1.00  0.00    -0.285 OA
ATOM      5  C   UNL     1       4.209   8.382  -8.691  1.00  0.00     0.111 A 
ATOM      6  C   UNL     1       5.543   8.866  -8.541  1.00  0.00     0.134 A 
ATOM      7  C   UNL     1       6.618   8.066  -8.949  1.00  0.00     0.093 A 
ATOM      8  C   UNL     1       6.404   6.827  -9.558  1.00  0.00     0.123 A 
ATOM      9  C   UNL     1       5.104   6.371  -9.759  1.00  0.00     0.094 A 
ATOM     10  C   UNL     1       4.013   7.129  -9.328  1.00  0.00     0.146 A 
ATOM     11  O   UNL     1       2.791   6.645  -9.520  1.00  0.00    -0.452 OA
ENDROOT
BRANCH   1  12
ATOM     12  C   UNL     1       0.384   6.618  -9.401  1.00  0.00     0.025 A 
ATOM     13  C   UNL     1       0.339   5.236  -9.640  1.00  0.00     0.016 A 
ATOM     14  C   UNL     1      -0.881   4.600  -9.883  1.00  0.00     0.051 A 
ATOM     15  C   UNL     1      -2.073   5.330  -9.876  1.00  0.00     0.157 A 
ATOM     16  C   UNL     1      -0.817   7.347  -9.374  1.00  0.00     0.062 A 
ATOM     17  C   UNL     1      -2.044   6.710  -9.616  1.00  0.00     0.158 A 
BRANCH  15  18
ATOM     18  O   UNL     1      -3.276   4.668 -10.125  1.00  0.00    -0.504 OA
ATOM     19  H   UNL     1      -3.323   3.662 -10.237  1.00  0.00     0.293 HD
ENDBRANCH  15  18
BRANCH  17  20
ATOM     20  O   UNL     1      -3.230   7.442  -9.593  1.00  0.00    -0.504 OA
ATOM     21  H   UNL     1      -3.819   7.472  -8.769  1.00  0.00     0.293 HD
ENDBRANCH  17  20
ENDBRANCH   1  12
BRANCH   2  22
ATOM     22  O   UNL     1       0.624   9.187  -8.082  1.00  0.00    -0.502 OA
ATOM     23  H   UNL     1       0.652  10.069  -7.584  1.00  0.00     0.293 HD
ENDBRANCH   2  22
BRANCH   6  24
ATOM     24  O   UNL     1       5.867  10.125  -8.027  1.00  0.00    -0.507 OA
ATOM     25  H   UNL     1       5.554  10.484  -7.138  1.00  0.00     0.293 HD
ENDBRANCH   6  24
BRANCH   8  26
ATOM     26  O   UNL     1       7.479   6.046  -9.976  1.00  0.00    -0.508 OA
ATOM     27  H   UNL     1       8.248   6.441 -10.504  1.00  0.00     0.293 HD
ENDBRANCH   8  26
TORSDOF 6
ENDMDL
