MODEL 1
REMARK VINA RESULT:     1.697      0.000      0.000
REMARK INTER + INTRA:           8.017
REMARK INTER:                   4.475
REMARK INTRA:                   3.541
REMARK UNBOUND:                 3.541
REMARK SMILES CCCCCCCCCCCCCCCCCCCCCCCCCCCCCC(=O)[O-]
REMARK SMILES IDX 16 1 17 2 18 3 19 4 20 5 21 6 22 7 23 8 24 9 25 10 26 11
REMARK SMILES IDX 27 12 28 13 29 14 30 15 31 16 32 17 15 18 14 19 13 20 12 21
REMARK SMILES IDX 11 22 10 23 9 24 8 25 7 26 6 27 5 28 4 29 3 30 2 31 1 32
REMARK H PARENT
REMARK Flexibility Score: inf
ROOT
ATOM      1  C   UNL     1       4.987   3.247  12.882  1.00  0.00     0.000 C 
ENDROOT
BRANCH   1   2
ATOM      2  C   UNL     1       5.227   1.724  12.878  1.00  0.00     0.000 C 
BRANCH   2   3
ATOM      3  C   UNL     1       6.529   1.288  13.584  1.00  0.00     0.000 C 
BRANCH   3   4
ATOM      4  C   UNL     1       7.214   0.105  12.875  1.00  0.00     0.000 C 
BRANCH   4   5
ATOM      5  C   UNL     1       6.540  -1.242  13.187  1.00  0.00     0.000 C 
BRANCH   5   6
ATOM      6  C   UNL     1       7.019  -1.906  14.491  1.00  0.00     0.000 C 
BRANCH   6   7
ATOM      7  C   UNL     1       5.909  -1.987  15.556  1.00  0.00     0.000 C 
BRANCH   7   8
ATOM      8  C   UNL     1       6.284  -1.253  16.853  1.00  0.00     0.000 C 
BRANCH   8   9
ATOM      9  C   UNL     1       6.087  -2.124  18.103  1.00  0.00     0.000 C 
BRANCH   9  10
ATOM     10  C   UNL     1       6.652  -1.424  19.347  1.00  0.00     0.000 C 
BRANCH  10  11
ATOM     11  C   UNL     1       6.273   0.062  19.373  1.00  0.00     0.000 C 
BRANCH  11  12
ATOM     12  C   UNL     1       5.001   0.286  20.202  1.00  0.00     0.000 C 
BRANCH  12  13
ATOM     13  C   UNL     1       3.845   0.868  19.374  1.00  0.00     0.006 C 
BRANCH  13  14
ATOM     14  C   UNL     1       3.094   1.986  20.111  1.00  0.00     0.053 C 
BRANCH  14  15
ATOM     15  C   UNL     1       1.619   1.737  20.071  1.00  0.00     0.041 C 
ATOM     16  O   UNL     1       1.058   1.091  20.996  1.00  0.00    -0.550 OA
ATOM     17  O   UNL     1       0.854   2.258  19.034  1.00  0.00    -0.550 OA
ENDBRANCH  14  15
ENDBRANCH  13  14
ENDBRANCH  12  13
ENDBRANCH  11  12
ENDBRANCH  10  11
ENDBRANCH   9  10
ENDBRANCH   8   9
ENDBRANCH   7   8
ENDBRANCH   6   7
ENDBRANCH   5   6
ENDBRANCH   4   5
ENDBRANCH   3   4
ENDBRANCH   2   3
ENDBRANCH   1   2
BRANCH   1  18
ATOM     18  C   UNL     1       5.337   3.960  14.199  1.00  0.00     0.000 C 
BRANCH  18  19
ATOM     19  C   UNL     1       4.110   4.571  14.892  1.00  0.00     0.000 C 
BRANCH  19  20
ATOM     20  C   UNL     1       2.828   4.266  14.107  1.00  0.00     0.000 C 
BRANCH  20  21
ATOM     21  C   UNL     1       1.991   3.196  14.820  1.00  0.00     0.000 C 
BRANCH  21  22
ATOM     22  C   UNL     1       2.580   2.855  16.194  1.00  0.00     0.000 C 
BRANCH  22  23
ATOM     23  C   UNL     1       4.083   2.561  16.088  1.00  0.00     0.000 C 
BRANCH  23  24
ATOM     24  C   UNL     1       4.457   1.188  16.671  1.00  0.00    -0.000 C 
BRANCH  24  25
ATOM     25  C   UNL     1       3.718   0.031  15.972  1.00  0.00    -0.000 C 
BRANCH  25  26
ATOM     26  C   UNL     1       3.318   0.381  14.523  1.00  0.00    -0.000 C 
BRANCH  26  27
ATOM     27  C   UNL     1       3.518  -0.774  13.520  1.00  0.00    -0.000 C 
BRANCH  27  28
ATOM     28  C   UNL     1       2.833  -2.096  13.898  1.00  0.00    -0.000 C 
BRANCH  28  29
ATOM     29  C   UNL     1       1.733  -1.919  14.957  1.00  0.00    -0.000 C 
BRANCH  29  30
ATOM     30  C   UNL     1       0.428  -1.429  14.314  1.00  0.00    -0.000 C 
BRANCH  30  31
ATOM     31  C   UNL     1      -0.106  -0.142  14.959  1.00  0.00    -0.003 C 
ATOM     32  C   UNL     1       0.730   0.311  16.158  1.00  0.00     0.004 C 
ENDBRANCH  30  31
ENDBRANCH  29  30
ENDBRANCH  28  29
ENDBRANCH  27  28
ENDBRANCH  26  27
ENDBRANCH  25  26
ENDBRANCH  24  25
ENDBRANCH  23  24
ENDBRANCH  22  23
ENDBRANCH  21  22
ENDBRANCH  20  21
ENDBRANCH  19  20
ENDBRANCH  18  19
ENDBRANCH   1  18
TORSDOF 28
ENDMDL
MODEL 2
REMARK VINA RESULT:     1.982      1.165      2.308
REMARK INTER + INTRA:           8.768
REMARK INTER:                   5.280
REMARK INTRA:                   3.489
REMARK UNBOUND:                 3.541
REMARK SMILES CCCCCCCCCCCCCCCCCCCCCCCCCCCCCC(=O)[O-]
REMARK SMILES IDX 16 1 17 2 18 3 19 4 20 5 21 6 22 7 23 8 24 9 25 10 26 11
REMARK SMILES IDX 27 12 28 13 29 14 30 15 31 16 32 17 15 18 14 19 13 20 12 21
REMARK SMILES IDX 11 22 10 23 9 24 8 25 7 26 6 27 5 28 4 29 3 30 2 31 1 32
REMARK H PARENT
REMARK Flexibility Score: inf
ROOT
ATOM      1  C   UNL     1       4.088   2.661  17.098  1.00  0.00     0.000 C 
ENDROOT
BRANCH   1   2
ATOM      2  C   UNL     1       4.794   1.300  17.259  1.00  0.00     0.000 C 
BRANCH   2   3
ATOM      3  C   UNL     1       6.234   1.266  16.702  1.00  0.00     0.000 C 
BRANCH   3   4
ATOM      4  C   UNL     1       6.372   0.337  15.483  1.00  0.00     0.000 C 
BRANCH   4   5
ATOM      5  C   UNL     1       6.903  -1.058  15.859  1.00  0.00     0.000 C 
BRANCH   5   6
ATOM      6  C   UNL     1       5.807  -2.109  16.109  1.00  0.00     0.000 C 
BRANCH   6   7
ATOM      7  C   UNL     1       4.729  -1.618  17.094  1.00  0.00     0.000 C 
BRANCH   7   8
ATOM      8  C   UNL     1       5.163  -1.765  18.561  1.00  0.00     0.000 C 
BRANCH   8   9
ATOM      9  C   UNL     1       6.678  -1.589  18.749  1.00  0.00     0.000 C 
BRANCH   9  10
ATOM     10  C   UNL     1       6.975  -0.738  19.992  1.00  0.00     0.000 C 
BRANCH  10  11
ATOM     11  C   UNL     1       5.683  -0.291  20.686  1.00  0.00     0.000 C 
BRANCH  11  12
ATOM     12  C   UNL     1       4.667   0.231  19.660  1.00  0.00     0.000 C 
BRANCH  12  13
ATOM     13  C   UNL     1       3.711   1.280  20.248  1.00  0.00     0.006 C 
BRANCH  13  14
ATOM     14  C   UNL     1       2.241   0.839  20.192  1.00  0.00     0.053 C 
BRANCH  14  15
ATOM     15  C   UNL     1       1.349   2.025  19.999  1.00  0.00     0.041 C 
ATOM     16  O   UNL     1       1.358   2.970  20.834  1.00  0.00    -0.550 OA
ATOM     17  O   UNL     1       0.539   2.110  18.873  1.00  0.00    -0.550 OA
ENDBRANCH  14  15
ENDBRANCH  13  14
ENDBRANCH  12  13
ENDBRANCH  11  12
ENDBRANCH  10  11
ENDBRANCH   9  10
ENDBRANCH   8   9
ENDBRANCH   7   8
ENDBRANCH   6   7
ENDBRANCH   5   6
ENDBRANCH   4   5
ENDBRANCH   3   4
ENDBRANCH   2   3
ENDBRANCH   1   2
BRANCH   1  18
ATOM     18  C   UNL     1       4.622   3.544  15.958  1.00  0.00     0.000 C 
BRANCH  18  19
ATOM     19  C   UNL     1       3.617   4.617  15.512  1.00  0.00     0.000 C 
BRANCH  19  20
ATOM     20  C   UNL     1       2.848   4.164  14.266  1.00  0.00     0.000 C 
BRANCH  20  21
ATOM     21  C   UNL     1       3.657   4.441  12.991  1.00  0.00     0.000 C 
BRANCH  21  22
ATOM     22  C   UNL     1       4.870   3.509  12.891  1.00  0.00     0.000 C 
BRANCH  22  23
ATOM     23  C   UNL     1       4.431   2.038  12.875  1.00  0.00     0.000 C 
BRANCH  23  24
ATOM     24  C   UNL     1       5.597   1.073  13.145  1.00  0.00    -0.000 C 
BRANCH  24  25
ATOM     25  C   UNL     1       5.206  -0.400  12.915  1.00  0.00    -0.000 C 
BRANCH  25  26
ATOM     26  C   UNL     1       3.676  -0.603  12.884  1.00  0.00    -0.000 C 
BRANCH  26  27
ATOM     27  C   UNL     1       3.225  -2.031  13.254  1.00  0.00    -0.000 C 
BRANCH  27  28
ATOM     28  C   UNL     1       2.259  -2.125  14.446  1.00  0.00    -0.000 C 
BRANCH  28  29
ATOM     29  C   UNL     1       2.649  -1.197  15.607  1.00  0.00    -0.000 C 
BRANCH  29  30
ATOM     30  C   UNL     1       2.183   0.242  15.339  1.00  0.00    -0.000 C 
BRANCH  30  31
ATOM     31  C   UNL     1       0.912   0.303  14.480  1.00  0.00    -0.003 C 
ATOM     32  C   UNL     1      -0.334   0.670  15.288  1.00  0.00     0.004 C 
ENDBRANCH  30  31
ENDBRANCH  29  30
ENDBRANCH  28  29
ENDBRANCH  27  28
ENDBRANCH  26  27
ENDBRANCH  25  26
ENDBRANCH  24  25
ENDBRANCH  23  24
ENDBRANCH  22  23
ENDBRANCH  21  22
ENDBRANCH  20  21
ENDBRANCH  19  20
ENDBRANCH  18  19
ENDBRANCH   1  18
TORSDOF 28
ENDMDL
MODEL 3
REMARK VINA RESULT:     3.629      1.828      5.275
REMARK INTER + INTRA:          13.111
REMARK INTER:                  13.241
REMARK INTRA:                  -0.130
REMARK UNBOUND:                 3.541
REMARK SMILES CCCCCCCCCCCCCCCCCCCCCCCCCCCCCC(=O)[O-]
REMARK SMILES IDX 16 1 17 2 18 3 19 4 20 5 21 6 22 7 23 8 24 9 25 10 26 11
REMARK SMILES IDX 27 12 28 13 29 14 30 15 31 16 32 17 15 18 14 19 13 20 12 21
REMARK SMILES IDX 11 22 10 23 9 24 8 25 7 26 6 27 5 28 4 29 3 30 2 31 1 32
REMARK H PARENT
REMARK Flexibility Score: inf
ROOT
ATOM      1  C   UNL     1       4.166   0.546  19.641  1.00  0.00     0.000 C 
ENDROOT
BRANCH   1   2
ATOM      2  C   UNL     1       5.189  -0.039  20.636  1.00  0.00     0.000 C 
BRANCH   2   3
ATOM      3  C   UNL     1       6.497  -0.532  19.980  1.00  0.00     0.000 C 
BRANCH   3   4
ATOM      4  C   UNL     1       6.611  -0.108  18.505  1.00  0.00     0.000 C 
BRANCH   4   5
ATOM      5  C   UNL     1       5.957  -1.119  17.547  1.00  0.00     0.000 C 
BRANCH   5   6
ATOM      6  C   UNL     1       6.939  -2.121  16.912  1.00  0.00     0.000 C 
BRANCH   6   7
ATOM      7  C   UNL     1       6.874  -2.119  15.373  1.00  0.00     0.000 C 
BRANCH   7   8
ATOM      8  C   UNL     1       6.497  -0.743  14.802  1.00  0.00     0.000 C 
BRANCH   8   9
ATOM      9  C   UNL     1       5.914  -0.832  13.383  1.00  0.00     0.000 C 
BRANCH   9  10
ATOM     10  C   UNL     1       5.456   0.551  12.897  1.00  0.00     0.000 C 
BRANCH  10  11
ATOM     11  C   UNL     1       6.532   1.615  13.144  1.00  0.00     0.000 C 
BRANCH  11  12
ATOM     12  C   UNL     1       5.916   3.021  13.151  1.00  0.00     0.000 C 
BRANCH  12  13
ATOM     13  C   UNL     1       4.404   3.011  12.875  1.00  0.00     0.006 C 
BRANCH  13  14
ATOM     14  C   UNL     1       3.737   4.358  13.185  1.00  0.00     0.053 C 
BRANCH  14  15
ATOM     15  C   UNL     1       3.011   4.291  14.492  1.00  0.00     0.041 C 
ATOM     16  O   UNL     1       1.762   4.127  14.518  1.00  0.00    -0.550 OA
ATOM     17  O   UNL     1       3.721   4.364  15.685  1.00  0.00    -0.550 OA
ENDBRANCH  14  15
ENDBRANCH  13  14
ENDBRANCH  12  13
ENDBRANCH  11  12
ENDBRANCH  10  11
ENDBRANCH   9  10
ENDBRANCH   8   9
ENDBRANCH   7   8
ENDBRANCH   6   7
ENDBRANCH   5   6
ENDBRANCH   4   5
ENDBRANCH   3   4
ENDBRANCH   2   3
ENDBRANCH   1   2
BRANCH   1  18
ATOM     18  C   UNL     1       4.665   1.749  18.823  1.00  0.00     0.000 C 
BRANCH  18  19
ATOM     19  C   UNL     1       3.818   2.010  17.568  1.00  0.00     0.000 C 
BRANCH  19  20
ATOM     20  C   UNL     1       4.544   1.529  16.306  1.00  0.00     0.000 C 
BRANCH  20  21
ATOM     21  C   UNL     1       3.678   0.535  15.521  1.00  0.00     0.000 C 
BRANCH  21  22
ATOM     22  C   UNL     1       3.440  -0.748  16.324  1.00  0.00     0.000 C 
BRANCH  22  23
ATOM     23  C   UNL     1       3.311  -1.962  15.392  1.00  0.00     0.000 C 
BRANCH  23  24
ATOM     24  C   UNL     1       2.096  -1.859  14.456  1.00  0.00    -0.000 C 
BRANCH  24  25
ATOM     25  C   UNL     1       2.021  -0.499  13.736  1.00  0.00    -0.000 C 
BRANCH  25  26
ATOM     26  C   UNL     1       0.625   0.149  13.849  1.00  0.00    -0.000 C 
BRANCH  26  27
ATOM     27  C   UNL     1      -0.021   0.011  15.243  1.00  0.00    -0.000 C 
BRANCH  27  28
ATOM     28  C   UNL     1       0.131   1.235  16.160  1.00  0.00    -0.000 C 
BRANCH  28  29
ATOM     29  C   UNL     1       0.789   0.897  17.507  1.00  0.00    -0.000 C 
BRANCH  29  30
ATOM     30  C   UNL     1       0.737   2.100  18.459  1.00  0.00    -0.000 C 
BRANCH  30  31
ATOM     31  C   UNL     1       1.052   1.720  19.914  1.00  0.00    -0.003 C 
ATOM     32  C   UNL     1       1.504   2.914  20.755  1.00  0.00     0.004 C 
ENDBRANCH  30  31
ENDBRANCH  29  30
ENDBRANCH  28  29
ENDBRANCH  27  28
ENDBRANCH  26  27
ENDBRANCH  25  26
ENDBRANCH  24  25
ENDBRANCH  23  24
ENDBRANCH  22  23
ENDBRANCH  21  22
ENDBRANCH  20  21
ENDBRANCH  19  20
ENDBRANCH  18  19
ENDBRANCH   1  18
TORSDOF 28
ENDMDL
MODEL 4
REMARK VINA RESULT:     3.774      1.055      2.996
REMARK INTER + INTRA:          13.493
REMARK INTER:                   9.805
REMARK INTRA:                   3.689
REMARK UNBOUND:                 3.541
REMARK SMILES CCCCCCCCCCCCCCCCCCCCCCCCCCCCCC(=O)[O-]
REMARK SMILES IDX 16 1 17 2 18 3 19 4 20 5 21 6 22 7 23 8 24 9 25 10 26 11
REMARK SMILES IDX 27 12 28 13 29 14 30 15 31 16 32 17 15 18 14 19 13 20 12 21
REMARK SMILES IDX 11 22 10 23 9 24 8 25 7 26 6 27 5 28 4 29 3 30 2 31 1 32
REMARK H PARENT
REMARK Flexibility Score: inf
ROOT
ATOM      1  C   UNL     1       2.440   4.172  15.128  1.00  0.00     0.000 C 
ENDROOT
BRANCH   1   2
ATOM      2  C   UNL     1       1.673   3.137  14.282  1.00  0.00     0.000 C 
BRANCH   2   3
ATOM      3  C   UNL     1       2.560   2.014  13.701  1.00  0.00     0.000 C 
BRANCH   3   4
ATOM      4  C   UNL     1       3.481   1.385  14.760  1.00  0.00     0.000 C 
BRANCH   4   5
ATOM      5  C   UNL     1       3.459   2.152  16.095  1.00  0.00     0.000 C 
BRANCH   5   6
ATOM      6  C   UNL     1       4.487   1.658  17.129  1.00  0.00     0.000 C 
BRANCH   6   7
ATOM      7  C   UNL     1       5.580   0.773  16.501  1.00  0.00     0.000 C 
BRANCH   7   8
ATOM      8  C   UNL     1       6.623   0.310  17.530  1.00  0.00     0.000 C 
BRANCH   8   9
ATOM      9  C   UNL     1       6.713  -1.221  17.632  1.00  0.00     0.000 C 
BRANCH   9  10
ATOM     10  C   UNL     1       5.893  -1.734  18.825  1.00  0.00     0.000 C 
BRANCH  10  11
ATOM     11  C   UNL     1       4.559  -0.989  18.947  1.00  0.00     0.000 C 
BRANCH  11  12
ATOM     12  C   UNL     1       4.726   0.294  19.773  1.00  0.00     0.000 C 
BRANCH  12  13
ATOM     13  C   UNL     1       3.382   0.907  20.199  1.00  0.00     0.006 C 
BRANCH  13  14
ATOM     14  C   UNL     1       2.627   1.548  19.027  1.00  0.00     0.053 C 
BRANCH  14  15
ATOM     15  C   UNL     1       1.346   2.159  19.505  1.00  0.00     0.041 C 
ATOM     16  O   UNL     1       0.345   2.214  18.742  1.00  0.00    -0.550 OA
ATOM     17  O   UNL     1       1.244   2.626  20.810  1.00  0.00    -0.550 OA
ENDBRANCH  14  15
ENDBRANCH  13  14
ENDBRANCH  12  13
ENDBRANCH  11  12
ENDBRANCH  10  11
ENDBRANCH   9  10
ENDBRANCH   8   9
ENDBRANCH   7   8
ENDBRANCH   6   7
ENDBRANCH   5   6
ENDBRANCH   4   5
ENDBRANCH   3   4
ENDBRANCH   2   3
ENDBRANCH   1   2
BRANCH   1  18
ATOM     18  C   UNL     1       3.339   5.132  14.331  1.00  0.00     0.000 C 
BRANCH  18  19
ATOM     19  C   UNL     1       4.197   4.413  13.279  1.00  0.00     0.000 C 
BRANCH  19  20
ATOM     20  C   UNL     1       5.463   3.824  13.914  1.00  0.00     0.000 C 
BRANCH  20  21
ATOM     21  C   UNL     1       6.288   3.052  12.877  1.00  0.00     0.000 C 
BRANCH  21  22
ATOM     22  C   UNL     1       5.953   1.556  12.903  1.00  0.00     0.000 C 
BRANCH  22  23
ATOM     23  C   UNL     1       7.216   0.717  13.139  1.00  0.00     0.000 C 
BRANCH  23  24
ATOM     24  C   UNL     1       6.961  -0.486  14.063  1.00  0.00    -0.000 C 
BRANCH  24  25
ATOM     25  C   UNL     1       6.786  -1.801  13.281  1.00  0.00    -0.000 C 
BRANCH  25  26
ATOM     26  C   UNL     1       5.308  -2.089  12.939  1.00  0.00    -0.000 C 
BRANCH  26  27
ATOM     27  C   UNL     1       4.375  -2.120  14.166  1.00  0.00    -0.000 C 
BRANCH  27  28
ATOM     28  C   UNL     1       2.871  -2.089  13.847  1.00  0.00    -0.000 C 
BRANCH  28  29
ATOM     29  C   UNL     1       1.992  -2.055  15.107  1.00  0.00    -0.000 C 
BRANCH  29  30
ATOM     30  C   UNL     1       0.535  -1.730  14.749  1.00  0.00    -0.000 C 
BRANCH  30  31
ATOM     31  C   UNL     1       0.235  -0.224  14.792  1.00  0.00    -0.003 C 
ATOM     32  C   UNL     1       1.074   0.518  15.832  1.00  0.00     0.004 C 
ENDBRANCH  30  31
ENDBRANCH  29  30
ENDBRANCH  28  29
ENDBRANCH  27  28
ENDBRANCH  26  27
ENDBRANCH  25  26
ENDBRANCH  24  25
ENDBRANCH  23  24
ENDBRANCH  22  23
ENDBRANCH  21  22
ENDBRANCH  20  21
ENDBRANCH  19  20
ENDBRANCH  18  19
ENDBRANCH   1  18
TORSDOF 28
ENDMDL
MODEL 5
REMARK VINA RESULT:     3.957      1.773      5.776
REMARK INTER + INTRA:          13.976
REMARK INTER:                   9.718
REMARK INTRA:                   4.258
REMARK UNBOUND:                 3.541
REMARK SMILES CCCCCCCCCCCCCCCCCCCCCCCCCCCCCC(=O)[O-]
REMARK SMILES IDX 16 1 17 2 18 3 19 4 20 5 21 6 22 7 23 8 24 9 25 10 26 11
REMARK SMILES IDX 27 12 28 13 29 14 30 15 31 16 32 17 15 18 14 19 13 20 12 21
REMARK SMILES IDX 11 22 10 23 9 24 8 25 7 26 6 27 5 28 4 29 3 30 2 31 1 32
REMARK H PARENT
REMARK Flexibility Score: inf
ROOT
ATOM      1  C   UNL     1       6.163  -0.320  18.458  1.00  0.00     0.000 C 
ENDROOT
BRANCH   1   2
ATOM      2  C   UNL     1       5.537  -0.009  19.832  1.00  0.00     0.000 C 
BRANCH   2   3
ATOM      3  C   UNL     1       4.023  -0.301  19.918  1.00  0.00     0.000 C 
BRANCH   3   4
ATOM      4  C   UNL     1       3.208   0.935  20.335  1.00  0.00     0.000 C 
BRANCH   4   5
ATOM      5  C   UNL     1       2.947   1.897  19.162  1.00  0.00     0.000 C 
BRANCH   5   6
ATOM      6  C   UNL     1       4.216   2.351  18.419  1.00  0.00     0.000 C 
BRANCH   6   7
ATOM      7  C   UNL     1       3.996   2.487  16.900  1.00  0.00     0.000 C 
BRANCH   7   8
ATOM      8  C   UNL     1       4.485   1.255  16.123  1.00  0.00     0.000 C 
BRANCH   8   9
ATOM      9  C   UNL     1       6.009   1.244  15.931  1.00  0.00     0.000 C 
BRANCH   9  10
ATOM     10  C   UNL     1       6.391   1.868  14.581  1.00  0.00     0.000 C 
BRANCH  10  11
ATOM     11  C   UNL     1       5.157   2.085  13.697  1.00  0.00     0.000 C 
BRANCH  11  12
ATOM     12  C   UNL     1       5.192   3.475  13.045  1.00  0.00     0.000 C 
BRANCH  12  13
ATOM     13  C   UNL     1       5.020   4.614  14.061  1.00  0.00     0.006 C 
BRANCH  13  14
ATOM     14  C   UNL     1       3.742   4.472  14.898  1.00  0.00     0.053 C 
BRANCH  14  15
ATOM     15  C   UNL     1       2.599   4.039  14.034  1.00  0.00     0.041 C 
ATOM     16  O   UNL     1       1.881   3.060  14.373  1.00  0.00    -0.550 OA
ATOM     17  O   UNL     1       2.297   4.745  12.876  1.00  0.00    -0.550 OA
ENDBRANCH  14  15
ENDBRANCH  13  14
ENDBRANCH  12  13
ENDBRANCH  11  12
ENDBRANCH  10  11
ENDBRANCH   9  10
ENDBRANCH   8   9
ENDBRANCH   7   8
ENDBRANCH   6   7
ENDBRANCH   5   6
ENDBRANCH   4   5
ENDBRANCH   3   4
ENDBRANCH   2   3
ENDBRANCH   1   2
BRANCH   1  18
ATOM     18  C   UNL     1       5.999  -1.772  17.979  1.00  0.00     0.000 C 
BRANCH  18  19
ATOM     19  C   UNL     1       6.926  -2.123  16.806  1.00  0.00     0.000 C 
BRANCH  19  20
ATOM     20  C   UNL     1       6.429  -1.484  15.504  1.00  0.00     0.000 C 
BRANCH  20  21
ATOM     21  C   UNL     1       7.367  -1.817  14.336  1.00  0.00     0.000 C 
BRANCH  21  22
ATOM     22  C   UNL     1       6.740  -1.426  12.993  1.00  0.00     0.000 C 
BRANCH  22  23
ATOM     23  C   UNL     1       5.263  -1.840  12.937  1.00  0.00     0.000 C 
BRANCH  23  24
ATOM     24  C   UNL     1       4.314  -0.632  12.878  1.00  0.00    -0.000 C 
BRANCH  24  25
ATOM     25  C   UNL     1       3.084  -0.805  13.789  1.00  0.00    -0.000 C 
BRANCH  25  26
ATOM     26  C   UNL     1       3.126  -2.125  14.587  1.00  0.00    -0.000 C 
BRANCH  26  27
ATOM     27  C   UNL     1       2.809  -1.962  16.088  1.00  0.00    -0.000 C 
BRANCH  27  28
ATOM     28  C   UNL     1       2.747  -0.511  16.591  1.00  0.00    -0.000 C 
BRANCH  28  29
ATOM     29  C   UNL     1       2.133   0.453  15.564  1.00  0.00    -0.000 C 
BRANCH  29  30
ATOM     30  C   UNL     1       0.670   0.765  15.912  1.00  0.00    -0.000 C 
BRANCH  30  31
ATOM     31  C   UNL     1      -0.321   0.159  14.908  1.00  0.00    -0.003 C 
ATOM     32  C   UNL     1       0.302  -0.944  14.050  1.00  0.00     0.004 C 
ENDBRANCH  30  31
ENDBRANCH  29  30
ENDBRANCH  28  29
ENDBRANCH  27  28
ENDBRANCH  26  27
ENDBRANCH  25  26
ENDBRANCH  24  25
ENDBRANCH  23  24
ENDBRANCH  22  23
ENDBRANCH  21  22
ENDBRANCH  20  21
ENDBRANCH  19  20
ENDBRANCH  18  19
ENDBRANCH   1  18
TORSDOF 28
ENDMDL
MODEL 6
REMARK VINA RESULT:     4.635      1.769      5.392
REMARK INTER + INTRA:          15.763
REMARK INTER:                  13.277
REMARK INTRA:                   2.486
REMARK UNBOUND:                 3.541
REMARK SMILES CCCCCCCCCCCCCCCCCCCCCCCCCCCCCC(=O)[O-]
REMARK SMILES IDX 16 1 17 2 18 3 19 4 20 5 21 6 22 7 23 8 24 9 25 10 26 11
REMARK SMILES IDX 27 12 28 13 29 14 30 15 31 16 32 17 15 18 14 19 13 20 12 21
REMARK SMILES IDX 11 22 10 23 9 24 8 25 7 26 6 27 5 28 4 29 3 30 2 31 1 32
REMARK H PARENT
REMARK Flexibility Score: inf
ROOT
ATOM      1  C   UNL     1       2.524   3.681  15.527  1.00  0.00     0.000 C 
ENDROOT
BRANCH   1   2
ATOM      2  C   UNL     1       2.354   3.895  14.010  1.00  0.00     0.000 C 
BRANCH   2   3
ATOM      3  C   UNL     1       3.184   5.067  13.441  1.00  0.00     0.000 C 
BRANCH   3   4
ATOM      4  C   UNL     1       4.584   4.625  12.979  1.00  0.00     0.000 C 
BRANCH   4   5
ATOM      5  C   UNL     1       4.798   3.106  13.106  1.00  0.00     0.000 C 
BRANCH   5   6
ATOM      6  C   UNL     1       6.219   2.698  13.532  1.00  0.00     0.000 C 
BRANCH   6   7
ATOM      7  C   UNL     1       6.245   1.368  14.310  1.00  0.00     0.000 C 
BRANCH   7   8
ATOM      8  C   UNL     1       6.744   0.195  13.451  1.00  0.00     0.000 C 
BRANCH   8   9
ATOM      9  C   UNL     1       7.092  -1.044  14.289  1.00  0.00     0.000 C 
BRANCH   9  10
ATOM     10  C   UNL     1       5.949  -2.068  14.245  1.00  0.00     0.000 C 
BRANCH  10  11
ATOM     11  C   UNL     1       5.255  -2.072  12.878  1.00  0.00     0.000 C 
BRANCH  11  12
ATOM     12  C   UNL     1       3.729  -2.120  13.042  1.00  0.00     0.000 C 
BRANCH  12  13
ATOM     13  C   UNL     1       3.195  -1.026  13.979  1.00  0.00     0.006 C 
BRANCH  13  14
ATOM     14  C   UNL     1       1.909  -1.444  14.704  1.00  0.00     0.053 C 
BRANCH  14  15
ATOM     15  C   UNL     1       0.941  -0.303  14.749  1.00  0.00     0.041 C 
ATOM     16  O   UNL     1       1.311   0.857  14.422  1.00  0.00    -0.550 OA
ATOM     17  O   UNL     1      -0.383  -0.528  15.108  1.00  0.00    -0.550 OA
ENDBRANCH  14  15
ENDBRANCH  13  14
ENDBRANCH  12  13
ENDBRANCH  11  12
ENDBRANCH  10  11
ENDBRANCH   9  10
ENDBRANCH   8   9
ENDBRANCH   7   8
ENDBRANCH   6   7
ENDBRANCH   5   6
ENDBRANCH   4   5
ENDBRANCH   3   4
ENDBRANCH   2   3
ENDBRANCH   1   2
BRANCH   1  18
ATOM     18  C   UNL     1       3.689   2.761  15.931  1.00  0.00     0.000 C 
BRANCH  18  19
ATOM     19  C   UNL     1       3.361   1.270  15.757  1.00  0.00     0.000 C 
BRANCH  19  20
ATOM     20  C   UNL     1       3.950   0.442  16.904  1.00  0.00     0.000 C 
BRANCH  20  21
ATOM     21  C   UNL     1       5.073  -0.474  16.400  1.00  0.00     0.000 C 
BRANCH  21  22
ATOM     22  C   UNL     1       5.174  -1.747  17.248  1.00  0.00     0.000 C 
BRANCH  22  23
ATOM     23  C   UNL     1       5.570  -1.411  18.693  1.00  0.00     0.000 C 
BRANCH  23  24
ATOM     24  C   UNL     1       6.213  -0.020  18.820  1.00  0.00    -0.000 C 
BRANCH  24  25
ATOM     25  C   UNL     1       5.544   0.840  19.910  1.00  0.00    -0.000 C 
BRANCH  25  26
ATOM     26  C   UNL     1       4.381   0.103  20.607  1.00  0.00    -0.000 C 
BRANCH  26  27
ATOM     27  C   UNL     1       3.000   0.367  19.974  1.00  0.00    -0.000 C 
BRANCH  27  28
ATOM     28  C   UNL     1       2.723   1.830  19.592  1.00  0.00    -0.000 C 
BRANCH  28  29
ATOM     29  C   UNL     1       1.227   2.128  19.407  1.00  0.00    -0.000 C 
BRANCH  29  30
ATOM     30  C   UNL     1       0.654   2.841  20.640  1.00  0.00    -0.000 C 
BRANCH  30  31
ATOM     31  C   UNL     1       0.284   4.305  20.360  1.00  0.00    -0.003 C 
ATOM     32  C   UNL     1      -0.598   4.468  19.121  1.00  0.00     0.004 C 
ENDBRANCH  30  31
ENDBRANCH  29  30
ENDBRANCH  28  29
ENDBRANCH  27  28
ENDBRANCH  26  27
ENDBRANCH  25  26
ENDBRANCH  24  25
ENDBRANCH  23  24
ENDBRANCH  22  23
ENDBRANCH  21  22
ENDBRANCH  20  21
ENDBRANCH  19  20
ENDBRANCH  18  19
ENDBRANCH   1  18
TORSDOF 28
ENDMDL
