MODEL 1
REMARK VINA RESULT:    -6.364      0.000      0.000
REMARK INTER + INTRA:          -7.787
REMARK INTER:                  -7.480
REMARK INTRA:                  -0.307
REMARK UNBOUND:                -0.307
REMARK SMILES O=c1cc(-c2ccc(O)c(O)c2)oc2cc(O)cc(O)c12
REMARK SMILES IDX 4 1 3 2 2 3 1 4 21 5 19 6 18 7 16 8 15 9 14 10 13 11 5 12
REMARK SMILES IDX 6 13 7 14 8 15 12 16 10 17 9 18 11 20 20 22 17 24
REMARK H PARENT 9 19 11 21 20 23 17 25
REMARK Flexibility Score: inf
ROOT
ATOM      1  C   UNL     1      21.176  40.255   5.186  1.00  0.00     0.138 A 
ATOM      2  C   UNL     1      21.182  41.051   6.339  1.00  0.00     0.100 A 
ATOM      3  C   UNL     1      21.383  40.458   7.587  1.00  0.00     0.197 A 
ATOM      4  O   UNL     1      21.321  41.189   8.609  1.00  0.00    -0.289 OA
ATOM      5  C   UNL     1      21.612  39.064   7.674  1.00  0.00     0.107 A 
ATOM      6  C   UNL     1      21.870  38.357   8.886  1.00  0.00     0.134 A 
ATOM      7  C   UNL     1      21.966  36.961   8.863  1.00  0.00     0.093 A 
ATOM      8  C   UNL     1      21.873  36.250   7.667  1.00  0.00     0.123 A 
ATOM      9  C   UNL     1      21.674  36.936   6.468  1.00  0.00     0.094 A 
ATOM     10  C   UNL     1      21.541  38.327   6.462  1.00  0.00     0.146 A 
ATOM     11  O   UNL     1      21.338  38.941   5.300  1.00  0.00    -0.456 OA
ENDROOT
BRANCH   1  12
ATOM     12  C   UNL     1      20.967  40.834   3.835  1.00  0.00     0.021 A 
ATOM     13  C   UNL     1      21.346  42.165   3.586  1.00  0.00     0.016 A 
ATOM     14  C   UNL     1      21.153  42.735   2.326  1.00  0.00     0.051 A 
ATOM     15  C   UNL     1      20.567  41.991   1.295  1.00  0.00     0.157 A 
ATOM     16  C   UNL     1      20.366  40.095   2.797  1.00  0.00     0.062 A 
ATOM     17  C   UNL     1      20.169  40.666   1.534  1.00  0.00     0.158 A 
BRANCH  15  18
ATOM     18  O   UNL     1      20.378  42.563   0.038  1.00  0.00    -0.504 OA
ATOM     19  H   UNL     1      20.918  42.269  -0.767  1.00  0.00     0.293 HD
ENDBRANCH  15  18
BRANCH  17  20
ATOM     20  O   UNL     1      19.574  39.902   0.530  1.00  0.00    -0.504 OA
ATOM     21  H   UNL     1      18.835  40.268  -0.058  1.00  0.00     0.293 HD
ENDBRANCH  17  20
ENDBRANCH   1  12
BRANCH   6  22
ATOM     22  O   UNL     1      22.064  38.977  10.125  1.00  0.00    -0.507 OA
ATOM     23  H   UNL     1      21.955  39.963  10.300  1.00  0.00     0.293 HD
ENDBRANCH   6  22
BRANCH   8  24
ATOM     24  O   UNL     1      21.988  34.862   7.680  1.00  0.00    -0.508 OA
ATOM     25  H   UNL     1      22.075  34.329   6.823  1.00  0.00     0.293 HD
ENDBRANCH   8  24
TORSDOF 5
ENDMDL
MODEL 2
REMARK VINA RESULT:    -6.282      3.650      6.766
REMARK INTER + INTRA:          -7.691
REMARK INTER:                  -7.395
REMARK INTRA:                  -0.296
REMARK UNBOUND:                -0.307
REMARK SMILES O=c1cc(-c2ccc(O)c(O)c2)oc2cc(O)cc(O)c12
REMARK SMILES IDX 4 1 3 2 2 3 1 4 21 5 19 6 18 7 16 8 15 9 14 10 13 11 5 12
REMARK SMILES IDX 6 13 7 14 8 15 12 16 10 17 9 18 11 20 20 22 17 24
REMARK H PARENT 9 19 11 21 20 23 17 25
REMARK Flexibility Score: inf
ROOT
ATOM      1  C   UNL     1      18.827  40.938   6.265  1.00  0.00     0.138 A 
ATOM      2  C   UNL     1      19.562  39.752   6.395  1.00  0.00     0.100 A 
ATOM      3  C   UNL     1      20.525  39.428   5.437  1.00  0.00     0.197 A 
ATOM      4  O   UNL     1      21.124  38.327   5.545  1.00  0.00    -0.289 OA
ATOM      5  C   UNL     1      20.774  40.315   4.363  1.00  0.00     0.107 A 
ATOM      6  C   UNL     1      21.759  40.110   3.351  1.00  0.00     0.134 A 
ATOM      7  C   UNL     1      21.836  40.999   2.273  1.00  0.00     0.093 A 
ATOM      8  C   UNL     1      21.006  42.117   2.199  1.00  0.00     0.123 A 
ATOM      9  C   UNL     1      20.076  42.357   3.210  1.00  0.00     0.094 A 
ATOM     10  C   UNL     1      19.951  41.470   4.283  1.00  0.00     0.146 A 
ATOM     11  O   UNL     1      19.042  41.727   5.218  1.00  0.00    -0.456 OA
ENDROOT
BRANCH   1  12
ATOM     12  C   UNL     1      17.792  41.331   7.255  1.00  0.00     0.021 A 
ATOM     13  C   UNL     1      18.033  41.129   8.625  1.00  0.00     0.016 A 
ATOM     14  C   UNL     1      17.073  41.483   9.575  1.00  0.00     0.051 A 
ATOM     15  C   UNL     1      15.850  42.034   9.174  1.00  0.00     0.157 A 
ATOM     16  C   UNL     1      16.555  41.874   6.857  1.00  0.00     0.062 A 
ATOM     17  C   UNL     1      15.590  42.227   7.808  1.00  0.00     0.158 A 
BRANCH  15  18
ATOM     18  O   UNL     1      14.895  42.387  10.125  1.00  0.00    -0.504 OA
ATOM     19  H   UNL     1      13.976  42.722   9.857  1.00  0.00     0.293 HD
ENDBRANCH  15  18
BRANCH  17  20
ATOM     20  O   UNL     1      14.378  42.764   7.375  1.00  0.00    -0.504 OA
ATOM     21  H   UNL     1      13.521  42.223   7.366  1.00  0.00     0.293 HD
ENDBRANCH  17  20
ENDBRANCH   1  12
BRANCH   6  22
ATOM     22  O   UNL     1      22.695  39.071   3.373  1.00  0.00    -0.507 OA
ATOM     23  H   UNL     1      23.230  38.793   4.180  1.00  0.00     0.293 HD
ENDBRANCH   6  22
BRANCH   8  24
ATOM     24  O   UNL     1      21.122  42.988   1.118  1.00  0.00    -0.508 OA
ATOM     25  H   UNL     1      21.911  42.945   0.484  1.00  0.00     0.293 HD
ENDBRANCH   8  24
TORSDOF 5
ENDMDL
MODEL 3
REMARK VINA RESULT:    -6.191      1.027      1.391
REMARK INTER + INTRA:          -7.584
REMARK INTER:                  -7.305
REMARK INTRA:                  -0.279
REMARK UNBOUND:                -0.307
REMARK SMILES O=c1cc(-c2ccc(O)c(O)c2)oc2cc(O)cc(O)c12
REMARK SMILES IDX 4 1 3 2 2 3 1 4 21 5 19 6 18 7 16 8 15 9 14 10 13 11 5 12
REMARK SMILES IDX 6 13 7 14 8 15 12 16 10 17 9 18 11 20 20 22 17 24
REMARK H PARENT 9 19 11 21 20 23 17 25
REMARK Flexibility Score: inf
ROOT
ATOM      1  C   UNL     1      21.043  40.679   5.258  1.00  0.00     0.138 A 
ATOM      2  C   UNL     1      21.025  41.387   6.467  1.00  0.00     0.100 A 
ATOM      3  C   UNL     1      21.215  40.705   7.670  1.00  0.00     0.197 A 
ATOM      4  O   UNL     1      21.131  41.357   8.742  1.00  0.00    -0.289 OA
ATOM      5  C   UNL     1      21.456  39.311   7.657  1.00  0.00     0.107 A 
ATOM      6  C   UNL     1      21.704  38.518   8.818  1.00  0.00     0.134 A 
ATOM      7  C   UNL     1      21.815  37.128   8.693  1.00  0.00     0.093 A 
ATOM      8  C   UNL     1      21.746  36.508   7.446  1.00  0.00     0.123 A 
ATOM      9  C   UNL     1      21.557  37.279   6.298  1.00  0.00     0.094 A 
ATOM     10  C   UNL     1      21.410  38.665   6.393  1.00  0.00     0.146 A 
ATOM     11  O   UNL     1      21.217  39.362   5.277  1.00  0.00    -0.456 OA
ENDROOT
BRANCH   1  12
ATOM     12  C   UNL     1      20.847  41.354   3.951  1.00  0.00     0.021 A 
ATOM     13  C   UNL     1      21.659  41.000   2.860  1.00  0.00     0.016 A 
ATOM     14  C   UNL     1      21.500  41.626   1.621  1.00  0.00     0.051 A 
ATOM     15  C   UNL     1      20.534  42.625   1.453  1.00  0.00     0.157 A 
ATOM     16  C   UNL     1      19.885  42.369   3.778  1.00  0.00     0.062 A 
ATOM     17  C   UNL     1      19.726  43.000   2.539  1.00  0.00     0.158 A 
BRANCH  15  18
ATOM     18  O   UNL     1      20.377  43.247   0.216  1.00  0.00    -0.504 OA
ATOM     19  H   UNL     1      19.693  42.923  -0.459  1.00  0.00     0.293 HD
ENDBRANCH  15  18
BRANCH  17  20
ATOM     20  O   UNL     1      18.762  43.999   2.406  1.00  0.00    -0.504 OA
ATOM     21  H   UNL     1      17.784  43.835   2.613  1.00  0.00     0.293 HD
ENDBRANCH  17  20
ENDBRANCH   1  12
BRANCH   6  22
ATOM     22  O   UNL     1      21.875  39.046  10.101  1.00  0.00    -0.507 OA
ATOM     23  H   UNL     1      21.203  39.621  10.583  1.00  0.00     0.293 HD
ENDBRANCH   6  22
BRANCH   8  24
ATOM     24  O   UNL     1      21.875  35.123   7.359  1.00  0.00    -0.508 OA
ATOM     25  H   UNL     1      22.538  34.692   6.725  1.00  0.00     0.293 HD
ENDBRANCH   8  24
TORSDOF 5
ENDMDL
MODEL 4
REMARK VINA RESULT:    -6.132      3.952      6.179
REMARK INTER + INTRA:          -7.514
REMARK INTER:                  -7.220
REMARK INTRA:                  -0.293
REMARK UNBOUND:                -0.307
REMARK SMILES O=c1cc(-c2ccc(O)c(O)c2)oc2cc(O)cc(O)c12
REMARK SMILES IDX 4 1 3 2 2 3 1 4 21 5 19 6 18 7 16 8 15 9 14 10 13 11 5 12
REMARK SMILES IDX 6 13 7 14 8 15 12 16 10 17 9 18 11 20 20 22 17 24
REMARK H PARENT 9 19 11 21 20 23 17 25
REMARK Flexibility Score: inf
ROOT
ATOM      1  C   UNL     1      18.450  41.248   6.186  1.00  0.00     0.138 A 
ATOM      2  C   UNL     1      18.658  41.995   5.019  1.00  0.00     0.100 A 
ATOM      3  C   UNL     1      19.620  41.581   4.096  1.00  0.00     0.197 A 
ATOM      4  O   UNL     1      19.828  42.306   3.089  1.00  0.00    -0.289 OA
ATOM      5  C   UNL     1      20.355  40.395   4.331  1.00  0.00     0.107 A 
ATOM      6  C   UNL     1      21.332  39.854   3.442  1.00  0.00     0.134 A 
ATOM      7  C   UNL     1      22.078  38.737   3.835  1.00  0.00     0.093 A 
ATOM      8  C   UNL     1      21.844  38.105   5.055  1.00  0.00     0.123 A 
ATOM      9  C   UNL     1      20.854  38.593   5.909  1.00  0.00     0.094 A 
ATOM     10  C   UNL     1      20.115  39.726   5.561  1.00  0.00     0.146 A 
ATOM     11  O   UNL     1      19.191  40.168   6.409  1.00  0.00    -0.456 OA
ENDROOT
BRANCH   1  12
ATOM     12  C   UNL     1      17.439  41.642   7.199  1.00  0.00     0.021 A 
ATOM     13  C   UNL     1      17.531  41.129   8.505  1.00  0.00     0.016 A 
ATOM     14  C   UNL     1      16.588  41.478   9.474  1.00  0.00     0.051 A 
ATOM     15  C   UNL     1      15.531  42.339   9.154  1.00  0.00     0.157 A 
ATOM     16  C   UNL     1      16.365  42.497   6.881  1.00  0.00     0.062 A 
ATOM     17  C   UNL     1      15.418  42.846   7.850  1.00  0.00     0.158 A 
BRANCH  15  18
ATOM     18  O   UNL     1      14.593  42.686  10.125  1.00  0.00    -0.504 OA
ATOM     19  H   UNL     1      14.451  42.121  10.954  1.00  0.00     0.293 HD
ENDBRANCH  15  18
BRANCH  17  20
ATOM     20  O   UNL     1      14.370  43.697   7.498  1.00  0.00    -0.504 OA
ATOM     21  H   UNL     1      14.532  44.627   7.132  1.00  0.00     0.293 HD
ENDBRANCH  17  20
ENDBRANCH   1  12
BRANCH   6  22
ATOM     22  O   UNL     1      21.586  40.358   2.163  1.00  0.00    -0.507 OA
ATOM     23  H   UNL     1      22.445  40.229   1.652  1.00  0.00     0.293 HD
ENDBRANCH   6  22
BRANCH   8  24
ATOM     24  O   UNL     1      22.597  36.986   5.406  1.00  0.00    -0.508 OA
ATOM     25  H   UNL     1      22.678  36.187   4.788  1.00  0.00     0.293 HD
ENDBRANCH   8  24
TORSDOF 5
ENDMDL
MODEL 5
REMARK VINA RESULT:    -6.088      1.480      6.732
REMARK INTER + INTRA:          -7.462
REMARK INTER:                  -7.145
REMARK INTRA:                  -0.318
REMARK UNBOUND:                -0.307
REMARK SMILES O=c1cc(-c2ccc(O)c(O)c2)oc2cc(O)cc(O)c12
REMARK SMILES IDX 4 1 3 2 2 3 1 4 21 5 19 6 18 7 16 8 15 9 14 10 13 11 5 12
REMARK SMILES IDX 6 13 7 14 8 15 12 16 10 17 9 18 11 20 20 22 17 24
REMARK H PARENT 9 19 11 21 20 23 17 25
REMARK Flexibility Score: inf
ROOT
ATOM      1  C   UNL     1      21.419  39.639   6.631  1.00  0.00     0.138 A 
ATOM      2  C   UNL     1      21.501  40.956   7.104  1.00  0.00     0.100 A 
ATOM      3  C   UNL     1      21.271  42.020   6.231  1.00  0.00     0.197 A 
ATOM      4  O   UNL     1      21.414  43.190   6.669  1.00  0.00    -0.289 OA
ATOM      5  C   UNL     1      20.925  41.760   4.883  1.00  0.00     0.107 A 
ATOM      6  C   UNL     1      20.628  42.763   3.912  1.00  0.00     0.134 A 
ATOM      7  C   UNL     1      20.412  42.392   2.580  1.00  0.00     0.093 A 
ATOM      8  C   UNL     1      20.423  41.052   2.194  1.00  0.00     0.123 A 
ATOM      9  C   UNL     1      20.659  40.059   3.145  1.00  0.00     0.094 A 
ATOM     10  C   UNL     1      20.911  40.399   4.476  1.00  0.00     0.146 A 
ATOM     11  O   UNL     1      21.146  39.424   5.349  1.00  0.00    -0.456 OA
ENDROOT
BRANCH   1  12
ATOM     12  C   UNL     1      21.653  38.472   7.517  1.00  0.00     0.021 A 
ATOM     13  C   UNL     1      21.895  38.680   8.886  1.00  0.00     0.016 A 
ATOM     14  C   UNL     1      22.126  37.599   9.740  1.00  0.00     0.051 A 
ATOM     15  C   UNL     1      22.131  36.291   9.239  1.00  0.00     0.157 A 
ATOM     16  C   UNL     1      21.672  37.155   7.018  1.00  0.00     0.062 A 
ATOM     17  C   UNL     1      21.907  36.070   7.871  1.00  0.00     0.158 A 
BRANCH  15  18
ATOM     18  O   UNL     1      22.360  35.215  10.094  1.00  0.00    -0.504 OA
ATOM     19  H   UNL     1      21.706  34.971  10.829  1.00  0.00     0.293 HD
ENDBRANCH  15  18
BRANCH  17  20
ATOM     20  O   UNL     1      21.915  34.780   7.340  1.00  0.00    -0.504 OA
ATOM     21  H   UNL     1      22.471  34.035   7.744  1.00  0.00     0.293 HD
ENDBRANCH  17  20
ENDBRANCH   1  12
BRANCH   6  22
ATOM     22  O   UNL     1      20.509  44.125   4.209  1.00  0.00    -0.507 OA
ATOM     23  H   UNL     1      20.294  44.845   3.538  1.00  0.00     0.293 HD
ENDBRANCH   6  22
BRANCH   8  24
ATOM     24  O   UNL     1      20.189  40.719   0.861  1.00  0.00    -0.508 OA
ATOM     25  H   UNL     1      19.807  41.391   0.206  1.00  0.00     0.293 HD
ENDBRANCH   8  24
TORSDOF 5
ENDMDL
MODEL 6
REMARK VINA RESULT:    -5.897      2.609      7.038
REMARK INTER + INTRA:          -7.239
REMARK INTER:                  -6.974
REMARK INTRA:                  -0.264
REMARK UNBOUND:                -0.307
REMARK SMILES O=c1cc(-c2ccc(O)c(O)c2)oc2cc(O)cc(O)c12
REMARK SMILES IDX 4 1 3 2 2 3 1 4 21 5 19 6 18 7 16 8 15 9 14 10 13 11 5 12
REMARK SMILES IDX 6 13 7 14 8 15 12 16 10 17 9 18 11 20 20 22 17 24
REMARK H PARENT 9 19 11 21 20 23 17 25
REMARK Flexibility Score: inf
ROOT
ATOM      1  C   UNL     1      20.767  39.158   6.819  1.00  0.00     0.138 A 
ATOM      2  C   UNL     1      21.202  39.475   5.525  1.00  0.00     0.100 A 
ATOM      3  C   UNL     1      20.488  40.401   4.764  1.00  0.00     0.197 A 
ATOM      4  O   UNL     1      20.865  40.619   3.584  1.00  0.00    -0.289 OA
ATOM      5  C   UNL     1      19.349  41.036   5.316  1.00  0.00     0.107 A 
ATOM      6  C   UNL     1      18.567  42.025   4.648  1.00  0.00     0.134 A 
ATOM      7  C   UNL     1      17.394  42.498   5.249  1.00  0.00     0.093 A 
ATOM      8  C   UNL     1      17.006  42.064   6.516  1.00  0.00     0.123 A 
ATOM      9  C   UNL     1      17.793  41.136   7.201  1.00  0.00     0.094 A 
ATOM     10  C   UNL     1      18.951  40.620   6.614  1.00  0.00     0.146 A 
ATOM     11  O   UNL     1      19.664  39.727   7.293  1.00  0.00    -0.456 OA
ENDROOT
BRANCH   1  12
ATOM     12  C   UNL     1      21.490  38.181   7.672  1.00  0.00     0.021 A 
ATOM     13  C   UNL     1      22.190  38.634   8.803  1.00  0.00     0.016 A 
ATOM     14  C   UNL     1      22.884  37.737   9.617  1.00  0.00     0.051 A 
ATOM     15  C   UNL     1      22.902  36.371   9.309  1.00  0.00     0.157 A 
ATOM     16  C   UNL     1      21.523  36.807   7.360  1.00  0.00     0.062 A 
ATOM     17  C   UNL     1      22.221  35.906   8.173  1.00  0.00     0.158 A 
BRANCH  15  18
ATOM     18  O   UNL     1      23.595  35.478  10.124  1.00  0.00    -0.504 OA
ATOM     19  H   UNL     1      23.467  35.467  11.130  1.00  0.00     0.293 HD
ENDBRANCH  15  18
BRANCH  17  20
ATOM     20  O   UNL     1      22.228  34.553   7.833  1.00  0.00    -0.504 OA
ATOM     21  H   UNL     1      22.067  34.236   6.885  1.00  0.00     0.293 HD
ENDBRANCH  17  20
ENDBRANCH   1  12
BRANCH   6  22
ATOM     22  O   UNL     1      18.910  42.591   3.416  1.00  0.00    -0.507 OA
ATOM     23  H   UNL     1      19.662  42.274   2.826  1.00  0.00     0.293 HD
ENDBRANCH   6  22
BRANCH   8  24
ATOM     24  O   UNL     1      15.841  42.567   7.089  1.00  0.00    -0.508 OA
ATOM     25  H   UNL     1      15.465  43.469   6.820  1.00  0.00     0.293 HD
ENDBRANCH   8  24
TORSDOF 5
ENDMDL
MODEL 7
REMARK VINA RESULT:    -5.480      1.330      2.857
REMARK INTER + INTRA:          -6.748
REMARK INTER:                  -6.452
REMARK INTRA:                  -0.297
REMARK UNBOUND:                -0.307
REMARK SMILES O=c1cc(-c2ccc(O)c(O)c2)oc2cc(O)cc(O)c12
REMARK SMILES IDX 4 1 3 2 2 3 1 4 21 5 19 6 18 7 16 8 15 9 14 10 13 11 5 12
REMARK SMILES IDX 6 13 7 14 8 15 12 16 10 17 9 18 11 20 20 22 17 24
REMARK H PARENT 9 19 11 21 20 23 17 25
REMARK Flexibility Score: inf
ROOT
ATOM      1  C   UNL     1      20.783  40.344   4.081  1.00  0.00     0.138 A 
ATOM      2  C   UNL     1      21.152  39.025   3.785  1.00  0.00     0.100 A 
ATOM      3  C   UNL     1      21.476  38.150   4.822  1.00  0.00     0.197 A 
ATOM      4  O   UNL     1      21.865  36.991   4.523  1.00  0.00    -0.289 OA
ATOM      5  C   UNL     1      21.399  38.592   6.165  1.00  0.00     0.107 A 
ATOM      6  C   UNL     1      21.667  37.776   7.305  1.00  0.00     0.134 A 
ATOM      7  C   UNL     1      21.670  38.354   8.580  1.00  0.00     0.093 A 
ATOM      8  C   UNL     1      21.359  39.701   8.764  1.00  0.00     0.123 A 
ATOM      9  C   UNL     1      21.043  40.495   7.660  1.00  0.00     0.094 A 
ATOM     10  C   UNL     1      21.064  39.956   6.371  1.00  0.00     0.146 A 
ATOM     11  O   UNL     1      20.771  40.750   5.346  1.00  0.00    -0.456 OA
ENDROOT
BRANCH   1  12
ATOM     12  C   UNL     1      20.428  41.316   3.016  1.00  0.00     0.021 A 
ATOM     13  C   UNL     1      20.058  42.625   3.369  1.00  0.00     0.016 A 
ATOM     14  C   UNL     1      19.712  43.556   2.387  1.00  0.00     0.051 A 
ATOM     15  C   UNL     1      19.718  43.193   1.035  1.00  0.00     0.157 A 
ATOM     16  C   UNL     1      20.420  40.954   1.654  1.00  0.00     0.062 A 
ATOM     17  C   UNL     1      20.070  41.884   0.668  1.00  0.00     0.158 A 
BRANCH  15  18
ATOM     18  O   UNL     1      19.374  44.124   0.057  1.00  0.00    -0.504 OA
ATOM     19  H   UNL     1      18.589  44.754   0.177  1.00  0.00     0.293 HD
ENDBRANCH  15  18
BRANCH  17  20
ATOM     20  O   UNL     1      20.076  41.488  -0.669  1.00  0.00    -0.504 OA
ATOM     21  H   UNL     1      20.865  41.007  -1.085  1.00  0.00     0.293 HD
ENDBRANCH  17  20
ENDBRANCH   1  12
BRANCH   6  22
ATOM     22  O   UNL     1      21.906  36.400   7.242  1.00  0.00    -0.507 OA
ATOM     23  H   UNL     1      22.805  35.978   7.073  1.00  0.00     0.293 HD
ENDBRANCH   6  22
BRANCH   8  24
ATOM     24  O   UNL     1      21.358  40.238  10.049  1.00  0.00    -0.508 OA
ATOM     25  H   UNL     1      21.306  41.238  10.206  1.00  0.00     0.293 HD
ENDBRANCH   8  24
TORSDOF 5
ENDMDL
MODEL 8
REMARK VINA RESULT:    -5.453      2.001      7.115
REMARK INTER + INTRA:          -6.716
REMARK INTER:                  -6.444
REMARK INTRA:                  -0.272
REMARK UNBOUND:                -0.307
REMARK SMILES O=c1cc(-c2ccc(O)c(O)c2)oc2cc(O)cc(O)c12
REMARK SMILES IDX 4 1 3 2 2 3 1 4 21 5 19 6 18 7 16 8 15 9 14 10 13 11 5 12
REMARK SMILES IDX 6 13 7 14 8 15 12 16 10 17 9 18 11 20 20 22 17 24
REMARK H PARENT 9 19 11 21 20 23 17 25
REMARK Flexibility Score: inf
ROOT
ATOM      1  C   UNL     1      21.186  39.773   5.597  1.00  0.00     0.138 A 
ATOM      2  C   UNL     1      22.008  39.771   4.463  1.00  0.00     0.100 A 
ATOM      3  C   UNL     1      21.768  40.684   3.434  1.00  0.00     0.197 A 
ATOM      4  O   UNL     1      22.483  40.617   2.401  1.00  0.00    -0.289 OA
ATOM      5  C   UNL     1      20.717  41.624   3.559  1.00  0.00     0.107 A 
ATOM      6  C   UNL     1      20.405  42.628   2.594  1.00  0.00     0.134 A 
ATOM      7  C   UNL     1      19.270  43.427   2.773  1.00  0.00     0.093 A 
ATOM      8  C   UNL     1      18.470  43.302   3.908  1.00  0.00     0.123 A 
ATOM      9  C   UNL     1      18.797  42.360   4.885  1.00  0.00     0.094 A 
ATOM     10  C   UNL     1      19.904  41.524   4.720  1.00  0.00     0.146 A 
ATOM     11  O   UNL     1      20.172  40.630   5.666  1.00  0.00    -0.456 OA
ENDROOT
BRANCH   1  12
ATOM     12  C   UNL     1      21.397  38.825   6.720  1.00  0.00     0.021 A 
ATOM     13  C   UNL     1      21.509  39.319   8.031  1.00  0.00     0.016 A 
ATOM     14  C   UNL     1      21.716  38.449   9.104  1.00  0.00     0.051 A 
ATOM     15  C   UNL     1      21.826  37.071   8.885  1.00  0.00     0.157 A 
ATOM     16  C   UNL     1      21.522  37.439   6.505  1.00  0.00     0.062 A 
ATOM     17  C   UNL     1      21.733  36.564   7.578  1.00  0.00     0.158 A 
BRANCH  15  18
ATOM     18  O   UNL     1      22.032  36.205   9.958  1.00  0.00    -0.504 OA
ATOM     19  H   UNL     1      22.961  35.906  10.229  1.00  0.00     0.293 HD
ENDBRANCH  15  18
BRANCH  17  20
ATOM     20  O   UNL     1      21.849  35.198   7.326  1.00  0.00    -0.504 OA
ATOM     21  H   UNL     1      21.064  34.564   7.420  1.00  0.00     0.293 HD
ENDBRANCH  17  20
ENDBRANCH   1  12
BRANCH   6  22
ATOM     22  O   UNL     1      21.186  42.895   1.465  1.00  0.00    -0.507 OA
ATOM     23  H   UNL     1      21.077  43.695   0.864  1.00  0.00     0.293 HD
ENDBRANCH   6  22
BRANCH   8  24
ATOM     24  O   UNL     1      17.356  44.125   4.059  1.00  0.00    -0.508 OA
ATOM     25  H   UNL     1      16.448  43.748   4.301  1.00  0.00     0.293 HD
ENDBRANCH   8  24
TORSDOF 5
ENDMDL
