MODEL 1
REMARK VINA RESULT:    -3.522      0.000      0.000
REMARK INTER + INTRA:         -14.826
REMARK INTER:                  -9.288
REMARK INTRA:                  -5.538
REMARK UNBOUND:                -5.538
REMARK SMILES CCCCCCCCCCCCCCCCCCCCCCCCCCCCCC(=O)[O-]
REMARK SMILES IDX 16 1 17 2 18 3 19 4 20 5 21 6 22 7 23 8 24 9 25 10 26 11
REMARK SMILES IDX 27 12 28 13 29 14 30 15 31 16 32 17 15 18 14 19 13 20 12 21
REMARK SMILES IDX 11 22 10 23 9 24 8 25 7 26 6 27 5 28 4 29 3 30 2 31 1 32
REMARK H PARENT
REMARK Flexibility Score: inf
ROOT
ATOM      1  C   UNL     1      -1.403  -9.836  37.280  1.00  0.00     0.000 C 
ENDROOT
BRANCH   1   2
ATOM      2  C   UNL     1      -0.477  -8.773  36.672  1.00  0.00     0.000 C 
BRANCH   2   3
ATOM      3  C   UNL     1      -0.987  -7.360  36.989  1.00  0.00     0.000 C 
BRANCH   3   4
ATOM      4  C   UNL     1      -2.282  -7.364  37.816  1.00  0.00     0.000 C 
BRANCH   4   5
ATOM      5  C   UNL     1      -3.254  -6.244  37.400  1.00  0.00     0.000 C 
BRANCH   5   6
ATOM      6  C   UNL     1      -4.300  -6.722  36.378  1.00  0.00     0.000 C 
BRANCH   6   7
ATOM      7  C   UNL     1      -5.672  -6.061  36.601  1.00  0.00     0.000 C 
BRANCH   7   8
ATOM      8  C   UNL     1      -5.686  -4.573  36.215  1.00  0.00     0.000 C 
BRANCH   8   9
ATOM      9  C   UNL     1      -4.759  -4.258  35.027  1.00  0.00     0.000 C 
BRANCH   9  10
ATOM     10  C   UNL     1      -5.401  -4.612  33.675  1.00  0.00     0.000 C 
BRANCH  10  11
ATOM     11  C   UNL     1      -4.595  -5.679  32.912  1.00  0.00     0.000 C 
BRANCH  11  12
ATOM     12  C   UNL     1      -3.096  -5.344  32.817  1.00  0.00     0.000 C 
BRANCH  12  13
ATOM     13  C   UNL     1      -2.166  -6.291  33.597  1.00  0.00     0.006 C 
BRANCH  13  14
ATOM     14  C   UNL     1      -1.642  -7.455  32.745  1.00  0.00     0.053 C 
BRANCH  14  15
ATOM     15  C   UNL     1      -2.486  -8.676  32.936  1.00  0.00     0.041 C 
ATOM     16  O   UNL     1      -2.869  -9.009  34.088  1.00  0.00    -0.550 OA
ATOM     17  O   UNL     1      -2.839  -9.456  31.840  1.00  0.00    -0.550 OA
ENDBRANCH  14  15
ENDBRANCH  13  14
ENDBRANCH  12  13
ENDBRANCH  11  12
ENDBRANCH  10  11
ENDBRANCH   9  10
ENDBRANCH   8   9
ENDBRANCH   7   8
ENDBRANCH   6   7
ENDBRANCH   5   6
ENDBRANCH   4   5
ENDBRANCH   3   4
ENDBRANCH   2   3
ENDBRANCH   1   2
BRANCH   1  18
ATOM     18  C   UNL     1      -0.663 -10.857  38.164  1.00  0.00     0.000 C 
BRANCH  18  19
ATOM     19  C   UNL     1      -0.317 -10.390  39.595  1.00  0.00     0.000 C 
BRANCH  19  20
ATOM     20  C   UNL     1      -1.387  -9.523  40.294  1.00  0.00     0.000 C 
BRANCH  20  21
ATOM     21  C   UNL     1      -1.916 -10.107  41.615  1.00  0.00     0.000 C 
BRANCH  21  22
ATOM     22  C   UNL     1      -1.699 -11.626  41.739  1.00  0.00     0.000 C 
BRANCH  22  23
ATOM     23  C   UNL     1      -3.024 -12.416  41.801  1.00  0.00     0.000 C 
BRANCH  23  24
ATOM     24  C   UNL     1      -3.569 -12.836  40.422  1.00  0.00    -0.000 C 
BRANCH  24  25
ATOM     25  C   UNL     1      -4.696 -11.947  39.863  1.00  0.00    -0.000 C 
BRANCH  25  26
ATOM     26  C   UNL     1      -4.342 -11.182  38.575  1.00  0.00    -0.000 C 
BRANCH  26  27
ATOM     27  C   UNL     1      -5.088  -9.843  38.445  1.00  0.00    -0.000 C 
BRANCH  27  28
ATOM     28  C   UNL     1      -4.941  -8.953  39.692  1.00  0.00    -0.000 C 
BRANCH  28  29
ATOM     29  C   UNL     1      -6.242  -8.283  40.171  1.00  0.00    -0.000 C 
BRANCH  29  30
ATOM     30  C   UNL     1      -6.567  -8.584  41.641  1.00  0.00    -0.000 C 
BRANCH  30  31
ATOM     31  C   UNL     1      -5.416  -9.339  42.315  1.00  0.00    -0.003 C 
ATOM     32  C   UNL     1      -5.931 -10.541  43.103  1.00  0.00     0.004 C 
ENDBRANCH  30  31
ENDBRANCH  29  30
ENDBRANCH  28  29
ENDBRANCH  27  28
ENDBRANCH  26  27
ENDBRANCH  25  26
ENDBRANCH  24  25
ENDBRANCH  23  24
ENDBRANCH  22  23
ENDBRANCH  21  22
ENDBRANCH  20  21
ENDBRANCH  19  20
ENDBRANCH  18  19
ENDBRANCH   1  18
TORSDOF 28
ENDMDL
MODEL 2
REMARK VINA RESULT:    -3.485      3.179      8.243
REMARK INTER + INTRA:         -14.729
REMARK INTER:                  -9.117
REMARK INTRA:                  -5.612
REMARK UNBOUND:                -5.538
REMARK SMILES CCCCCCCCCCCCCCCCCCCCCCCCCCCCCC(=O)[O-]
REMARK SMILES IDX 16 1 17 2 18 3 19 4 20 5 21 6 22 7 23 8 24 9 25 10 26 11
REMARK SMILES IDX 27 12 28 13 29 14 30 15 31 16 32 17 15 18 14 19 13 20 12 21
REMARK SMILES IDX 11 22 10 23 9 24 8 25 7 26 6 27 5 28 4 29 3 30 2 31 1 32
REMARK H PARENT
REMARK Flexibility Score: inf
ROOT
ATOM      1  C   UNL     1      -5.758 -10.772  38.437  1.00  0.00     0.000 C 
ENDROOT
BRANCH   1   2
ATOM      2  C   UNL     1      -5.585  -9.316  37.983  1.00  0.00     0.000 C 
BRANCH   2   3
ATOM      3  C   UNL     1      -5.860  -8.348  39.142  1.00  0.00     0.000 C 
BRANCH   3   4
ATOM      4  C   UNL     1      -5.267  -8.829  40.476  1.00  0.00     0.000 C 
BRANCH   4   5
ATOM      5  C   UNL     1      -6.297  -8.813  41.621  1.00  0.00     0.000 C 
BRANCH   5   6
ATOM      6  C   UNL     1      -5.843  -9.644  42.833  1.00  0.00     0.000 C 
BRANCH   6   7
ATOM      7  C   UNL     1      -4.430 -10.223  42.642  1.00  0.00     0.000 C 
BRANCH   7   8
ATOM      8  C   UNL     1      -4.385 -11.751  42.804  1.00  0.00     0.000 C 
BRANCH   8   9
ATOM      9  C   UNL     1      -5.694 -12.327  43.373  1.00  0.00     0.000 C 
BRANCH   9  10
ATOM     10  C   UNL     1      -6.329 -13.372  42.440  1.00  0.00     0.000 C 
BRANCH  10  11
ATOM     11  C   UNL     1      -5.664 -13.387  41.051  1.00  0.00     0.000 C 
BRANCH  11  12
ATOM     12  C   UNL     1      -5.261 -14.799  40.592  1.00  0.00     0.000 C 
BRANCH  12  13
ATOM     13  C   UNL     1      -3.745 -15.055  40.529  1.00  0.00     0.006 C 
BRANCH  13  14
ATOM     14  C   UNL     1      -3.243 -15.972  41.652  1.00  0.00     0.053 C 
BRANCH  14  15
ATOM     15  C   UNL     1      -3.013 -15.195  42.910  1.00  0.00     0.041 C 
ATOM     16  O   UNL     1      -2.058 -14.377  42.985  1.00  0.00    -0.550 OA
ATOM     17  O   UNL     1      -3.846 -15.383  44.007  1.00  0.00    -0.550 OA
ENDBRANCH  14  15
ENDBRANCH  13  14
ENDBRANCH  12  13
ENDBRANCH  11  12
ENDBRANCH  10  11
ENDBRANCH   9  10
ENDBRANCH   8   9
ENDBRANCH   7   8
ENDBRANCH   6   7
ENDBRANCH   5   6
ENDBRANCH   4   5
ENDBRANCH   3   4
ENDBRANCH   2   3
ENDBRANCH   1   2
BRANCH   1  18
ATOM     18  C   UNL     1      -4.762 -11.742  37.774  1.00  0.00     0.000 C 
BRANCH  18  19
ATOM     19  C   UNL     1      -3.266 -11.449  38.023  1.00  0.00     0.000 C 
BRANCH  19  20
ATOM     20  C   UNL     1      -2.822 -11.441  39.503  1.00  0.00     0.000 C 
BRANCH  20  21
ATOM     21  C   UNL     1      -1.467 -10.758  39.757  1.00  0.00     0.000 C 
BRANCH  21  22
ATOM     22  C   UNL     1      -1.574  -9.504  40.642  1.00  0.00     0.000 C 
BRANCH  22  23
ATOM     23  C   UNL     1      -1.203  -8.208  39.890  1.00  0.00     0.000 C 
BRANCH  23  24
ATOM     24  C   UNL     1      -2.274  -7.736  38.888  1.00  0.00    -0.000 C 
BRANCH  24  25
ATOM     25  C   UNL     1      -1.877  -7.841  37.403  1.00  0.00    -0.000 C 
BRANCH  25  26
ATOM     26  C   UNL     1      -2.847  -7.162  36.421  1.00  0.00    -0.000 C 
BRANCH  26  27
ATOM     27  C   UNL     1      -3.618  -5.989  37.049  1.00  0.00    -0.000 C 
BRANCH  27  28
ATOM     28  C   UNL     1      -4.954  -5.703  36.340  1.00  0.00    -0.000 C 
BRANCH  28  29
ATOM     29  C   UNL     1      -5.030  -4.345  35.618  1.00  0.00    -0.000 C 
BRANCH  29  30
ATOM     30  C   UNL     1      -3.956  -4.180  34.533  1.00  0.00    -0.000 C 
BRANCH  30  31
ATOM     31  C   UNL     1      -4.177  -5.173  33.386  1.00  0.00    -0.003 C 
ATOM     32  C   UNL     1      -2.858  -5.538  32.711  1.00  0.00     0.004 C 
ENDBRANCH  30  31
ENDBRANCH  29  30
ENDBRANCH  28  29
ENDBRANCH  27  28
ENDBRANCH  26  27
ENDBRANCH  25  26
ENDBRANCH  24  25
ENDBRANCH  23  24
ENDBRANCH  22  23
ENDBRANCH  21  22
ENDBRANCH  20  21
ENDBRANCH  19  20
ENDBRANCH  18  19
ENDBRANCH   1  18
TORSDOF 28
ENDMDL
MODEL 3
REMARK VINA RESULT:    -3.459      1.847      3.740
REMARK INTER + INTRA:         -14.658
REMARK INTER:                  -8.802
REMARK INTRA:                  -5.856
REMARK UNBOUND:                -5.538
REMARK SMILES CCCCCCCCCCCCCCCCCCCCCCCCCCCCCC(=O)[O-]
REMARK SMILES IDX 16 1 17 2 18 3 19 4 20 5 21 6 22 7 23 8 24 9 25 10 26 11
REMARK SMILES IDX 27 12 28 13 29 14 30 15 31 16 32 17 15 18 14 19 13 20 12 21
REMARK SMILES IDX 11 22 10 23 9 24 8 25 7 26 6 27 5 28 4 29 3 30 2 31 1 32
REMARK H PARENT
REMARK Flexibility Score: inf
ROOT
ATOM      1  C   UNL     1      -0.298  -9.183  38.886  1.00  0.00     0.000 C 
ENDROOT
BRANCH   1   2
ATOM      2  C   UNL     1      -1.360  -8.079  38.779  1.00  0.00     0.000 C 
BRANCH   2   3
ATOM      3  C   UNL     1      -1.380  -7.478  37.366  1.00  0.00     0.000 C 
BRANCH   3   4
ATOM      4  C   UNL     1      -0.782  -8.418  36.308  1.00  0.00     0.000 C 
BRANCH   4   5
ATOM      5  C   UNL     1      -1.539  -8.358  34.968  1.00  0.00     0.000 C 
BRANCH   5   6
ATOM      6  C   UNL     1      -2.233  -7.005  34.744  1.00  0.00     0.000 C 
BRANCH   6   7
ATOM      7  C   UNL     1      -2.175  -6.560  33.271  1.00  0.00     0.000 C 
BRANCH   7   8
ATOM      8  C   UNL     1      -3.183  -5.446  32.945  1.00  0.00     0.000 C 
BRANCH   8   9
ATOM      9  C   UNL     1      -3.296  -4.400  34.068  1.00  0.00     0.000 C 
BRANCH   9  10
ATOM     10  C   UNL     1      -4.747  -3.944  34.299  1.00  0.00     0.000 C 
BRANCH  10  11
ATOM     11  C   UNL     1      -5.766  -4.913  33.670  1.00  0.00     0.000 C 
BRANCH  11  12
ATOM     12  C   UNL     1      -6.796  -5.442  34.683  1.00  0.00     0.000 C 
BRANCH  12  13
ATOM     13  C   UNL     1      -6.773  -6.966  34.900  1.00  0.00     0.006 C 
BRANCH  13  14
ATOM     14  C   UNL     1      -5.547  -7.441  35.691  1.00  0.00     0.053 C 
BRANCH  14  15
ATOM     15  C   UNL     1      -5.432  -6.702  36.987  1.00  0.00     0.041 C 
ATOM     16  O   UNL     1      -6.292  -6.867  37.891  1.00  0.00    -0.550 OA
ATOM     17  O   UNL     1      -4.378  -5.817  37.191  1.00  0.00    -0.550 OA
ENDBRANCH  14  15
ENDBRANCH  13  14
ENDBRANCH  12  13
ENDBRANCH  11  12
ENDBRANCH  10  11
ENDBRANCH   9  10
ENDBRANCH   8   9
ENDBRANCH   7   8
ENDBRANCH   6   7
ENDBRANCH   5   6
ENDBRANCH   4   5
ENDBRANCH   3   4
ENDBRANCH   2   3
ENDBRANCH   1   2
BRANCH   1  18
ATOM     18  C   UNL     1      -0.673 -10.298  39.880  1.00  0.00     0.000 C 
BRANCH  18  19
ATOM     19  C   UNL     1      -1.723  -9.926  40.950  1.00  0.00     0.000 C 
BRANCH  19  20
ATOM     20  C   UNL     1      -2.149 -11.070  41.896  1.00  0.00     0.000 C 
BRANCH  20  21
ATOM     21  C   UNL     1      -2.814 -12.265  41.191  1.00  0.00     0.000 C 
BRANCH  21  22
ATOM     22  C   UNL     1      -4.297 -12.442  41.563  1.00  0.00     0.000 C 
BRANCH  22  23
ATOM     23  C   UNL     1      -4.683 -11.697  42.859  1.00  0.00     0.000 C 
BRANCH  23  24
ATOM     24  C   UNL     1      -5.853 -10.709  42.689  1.00  0.00    -0.000 C 
BRANCH  24  25
ATOM     25  C   UNL     1      -5.449  -9.266  42.330  1.00  0.00    -0.000 C 
BRANCH  25  26
ATOM     26  C   UNL     1      -5.815  -8.825  40.902  1.00  0.00    -0.000 C 
BRANCH  26  27
ATOM     27  C   UNL     1      -6.662  -9.864  40.148  1.00  0.00    -0.000 C 
BRANCH  27  28
ATOM     28  C   UNL     1      -6.009 -10.330  38.835  1.00  0.00    -0.000 C 
BRANCH  28  29
ATOM     29  C   UNL     1      -4.526  -9.949  38.675  1.00  0.00    -0.000 C 
BRANCH  29  30
ATOM     30  C   UNL     1      -3.936 -10.384  37.325  1.00  0.00    -0.000 C 
BRANCH  30  31
ATOM     31  C   UNL     1      -2.917 -11.514  37.510  1.00  0.00    -0.003 C 
ATOM     32  C   UNL     1      -3.595 -12.881  37.467  1.00  0.00     0.004 C 
ENDBRANCH  30  31
ENDBRANCH  29  30
ENDBRANCH  28  29
ENDBRANCH  27  28
ENDBRANCH  26  27
ENDBRANCH  25  26
ENDBRANCH  24  25
ENDBRANCH  23  24
ENDBRANCH  22  23
ENDBRANCH  21  22
ENDBRANCH  20  21
ENDBRANCH  19  20
ENDBRANCH  18  19
ENDBRANCH   1  18
TORSDOF 28
ENDMDL
MODEL 4
REMARK VINA RESULT:    -3.440      1.767      7.195
REMARK INTER + INTRA:         -14.610
REMARK INTER:                  -8.886
REMARK INTRA:                  -5.724
REMARK UNBOUND:                -5.538
REMARK SMILES CCCCCCCCCCCCCCCCCCCCCCCCCCCCCC(=O)[O-]
REMARK SMILES IDX 16 1 17 2 18 3 19 4 20 5 21 6 22 7 23 8 24 9 25 10 26 11
REMARK SMILES IDX 27 12 28 13 29 14 30 15 31 16 32 17 15 18 14 19 13 20 12 21
REMARK SMILES IDX 11 22 10 23 9 24 8 25 7 26 6 27 5 28 4 29 3 30 2 31 1 32
REMARK H PARENT
REMARK Flexibility Score: inf
ROOT
ATOM      1  C   UNL     1      -1.675  -9.872  40.598  1.00  0.00     0.000 C 
ENDROOT
BRANCH   1   2
ATOM      2  C   UNL     1      -1.326 -11.227  41.232  1.00  0.00     0.000 C 
BRANCH   2   3
ATOM      3  C   UNL     1      -2.439 -11.686  42.185  1.00  0.00     0.000 C 
BRANCH   3   4
ATOM      4  C   UNL     1      -2.804 -13.168  42.007  1.00  0.00     0.000 C 
BRANCH   4   5
ATOM      5  C   UNL     1      -4.320 -13.420  42.106  1.00  0.00     0.000 C 
BRANCH   5   6
ATOM      6  C   UNL     1      -5.023 -12.422  43.041  1.00  0.00     0.000 C 
BRANCH   6   7
ATOM      7  C   UNL     1      -6.385 -11.967  42.486  1.00  0.00     0.000 C 
BRANCH   7   8
ATOM      8  C   UNL     1      -6.701 -10.499  42.812  1.00  0.00     0.000 C 
BRANCH   8   9
ATOM      9  C   UNL     1      -5.446  -9.609  42.826  1.00  0.00     0.000 C 
BRANCH   9  10
ATOM     10  C   UNL     1      -4.980  -9.232  41.408  1.00  0.00     0.000 C 
BRANCH  10  11
ATOM     11  C   UNL     1      -6.160  -8.865  40.490  1.00  0.00     0.000 C 
BRANCH  11  12
ATOM     12  C   UNL     1      -6.234  -9.741  39.227  1.00  0.00     0.000 C 
BRANCH  12  13
ATOM     13  C   UNL     1      -5.198 -10.877  39.161  1.00  0.00     0.006 C 
BRANCH  13  14
ATOM     14  C   UNL     1      -4.211 -10.722  37.996  1.00  0.00     0.053 C 
BRANCH  14  15
ATOM     15  C   UNL     1      -3.308 -11.912  37.903  1.00  0.00     0.041 C 
ATOM     16  O   UNL     1      -2.288 -11.880  37.166  1.00  0.00    -0.550 OA
ATOM     17  O   UNL     1      -3.602 -13.066  38.621  1.00  0.00    -0.550 OA
ENDBRANCH  14  15
ENDBRANCH  13  14
ENDBRANCH  12  13
ENDBRANCH  11  12
ENDBRANCH  10  11
ENDBRANCH   9  10
ENDBRANCH   8   9
ENDBRANCH   7   8
ENDBRANCH   6   7
ENDBRANCH   5   6
ENDBRANCH   4   5
ENDBRANCH   3   4
ENDBRANCH   2   3
ENDBRANCH   1   2
BRANCH   1  18
ATOM     18  C   UNL     1      -0.801  -9.524  39.379  1.00  0.00     0.000 C 
BRANCH  18  19
ATOM     19  C   UNL     1      -1.234  -8.283  38.568  1.00  0.00     0.000 C 
BRANCH  19  20
ATOM     20  C   UNL     1      -2.634  -7.721  38.899  1.00  0.00     0.000 C 
BRANCH  20  21
ATOM     21  C   UNL     1      -3.258  -6.868  37.781  1.00  0.00     0.000 C 
BRANCH  21  22
ATOM     22  C   UNL     1      -2.541  -7.021  36.428  1.00  0.00     0.000 C 
BRANCH  22  23
ATOM     23  C   UNL     1      -3.298  -7.946  35.450  1.00  0.00     0.000 C 
BRANCH  23  24
ATOM     24  C   UNL     1      -2.992  -7.672  33.965  1.00  0.00    -0.000 C 
BRANCH  24  25
ATOM     25  C   UNL     1      -2.242  -6.358  33.680  1.00  0.00    -0.000 C 
BRANCH  25  26
ATOM     26  C   UNL     1      -3.109  -5.226  33.100  1.00  0.00    -0.000 C 
BRANCH  26  27
ATOM     27  C   UNL     1      -3.381  -4.099  34.110  1.00  0.00    -0.000 C 
BRANCH  27  28
ATOM     28  C   UNL     1      -4.819  -4.121  34.659  1.00  0.00    -0.000 C 
BRANCH  28  29
ATOM     29  C   UNL     1      -5.845  -4.843  33.766  1.00  0.00    -0.000 C 
BRANCH  29  30
ATOM     30  C   UNL     1      -6.453  -6.085  34.432  1.00  0.00    -0.000 C 
BRANCH  30  31
ATOM     31  C   UNL     1      -6.414  -5.964  35.960  1.00  0.00    -0.003 C 
ATOM     32  C   UNL     1      -6.812  -7.278  36.628  1.00  0.00     0.004 C 
ENDBRANCH  30  31
ENDBRANCH  29  30
ENDBRANCH  28  29
ENDBRANCH  27  28
ENDBRANCH  26  27
ENDBRANCH  25  26
ENDBRANCH  24  25
ENDBRANCH  23  24
ENDBRANCH  22  23
ENDBRANCH  21  22
ENDBRANCH  20  21
ENDBRANCH  19  20
ENDBRANCH  18  19
ENDBRANCH   1  18
TORSDOF 28
ENDMDL
MODEL 5
REMARK VINA RESULT:    -3.434      1.334      3.151
REMARK INTER + INTRA:         -14.594
REMARK INTER:                  -8.375
REMARK INTRA:                  -6.219
REMARK UNBOUND:                -5.538
REMARK SMILES CCCCCCCCCCCCCCCCCCCCCCCCCCCCCC(=O)[O-]
REMARK SMILES IDX 16 1 17 2 18 3 19 4 20 5 21 6 22 7 23 8 24 9 25 10 26 11
REMARK SMILES IDX 27 12 28 13 29 14 30 15 31 16 32 17 15 18 14 19 13 20 12 21
REMARK SMILES IDX 11 22 10 23 9 24 8 25 7 26 6 27 5 28 4 29 3 30 2 31 1 32
REMARK H PARENT
REMARK Flexibility Score: inf
ROOT
ATOM      1  C   UNL     1      -1.171  -9.261  39.820  1.00  0.00     0.000 C 
ENDROOT
BRANCH   1   2
ATOM      2  C   UNL     1      -0.387  -8.822  38.574  1.00  0.00     0.000 C 
BRANCH   2   3
ATOM      3  C   UNL     1      -1.285  -8.022  37.620  1.00  0.00     0.000 C 
BRANCH   3   4
ATOM      4  C   UNL     1      -2.497  -7.393  38.325  1.00  0.00     0.000 C 
BRANCH   4   5
ATOM      5  C   UNL     1      -3.349  -6.528  37.379  1.00  0.00     0.000 C 
BRANCH   5   6
ATOM      6  C   UNL     1      -4.839  -6.910  37.413  1.00  0.00     0.000 C 
BRANCH   6   7
ATOM      7  C   UNL     1      -5.678  -6.057  36.445  1.00  0.00     0.000 C 
BRANCH   7   8
ATOM      8  C   UNL     1      -5.049  -4.683  36.162  1.00  0.00     0.000 C 
BRANCH   8   9
ATOM      9  C   UNL     1      -5.053  -4.326  34.665  1.00  0.00     0.000 C 
BRANCH   9  10
ATOM     10  C   UNL     1      -3.636  -4.305  34.065  1.00  0.00     0.000 C 
BRANCH  10  11
ATOM     11  C   UNL     1      -3.316  -5.598  33.293  1.00  0.00     0.000 C 
BRANCH  11  12
ATOM     12  C   UNL     1      -2.271  -6.478  34.002  1.00  0.00     0.000 C 
BRANCH  12  13
ATOM     13  C   UNL     1      -2.554  -7.990  33.955  1.00  0.00     0.006 C 
BRANCH  13  14
ATOM     14  C   UNL     1      -4.051  -8.323  34.031  1.00  0.00     0.053 C 
BRANCH  14  15
ATOM     15  C   UNL     1      -4.476  -9.131  32.845  1.00  0.00     0.041 C 
ATOM     16  O   UNL     1      -4.827  -8.559  31.780  1.00  0.00    -0.550 OA
ATOM     17  O   UNL     1      -4.498 -10.519  32.921  1.00  0.00    -0.550 OA
ENDBRANCH  14  15
ENDBRANCH  13  14
ENDBRANCH  12  13
ENDBRANCH  11  12
ENDBRANCH  10  11
ENDBRANCH   9  10
ENDBRANCH   8   9
ENDBRANCH   7   8
ENDBRANCH   6   7
ENDBRANCH   5   6
ENDBRANCH   4   5
ENDBRANCH   3   4
ENDBRANCH   2   3
ENDBRANCH   1   2
BRANCH   1  18
ATOM     18  C   UNL     1      -1.013 -10.758  40.144  1.00  0.00     0.000 C 
BRANCH  18  19
ATOM     19  C   UNL     1      -1.009 -11.130  41.643  1.00  0.00     0.000 C 
BRANCH  19  20
ATOM     20  C   UNL     1      -2.398 -11.285  42.299  1.00  0.00     0.000 C 
BRANCH  20  21
ATOM     21  C   UNL     1      -3.219 -12.477  41.776  1.00  0.00     0.000 C 
BRANCH  21  22
ATOM     22  C   UNL     1      -4.558 -12.663  42.513  1.00  0.00     0.000 C 
BRANCH  22  23
ATOM     23  C   UNL     1      -5.056 -11.367  43.186  1.00  0.00     0.000 C 
BRANCH  23  24
ATOM     24  C   UNL     1      -6.005 -10.529  42.307  1.00  0.00    -0.000 C 
BRANCH  24  25
ATOM     25  C   UNL     1      -5.456  -9.157  41.870  1.00  0.00    -0.000 C 
BRANCH  25  26
ATOM     26  C   UNL     1      -4.829  -9.124  40.466  1.00  0.00    -0.000 C 
BRANCH  26  27
ATOM     27  C   UNL     1      -5.380 -10.218  39.535  1.00  0.00    -0.000 C 
BRANCH  27  28
ATOM     28  C   UNL     1      -4.293 -10.856  38.652  1.00  0.00    -0.000 C 
BRANCH  28  29
ATOM     29  C   UNL     1      -4.300 -10.403  37.180  1.00  0.00    -0.000 C 
BRANCH  29  30
ATOM     30  C   UNL     1      -3.525 -11.353  36.255  1.00  0.00    -0.000 C 
BRANCH  30  31
ATOM     31  C   UNL     1      -2.253 -11.867  36.937  1.00  0.00    -0.003 C 
ATOM     32  C   UNL     1      -1.006 -11.470  36.150  1.00  0.00     0.004 C 
ENDBRANCH  30  31
ENDBRANCH  29  30
ENDBRANCH  28  29
ENDBRANCH  27  28
ENDBRANCH  26  27
ENDBRANCH  25  26
ENDBRANCH  24  25
ENDBRANCH  23  24
ENDBRANCH  22  23
ENDBRANCH  21  22
ENDBRANCH  20  21
ENDBRANCH  19  20
ENDBRANCH  18  19
ENDBRANCH   1  18
TORSDOF 28
ENDMDL
MODEL 6
REMARK VINA RESULT:    -3.432      2.074      4.025
REMARK INTER + INTRA:         -14.589
REMARK INTER:                  -9.820
REMARK INTRA:                  -4.769
REMARK UNBOUND:                -5.538
REMARK SMILES CCCCCCCCCCCCCCCCCCCCCCCCCCCCCC(=O)[O-]
REMARK SMILES IDX 16 1 17 2 18 3 19 4 20 5 21 6 22 7 23 8 24 9 25 10 26 11
REMARK SMILES IDX 27 12 28 13 29 14 30 15 31 16 32 17 15 18 14 19 13 20 12 21
REMARK SMILES IDX 11 22 10 23 9 24 8 25 7 26 6 27 5 28 4 29 3 30 2 31 1 32
REMARK H PARENT
REMARK Flexibility Score: inf
ROOT
ATOM      1  C   UNL     1      -1.271 -11.024  37.814  1.00  0.00     0.000 C 
ENDROOT
BRANCH   1   2
ATOM      2  C   UNL     1      -0.143 -10.010  38.054  1.00  0.00     0.000 C 
BRANCH   2   3
ATOM      3  C   UNL     1      -0.232  -8.849  37.053  1.00  0.00     0.000 C 
BRANCH   3   4
ATOM      4  C   UNL     1      -1.022  -7.649  37.598  1.00  0.00     0.000 C 
BRANCH   4   5
ATOM      5  C   UNL     1      -2.122  -7.175  36.630  1.00  0.00     0.000 C 
BRANCH   5   6
ATOM      6  C   UNL     1      -2.935  -8.342  36.046  1.00  0.00     0.000 C 
BRANCH   6   7
ATOM      7  C   UNL     1      -4.443  -8.191  36.315  1.00  0.00     0.000 C 
BRANCH   7   8
ATOM      8  C   UNL     1      -4.800  -6.842  36.960  1.00  0.00     0.000 C 
BRANCH   8   9
ATOM      9  C   UNL     1      -6.092  -6.233  36.385  1.00  0.00     0.000 C 
BRANCH   9  10
ATOM     10  C   UNL     1      -5.894  -4.783  35.910  1.00  0.00     0.000 C 
BRANCH  10  11
ATOM     11  C   UNL     1      -4.407  -4.439  35.706  1.00  0.00     0.000 C 
BRANCH  11  12
ATOM     12  C   UNL     1      -4.051  -4.161  34.235  1.00  0.00     0.000 C 
BRANCH  12  13
ATOM     13  C   UNL     1      -3.175  -5.233  33.563  1.00  0.00     0.006 C 
BRANCH  13  14
ATOM     14  C   UNL     1      -3.991  -6.397  32.983  1.00  0.00     0.053 C 
BRANCH  14  15
ATOM     15  C   UNL     1      -4.314  -6.154  31.543  1.00  0.00     0.041 C 
ATOM     16  O   UNL     1      -5.501  -6.251  31.133  1.00  0.00    -0.550 OA
ATOM     17  O   UNL     1      -3.301  -5.833  30.646  1.00  0.00    -0.550 OA
ENDBRANCH  14  15
ENDBRANCH  13  14
ENDBRANCH  12  13
ENDBRANCH  11  12
ENDBRANCH  10  11
ENDBRANCH   9  10
ENDBRANCH   8   9
ENDBRANCH   7   8
ENDBRANCH   6   7
ENDBRANCH   5   6
ENDBRANCH   4   5
ENDBRANCH   3   4
ENDBRANCH   2   3
ENDBRANCH   1   2
BRANCH   1  18
ATOM     18  C   UNL     1      -2.382 -10.966  38.879  1.00  0.00     0.000 C 
BRANCH  18  19
ATOM     19  C   UNL     1      -1.943 -10.524  40.293  1.00  0.00     0.000 C 
BRANCH  19  20
ATOM     20  C   UNL     1      -2.788  -9.403  40.937  1.00  0.00     0.000 C 
BRANCH  20  21
ATOM     21  C   UNL     1      -3.673  -8.625  39.948  1.00  0.00     0.000 C 
BRANCH  21  22
ATOM     22  C   UNL     1      -5.175  -8.914  40.118  1.00  0.00     0.000 C 
BRANCH  22  23
ATOM     23  C   UNL     1      -5.593  -9.059  41.597  1.00  0.00     0.000 C 
BRANCH  23  24
ATOM     24  C   UNL     1      -6.155 -10.448  41.956  1.00  0.00    -0.000 C 
BRANCH  24  25
ATOM     25  C   UNL     1      -5.628 -11.049  43.273  1.00  0.00    -0.000 C 
BRANCH  25  26
ATOM     26  C   UNL     1      -4.981 -12.439  43.140  1.00  0.00    -0.000 C 
BRANCH  26  27
ATOM     27  C   UNL     1      -4.597 -12.789  41.693  1.00  0.00    -0.000 C 
BRANCH  27  28
ATOM     28  C   UNL     1      -3.455 -13.818  41.609  1.00  0.00    -0.000 C 
BRANCH  28  29
ATOM     29  C   UNL     1      -3.493 -14.922  42.682  1.00  0.00    -0.000 C 
BRANCH  29  30
ATOM     30  C   UNL     1      -2.136 -15.144  43.365  1.00  0.00    -0.000 C 
BRANCH  30  31
ATOM     31  C   UNL     1      -1.935 -16.621  43.719  1.00  0.00    -0.003 C 
ATOM     32  C   UNL     1      -3.095 -17.474  43.211  1.00  0.00     0.004 C 
ENDBRANCH  30  31
ENDBRANCH  29  30
ENDBRANCH  28  29
ENDBRANCH  27  28
ENDBRANCH  26  27
ENDBRANCH  25  26
ENDBRANCH  24  25
ENDBRANCH  23  24
ENDBRANCH  22  23
ENDBRANCH  21  22
ENDBRANCH  20  21
ENDBRANCH  19  20
ENDBRANCH  18  19
ENDBRANCH   1  18
TORSDOF 28
ENDMDL
MODEL 7
REMARK VINA RESULT:    -3.429      2.652      7.925
REMARK INTER + INTRA:         -14.581
REMARK INTER:                  -8.351
REMARK INTRA:                  -6.230
REMARK UNBOUND:                -5.538
REMARK SMILES CCCCCCCCCCCCCCCCCCCCCCCCCCCCCC(=O)[O-]
REMARK SMILES IDX 16 1 17 2 18 3 19 4 20 5 21 6 22 7 23 8 24 9 25 10 26 11
REMARK SMILES IDX 27 12 28 13 29 14 30 15 31 16 32 17 15 18 14 19 13 20 12 21
REMARK SMILES IDX 11 22 10 23 9 24 8 25 7 26 6 27 5 28 4 29 3 30 2 31 1 32
REMARK H PARENT
REMARK Flexibility Score: inf
ROOT
ATOM      1  C   UNL     1      -1.170  -7.765  37.541  1.00  0.00     0.000 C 
ENDROOT
BRANCH   1   2
ATOM      2  C   UNL     1      -0.567  -9.008  38.211  1.00  0.00     0.000 C 
BRANCH   2   3
ATOM      3  C   UNL     1      -1.124  -9.187  39.630  1.00  0.00     0.000 C 
BRANCH   3   4
ATOM      4  C   UNL     1      -0.980 -10.625  40.152  1.00  0.00     0.000 C 
BRANCH   4   5
ATOM      5  C   UNL     1      -1.442 -10.773  41.614  1.00  0.00     0.000 C 
BRANCH   5   6
ATOM      6  C   UNL     1      -1.971 -12.183  41.925  1.00  0.00     0.000 C 
BRANCH   6   7
ATOM      7  C   UNL     1      -3.448 -12.349  41.528  1.00  0.00     0.000 C 
BRANCH   7   8
ATOM      8  C   UNL     1      -3.661 -13.441  40.466  1.00  0.00     0.000 C 
BRANCH   8   9
ATOM      9  C   UNL     1      -4.482 -12.947  39.262  1.00  0.00     0.000 C 
BRANCH   9  10
ATOM     10  C   UNL     1      -3.617 -12.201  38.231  1.00  0.00     0.000 C 
BRANCH  10  11
ATOM     11  C   UNL     1      -4.078 -10.745  38.035  1.00  0.00     0.000 C 
BRANCH  11  12
ATOM     12  C   UNL     1      -5.409 -10.435  38.741  1.00  0.00     0.000 C 
BRANCH  12  13
ATOM     13  C   UNL     1      -5.459  -9.082  39.474  1.00  0.00     0.006 C 
BRANCH  13  14
ATOM     14  C   UNL     1      -4.649  -9.076  40.778  1.00  0.00     0.053 C 
BRANCH  14  15
ATOM     15  C   UNL     1      -5.557  -9.127  41.966  1.00  0.00     0.041 C 
ATOM     16  O   UNL     1      -5.170  -9.665  43.038  1.00  0.00    -0.550 OA
ATOM     17  O   UNL     1      -6.838  -8.593  41.888  1.00  0.00    -0.550 OA
ENDBRANCH  14  15
ENDBRANCH  13  14
ENDBRANCH  12  13
ENDBRANCH  11  12
ENDBRANCH  10  11
ENDBRANCH   9  10
ENDBRANCH   8   9
ENDBRANCH   7   8
ENDBRANCH   6   7
ENDBRANCH   5   6
ENDBRANCH   4   5
ENDBRANCH   3   4
ENDBRANCH   2   3
ENDBRANCH   1   2
BRANCH   1  18
ATOM     18  C   UNL     1      -2.538  -7.361  38.122  1.00  0.00     0.000 C 
BRANCH  18  19
ATOM     19  C   UNL     1      -3.298  -6.255  37.357  1.00  0.00     0.000 C 
BRANCH  19  20
ATOM     20  C   UNL     1      -4.752  -6.595  36.958  1.00  0.00     0.000 C 
BRANCH  20  21
ATOM     21  C   UNL     1      -5.270  -5.826  35.730  1.00  0.00     0.000 C 
BRANCH  21  22
ATOM     22  C   UNL     1      -4.736  -4.386  35.643  1.00  0.00     0.000 C 
BRANCH  22  23
ATOM     23  C   UNL     1      -3.974  -4.108  34.330  1.00  0.00     0.000 C 
BRANCH  23  24
ATOM     24  C   UNL     1      -4.102  -5.230  33.282  1.00  0.00    -0.000 C 
BRANCH  24  25
ATOM     25  C   UNL     1      -2.778  -5.905  32.876  1.00  0.00    -0.000 C 
BRANCH  25  26
ATOM     26  C   UNL     1      -2.098  -6.725  33.987  1.00  0.00    -0.000 C 
BRANCH  26  27
ATOM     27  C   UNL     1      -1.527  -8.061  33.486  1.00  0.00    -0.000 C 
BRANCH  27  28
ATOM     28  C   UNL     1      -2.084  -9.275  34.251  1.00  0.00    -0.000 C 
BRANCH  28  29
ATOM     29  C   UNL     1      -3.483  -9.073  34.862  1.00  0.00    -0.000 C 
BRANCH  29  30
ATOM     30  C   UNL     1      -4.598  -9.752  34.053  1.00  0.00    -0.000 C 
BRANCH  30  31
ATOM     31  C   UNL     1      -5.075  -8.849  32.910  1.00  0.00    -0.003 C 
ATOM     32  C   UNL     1      -6.421  -8.208  33.238  1.00  0.00     0.004 C 
ENDBRANCH  30  31
ENDBRANCH  29  30
ENDBRANCH  28  29
ENDBRANCH  27  28
ENDBRANCH  26  27
ENDBRANCH  25  26
ENDBRANCH  24  25
ENDBRANCH  23  24
ENDBRANCH  22  23
ENDBRANCH  21  22
ENDBRANCH  20  21
ENDBRANCH  19  20
ENDBRANCH  18  19
ENDBRANCH   1  18
TORSDOF 28
ENDMDL
MODEL 8
REMARK VINA RESULT:    -3.413      3.068      8.012
REMARK INTER + INTRA:         -14.537
REMARK INTER:                  -8.138
REMARK INTRA:                  -6.400
REMARK UNBOUND:                -5.538
REMARK SMILES CCCCCCCCCCCCCCCCCCCCCCCCCCCCCC(=O)[O-]
REMARK SMILES IDX 16 1 17 2 18 3 19 4 20 5 21 6 22 7 23 8 24 9 25 10 26 11
REMARK SMILES IDX 27 12 28 13 29 14 30 15 31 16 32 17 15 18 14 19 13 20 12 21
REMARK SMILES IDX 11 22 10 23 9 24 8 25 7 26 6 27 5 28 4 29 3 30 2 31 1 32
REMARK H PARENT
REMARK Flexibility Score: inf
ROOT
ATOM      1  C   UNL     1      -6.644  -6.663  33.085  1.00  0.00     0.000 C 
ENDROOT
BRANCH   1   2
ATOM      2  C   UNL     1      -6.279  -8.153  33.151  1.00  0.00     0.000 C 
BRANCH   2   3
ATOM      3  C   UNL     1      -5.041  -8.372  34.033  1.00  0.00     0.000 C 
BRANCH   3   4
ATOM      4  C   UNL     1      -4.116  -9.477  33.500  1.00  0.00     0.000 C 
BRANCH   4   5
ATOM      5  C   UNL     1      -2.914  -9.742  34.427  1.00  0.00     0.000 C 
BRANCH   5   6
ATOM      6  C   UNL     1      -2.887  -8.795  35.639  1.00  0.00     0.000 C 
BRANCH   6   7
ATOM      7  C   UNL     1      -1.456  -8.351  35.995  1.00  0.00     0.000 C 
BRANCH   7   8
ATOM      8  C   UNL     1      -1.418  -7.331  37.144  1.00  0.00     0.000 C 
BRANCH   8   9
ATOM      9  C   UNL     1      -1.325  -7.998  38.528  1.00  0.00     0.000 C 
BRANCH   9  10
ATOM     10  C   UNL     1      -0.230  -9.076  38.585  1.00  0.00     0.000 C 
BRANCH  10  11
ATOM     11  C   UNL     1      -0.695 -10.335  39.341  1.00  0.00     0.000 C 
BRANCH  11  12
ATOM     12  C   UNL     1      -2.147 -10.728  39.017  1.00  0.00     0.000 C 
BRANCH  12  13
ATOM     13  C   UNL     1      -2.833 -11.611  40.074  1.00  0.00     0.006 C 
BRANCH  13  14
ATOM     14  C   UNL     1      -2.522 -11.176  41.513  1.00  0.00     0.053 C 
BRANCH  14  15
ATOM     15  C   UNL     1      -1.741 -12.232  42.229  1.00  0.00     0.041 C 
ATOM     16  O   UNL     1      -0.631 -11.955  42.756  1.00  0.00    -0.550 OA
ATOM     17  O   UNL     1      -2.232 -13.531  42.304  1.00  0.00    -0.550 OA
ENDBRANCH  14  15
ENDBRANCH  13  14
ENDBRANCH  12  13
ENDBRANCH  11  12
ENDBRANCH  10  11
ENDBRANCH   9  10
ENDBRANCH   8   9
ENDBRANCH   7   8
ENDBRANCH   6   7
ENDBRANCH   5   6
ENDBRANCH   4   5
ENDBRANCH   3   4
ENDBRANCH   2   3
ENDBRANCH   1   2
BRANCH   1  18
ATOM     18  C   UNL     1      -6.269  -6.001  31.747  1.00  0.00     0.000 C 
BRANCH  18  19
ATOM     19  C   UNL     1      -6.042  -6.959  30.557  1.00  0.00     0.000 C 
BRANCH  19  20
ATOM     20  C   UNL     1      -4.589  -7.054  30.041  1.00  0.00     0.000 C 
BRANCH  20  21
ATOM     21  C   UNL     1      -3.591  -6.144  30.779  1.00  0.00     0.000 C 
BRANCH  21  22
ATOM     22  C   UNL     1      -2.479  -6.923  31.504  1.00  0.00     0.000 C 
BRANCH  22  23
ATOM     23  C   UNL     1      -2.080  -6.281  32.850  1.00  0.00     0.000 C 
BRANCH  23  24
ATOM     24  C   UNL     1      -3.015  -5.143  33.304  1.00  0.00    -0.000 C 
BRANCH  24  25
ATOM     25  C   UNL     1      -3.518  -5.245  34.756  1.00  0.00    -0.000 C 
BRANCH  25  26
ATOM     26  C   UNL     1      -4.706  -4.328  35.098  1.00  0.00    -0.000 C 
BRANCH  26  27
ATOM     27  C   UNL     1      -5.543  -4.843  36.281  1.00  0.00    -0.000 C 
BRANCH  27  28
ATOM     28  C   UNL     1      -4.893  -6.041  36.997  1.00  0.00    -0.000 C 
BRANCH  28  29
ATOM     29  C   UNL     1      -5.884  -7.044  37.616  1.00  0.00    -0.000 C 
BRANCH  29  30
ATOM     30  C   UNL     1      -5.204  -8.072  38.534  1.00  0.00    -0.000 C 
BRANCH  30  31
ATOM     31  C   UNL     1      -5.473  -9.501  38.051  1.00  0.00    -0.003 C 
ATOM     32  C   UNL     1      -6.627  -9.540  37.053  1.00  0.00     0.004 C 
ENDBRANCH  30  31
ENDBRANCH  29  30
ENDBRANCH  28  29
ENDBRANCH  27  28
ENDBRANCH  26  27
ENDBRANCH  25  26
ENDBRANCH  24  25
ENDBRANCH  23  24
ENDBRANCH  22  23
ENDBRANCH  21  22
ENDBRANCH  20  21
ENDBRANCH  19  20
ENDBRANCH  18  19
ENDBRANCH   1  18
TORSDOF 28
ENDMDL
MODEL 9
REMARK VINA RESULT:    -3.407      1.265      2.367
REMARK INTER + INTRA:         -14.522
REMARK INTER:                  -8.958
REMARK INTRA:                  -5.564
REMARK UNBOUND:                -5.538
REMARK SMILES CCCCCCCCCCCCCCCCCCCCCCCCCCCCCC(=O)[O-]
REMARK SMILES IDX 16 1 17 2 18 3 19 4 20 5 21 6 22 7 23 8 24 9 25 10 26 11
REMARK SMILES IDX 27 12 28 13 29 14 30 15 31 16 32 17 15 18 14 19 13 20 12 21
REMARK SMILES IDX 11 22 10 23 9 24 8 25 7 26 6 27 5 28 4 29 3 30 2 31 1 32
REMARK H PARENT
REMARK Flexibility Score: inf
ROOT
ATOM      1  C   UNL     1      -0.309  -8.803  37.653  1.00  0.00     0.000 C 
ENDROOT
BRANCH   1   2
ATOM      2  C   UNL     1      -0.676 -10.120  36.953  1.00  0.00     0.000 C 
BRANCH   2   3
ATOM      3  C   UNL     1      -2.182 -10.182  36.663  1.00  0.00     0.000 C 
BRANCH   3   4
ATOM      4  C   UNL     1      -2.646  -9.097  35.678  1.00  0.00     0.000 C 
BRANCH   4   5
ATOM      5  C   UNL     1      -4.176  -9.070  35.504  1.00  0.00     0.000 C 
BRANCH   5   6
ATOM      6  C   UNL     1      -4.783  -7.698  35.842  1.00  0.00     0.000 C 
BRANCH   6   7
ATOM      7  C   UNL     1      -4.043  -7.007  37.002  1.00  0.00     0.000 C 
BRANCH   7   8
ATOM      8  C   UNL     1      -3.993  -5.478  36.849  1.00  0.00     0.000 C 
BRANCH   8   9
ATOM      9  C   UNL     1      -4.814  -4.973  35.649  1.00  0.00     0.000 C 
BRANCH   9  10
ATOM     10  C   UNL     1      -3.962  -4.162  34.658  1.00  0.00     0.000 C 
BRANCH  10  11
ATOM     11  C   UNL     1      -3.628  -4.967  33.388  1.00  0.00     0.000 C 
BRANCH  11  12
ATOM     12  C   UNL     1      -2.437  -5.922  33.577  1.00  0.00     0.000 C 
BRANCH  12  13
ATOM     13  C   UNL     1      -2.212  -6.919  32.426  1.00  0.00     0.006 C 
BRANCH  13  14
ATOM     14  C   UNL     1      -3.517  -7.345  31.738  1.00  0.00     0.053 C 
BRANCH  14  15
ATOM     15  C   UNL     1      -3.760  -8.810  31.924  1.00  0.00     0.041 C 
ATOM     16  O   UNL     1      -2.791  -9.604  32.055  1.00  0.00    -0.550 OA
ATOM     17  O   UNL     1      -5.061  -9.303  31.938  1.00  0.00    -0.550 OA
ENDBRANCH  14  15
ENDBRANCH  13  14
ENDBRANCH  12  13
ENDBRANCH  11  12
ENDBRANCH  10  11
ENDBRANCH   9  10
ENDBRANCH   8   9
ENDBRANCH   7   8
ENDBRANCH   6   7
ENDBRANCH   5   6
ENDBRANCH   4   5
ENDBRANCH   3   4
ENDBRANCH   2   3
ENDBRANCH   1   2
BRANCH   1  18
ATOM     18  C   UNL     1      -0.192  -8.935  39.183  1.00  0.00     0.000 C 
BRANCH  18  19
ATOM     19  C   UNL     1      -1.367  -8.359  40.004  1.00  0.00     0.000 C 
BRANCH  19  20
ATOM     20  C   UNL     1      -1.877  -9.249  41.158  1.00  0.00     0.000 C 
BRANCH  20  21
ATOM     21  C   UNL     1      -1.708 -10.760  40.919  1.00  0.00     0.000 C 
BRANCH  21  22
ATOM     22  C   UNL     1      -1.331 -11.539  42.192  1.00  0.00     0.000 C 
BRANCH  22  23
ATOM     23  C   UNL     1      -2.015 -12.921  42.273  1.00  0.00     0.000 C 
BRANCH  23  24
ATOM     24  C   UNL     1      -3.298 -13.035  41.427  1.00  0.00    -0.000 C 
BRANCH  24  25
ATOM     25  C   UNL     1      -4.602 -13.198  42.231  1.00  0.00    -0.000 C 
BRANCH  25  26
ATOM     26  C   UNL     1      -5.529 -11.970  42.224  1.00  0.00    -0.000 C 
BRANCH  26  27
ATOM     27  C   UNL     1      -5.030 -10.834  43.134  1.00  0.00    -0.000 C 
BRANCH  27  28
ATOM     28  C   UNL     1      -5.259  -9.438  42.529  1.00  0.00    -0.000 C 
BRANCH  28  29
ATOM     29  C   UNL     1      -6.064  -9.421  41.216  1.00  0.00    -0.000 C 
BRANCH  29  30
ATOM     30  C   UNL     1      -5.252  -8.908  40.019  1.00  0.00    -0.000 C 
BRANCH  30  31
ATOM     31  C   UNL     1      -4.882 -10.056  39.074  1.00  0.00    -0.003 C 
ATOM     32  C   UNL     1      -6.104 -10.556  38.307  1.00  0.00     0.004 C 
ENDBRANCH  30  31
ENDBRANCH  29  30
ENDBRANCH  28  29
ENDBRANCH  27  28
ENDBRANCH  26  27
ENDBRANCH  25  26
ENDBRANCH  24  25
ENDBRANCH  23  24
ENDBRANCH  22  23
ENDBRANCH  21  22
ENDBRANCH  20  21
ENDBRANCH  19  20
ENDBRANCH  18  19
ENDBRANCH   1  18
TORSDOF 28
ENDMDL
