MODEL 1
REMARK VINA RESULT:    -2.631      0.000      0.000
REMARK INTER + INTRA:          -9.722
REMARK INTER:                  -6.629
REMARK INTRA:                  -3.093
REMARK UNBOUND:                -3.093
REMARK SMILES CCCCCCCCCCCCCCCCCCCCCCCCCCCC(=O)[O-]
REMARK SMILES IDX 15 1 16 2 17 3 18 4 19 5 20 6 21 7 22 8 23 9 24 10 25 11
REMARK SMILES IDX 26 12 27 13 28 14 29 15 30 16 14 17 13 18 12 19 11 20 10 21
REMARK SMILES IDX 9 22 8 23 7 24 6 25 5 26 4 27 3 28 2 29 1 30
REMARK H PARENT
REMARK Flexibility Score: inf
ROOT
ATOM      1  C   UNL     1       5.985  -3.667  -7.938  1.00  0.00     0.000 C 
ENDROOT
BRANCH   1   2
ATOM      2  C   UNL     1       6.584  -2.331  -8.412  1.00  0.00     0.000 C 
BRANCH   2   3
ATOM      3  C   UNL     1       8.058  -2.455  -8.835  1.00  0.00     0.000 C 
BRANCH   3   4
ATOM      4  C   UNL     1       8.340  -3.669  -9.746  1.00  0.00     0.000 C 
BRANCH   4   5
ATOM      5  C   UNL     1       9.747  -4.250  -9.516  1.00  0.00     0.000 C 
BRANCH   5   6
ATOM      6  C   UNL     1       9.895  -5.678 -10.083  1.00  0.00     0.000 C 
BRANCH   6   7
ATOM      7  C   UNL     1       9.341  -6.777  -9.156  1.00  0.00     0.000 C 
BRANCH   7   8
ATOM      8  C   UNL     1       8.491  -7.850  -9.856  1.00  0.00     0.000 C 
BRANCH   8   9
ATOM      9  C   UNL     1       8.499  -9.195  -9.108  1.00  0.00     0.000 C 
BRANCH   9  10
ATOM     10  C   UNL     1       9.922  -9.707  -8.830  1.00  0.00     0.000 C 
BRANCH  10  11
ATOM     11  C   UNL     1      10.124 -10.117  -7.361  1.00  0.00     0.000 C 
BRANCH  11  12
ATOM     12  C   UNL     1       9.242  -9.308  -6.395  1.00  0.00     0.006 C 
BRANCH  12  13
ATOM     13  C   UNL     1       9.741  -9.367  -4.945  1.00  0.00     0.053 C 
BRANCH  13  14
ATOM     14  C   UNL     1       9.627  -8.023  -4.297  1.00  0.00     0.041 C 
ATOM     15  O   UNL     1       9.759  -7.908  -3.048  1.00  0.00    -0.550 OA
ATOM     16  O   UNL     1       9.398  -6.894  -5.072  1.00  0.00    -0.550 OA
ENDBRANCH  13  14
ENDBRANCH  12  13
ENDBRANCH  11  12
ENDBRANCH  10  11
ENDBRANCH   9  10
ENDBRANCH   8   9
ENDBRANCH   7   8
ENDBRANCH   6   7
ENDBRANCH   5   6
ENDBRANCH   4   5
ENDBRANCH   3   4
ENDBRANCH   2   3
ENDBRANCH   1   2
BRANCH   1  17
ATOM     17  C   UNL     1       5.909  -3.765  -6.400  1.00  0.00     0.000 C 
BRANCH  17  18
ATOM     18  C   UNL     1       6.009  -5.205  -5.864  1.00  0.00     0.000 C 
BRANCH  18  19
ATOM     19  C   UNL     1       6.613  -6.224  -6.845  1.00  0.00     0.000 C 
BRANCH  19  20
ATOM     20  C   UNL     1       5.697  -7.439  -7.082  1.00  0.00     0.000 C 
BRANCH  20  21
ATOM     21  C   UNL     1       5.177  -7.522  -8.527  1.00  0.00     0.000 C 
BRANCH  21  22
ATOM     22  C   UNL     1       3.732  -7.023  -8.732  1.00  0.00    -0.000 C 
BRANCH  22  23
ATOM     23  C   UNL     1       3.640  -5.646  -9.426  1.00  0.00    -0.000 C 
BRANCH  23  24
ATOM     24  C   UNL     1       2.918  -4.602  -8.555  1.00  0.00    -0.000 C 
BRANCH  24  25
ATOM     25  C   UNL     1       2.937  -4.972  -7.057  1.00  0.00    -0.000 C 
BRANCH  25  26
ATOM     26  C   UNL     1       2.101  -4.030  -6.174  1.00  0.00    -0.000 C 
BRANCH  26  27
ATOM     27  C   UNL     1       2.946  -2.952  -5.483  1.00  0.00    -0.000 C 
BRANCH  27  28
ATOM     28  C   UNL     1       2.188  -2.337  -4.300  1.00  0.00    -0.000 C 
BRANCH  28  29
ATOM     29  C   UNL     1       2.544  -3.045  -2.988  1.00  0.00    -0.003 C 
ATOM     30  C   UNL     1       2.058  -2.247  -1.783  1.00  0.00     0.004 C 
ENDBRANCH  28  29
ENDBRANCH  27  28
ENDBRANCH  26  27
ENDBRANCH  25  26
ENDBRANCH  24  25
ENDBRANCH  23  24
ENDBRANCH  22  23
ENDBRANCH  21  22
ENDBRANCH  20  21
ENDBRANCH  19  20
ENDBRANCH  18  19
ENDBRANCH  17  18
ENDBRANCH   1  17
TORSDOF 26
ENDMDL
MODEL 2
REMARK VINA RESULT:    -2.543      1.513      2.805
REMARK INTER + INTRA:          -9.502
REMARK INTER:                  -6.379
REMARK INTRA:                  -3.123
REMARK UNBOUND:                -3.093
REMARK SMILES CCCCCCCCCCCCCCCCCCCCCCCCCCCC(=O)[O-]
REMARK SMILES IDX 15 1 16 2 17 3 18 4 19 5 20 6 21 7 22 8 23 9 24 10 25 11
REMARK SMILES IDX 26 12 27 13 28 14 29 15 30 16 14 17 13 18 12 19 11 20 10 21
REMARK SMILES IDX 9 22 8 23 7 24 6 25 5 26 4 27 3 28 2 29 1 30
REMARK H PARENT
REMARK Flexibility Score: inf
ROOT
ATOM      1  C   UNL     1       5.279  -3.285  -9.124  1.00  0.00     0.000 C 
ENDROOT
BRANCH   1   2
ATOM      2  C   UNL     1       5.989  -2.357 -10.125  1.00  0.00     0.000 C 
BRANCH   2   3
ATOM      3  C   UNL     1       7.027  -1.440  -9.455  1.00  0.00     0.000 C 
BRANCH   3   4
ATOM      4  C   UNL     1       8.482  -1.927  -9.622  1.00  0.00     0.000 C 
BRANCH   4   5
ATOM      5  C   UNL     1       9.208  -2.052  -8.270  1.00  0.00     0.000 C 
BRANCH   5   6
ATOM      6  C   UNL     1       8.346  -2.753  -7.199  1.00  0.00     0.000 C 
BRANCH   6   7
ATOM      7  C   UNL     1       8.691  -4.242  -6.999  1.00  0.00     0.000 C 
BRANCH   7   8
ATOM      8  C   UNL     1      10.111  -4.643  -7.431  1.00  0.00     0.000 C 
BRANCH   8   9
ATOM      9  C   UNL     1      10.123  -5.858  -8.375  1.00  0.00     0.000 C 
BRANCH   9  10
ATOM     10  C   UNL     1       8.724  -6.462  -8.578  1.00  0.00     0.000 C 
BRANCH  10  11
ATOM     11  C   UNL     1       8.762  -7.991  -8.753  1.00  0.00     0.000 C 
BRANCH  11  12
ATOM     12  C   UNL     1       9.582  -8.691  -7.657  1.00  0.00     0.006 C 
BRANCH  12  13
ATOM     13  C   UNL     1       8.803  -9.816  -6.961  1.00  0.00     0.053 C 
BRANCH  13  14
ATOM     14  C   UNL     1       7.931  -9.259  -5.880  1.00  0.00     0.041 C 
ATOM     15  O   UNL     1       8.086  -8.071  -5.490  1.00  0.00    -0.550 OA
ATOM     16  O   UNL     1       6.931 -10.043  -5.319  1.00  0.00    -0.550 OA
ENDBRANCH  13  14
ENDBRANCH  12  13
ENDBRANCH  11  12
ENDBRANCH  10  11
ENDBRANCH   9  10
ENDBRANCH   8   9
ENDBRANCH   7   8
ENDBRANCH   6   7
ENDBRANCH   5   6
ENDBRANCH   4   5
ENDBRANCH   3   4
ENDBRANCH   2   3
ENDBRANCH   1   2
BRANCH   1  17
ATOM     17  C   UNL     1       4.361  -4.311  -9.821  1.00  0.00     0.000 C 
BRANCH  17  18
ATOM     18  C   UNL     1       5.039  -5.667 -10.095  1.00  0.00     0.000 C 
BRANCH  18  19
ATOM     19  C   UNL     1       4.109  -6.889 -10.006  1.00  0.00     0.000 C 
BRANCH  19  20
ATOM     20  C   UNL     1       4.098  -7.530  -8.607  1.00  0.00     0.000 C 
BRANCH  20  21
ATOM     21  C   UNL     1       5.414  -7.310  -7.840  1.00  0.00     0.000 C 
BRANCH  21  22
ATOM     22  C   UNL     1       5.261  -6.651  -6.454  1.00  0.00    -0.000 C 
BRANCH  22  23
ATOM     23  C   UNL     1       5.885  -5.241  -6.361  1.00  0.00    -0.000 C 
BRANCH  23  24
ATOM     24  C   UNL     1       4.920  -4.217  -5.736  1.00  0.00    -0.000 C 
BRANCH  24  25
ATOM     25  C   UNL     1       3.635  -4.035  -6.572  1.00  0.00    -0.000 C 
BRANCH  25  26
ATOM     26  C   UNL     1       2.398  -3.671  -5.735  1.00  0.00    -0.000 C 
BRANCH  26  27
ATOM     27  C   UNL     1       2.683  -2.588  -4.686  1.00  0.00    -0.000 C 
BRANCH  27  28
ATOM     28  C   UNL     1       1.609  -2.588  -3.592  1.00  0.00    -0.000 C 
BRANCH  28  29
ATOM     29  C   UNL     1       2.190  -3.038  -2.246  1.00  0.00    -0.003 C 
ATOM     30  C   UNL     1       2.821  -1.867  -1.501  1.00  0.00     0.004 C 
ENDBRANCH  28  29
ENDBRANCH  27  28
ENDBRANCH  26  27
ENDBRANCH  25  26
ENDBRANCH  24  25
ENDBRANCH  23  24
ENDBRANCH  22  23
ENDBRANCH  21  22
ENDBRANCH  20  21
ENDBRANCH  19  20
ENDBRANCH  18  19
ENDBRANCH  17  18
ENDBRANCH   1  17
TORSDOF 26
ENDMDL
MODEL 3
REMARK VINA RESULT:    -1.614      4.128      8.907
REMARK INTER + INTRA:          -7.159
REMARK INTER:                  -3.816
REMARK INTRA:                  -3.343
REMARK UNBOUND:                -3.093
REMARK SMILES CCCCCCCCCCCCCCCCCCCCCCCCCCCC(=O)[O-]
REMARK SMILES IDX 15 1 16 2 17 3 18 4 19 5 20 6 21 7 22 8 23 9 24 10 25 11
REMARK SMILES IDX 26 12 27 13 28 14 29 15 30 16 14 17 13 18 12 19 11 20 10 21
REMARK SMILES IDX 9 22 8 23 7 24 6 25 5 26 4 27 3 28 2 29 1 30
REMARK H PARENT
REMARK Flexibility Score: inf
ROOT
ATOM      1  C   UNL     1       6.492  -3.035  -9.563  1.00  0.00     0.000 C 
ENDROOT
BRANCH   1   2
ATOM      2  C   UNL     1       5.430  -2.788  -8.478  1.00  0.00     0.000 C 
BRANCH   2   3
ATOM      3  C   UNL     1       5.941  -3.101  -7.061  1.00  0.00     0.000 C 
BRANCH   3   4
ATOM      4  C   UNL     1       4.950  -3.929  -6.215  1.00  0.00     0.000 C 
BRANCH   4   5
ATOM      5  C   UNL     1       3.532  -3.922  -6.814  1.00  0.00     0.000 C 
BRANCH   5   6
ATOM      6  C   UNL     1       2.437  -3.783  -5.735  1.00  0.00     0.000 C 
BRANCH   6   7
ATOM      7  C   UNL     1       2.646  -2.587  -4.786  1.00  0.00     0.000 C 
BRANCH   7   8
ATOM      8  C   UNL     1       2.042  -2.758  -3.382  1.00  0.00     0.000 C 
BRANCH   8   9
ATOM      9  C   UNL     1       2.969  -2.236  -2.270  1.00  0.00     0.000 C 
BRANCH   9  10
ATOM     10  C   UNL     1       2.269  -1.231  -1.341  1.00  0.00     0.000 C 
BRANCH  10  11
ATOM     11  C   UNL     1       3.128   0.016  -1.068  1.00  0.00     0.000 C 
BRANCH  11  12
ATOM     12  C   UNL     1       2.289   1.230  -0.639  1.00  0.00     0.006 C 
BRANCH  12  13
ATOM     13  C   UNL     1       3.086   2.235   0.204  1.00  0.00     0.053 C 
BRANCH  13  14
ATOM     14  C   UNL     1       2.685   3.637  -0.135  1.00  0.00     0.041 C 
ATOM     15  O   UNL     1       2.329   4.432   0.775  1.00  0.00    -0.550 OA
ATOM     16  O   UNL     1       2.728   4.073  -1.453  1.00  0.00    -0.550 OA
ENDBRANCH  13  14
ENDBRANCH  12  13
ENDBRANCH  11  12
ENDBRANCH  10  11
ENDBRANCH   9  10
ENDBRANCH   8   9
ENDBRANCH   7   8
ENDBRANCH   6   7
ENDBRANCH   5   6
ENDBRANCH   4   5
ENDBRANCH   3   4
ENDBRANCH   2   3
ENDBRANCH   1   2
BRANCH   1  17
ATOM     17  C   UNL     1       7.669  -2.041  -9.473  1.00  0.00     0.000 C 
BRANCH  17  18
ATOM     18  C   UNL     1       9.023  -2.639  -9.899  1.00  0.00     0.000 C 
BRANCH  18  19
ATOM     19  C   UNL     1      10.037  -2.831  -8.758  1.00  0.00     0.000 C 
BRANCH  19  20
ATOM     20  C   UNL     1       9.481  -3.684  -7.604  1.00  0.00     0.000 C 
BRANCH  20  21
ATOM     21  C   UNL     1      10.086  -5.098  -7.562  1.00  0.00     0.000 C 
BRANCH  21  22
ATOM     22  C   UNL     1       9.676  -6.020  -8.729  1.00  0.00    -0.000 C 
BRANCH  22  23
ATOM     23  C   UNL     1       8.157  -6.031  -9.011  1.00  0.00    -0.000 C 
BRANCH  23  24
ATOM     24  C   UNL     1       7.530  -7.415  -8.767  1.00  0.00    -0.000 C 
BRANCH  24  25
ATOM     25  C   UNL     1       6.022  -7.329  -8.450  1.00  0.00    -0.000 C 
BRANCH  25  26
ATOM     26  C   UNL     1       5.710  -7.188  -6.951  1.00  0.00    -0.000 C 
BRANCH  26  27
ATOM     27  C   UNL     1       6.741  -7.889  -6.057  1.00  0.00    -0.000 C 
BRANCH  27  28
ATOM     28  C   UNL     1       7.613  -6.866  -5.319  1.00  0.00    -0.000 C 
BRANCH  28  29
ATOM     29  C   UNL     1       8.946  -7.486  -4.887  1.00  0.00    -0.003 C 
ATOM     30  C   UNL     1       9.364  -8.607  -5.832  1.00  0.00     0.004 C 
ENDBRANCH  28  29
ENDBRANCH  27  28
ENDBRANCH  26  27
ENDBRANCH  25  26
ENDBRANCH  24  25
ENDBRANCH  23  24
ENDBRANCH  22  23
ENDBRANCH  21  22
ENDBRANCH  20  21
ENDBRANCH  19  20
ENDBRANCH  18  19
ENDBRANCH  17  18
ENDBRANCH   1  17
TORSDOF 26
ENDMDL
MODEL 4
REMARK VINA RESULT:    -1.590      2.599      4.586
REMARK INTER + INTRA:          -7.100
REMARK INTER:                  -4.447
REMARK INTRA:                  -2.652
REMARK UNBOUND:                -3.093
REMARK SMILES CCCCCCCCCCCCCCCCCCCCCCCCCCCC(=O)[O-]
REMARK SMILES IDX 15 1 16 2 17 3 18 4 19 5 20 6 21 7 22 8 23 9 24 10 25 11
REMARK SMILES IDX 26 12 27 13 28 14 29 15 30 16 14 17 13 18 12 19 11 20 10 21
REMARK SMILES IDX 9 22 8 23 7 24 6 25 5 26 4 27 3 28 2 29 1 30
REMARK H PARENT
REMARK Flexibility Score: inf
ROOT
ATOM      1  C   UNL     1       5.593  -4.349  -9.801  1.00  0.00     0.000 C 
ENDROOT
BRANCH   1   2
ATOM      2  C   UNL     1       6.353  -3.012  -9.756  1.00  0.00     0.000 C 
BRANCH   2   3
ATOM      3  C   UNL     1       6.745  -2.596  -8.328  1.00  0.00     0.000 C 
BRANCH   3   4
ATOM      4  C   UNL     1       8.234  -2.216  -8.181  1.00  0.00     0.000 C 
BRANCH   4   5
ATOM      5  C   UNL     1       9.055  -3.340  -7.524  1.00  0.00     0.000 C 
BRANCH   5   6
ATOM      6  C   UNL     1       8.290  -4.038  -6.379  1.00  0.00     0.000 C 
BRANCH   6   7
ATOM      7  C   UNL     1       8.325  -5.577  -6.454  1.00  0.00     0.000 C 
BRANCH   7   8
ATOM      8  C   UNL     1       8.079  -6.164  -7.854  1.00  0.00     0.000 C 
BRANCH   8   9
ATOM      9  C   UNL     1       8.451  -7.655  -7.946  1.00  0.00     0.000 C 
BRANCH   9  10
ATOM     10  C   UNL     1       7.286  -8.580  -7.557  1.00  0.00     0.000 C 
BRANCH  10  11
ATOM     11  C   UNL     1       7.618  -9.467  -6.344  1.00  0.00     0.000 C 
BRANCH  11  12
ATOM     12  C   UNL     1       9.110  -9.428  -5.974  1.00  0.00     0.006 C 
BRANCH  12  13
ATOM     13  C   UNL     1       9.398 -10.055  -4.603  1.00  0.00     0.053 C 
BRANCH  13  14
ATOM     14  C   UNL     1       9.460  -8.998  -3.546  1.00  0.00     0.041 C 
ATOM     15  O   UNL     1       9.402  -7.779  -3.864  1.00  0.00    -0.550 OA
ATOM     16  O   UNL     1       9.557  -9.356  -2.208  1.00  0.00    -0.550 OA
ENDBRANCH  13  14
ENDBRANCH  12  13
ENDBRANCH  11  12
ENDBRANCH  10  11
ENDBRANCH   9  10
ENDBRANCH   8   9
ENDBRANCH   7   8
ENDBRANCH   6   7
ENDBRANCH   5   6
ENDBRANCH   4   5
ENDBRANCH   3   4
ENDBRANCH   2   3
ENDBRANCH   1   2
BRANCH   1  17
ATOM     17  C   UNL     1       4.394  -4.378  -8.829  1.00  0.00     0.000 C 
BRANCH  17  18
ATOM     18  C   UNL     1       4.616  -5.272  -7.595  1.00  0.00     0.000 C 
BRANCH  18  19
ATOM     19  C   UNL     1       4.705  -4.521  -6.255  1.00  0.00     0.000 C 
BRANCH  19  20
ATOM     20  C   UNL     1       3.764  -3.305  -6.190  1.00  0.00     0.000 C 
BRANCH  20  21
ATOM     21  C   UNL     1       2.625  -3.487  -5.171  1.00  0.00     0.000 C 
BRANCH  21  22
ATOM     22  C   UNL     1       2.443  -2.320  -4.179  1.00  0.00    -0.000 C 
BRANCH  22  23
ATOM     23  C   UNL     1       2.576  -2.734  -2.698  1.00  0.00    -0.000 C 
BRANCH  23  24
ATOM     24  C   UNL     1       2.061  -1.645  -1.740  1.00  0.00    -0.000 C 
BRANCH  24  25
ATOM     25  C   UNL     1       3.095  -0.521  -1.517  1.00  0.00    -0.000 C 
BRANCH  25  26
ATOM     26  C   UNL     1       2.717   0.456  -0.392  1.00  0.00    -0.000 C 
BRANCH  26  27
ATOM     27  C   UNL     1       2.950   1.925  -0.772  1.00  0.00    -0.000 C 
BRANCH  27  28
ATOM     28  C   UNL     1       2.961   2.818   0.474  1.00  0.00    -0.000 C 
BRANCH  28  29
ATOM     29  C   UNL     1       2.344   4.189   0.175  1.00  0.00    -0.003 C 
ATOM     30  C   UNL     1       2.088   4.365  -1.317  1.00  0.00     0.004 C 
ENDBRANCH  28  29
ENDBRANCH  27  28
ENDBRANCH  26  27
ENDBRANCH  25  26
ENDBRANCH  24  25
ENDBRANCH  23  24
ENDBRANCH  22  23
ENDBRANCH  21  22
ENDBRANCH  20  21
ENDBRANCH  19  20
ENDBRANCH  18  19
ENDBRANCH  17  18
ENDBRANCH   1  17
TORSDOF 26
ENDMDL
MODEL 5
REMARK VINA RESULT:    -1.533      4.407      9.261
REMARK INTER + INTRA:          -6.956
REMARK INTER:                  -3.577
REMARK INTRA:                  -3.379
REMARK UNBOUND:                -3.093
REMARK SMILES CCCCCCCCCCCCCCCCCCCCCCCCCCCC(=O)[O-]
REMARK SMILES IDX 15 1 16 2 17 3 18 4 19 5 20 6 21 7 22 8 23 9 24 10 25 11
REMARK SMILES IDX 26 12 27 13 28 14 29 15 30 16 14 17 13 18 12 19 11 20 10 21
REMARK SMILES IDX 9 22 8 23 7 24 6 25 5 26 4 27 3 28 2 29 1 30
REMARK H PARENT
REMARK Flexibility Score: inf
ROOT
ATOM      1  C   UNL     1       4.030  -6.501  -8.119  1.00  0.00     0.000 C 
ENDROOT
BRANCH   1   2
ATOM      2  C   UNL     1       3.851  -5.154  -8.841  1.00  0.00     0.000 C 
BRANCH   2   3
ATOM      3  C   UNL     1       3.893  -3.953  -7.881  1.00  0.00     0.000 C 
BRANCH   3   4
ATOM      4  C   UNL     1       2.937  -4.089  -6.677  1.00  0.00     0.000 C 
BRANCH   4   5
ATOM      5  C   UNL     1       3.487  -3.391  -5.420  1.00  0.00     0.000 C 
BRANCH   5   6
ATOM      6  C   UNL     1       2.392  -2.632  -4.640  1.00  0.00     0.000 C 
BRANCH   6   7
ATOM      7  C   UNL     1       2.325  -2.997  -3.145  1.00  0.00     0.000 C 
BRANCH   7   8
ATOM      8  C   UNL     1       2.671  -1.851  -2.180  1.00  0.00     0.000 C 
BRANCH   8   9
ATOM      9  C   UNL     1       1.628  -1.683  -1.060  1.00  0.00     0.000 C 
BRANCH   9  10
ATOM     10  C   UNL     1       1.590  -0.252  -0.499  1.00  0.00     0.000 C 
BRANCH  10  11
ATOM     11  C   UNL     1       2.914   0.501  -0.715  1.00  0.00     0.000 C 
BRANCH  11  12
ATOM     12  C   UNL     1       2.934   1.872  -0.019  1.00  0.00     0.006 C 
BRANCH  12  13
ATOM     13  C   UNL     1       2.871   3.042  -1.010  1.00  0.00     0.053 C 
BRANCH  13  14
ATOM     14  C   UNL     1       2.131   4.196  -0.410  1.00  0.00     0.041 C 
ATOM     15  O   UNL     1       2.389   4.575   0.764  1.00  0.00    -0.550 OA
ATOM     16  O   UNL     1       1.172   4.870  -1.155  1.00  0.00    -0.550 OA
ENDBRANCH  13  14
ENDBRANCH  12  13
ENDBRANCH  11  12
ENDBRANCH  10  11
ENDBRANCH   9  10
ENDBRANCH   8   9
ENDBRANCH   7   8
ENDBRANCH   6   7
ENDBRANCH   5   6
ENDBRANCH   4   5
ENDBRANCH   3   4
ENDBRANCH   2   3
ENDBRANCH   1   2
BRANCH   1  17
ATOM     17  C   UNL     1       3.809  -7.706  -9.057  1.00  0.00     0.000 C 
BRANCH  17  18
ATOM     18  C   UNL     1       4.907  -7.872 -10.125  1.00  0.00     0.000 C 
BRANCH  18  19
ATOM     19  C   UNL     1       6.067  -8.801  -9.727  1.00  0.00     0.000 C 
BRANCH  19  20
ATOM     20  C   UNL     1       7.356  -8.032  -9.385  1.00  0.00     0.000 C 
BRANCH  20  21
ATOM     21  C   UNL     1       7.392  -6.623 -10.002  1.00  0.00     0.000 C 
BRANCH  21  22
ATOM     22  C   UNL     1       8.725  -5.867  -9.828  1.00  0.00    -0.000 C 
BRANCH  22  23
ATOM     23  C   UNL     1       8.567  -4.332  -9.766  1.00  0.00    -0.000 C 
BRANCH  23  24
ATOM     24  C   UNL     1       7.324  -3.906  -8.963  1.00  0.00    -0.000 C 
BRANCH  24  25
ATOM     25  C   UNL     1       7.669  -2.925  -7.823  1.00  0.00    -0.000 C 
BRANCH  25  26
ATOM     26  C   UNL     1       7.397  -3.486  -6.418  1.00  0.00    -0.000 C 
BRANCH  26  27
ATOM     27  C   UNL     1       7.086  -4.989  -6.424  1.00  0.00    -0.000 C 
BRANCH  27  28
ATOM     28  C   UNL     1       8.365  -5.814  -6.239  1.00  0.00    -0.000 C 
BRANCH  28  29
ATOM     29  C   UNL     1       8.076  -7.121  -5.492  1.00  0.00    -0.003 C 
ATOM     30  C   UNL     1       6.709  -7.680  -5.870  1.00  0.00     0.004 C 
ENDBRANCH  28  29
ENDBRANCH  27  28
ENDBRANCH  26  27
ENDBRANCH  25  26
ENDBRANCH  24  25
ENDBRANCH  23  24
ENDBRANCH  22  23
ENDBRANCH  21  22
ENDBRANCH  20  21
ENDBRANCH  19  20
ENDBRANCH  18  19
ENDBRANCH  17  18
ENDBRANCH   1  17
TORSDOF 26
ENDMDL
MODEL 6
REMARK VINA RESULT:    -1.501      3.006      8.025
REMARK INTER + INTRA:          -6.876
REMARK INTER:                  -3.480
REMARK INTRA:                  -3.396
REMARK UNBOUND:                -3.093
REMARK SMILES CCCCCCCCCCCCCCCCCCCCCCCCCCCC(=O)[O-]
REMARK SMILES IDX 15 1 16 2 17 3 18 4 19 5 20 6 21 7 22 8 23 9 24 10 25 11
REMARK SMILES IDX 26 12 27 13 28 14 29 15 30 16 14 17 13 18 12 19 11 20 10 21
REMARK SMILES IDX 9 22 8 23 7 24 6 25 5 26 4 27 3 28 2 29 1 30
REMARK H PARENT
REMARK Flexibility Score: inf
ROOT
ATOM      1  C   UNL     1       3.776  -6.438  -9.140  1.00  0.00     0.000 C 
ENDROOT
BRANCH   1   2
ATOM      2  C   UNL     1       5.144  -6.761  -8.514  1.00  0.00     0.000 C 
BRANCH   2   3
ATOM      3  C   UNL     1       5.789  -5.543  -7.831  1.00  0.00     0.000 C 
BRANCH   3   4
ATOM      4  C   UNL     1       5.798  -5.632  -6.290  1.00  0.00     0.000 C 
BRANCH   4   5
ATOM      5  C   UNL     1       5.278  -4.340  -5.634  1.00  0.00     0.000 C 
BRANCH   5   6
ATOM      6  C   UNL     1       4.088  -3.726  -6.401  1.00  0.00     0.000 C 
BRANCH   6   7
ATOM      7  C   UNL     1       2.873  -3.404  -5.510  1.00  0.00     0.000 C 
BRANCH   7   8
ATOM      8  C   UNL     1       3.157  -3.404  -3.999  1.00  0.00     0.000 C 
BRANCH   8   9
ATOM      9  C   UNL     1       2.278  -2.402  -3.229  1.00  0.00     0.000 C 
BRANCH   9  10
ATOM     10  C   UNL     1       2.206  -2.714  -1.725  1.00  0.00     0.000 C 
BRANCH  10  11
ATOM     11  C   UNL     1       1.572  -4.086  -1.438  1.00  0.00     0.000 C 
BRANCH  11  12
ATOM     12  C   UNL     1       1.407  -4.357   0.067  1.00  0.00     0.006 C 
BRANCH  12  13
ATOM     13  C   UNL     1       0.572  -5.612   0.356  1.00  0.00     0.053 C 
BRANCH  13  14
ATOM     14  C   UNL     1       1.416  -6.665   1.002  1.00  0.00     0.041 C 
ATOM     15  O   UNL     1       1.684  -7.730   0.384  1.00  0.00    -0.550 OA
ATOM     16  O   UNL     1       1.928  -6.461   2.277  1.00  0.00    -0.550 OA
ENDBRANCH  13  14
ENDBRANCH  12  13
ENDBRANCH  11  12
ENDBRANCH  10  11
ENDBRANCH   9  10
ENDBRANCH   8   9
ENDBRANCH   7   8
ENDBRANCH   6   7
ENDBRANCH   5   6
ENDBRANCH   4   5
ENDBRANCH   3   4
ENDBRANCH   2   3
ENDBRANCH   1   2
BRANCH   1  17
ATOM     17  C   UNL     1       3.844  -5.250 -10.123  1.00  0.00     0.000 C 
BRANCH  17  18
ATOM     18  C   UNL     1       3.095  -3.996  -9.635  1.00  0.00     0.000 C 
BRANCH  18  19
ATOM     19  C   UNL     1       3.719  -2.657 -10.065  1.00  0.00     0.000 C 
BRANCH  19  20
ATOM     20  C   UNL     1       4.887  -2.226  -9.159  1.00  0.00     0.000 C 
BRANCH  20  21
ATOM     21  C   UNL     1       6.234  -2.183  -9.902  1.00  0.00     0.000 C 
BRANCH  21  22
ATOM     22  C   UNL     1       7.394  -2.912  -9.195  1.00  0.00    -0.000 C 
BRANCH  22  23
ATOM     23  C   UNL     1       7.863  -2.224  -7.895  1.00  0.00    -0.000 C 
BRANCH  23  24
ATOM     24  C   UNL     1       8.957  -3.030  -7.171  1.00  0.00    -0.000 C 
BRANCH  24  25
ATOM     25  C   UNL     1       9.471  -4.214  -8.017  1.00  0.00    -0.000 C 
BRANCH  25  26
ATOM     26  C   UNL     1       9.498  -5.552  -7.261  1.00  0.00    -0.000 C 
BRANCH  26  27
ATOM     27  C   UNL     1       9.201  -6.756  -8.164  1.00  0.00    -0.000 C 
BRANCH  27  28
ATOM     28  C   UNL     1       9.327  -8.070  -7.385  1.00  0.00    -0.000 C 
BRANCH  28  29
ATOM     29  C   UNL     1       8.367  -8.099  -6.191  1.00  0.00    -0.003 C 
ATOM     30  C   UNL     1       9.127  -8.027  -4.871  1.00  0.00     0.004 C 
ENDBRANCH  28  29
ENDBRANCH  27  28
ENDBRANCH  26  27
ENDBRANCH  25  26
ENDBRANCH  24  25
ENDBRANCH  23  24
ENDBRANCH  22  23
ENDBRANCH  21  22
ENDBRANCH  20  21
ENDBRANCH  19  20
ENDBRANCH  18  19
ENDBRANCH  17  18
ENDBRANCH   1  17
TORSDOF 26
ENDMDL
MODEL 7
REMARK VINA RESULT:    -1.498      2.730      5.438
REMARK INTER + INTRA:          -6.867
REMARK INTER:                  -4.131
REMARK INTRA:                  -2.735
REMARK UNBOUND:                -3.093
REMARK SMILES CCCCCCCCCCCCCCCCCCCCCCCCCCCC(=O)[O-]
REMARK SMILES IDX 15 1 16 2 17 3 18 4 19 5 20 6 21 7 22 8 23 9 24 10 25 11
REMARK SMILES IDX 26 12 27 13 28 14 29 15 30 16 14 17 13 18 12 19 11 20 10 21
REMARK SMILES IDX 9 22 8 23 7 24 6 25 5 26 4 27 3 28 2 29 1 30
REMARK H PARENT
REMARK Flexibility Score: inf
ROOT
ATOM      1  C   UNL     1       4.873  -6.063  -8.860  1.00  0.00     0.000 C 
ENDROOT
BRANCH   1   2
ATOM      2  C   UNL     1       5.000  -4.977  -9.942  1.00  0.00     0.000 C 
BRANCH   2   3
ATOM      3  C   UNL     1       6.318  -4.189  -9.845  1.00  0.00     0.000 C 
BRANCH   3   4
ATOM      4  C   UNL     1       6.193  -2.868  -9.057  1.00  0.00     0.000 C 
BRANCH   4   5
ATOM      5  C   UNL     1       6.774  -2.985  -7.636  1.00  0.00     0.000 C 
BRANCH   5   6
ATOM      6  C   UNL     1       8.049  -2.134  -7.449  1.00  0.00     0.000 C 
BRANCH   6   7
ATOM      7  C   UNL     1       8.906  -2.009  -8.723  1.00  0.00     0.000 C 
BRANCH   7   8
ATOM      8  C   UNL     1      10.107  -2.968  -8.793  1.00  0.00     0.000 C 
BRANCH   8   9
ATOM      9  C   UNL     1       9.899  -4.106  -9.808  1.00  0.00     0.000 C 
BRANCH   9  10
ATOM     10  C   UNL     1       9.873  -5.492  -9.144  1.00  0.00     0.000 C 
BRANCH  10  11
ATOM     11  C   UNL     1       9.581  -5.417  -7.635  1.00  0.00     0.000 C 
BRANCH  11  12
ATOM     12  C   UNL     1       8.893  -6.685  -7.103  1.00  0.00     0.006 C 
BRANCH  12  13
ATOM     13  C   UNL     1       7.772  -6.376  -6.100  1.00  0.00     0.053 C 
BRANCH  13  14
ATOM     14  C   UNL     1       7.025  -7.624  -5.749  1.00  0.00     0.041 C 
ATOM     15  O   UNL     1       5.767  -7.651  -5.819  1.00  0.00    -0.550 OA
ATOM     16  O   UNL     1       7.718  -8.766  -5.369  1.00  0.00    -0.550 OA
ENDBRANCH  13  14
ENDBRANCH  12  13
ENDBRANCH  11  12
ENDBRANCH  10  11
ENDBRANCH   9  10
ENDBRANCH   8   9
ENDBRANCH   7   8
ENDBRANCH   6   7
ENDBRANCH   5   6
ENDBRANCH   4   5
ENDBRANCH   3   4
ENDBRANCH   2   3
ENDBRANCH   1   2
BRANCH   1  17
ATOM     17  C   UNL     1       4.242  -5.526  -7.557  1.00  0.00     0.000 C 
BRANCH  17  18
ATOM     18  C   UNL     1       3.100  -4.519  -7.789  1.00  0.00     0.000 C 
BRANCH  18  19
ATOM     19  C   UNL     1       2.307  -4.134  -6.529  1.00  0.00     0.000 C 
BRANCH  19  20
ATOM     20  C   UNL     1       3.146  -3.328  -5.520  1.00  0.00     0.000 C 
BRANCH  20  21
ATOM     21  C   UNL     1       2.283  -2.589  -4.482  1.00  0.00     0.000 C 
BRANCH  21  22
ATOM     22  C   UNL     1       2.481  -3.046  -3.022  1.00  0.00    -0.000 C 
BRANCH  22  23
ATOM     23  C   UNL     1       2.720  -1.884  -2.033  1.00  0.00    -0.000 C 
BRANCH  23  24
ATOM     24  C   UNL     1       1.555  -1.716  -1.040  1.00  0.00    -0.000 C 
BRANCH  24  25
ATOM     25  C   UNL     1       1.446  -0.274  -0.502  1.00  0.00    -0.000 C 
BRANCH  25  26
ATOM     26  C   UNL     1       2.718   0.564  -0.710  1.00  0.00    -0.000 C 
BRANCH  26  27
ATOM     27  C   UNL     1       2.740   1.840   0.142  1.00  0.00    -0.000 C 
BRANCH  27  28
ATOM     28  C   UNL     1       2.695   3.091  -0.742  1.00  0.00    -0.000 C 
BRANCH  28  29
ATOM     29  C   UNL     1       2.276   4.324   0.066  1.00  0.00    -0.003 C 
ATOM     30  C   UNL     1       2.896   4.306   1.459  1.00  0.00     0.004 C 
ENDBRANCH  28  29
ENDBRANCH  27  28
ENDBRANCH  26  27
ENDBRANCH  25  26
ENDBRANCH  24  25
ENDBRANCH  23  24
ENDBRANCH  22  23
ENDBRANCH  21  22
ENDBRANCH  20  21
ENDBRANCH  19  20
ENDBRANCH  18  19
ENDBRANCH  17  18
ENDBRANCH   1  17
TORSDOF 26
ENDMDL
MODEL 8
REMARK VINA RESULT:    -1.473      1.958      3.236
REMARK INTER + INTRA:          -6.805
REMARK INTER:                  -5.160
REMARK INTRA:                  -1.645
REMARK UNBOUND:                -3.093
REMARK SMILES CCCCCCCCCCCCCCCCCCCCCCCCCCCC(=O)[O-]
REMARK SMILES IDX 15 1 16 2 17 3 18 4 19 5 20 6 21 7 22 8 23 9 24 10 25 11
REMARK SMILES IDX 26 12 27 13 28 14 29 15 30 16 14 17 13 18 12 19 11 20 10 21
REMARK SMILES IDX 9 22 8 23 7 24 6 25 5 26 4 27 3 28 2 29 1 30
REMARK H PARENT
REMARK Flexibility Score: inf
ROOT
ATOM      1  C   UNL     1       6.136  -4.979  -9.098  1.00  0.00     0.000 C 
ENDROOT
BRANCH   1   2
ATOM      2  C   UNL     1       7.361  -4.181  -9.577  1.00  0.00     0.000 C 
BRANCH   2   3
ATOM      3  C   UNL     1       7.041  -2.699  -9.839  1.00  0.00     0.000 C 
BRANCH   3   4
ATOM      4  C   UNL     1       8.273  -1.775  -9.746  1.00  0.00     0.000 C 
BRANCH   4   5
ATOM      5  C   UNL     1       9.476  -2.479  -9.093  1.00  0.00     0.000 C 
BRANCH   5   6
ATOM      6  C   UNL     1       9.391  -2.485  -7.552  1.00  0.00     0.000 C 
BRANCH   6   7
ATOM      7  C   UNL     1      10.112  -3.677  -6.893  1.00  0.00     0.000 C 
BRANCH   7   8
ATOM      8  C   UNL     1       9.686  -5.061  -7.413  1.00  0.00     0.000 C 
BRANCH   8   9
ATOM      9  C   UNL     1       9.167  -5.981  -6.293  1.00  0.00     0.000 C 
BRANCH   9  10
ATOM     10  C   UNL     1       7.752  -5.602  -5.826  1.00  0.00     0.000 C 
BRANCH  10  11
ATOM     11  C   UNL     1       6.874  -6.835  -5.549  1.00  0.00     0.000 C 
BRANCH  11  12
ATOM     12  C   UNL     1       7.680  -8.144  -5.539  1.00  0.00     0.006 C 
BRANCH  12  13
ATOM     13  C   UNL     1       7.129  -9.188  -6.521  1.00  0.00     0.053 C 
BRANCH  13  14
ATOM     14  C   UNL     1       8.196  -9.621  -7.476  1.00  0.00     0.041 C 
ATOM     15  O   UNL     1       9.284 -10.087  -7.043  1.00  0.00    -0.550 OA
ATOM     16  O   UNL     1       7.982  -9.533  -8.846  1.00  0.00    -0.550 OA
ENDBRANCH  13  14
ENDBRANCH  12  13
ENDBRANCH  11  12
ENDBRANCH  10  11
ENDBRANCH   9  10
ENDBRANCH   8   9
ENDBRANCH   7   8
ENDBRANCH   6   7
ENDBRANCH   5   6
ENDBRANCH   4   5
ENDBRANCH   3   4
ENDBRANCH   2   3
ENDBRANCH   1   2
BRANCH   1  17
ATOM     17  C   UNL     1       6.405  -6.498  -9.050  1.00  0.00     0.000 C 
BRANCH  17  18
ATOM     18  C   UNL     1       5.643  -7.298 -10.124  1.00  0.00     0.000 C 
BRANCH  18  19
ATOM     19  C   UNL     1       4.419  -8.075  -9.610  1.00  0.00     0.000 C 
BRANCH  19  20
ATOM     20  C   UNL     1       3.200  -7.168  -9.359  1.00  0.00     0.000 C 
BRANCH  20  21
ATOM     21  C   UNL     1       3.346  -5.779 -10.007  1.00  0.00     0.000 C 
BRANCH  21  22
ATOM     22  C   UNL     1       2.695  -4.621  -9.225  1.00  0.00    -0.000 C 
BRANCH  22  23
ATOM     23  C   UNL     1       3.705  -3.744  -8.452  1.00  0.00    -0.000 C 
BRANCH  23  24
ATOM     24  C   UNL     1       4.074  -4.349  -7.085  1.00  0.00    -0.000 C 
BRANCH  24  25
ATOM     25  C   UNL     1       3.827  -3.364  -5.922  1.00  0.00    -0.000 C 
BRANCH  25  26
ATOM     26  C   UNL     1       2.357  -3.282  -5.480  1.00  0.00    -0.000 C 
BRANCH  26  27
ATOM     27  C   UNL     1       2.153  -2.394  -4.245  1.00  0.00    -0.000 C 
BRANCH  27  28
ATOM     28  C   UNL     1       1.344  -3.128  -3.169  1.00  0.00    -0.000 C 
BRANCH  28  29
ATOM     29  C   UNL     1       1.997  -2.979  -1.790  1.00  0.00    -0.003 C 
ATOM     30  C   UNL     1       3.258  -2.126  -1.867  1.00  0.00     0.004 C 
ENDBRANCH  28  29
ENDBRANCH  27  28
ENDBRANCH  26  27
ENDBRANCH  25  26
ENDBRANCH  24  25
ENDBRANCH  23  24
ENDBRANCH  22  23
ENDBRANCH  21  22
ENDBRANCH  20  21
ENDBRANCH  19  20
ENDBRANCH  18  19
ENDBRANCH  17  18
ENDBRANCH   1  17
TORSDOF 26
ENDMDL
MODEL 9
REMARK VINA RESULT:    -1.311      1.178      2.632
REMARK INTER + INTRA:          -6.397
REMARK INTER:                  -4.288
REMARK INTRA:                  -2.109
REMARK UNBOUND:                -3.093
REMARK SMILES CCCCCCCCCCCCCCCCCCCCCCCCCCCC(=O)[O-]
REMARK SMILES IDX 15 1 16 2 17 3 18 4 19 5 20 6 21 7 22 8 23 9 24 10 25 11
REMARK SMILES IDX 26 12 27 13 28 14 29 15 30 16 14 17 13 18 12 19 11 20 10 21
REMARK SMILES IDX 9 22 8 23 7 24 6 25 5 26 4 27 3 28 2 29 1 30
REMARK H PARENT
REMARK Flexibility Score: inf
ROOT
ATOM      1  C   UNL     1       3.982  -4.422  -9.920  1.00  0.00     0.000 C 
ENDROOT
BRANCH   1   2
ATOM      2  C   UNL     1       4.108  -2.939  -9.530  1.00  0.00     0.000 C 
BRANCH   2   3
ATOM      3  C   UNL     1       5.457  -2.326  -9.946  1.00  0.00     0.000 C 
BRANCH   3   4
ATOM      4  C   UNL     1       6.657  -2.870  -9.144  1.00  0.00     0.000 C 
BRANCH   4   5
ATOM      5  C   UNL     1       7.924  -2.019  -9.348  1.00  0.00     0.000 C 
BRANCH   5   6
ATOM      6  C   UNL     1       9.211  -2.871  -9.367  1.00  0.00     0.000 C 
BRANCH   6   7
ATOM      7  C   UNL     1       9.063  -4.204 -10.125  1.00  0.00     0.000 C 
BRANCH   7   8
ATOM      8  C   UNL     1      10.113  -5.272  -9.772  1.00  0.00     0.000 C 
BRANCH   8   9
ATOM      9  C   UNL     1       9.600  -6.291  -8.740  1.00  0.00     0.000 C 
BRANCH   9  10
ATOM     10  C   UNL     1       8.935  -7.512  -9.396  1.00  0.00     0.000 C 
BRANCH  10  11
ATOM     11  C   UNL     1       8.330  -8.479  -8.363  1.00  0.00     0.000 C 
BRANCH  11  12
ATOM     12  C   UNL     1       9.283  -8.762  -7.190  1.00  0.00     0.006 C 
BRANCH  12  13
ATOM     13  C   UNL     1       8.614  -8.566  -5.822  1.00  0.00     0.053 C 
BRANCH  13  14
ATOM     14  C   UNL     1       9.444  -7.670  -4.958  1.00  0.00     0.041 C 
ATOM     15  O   UNL     1       9.580  -7.921  -3.730  1.00  0.00    -0.550 OA
ATOM     16  O   UNL     1      10.089  -6.571  -5.511  1.00  0.00    -0.550 OA
ENDBRANCH  13  14
ENDBRANCH  12  13
ENDBRANCH  11  12
ENDBRANCH  10  11
ENDBRANCH   9  10
ENDBRANCH   8   9
ENDBRANCH   7   8
ENDBRANCH   6   7
ENDBRANCH   5   6
ENDBRANCH   4   5
ENDBRANCH   3   4
ENDBRANCH   2   3
ENDBRANCH   1   2
BRANCH   1  17
ATOM     17  C   UNL     1       5.355  -5.108 -10.081  1.00  0.00     0.000 C 
BRANCH  17  18
ATOM     18  C   UNL     1       5.537  -6.351  -9.190  1.00  0.00     0.000 C 
BRANCH  18  19
ATOM     19  C   UNL     1       4.364  -6.646  -8.239  1.00  0.00     0.000 C 
BRANCH  19  20
ATOM     20  C   UNL     1       4.824  -6.944  -6.800  1.00  0.00     0.000 C 
BRANCH  20  21
ATOM     21  C   UNL     1       6.106  -6.186  -6.415  1.00  0.00     0.000 C 
BRANCH  21  22
ATOM     22  C   UNL     1       6.093  -4.676  -6.729  1.00  0.00    -0.000 C 
BRANCH  22  23
ATOM     23  C   UNL     1       5.206  -3.848  -5.774  1.00  0.00    -0.000 C 
BRANCH  23  24
ATOM     24  C   UNL     1       3.868  -3.448  -6.422  1.00  0.00    -0.000 C 
BRANCH  24  25
ATOM     25  C   UNL     1       2.674  -3.619  -5.458  1.00  0.00    -0.000 C 
BRANCH  25  26
ATOM     26  C   UNL     1       2.727  -2.690  -4.234  1.00  0.00    -0.000 C 
BRANCH  26  27
ATOM     27  C   UNL     1       1.589  -2.949  -3.238  1.00  0.00    -0.000 C 
BRANCH  27  28
ATOM     28  C   UNL     1       1.953  -2.428  -1.842  1.00  0.00    -0.000 C 
BRANCH  28  29
ATOM     29  C   UNL     1       3.096  -1.410  -1.914  1.00  0.00    -0.003 C 
ATOM     30  C   UNL     1       2.868  -0.257  -0.943  1.00  0.00     0.004 C 
ENDBRANCH  28  29
ENDBRANCH  27  28
ENDBRANCH  26  27
ENDBRANCH  25  26
ENDBRANCH  24  25
ENDBRANCH  23  24
ENDBRANCH  22  23
ENDBRANCH  21  22
ENDBRANCH  20  21
ENDBRANCH  19  20
ENDBRANCH  18  19
ENDBRANCH  17  18
ENDBRANCH   1  17
TORSDOF 26
ENDMDL
