MODEL 1
REMARK VINA RESULT:    -1.975      0.000      0.000
REMARK INTER + INTRA:          -1.879
REMARK INTER:                  -2.379
REMARK INTRA:                   0.500
REMARK UNBOUND:                 0.500
REMARK SMILES O=c1c(O)c(-c2ccc(O)cc2O)oc2cc(O)cc(O)c12
REMARK SMILES IDX 5 1 3 2 2 3 1 4 22 5 20 6 19 7 17 8 16 9 15 10 14 11 6 12
REMARK SMILES IDX 8 13 7 14 9 15 11 16 12 17 10 18 13 20 4 22 21 24 18 26
REMARK H PARENT 10 19 13 21 4 23 21 25 18 27
REMARK Flexibility Score: inf
ROOT
ATOM      1  C   UNL     1      15.142  12.755  15.375  1.00  0.00     0.184 A 
ATOM      2  C   UNL     1      14.822  11.848  16.398  1.00  0.00     0.208 A 
ATOM      3  C   UNL     1      15.804  11.513  17.344  1.00  0.00     0.238 A 
ATOM      4  O   UNL     1      15.494  10.744  18.291  1.00  0.00    -0.285 OA
ATOM      5  C   UNL     1      17.100  12.073  17.241  1.00  0.00     0.111 A 
ATOM      6  C   UNL     1      18.185  11.773  18.119  1.00  0.00     0.134 A 
ATOM      7  C   UNL     1      19.387  12.483  17.999  1.00  0.00     0.093 A 
ATOM      8  C   UNL     1      19.564  13.435  16.992  1.00  0.00     0.123 A 
ATOM      9  C   UNL     1      18.532  13.692  16.094  1.00  0.00     0.094 A 
ATOM     10  C   UNL     1      17.309  13.026  16.210  1.00  0.00     0.146 A 
ATOM     11  O   UNL     1      16.347  13.310  15.339  1.00  0.00    -0.451 OA
ENDROOT
BRANCH   1  12
ATOM     12  C   UNL     1      14.160  13.133  14.331  1.00  0.00     0.063 A 
ATOM     13  C   UNL     1      11.877  13.152  13.490  1.00  0.00     0.047 A 
ATOM     14  C   UNL     1      12.798  12.821  14.487  1.00  0.00     0.020 A 
ATOM     15  C   UNL     1      12.304  13.790  12.320  1.00  0.00     0.119 A 
ATOM     16  C   UNL     1      13.658  14.093  12.151  1.00  0.00     0.093 A 
ATOM     17  C   UNL     1      14.590  13.765  13.146  1.00  0.00     0.130 A 
BRANCH  15  18
ATOM     18  O   UNL     1      11.394  14.125  11.320  1.00  0.00    -0.508 OA
ATOM     19  H   UNL     1      10.473  14.485  11.541  1.00  0.00     0.293 HD
ENDBRANCH  15  18
BRANCH  17  20
ATOM     20  O   UNL     1      15.937  14.079  12.965  1.00  0.00    -0.507 OA
ATOM     21  H   UNL     1      16.284  15.023  13.080  1.00  0.00     0.293 HD
ENDBRANCH  17  20
ENDBRANCH   1  12
BRANCH   2  22
ATOM     22  O   UNL     1      13.531  11.318  16.489  1.00  0.00    -0.502 OA
ATOM     23  H   UNL     1      13.169  10.909  17.341  1.00  0.00     0.293 HD
ENDBRANCH   2  22
BRANCH   6  24
ATOM     24  O   UNL     1      18.144  10.777  19.099  1.00  0.00    -0.507 OA
ATOM     25  H   UNL     1      17.383  10.638  19.746  1.00  0.00     0.293 HD
ENDBRANCH   6  24
BRANCH   8  26
ATOM     26  O   UNL     1      20.768  14.124  16.871  1.00  0.00    -0.508 OA
ATOM     27  H   UNL     1      21.451  14.134  17.620  1.00  0.00     0.293 HD
ENDBRANCH   8  26
TORSDOF 6
ENDMDL
MODEL 2
REMARK VINA RESULT:    -1.410      1.675      3.733
REMARK INTER + INTRA:          -1.198
REMARK INTER:                  -1.580
REMARK INTRA:                   0.381
REMARK UNBOUND:                 0.500
REMARK SMILES O=c1c(O)c(-c2ccc(O)cc2O)oc2cc(O)cc(O)c12
REMARK SMILES IDX 5 1 3 2 2 3 1 4 22 5 20 6 19 7 17 8 16 9 15 10 14 11 6 12
REMARK SMILES IDX 8 13 7 14 9 15 11 16 12 17 10 18 13 20 4 22 21 24 18 26
REMARK H PARENT 10 19 13 21 4 23 21 25 18 27
REMARK Flexibility Score: inf
ROOT
ATOM      1  C   UNL     1      13.857  13.399  13.869  1.00  0.00     0.184 A 
ATOM      2  C   UNL     1      15.086  13.795  13.316  1.00  0.00     0.208 A 
ATOM      3  C   UNL     1      16.224  13.824  14.138  1.00  0.00     0.238 A 
ATOM      4  O   UNL     1      17.333  14.125  13.624  1.00  0.00    -0.285 OA
ATOM      5  C   UNL     1      16.114  13.477  15.506  1.00  0.00     0.111 A 
ATOM      6  C   UNL     1      17.193  13.509  16.440  1.00  0.00     0.134 A 
ATOM      7  C   UNL     1      16.997  13.022  17.738  1.00  0.00     0.093 A 
ATOM      8  C   UNL     1      15.744  12.566  18.156  1.00  0.00     0.123 A 
ATOM      9  C   UNL     1      14.671  12.585  17.269  1.00  0.00     0.094 A 
ATOM     10  C   UNL     1      14.843  13.031  15.956  1.00  0.00     0.146 A 
ATOM     11  O   UNL     1      13.796  13.022  15.140  1.00  0.00    -0.451 OA
ENDROOT
BRANCH   1  12
ATOM     12  C   UNL     1      12.612  13.371  13.065  1.00  0.00     0.063 A 
ATOM     13  C   UNL     1      11.327  14.120  11.139  1.00  0.00     0.047 A 
ATOM     14  C   UNL     1      12.509  14.125  11.882  1.00  0.00     0.020 A 
ATOM     15  C   UNL     1      10.227  13.370  11.570  1.00  0.00     0.119 A 
ATOM     16  C   UNL     1      10.315  12.627  12.751  1.00  0.00     0.093 A 
ATOM     17  C   UNL     1      11.499  12.625  13.504  1.00  0.00     0.130 A 
BRANCH  15  18
ATOM     18  O   UNL     1       9.043  13.358  10.837  1.00  0.00    -0.508 OA
ATOM     19  H   UNL     1       8.138  13.409  11.291  1.00  0.00     0.293 HD
ENDBRANCH  15  18
BRANCH  17  20
ATOM     20  O   UNL     1      11.573  11.874  14.677  1.00  0.00    -0.507 OA
ATOM     21  H   UNL     1      12.120  11.023  14.730  1.00  0.00     0.293 HD
ENDBRANCH  17  20
ENDBRANCH   1  12
BRANCH   2  22
ATOM     22  O   UNL     1      15.173  14.120  11.959  1.00  0.00    -0.502 OA
ATOM     23  H   UNL     1      15.586  14.985  11.632  1.00  0.00     0.293 HD
ENDBRANCH   2  22
BRANCH   6  24
ATOM     24  O   UNL     1      18.458  14.031  16.153  1.00  0.00    -0.507 OA
ATOM     25  H   UNL     1      18.822  14.180  15.224  1.00  0.00     0.293 HD
ENDBRANCH   6  24
BRANCH   8  26
ATOM     26  O   UNL     1      15.555  12.098  19.454  1.00  0.00    -0.508 OA
ATOM     27  H   UNL     1      15.824  12.650  20.261  1.00  0.00     0.293 HD
ENDBRANCH   8  26
TORSDOF 6
ENDMDL
MODEL 3
REMARK VINA RESULT:    -1.058      1.696      2.280
REMARK INTER + INTRA:          -0.773
REMARK INTER:                  -0.738
REMARK INTRA:                  -0.036
REMARK UNBOUND:                 0.500
REMARK SMILES O=c1c(O)c(-c2ccc(O)cc2O)oc2cc(O)cc(O)c12
REMARK SMILES IDX 5 1 3 2 2 3 1 4 22 5 20 6 19 7 17 8 16 9 15 10 14 11 6 12
REMARK SMILES IDX 8 13 7 14 9 15 11 16 12 17 10 18 13 20 4 22 21 24 18 26
REMARK H PARENT 10 19 13 21 4 23 21 25 18 27
REMARK Flexibility Score: inf
ROOT
ATOM      1  C   UNL     1      14.805  13.491  15.716  1.00  0.00     0.184 A 
ATOM      2  C   UNL     1      14.615  13.663  17.097  1.00  0.00     0.208 A 
ATOM      3  C   UNL     1      15.736  13.858  17.919  1.00  0.00     0.238 A 
ATOM      4  O   UNL     1      15.555  14.068  19.147  1.00  0.00    -0.285 OA
ATOM      5  C   UNL     1      17.033  13.855  17.354  1.00  0.00     0.111 A 
ATOM      6  C   UNL     1      18.242  14.002  18.098  1.00  0.00     0.134 A 
ATOM      7  C   UNL     1      19.462  14.113  17.418  1.00  0.00     0.093 A 
ATOM      8  C   UNL     1      19.523  14.016  16.026  1.00  0.00     0.123 A 
ATOM      9  C   UNL     1      18.355  13.814  15.295  1.00  0.00     0.094 A 
ATOM     10  C   UNL     1      17.119  13.736  15.942  1.00  0.00     0.146 A 
ATOM     11  O   UNL     1      16.028  13.554  15.206  1.00  0.00    -0.451 OA
ENDROOT
BRANCH   1  12
ATOM     12  C   UNL     1      13.668  13.257  14.794  1.00  0.00     0.063 A 
ATOM     13  C   UNL     1      12.348  13.921  12.860  1.00  0.00     0.047 A 
ATOM     14  C   UNL     1      13.436  14.125  13.713  1.00  0.00     0.020 A 
ATOM     15  C   UNL     1      11.471  12.854  13.081  1.00  0.00     0.119 A 
ATOM     16  C   UNL     1      11.685  11.993  14.162  1.00  0.00     0.093 A 
ATOM     17  C   UNL     1      12.776  12.189  15.022  1.00  0.00     0.130 A 
BRANCH  15  18
ATOM     18  O   UNL     1      10.383  12.640  12.238  1.00  0.00    -0.508 OA
ATOM     19  H   UNL     1       9.722  11.891  12.405  1.00  0.00     0.293 HD
ENDBRANCH  15  18
BRANCH  17  20
ATOM     20  O   UNL     1      12.980  11.318  16.092  1.00  0.00    -0.507 OA
ATOM     21  H   UNL     1      13.789  10.711  16.137  1.00  0.00     0.293 HD
ENDBRANCH  17  20
ENDBRANCH   1  12
BRANCH   2  22
ATOM     22  O   UNL     1      13.323  13.676  17.631  1.00  0.00    -0.502 OA
ATOM     23  H   UNL     1      12.818  14.534  17.814  1.00  0.00     0.293 HD
ENDBRANCH   2  22
BRANCH   6  24
ATOM     24  O   UNL     1      18.303  14.017  19.495  1.00  0.00    -0.507 OA
ATOM     25  H   UNL     1      18.000  13.263  20.091  1.00  0.00     0.293 HD
ENDBRANCH   6  24
BRANCH   8  26
ATOM     26  O   UNL     1      20.742  14.112  15.360  1.00  0.00    -0.508 OA
ATOM     27  H   UNL     1      20.815  13.952  14.361  1.00  0.00     0.293 HD
ENDBRANCH   8  26
TORSDOF 6
ENDMDL
MODEL 4
REMARK VINA RESULT:    -0.286      2.356      8.284
REMARK INTER + INTRA:           0.156
REMARK INTER:                   0.233
REMARK INTRA:                  -0.077
REMARK UNBOUND:                 0.500
REMARK SMILES O=c1c(O)c(-c2ccc(O)cc2O)oc2cc(O)cc(O)c12
REMARK SMILES IDX 5 1 3 2 2 3 1 4 22 5 20 6 19 7 17 8 16 9 15 10 14 11 6 12
REMARK SMILES IDX 8 13 7 14 9 15 11 16 12 17 10 18 13 20 4 22 21 24 18 26
REMARK H PARENT 10 19 13 21 4 23 21 25 18 27
REMARK Flexibility Score: inf
ROOT
ATOM      1  C   UNL     1      12.552  13.523  13.646  1.00  0.00     0.184 A 
ATOM      2  C   UNL     1      12.972  13.709  12.319  1.00  0.00     0.208 A 
ATOM      3  C   UNL     1      12.005  13.902  11.320  1.00  0.00     0.238 A 
ATOM      4  O   UNL     1      12.390  14.125  10.142  1.00  0.00    -0.285 OA
ATOM      5  C   UNL     1      10.631  13.885  11.657  1.00  0.00     0.111 A 
ATOM      6  C   UNL     1       9.564  14.030  10.720  1.00  0.00     0.134 A 
ATOM      7  C   UNL     1       8.246  14.125  11.183  1.00  0.00     0.093 A 
ATOM      8  C   UNL     1       7.951  14.015  12.544  1.00  0.00     0.123 A 
ATOM      9  C   UNL     1       8.979  13.815  13.461  1.00  0.00     0.094 A 
ATOM     10  C   UNL     1      10.308  13.752  13.033  1.00  0.00     0.146 A 
ATOM     11  O   UNL     1      11.260  13.572  13.942  1.00  0.00    -0.451 OA
ENDROOT
BRANCH   1  12
ATOM     12  C   UNL     1      13.519  13.289  14.746  1.00  0.00     0.063 A 
ATOM     13  C   UNL     1      15.636  13.789  15.835  1.00  0.00     0.047 A 
ATOM     14  C   UNL     1      14.712  14.029  14.815  1.00  0.00     0.020 A 
ATOM     15  C   UNL     1      15.386  12.802  16.795  1.00  0.00     0.119 A 
ATOM     16  C   UNL     1      14.208  12.053  16.727  1.00  0.00     0.093 A 
ATOM     17  C   UNL     1      13.274  12.287  15.707  1.00  0.00     0.130 A 
BRANCH  15  18
ATOM     18  O   UNL     1      16.300  12.555  17.816  1.00  0.00    -0.508 OA
ATOM     19  H   UNL     1      17.201  12.131  17.630  1.00  0.00     0.293 HD
ENDBRANCH  15  18
BRANCH  17  20
ATOM     20  O   UNL     1      12.100  11.535  15.655  1.00  0.00    -0.507 OA
ATOM     21  H   UNL     1      11.346  11.769  15.022  1.00  0.00     0.293 HD
ENDBRANCH  17  20
ENDBRANCH   1  12
BRANCH   2  22
ATOM     22  O   UNL     1      14.336  13.736  12.012  1.00  0.00    -0.502 OA
ATOM     23  H   UNL     1      15.020  14.179  12.612  1.00  0.00     0.293 HD
ENDBRANCH   2  22
BRANCH   6  24
ATOM     24  O   UNL     1       9.741  14.056   9.333  1.00  0.00    -0.507 OA
ATOM     25  H   UNL     1       9.288  13.432   8.684  1.00  0.00     0.293 HD
ENDBRANCH   6  24
BRANCH   8  26
ATOM     26  O   UNL     1       6.635  14.095  12.995  1.00  0.00    -0.508 OA
ATOM     27  H   UNL     1       5.858  13.798  12.416  1.00  0.00     0.293 HD
ENDBRANCH   8  26
TORSDOF 6
ENDMDL
