MODEL 1
REMARK VINA RESULT:    -4.652      0.000      0.000
REMARK INTER + INTRA:          -4.652
REMARK INTER:                  -4.652
REMARK INTRA:                   0.000
REMARK UNBOUND:                 0.000
REMARK SMILES CC1(C)O[C@]2(C)CC[C@H]1CC2
REMARK SMILES IDX 1 1 2 2 9 3 10 4 11 5 5 6 4 7 7 8 8 9 6 10 3 11
REMARK H PARENT
REMARK Flexibility Score: inf
ROOT
ATOM      1  C   UNL     1       0.981  -1.741  23.985  1.00  0.00     0.042 C 
ATOM      2  C   UNL     1       1.941  -2.400  22.970  1.00  0.00     0.066 C 
ATOM      3  C   UNL     1       1.835  -3.972  23.042  1.00  0.00     0.021 C 
ATOM      4  C   UNL     1       0.402  -4.385  22.633  1.00  0.00     0.009 C 
ATOM      5  C   UNL     1       0.047  -3.721  21.280  1.00  0.00     0.035 C 
ATOM      6  C   UNL     1       1.278  -2.938  20.740  1.00  0.00     0.066 C 
ATOM      7  O   UNL     1       1.617  -1.903  21.664  1.00  0.00    -0.369 OA
ATOM      8  C   UNL     1       2.480  -3.915  20.604  1.00  0.00     0.035 C 
ATOM      9  C   UNL     1       2.777  -4.575  21.972  1.00  0.00     0.009 C 
ATOM     10  C   UNL     1       0.951  -2.303  19.384  1.00  0.00     0.042 C 
ATOM     11  C   UNL     1       3.371  -1.932  23.321  1.00  0.00     0.042 C 
ENDROOT
TORSDOF 0
ENDMDL
MODEL 2
REMARK VINA RESULT:    -4.605      1.277      3.127
REMARK INTER + INTRA:          -4.605
REMARK INTER:                  -4.605
REMARK INTRA:                   0.000
REMARK UNBOUND:                 0.000
REMARK SMILES CC1(C)O[C@]2(C)CC[C@H]1CC2
REMARK SMILES IDX 1 1 2 2 9 3 10 4 11 5 5 6 4 7 7 8 8 9 6 10 3 11
REMARK H PARENT
REMARK Flexibility Score: inf
ROOT
ATOM      1  C   UNL     1       3.311  -4.477  20.525  1.00  0.00     0.042 C 
ATOM      2  C   UNL     1       2.895  -3.517  21.661  1.00  0.00     0.066 C 
ATOM      3  C   UNL     1       2.088  -2.290  21.086  1.00  0.00     0.021 C 
ATOM      4  C   UNL     1       0.781  -2.819  20.448  1.00  0.00     0.009 C 
ATOM      5  C   UNL     1       0.047  -3.724  21.468  1.00  0.00     0.035 C 
ATOM      6  C   UNL     1       0.817  -3.725  22.819  1.00  0.00     0.066 C 
ATOM      7  O   UNL     1       2.124  -4.263  22.614  1.00  0.00    -0.369 OA
ATOM      8  C   UNL     1       0.941  -2.262  23.333  1.00  0.00     0.035 C 
ATOM      9  C   UNL     1       1.653  -1.392  22.269  1.00  0.00     0.009 C 
ATOM     10  C   UNL     1       0.083  -4.591  23.849  1.00  0.00     0.042 C 
ATOM     11  C   UNL     1       4.189  -3.041  22.357  1.00  0.00     0.042 C 
ENDROOT
TORSDOF 0
ENDMDL
MODEL 3
REMARK VINA RESULT:    -4.588      1.424      2.665
REMARK INTER + INTRA:          -4.588
REMARK INTER:                  -4.588
REMARK INTRA:                   0.000
REMARK UNBOUND:                 0.000
REMARK SMILES CC1(C)O[C@]2(C)CC[C@H]1CC2
REMARK SMILES IDX 1 1 2 2 9 3 10 4 11 5 5 6 4 7 7 8 8 9 6 10 3 11
REMARK H PARENT
REMARK Flexibility Score: inf
ROOT
ATOM      1  C   UNL     1      -0.125  -4.121  21.625  1.00  0.00     0.042 C 
ATOM      2  C   UNL     1       1.311  -3.591  21.835  1.00  0.00     0.066 C 
ATOM      3  C   UNL     1       2.185  -3.822  20.542  1.00  0.00     0.021 C 
ATOM      4  C   UNL     1       1.572  -2.999  19.384  1.00  0.00     0.009 C 
ATOM      5  C   UNL     1       1.379  -1.535  19.846  1.00  0.00     0.035 C 
ATOM      6  C   UNL     1       1.948  -1.356  21.282  1.00  0.00     0.066 C 
ATOM      7  O   UNL     1       1.227  -2.201  22.181  1.00  0.00    -0.369 OA
ATOM      8  C   UNL     1       3.448  -1.769  21.287  1.00  0.00     0.035 C 
ATOM      9  C   UNL     1       3.592  -3.228  20.791  1.00  0.00     0.009 C 
ATOM     10  C   UNL     1       1.794   0.098  21.740  1.00  0.00     0.042 C 
ATOM     11  C   UNL     1       1.908  -4.351  23.040  1.00  0.00     0.042 C 
ENDROOT
TORSDOF 0
ENDMDL
MODEL 4
REMARK VINA RESULT:    -4.581      1.594      3.296
REMARK INTER + INTRA:          -4.581
REMARK INTER:                  -4.581
REMARK INTRA:                   0.000
REMARK UNBOUND:                 0.000
REMARK SMILES CC1(C)O[C@]2(C)CC[C@H]1CC2
REMARK SMILES IDX 1 1 2 2 9 3 10 4 11 5 5 6 4 7 7 8 8 9 6 10 3 11
REMARK H PARENT
REMARK Flexibility Score: inf
ROOT
ATOM      1  C   UNL     1      -0.121  -3.747  21.265  1.00  0.00     0.042 C 
ATOM      2  C   UNL     1       1.093  -3.254  22.082  1.00  0.00     0.066 C 
ATOM      3  C   UNL     1       0.633  -2.708  23.488  1.00  0.00     0.021 C 
ATOM      4  C   UNL     1       0.003  -3.875  24.285  1.00  0.00     0.009 C 
ATOM      5  C   UNL     1       0.980  -5.076  24.287  1.00  0.00     0.035 C 
ATOM      6  C   UNL     1       2.302  -4.679  23.570  1.00  0.00     0.066 C 
ATOM      7  O   UNL     1       2.017  -4.345  22.210  1.00  0.00    -0.369 OA
ATOM      8  C   UNL     1       2.913  -3.439  24.283  1.00  0.00     0.035 C 
ATOM      9  C   UNL     1       1.890  -2.278  24.282  1.00  0.00     0.009 C 
ATOM     10  C   UNL     1       3.293  -5.849  23.593  1.00  0.00     0.042 C 
ATOM     11  C   UNL     1       1.778  -2.139  21.261  1.00  0.00     0.042 C 
ENDROOT
TORSDOF 0
ENDMDL
MODEL 5
REMARK VINA RESULT:    -4.543      1.240      2.429
REMARK INTER + INTRA:          -4.543
REMARK INTER:                  -4.543
REMARK INTRA:                   0.000
REMARK UNBOUND:                 0.000
REMARK SMILES CC1(C)O[C@]2(C)CC[C@H]1CC2
REMARK SMILES IDX 1 1 2 2 9 3 10 4 11 5 5 6 4 7 7 8 8 9 6 10 3 11
REMARK H PARENT
REMARK Flexibility Score: inf
ROOT
ATOM      1  C   UNL     1       4.065  -3.438  23.385  1.00  0.00     0.042 C 
ATOM      2  C   UNL     1       2.747  -4.120  22.957  1.00  0.00     0.066 C 
ATOM      3  C   UNL     1       1.524  -3.514  23.748  1.00  0.00     0.021 C 
ATOM      4  C   UNL     1       1.393  -2.018  23.376  1.00  0.00     0.009 C 
ATOM      5  C   UNL     1       1.368  -1.877  21.835  1.00  0.00     0.035 C 
ATOM      6  C   UNL     1       1.390  -3.286  21.177  1.00  0.00     0.066 C 
ATOM      7  O   UNL     1       2.599  -3.954  21.539  1.00  0.00    -0.369 OA
ATOM      8  C   UNL     1       0.177  -4.107  21.699  1.00  0.00     0.035 C 
ATOM      9  C   UNL     1       0.229  -4.195  23.243  1.00  0.00     0.009 C 
ATOM     10  C   UNL     1       1.332  -3.162  19.650  1.00  0.00     0.042 C 
ATOM     11  C   UNL     1       2.894  -5.629  23.251  1.00  0.00     0.042 C 
ENDROOT
TORSDOF 0
ENDMDL
MODEL 6
REMARK VINA RESULT:    -4.531      1.177      2.740
REMARK INTER + INTRA:          -4.531
REMARK INTER:                  -4.531
REMARK INTRA:                   0.000
REMARK UNBOUND:                 0.000
REMARK SMILES CC1(C)O[C@]2(C)CC[C@H]1CC2
REMARK SMILES IDX 1 1 2 2 9 3 10 4 11 5 5 6 4 7 7 8 8 9 6 10 3 11
REMARK H PARENT
REMARK Flexibility Score: inf
ROOT
ATOM      1  C   UNL     1       3.581  -1.393  22.687  1.00  0.00     0.042 C 
ATOM      2  C   UNL     1       2.299  -1.814  21.936  1.00  0.00     0.066 C 
ATOM      3  C   UNL     1       2.618  -2.941  20.878  1.00  0.00     0.021 C 
ATOM      4  C   UNL     1       3.124  -4.193  21.635  1.00  0.00     0.009 C 
ATOM      5  C   UNL     1       2.118  -4.550  22.756  1.00  0.00     0.035 C 
ATOM      6  C   UNL     1       0.894  -3.593  22.691  1.00  0.00     0.066 C 
ATOM      7  O   UNL     1       1.337  -2.251  22.906  1.00  0.00    -0.369 OA
ATOM      8  C   UNL     1       0.245  -3.696  21.282  1.00  0.00     0.035 C 
ATOM      9  C   UNL     1       1.294  -3.359  20.195  1.00  0.00     0.009 C 
ATOM     10  C   UNL     1      -0.125  -3.957  23.776  1.00  0.00     0.042 C 
ATOM     11  C   UNL     1       1.740  -0.554  21.239  1.00  0.00     0.042 C 
ENDROOT
TORSDOF 0
ENDMDL
MODEL 7
REMARK VINA RESULT:    -4.523     14.367     16.037
REMARK INTER + INTRA:          -4.523
REMARK INTER:                  -4.523
REMARK INTRA:                   0.000
REMARK UNBOUND:                 0.000
REMARK SMILES CC1(C)O[C@]2(C)CC[C@H]1CC2
REMARK SMILES IDX 1 1 2 2 9 3 10 4 11 5 5 6 4 7 7 8 8 9 6 10 3 11
REMARK H PARENT
REMARK Flexibility Score: inf
ROOT
ATOM      1  C   UNL     1      17.518  -4.203  25.057  1.00  0.00     0.042 C 
ATOM      2  C   UNL     1      16.346  -5.060  25.586  1.00  0.00     0.066 C 
ATOM      3  C   UNL     1      16.212  -6.394  24.755  1.00  0.00     0.021 C 
ATOM      4  C   UNL     1      17.500  -7.227  24.956  1.00  0.00     0.009 C 
ATOM      5  C   UNL     1      17.782  -7.372  26.471  1.00  0.00     0.035 C 
ATOM      6  C   UNL     1      16.632  -6.714  27.286  1.00  0.00     0.066 C 
ATOM      7  O   UNL     1      16.578  -5.320  26.978  1.00  0.00    -0.369 OA
ATOM      8  C   UNL     1      15.283  -7.377  26.885  1.00  0.00     0.035 C 
ATOM      9  C   UNL     1      15.061  -7.233  25.360  1.00  0.00     0.009 C 
ATOM     10  C   UNL     1      16.881  -6.879  28.788  1.00  0.00     0.042 C 
ATOM     11  C   UNL     1      15.063  -4.208  25.463  1.00  0.00     0.042 C 
ENDROOT
TORSDOF 0
ENDMDL
MODEL 8
REMARK VINA RESULT:    -4.486      1.401      3.047
REMARK INTER + INTRA:          -4.486
REMARK INTER:                  -4.486
REMARK INTRA:                   0.000
REMARK UNBOUND:                 0.000
REMARK SMILES CC1(C)O[C@]2(C)CC[C@H]1CC2
REMARK SMILES IDX 1 1 2 2 9 3 10 4 11 5 5 6 4 7 7 8 8 9 6 10 3 11
REMARK H PARENT
REMARK Flexibility Score: inf
ROOT
ATOM      1  C   UNL     1       0.632  -2.635  23.583  1.00  0.00     0.042 C 
ATOM      2  C   UNL     1       0.979  -3.358  22.263  1.00  0.00     0.066 C 
ATOM      3  C   UNL     1       1.054  -2.330  21.069  1.00  0.00     0.021 C 
ATOM      4  C   UNL     1       2.207  -1.337  21.350  1.00  0.00     0.009 C 
ATOM      5  C   UNL     1       3.496  -2.131  21.672  1.00  0.00     0.035 C 
ATOM      6  C   UNL     1       3.229  -3.655  21.516  1.00  0.00     0.066 C 
ATOM      7  O   UNL     1       2.221  -4.052  22.448  1.00  0.00    -0.369 OA
ATOM      8  C   UNL     1       2.726  -3.936  20.071  1.00  0.00     0.035 C 
ATOM      9  C   UNL     1       1.455  -3.099  19.787  1.00  0.00     0.009 C 
ATOM     10  C   UNL     1       4.506  -4.452  21.800  1.00  0.00     0.042 C 
ATOM     11  C   UNL     1      -0.125  -4.408  22.010  1.00  0.00     0.042 C 
ENDROOT
TORSDOF 0
ENDMDL
MODEL 9
REMARK VINA RESULT:    -4.408     14.523     16.055
REMARK INTER + INTRA:          -4.408
REMARK INTER:                  -4.408
REMARK INTRA:                   0.000
REMARK UNBOUND:                 0.000
REMARK SMILES CC1(C)O[C@]2(C)CC[C@H]1CC2
REMARK SMILES IDX 1 1 2 2 9 3 10 4 11 5 5 6 4 7 7 8 8 9 6 10 3 11
REMARK H PARENT
REMARK Flexibility Score: inf
ROOT
ATOM      1  C   UNL     1      17.784  -7.530  26.148  1.00  0.00     0.042 C 
ATOM      2  C   UNL     1      16.468  -6.736  26.301  1.00  0.00     0.066 C 
ATOM      3  C   UNL     1      15.514  -7.434  27.344  1.00  0.00     0.021 C 
ATOM      4  C   UNL     1      16.206  -7.419  28.728  1.00  0.00     0.009 C 
ATOM      5  C   UNL     1      16.663  -5.976  29.053  1.00  0.00     0.035 C 
ATOM      6  C   UNL     1      16.194  -5.009  27.929  1.00  0.00     0.066 C 
ATOM      7  O   UNL     1      16.800  -5.396  26.694  1.00  0.00    -0.369 OA
ATOM      8  C   UNL     1      14.647  -5.106  27.790  1.00  0.00     0.035 C 
ATOM      9  C   UNL     1      14.239  -6.570  27.495  1.00  0.00     0.009 C 
ATOM     10  C   UNL     1      16.610  -3.571  28.254  1.00  0.00     0.042 C 
ATOM     11  C   UNL     1      15.804  -6.676  24.907  1.00  0.00     0.042 C 
ENDROOT
TORSDOF 0
ENDMDL
