MODEL 1
REMARK VINA RESULT:    -5.831      0.000      0.000
REMARK INTER + INTRA:         -20.852
REMARK INTER:                 -15.377
REMARK INTRA:                  -5.476
REMARK UNBOUND:                -5.476
REMARK SMILES CCCCCCCCCCCCCCCCCCCCCCCCCCCCCC(=O)[O-]
REMARK SMILES IDX 16 1 17 2 18 3 19 4 20 5 21 6 22 7 23 8 24 9 25 10 26 11
REMARK SMILES IDX 27 12 28 13 29 14 30 15 31 16 32 17 15 18 14 19 13 20 12 21
REMARK SMILES IDX 11 22 10 23 9 24 8 25 7 26 6 27 5 28 4 29 3 30 2 31 1 32
REMARK H PARENT
REMARK Flexibility Score: inf
ROOT
ATOM      1  C   UNL     1     -10.962  -5.060  11.667  1.00  0.00     0.000 C 
ENDROOT
BRANCH   1   2
ATOM      2  C   UNL     1      -9.878  -5.581  10.708  1.00  0.00     0.000 C 
BRANCH   2   3
ATOM      3  C   UNL     1      -8.728  -6.302  11.437  1.00  0.00     0.000 C 
BRANCH   3   4
ATOM      4  C   UNL     1      -8.161  -5.551  12.657  1.00  0.00     0.000 C 
BRANCH   4   5
ATOM      5  C   UNL     1      -6.740  -5.015  12.428  1.00  0.00     0.000 C 
BRANCH   5   6
ATOM      6  C   UNL     1      -6.696  -3.488  12.583  1.00  0.00     0.000 C 
BRANCH   6   7
ATOM      7  C   UNL     1      -8.065  -2.889  12.949  1.00  0.00     0.000 C 
BRANCH   7   8
ATOM      8  C   UNL     1      -8.041  -1.389  13.303  1.00  0.00     0.000 C 
BRANCH   8   9
ATOM      9  C   UNL     1      -9.446  -0.755  13.411  1.00  0.00     0.000 C 
BRANCH   9  10
ATOM     10  C   UNL     1     -10.520  -1.579  12.679  1.00  0.00     0.000 C 
BRANCH  10  11
ATOM     11  C   UNL     1     -11.318  -0.725  11.669  1.00  0.00     0.000 C 
BRANCH  11  12
ATOM     12  C   UNL     1     -12.825  -0.663  11.970  1.00  0.00     0.000 C 
BRANCH  12  13
ATOM     13  C   UNL     1     -13.408  -2.025  12.383  1.00  0.00     0.006 C 
BRANCH  13  14
ATOM     14  C   UNL     1     -13.940  -2.017  13.822  1.00  0.00     0.053 C 
BRANCH  14  15
ATOM     15  C   UNL     1     -14.765  -3.233  14.115  1.00  0.00     0.041 C 
ATOM     16  O   UNL     1     -15.202  -3.436  15.279  1.00  0.00    -0.550 OA
ATOM     17  O   UNL     1     -15.021  -4.158  13.111  1.00  0.00    -0.550 OA
ENDBRANCH  14  15
ENDBRANCH  13  14
ENDBRANCH  12  13
ENDBRANCH  11  12
ENDBRANCH  10  11
ENDBRANCH   9  10
ENDBRANCH   8   9
ENDBRANCH   7   8
ENDBRANCH   6   7
ENDBRANCH   5   6
ENDBRANCH   4   5
ENDBRANCH   3   4
ENDBRANCH   2   3
ENDBRANCH   1   2
BRANCH   1  18
ATOM     18  C   UNL     1     -12.211  -5.955  11.683  1.00  0.00     0.000 C 
BRANCH  18  19
ATOM     19  C   UNL     1     -12.539  -6.476  13.093  1.00  0.00     0.000 C 
BRANCH  19  20
ATOM     20  C   UNL     1     -11.318  -7.084  13.800  1.00  0.00     0.000 C 
BRANCH  20  21
ATOM     21  C   UNL     1     -11.409  -6.978  15.332  1.00  0.00     0.000 C 
BRANCH  21  22
ATOM     22  C   UNL     1     -10.401  -5.973  15.912  1.00  0.00     0.000 C 
BRANCH  22  23
ATOM     23  C   UNL     1     -10.399  -4.633  15.153  1.00  0.00     0.000 C 
BRANCH  23  24
ATOM     24  C   UNL     1     -11.573  -3.722  15.543  1.00  0.00    -0.000 C 
BRANCH  24  25
ATOM     25  C   UNL     1     -11.552  -3.340  17.033  1.00  0.00    -0.000 C 
BRANCH  25  26
ATOM     26  C   UNL     1     -10.379  -2.410  17.399  1.00  0.00    -0.000 C 
BRANCH  26  27
ATOM     27  C   UNL     1      -9.477  -2.915  18.543  1.00  0.00    -0.000 C 
BRANCH  27  28
ATOM     28  C   UNL     1      -8.002  -3.054  18.127  1.00  0.00    -0.000 C 
BRANCH  28  29
ATOM     29  C   UNL     1      -7.809  -2.987  16.603  1.00  0.00    -0.000 C 
BRANCH  29  30
ATOM     30  C   UNL     1      -6.367  -3.312  16.177  1.00  0.00    -0.000 C 
BRANCH  30  31
ATOM     31  C   UNL     1      -5.372  -2.210  16.573  1.00  0.00    -0.003 C 
ATOM     32  C   UNL     1      -5.296  -1.085  15.540  1.00  0.00     0.004 C 
ENDBRANCH  30  31
ENDBRANCH  29  30
ENDBRANCH  28  29
ENDBRANCH  27  28
ENDBRANCH  26  27
ENDBRANCH  25  26
ENDBRANCH  24  25
ENDBRANCH  23  24
ENDBRANCH  22  23
ENDBRANCH  21  22
ENDBRANCH  20  21
ENDBRANCH  19  20
ENDBRANCH  18  19
ENDBRANCH   1  18
TORSDOF 28
ENDMDL
MODEL 2
REMARK VINA RESULT:    -5.823      2.691      6.649
REMARK INTER + INTRA:         -20.829
REMARK INTER:                 -15.592
REMARK INTRA:                  -5.237
REMARK UNBOUND:                -5.476
REMARK SMILES CCCCCCCCCCCCCCCCCCCCCCCCCCCCCC(=O)[O-]
REMARK SMILES IDX 16 1 17 2 18 3 19 4 20 5 21 6 22 7 23 8 24 9 25 10 26 11
REMARK SMILES IDX 27 12 28 13 29 14 30 15 31 16 32 17 15 18 14 19 13 20 12 21
REMARK SMILES IDX 11 22 10 23 9 24 8 25 7 26 6 27 5 28 4 29 3 30 2 31 1 32
REMARK H PARENT
REMARK Flexibility Score: inf
ROOT
ATOM      1  C   UNL     1      -9.878  -5.618  10.628  1.00  0.00     0.000 C 
ENDROOT
BRANCH   1   2
ATOM      2  C   UNL     1     -11.013  -5.189  11.574  1.00  0.00     0.000 C 
BRANCH   2   3
ATOM      3  C   UNL     1     -12.007  -6.326  11.874  1.00  0.00     0.000 C 
BRANCH   3   4
ATOM      4  C   UNL     1     -12.232  -6.615  13.370  1.00  0.00     0.000 C 
BRANCH   4   5
ATOM      5  C   UNL     1     -11.165  -7.540  13.974  1.00  0.00     0.000 C 
BRANCH   5   6
ATOM      6  C   UNL     1     -11.004  -7.285  15.480  1.00  0.00     0.000 C 
BRANCH   6   7
ATOM      7  C   UNL     1     -10.062  -6.108  15.785  1.00  0.00     0.000 C 
BRANCH   7   8
ATOM      8  C   UNL     1     -10.637  -4.716  15.461  1.00  0.00     0.000 C 
BRANCH   8   9
ATOM      9  C   UNL     1     -11.859  -4.333  16.325  1.00  0.00     0.000 C 
BRANCH   9  10
ATOM     10  C   UNL     1     -11.667  -2.987  17.047  1.00  0.00     0.000 C 
BRANCH  10  11
ATOM     11  C   UNL     1     -10.180  -2.583  17.136  1.00  0.00     0.000 C 
BRANCH  11  12
ATOM     12  C   UNL     1      -9.518  -2.963  18.472  1.00  0.00     0.000 C 
BRANCH  12  13
ATOM     13  C   UNL     1      -7.982  -2.944  18.404  1.00  0.00     0.006 C 
BRANCH  13  14
ATOM     14  C   UNL     1      -7.465  -2.911  16.960  1.00  0.00     0.053 C 
BRANCH  14  15
ATOM     15  C   UNL     1      -5.968  -2.881  16.907  1.00  0.00     0.041 C 
ATOM     16  O   UNL     1      -5.363  -3.255  15.867  1.00  0.00    -0.550 OA
ATOM     17  O   UNL     1      -5.241  -2.474  18.019  1.00  0.00    -0.550 OA
ENDBRANCH  14  15
ENDBRANCH  13  14
ENDBRANCH  12  13
ENDBRANCH  11  12
ENDBRANCH  10  11
ENDBRANCH   9  10
ENDBRANCH   8   9
ENDBRANCH   7   8
ENDBRANCH   6   7
ENDBRANCH   5   6
ENDBRANCH   4   5
ENDBRANCH   3   4
ENDBRANCH   2   3
ENDBRANCH   1   2
BRANCH   1  18
ATOM     18  C   UNL     1      -8.700  -6.262  11.377  1.00  0.00     0.000 C 
BRANCH  18  19
ATOM     19  C   UNL     1      -8.335  -5.496  12.660  1.00  0.00     0.000 C 
BRANCH  19  20
ATOM     20  C   UNL     1      -6.923  -4.891  12.608  1.00  0.00     0.000 C 
BRANCH  20  21
ATOM     21  C   UNL     1      -6.930  -3.360  12.762  1.00  0.00     0.000 C 
BRANCH  21  22
ATOM     22  C   UNL     1      -8.285  -2.825  13.251  1.00  0.00     0.000 C 
BRANCH  22  23
ATOM     23  C   UNL     1      -8.329  -1.288  13.307  1.00  0.00     0.000 C 
BRANCH  23  24
ATOM     24  C   UNL     1      -9.757  -0.726  13.241  1.00  0.00    -0.000 C 
BRANCH  24  25
ATOM     25  C   UNL     1     -10.705  -1.623  12.425  1.00  0.00    -0.000 C 
BRANCH  25  26
ATOM     26  C   UNL     1     -12.050  -0.944  12.105  1.00  0.00    -0.000 C 
BRANCH  26  27
ATOM     27  C   UNL     1     -13.244  -1.428  12.950  1.00  0.00    -0.000 C 
BRANCH  27  28
ATOM     28  C   UNL     1     -13.092  -2.883  13.427  1.00  0.00    -0.000 C 
BRANCH  28  29
ATOM     29  C   UNL     1     -14.436  -3.526  13.802  1.00  0.00    -0.000 C 
BRANCH  29  30
ATOM     30  C   UNL     1     -15.196  -4.061  12.575  1.00  0.00    -0.000 C 
BRANCH  30  31
ATOM     31  C   UNL     1     -14.434  -3.824  11.261  1.00  0.00    -0.003 C 
ATOM     32  C   UNL     1     -15.332  -3.287  10.146  1.00  0.00     0.004 C 
ENDBRANCH  30  31
ENDBRANCH  29  30
ENDBRANCH  28  29
ENDBRANCH  27  28
ENDBRANCH  26  27
ENDBRANCH  25  26
ENDBRANCH  24  25
ENDBRANCH  23  24
ENDBRANCH  22  23
ENDBRANCH  21  22
ENDBRANCH  20  21
ENDBRANCH  19  20
ENDBRANCH  18  19
ENDBRANCH   1  18
TORSDOF 28
ENDMDL
MODEL 3
REMARK VINA RESULT:    -5.782      1.624      5.855
REMARK INTER + INTRA:         -20.723
REMARK INTER:                 -15.175
REMARK INTRA:                  -5.547
REMARK UNBOUND:                -5.476
REMARK SMILES CCCCCCCCCCCCCCCCCCCCCCCCCCCCCC(=O)[O-]
REMARK SMILES IDX 16 1 17 2 18 3 19 4 20 5 21 6 22 7 23 8 24 9 25 10 26 11
REMARK SMILES IDX 27 12 28 13 29 14 30 15 31 16 32 17 15 18 14 19 13 20 12 21
REMARK SMILES IDX 11 22 10 23 9 24 8 25 7 26 6 27 5 28 4 29 3 30 2 31 1 32
REMARK H PARENT
REMARK Flexibility Score: inf
ROOT
ATOM      1  C   UNL     1     -11.085  -2.756  17.120  1.00  0.00     0.000 C 
ENDROOT
BRANCH   1   2
ATOM      2  C   UNL     1     -10.921  -3.643  15.873  1.00  0.00     0.000 C 
BRANCH   2   3
ATOM      3  C   UNL     1     -11.771  -4.926  15.934  1.00  0.00     0.000 C 
BRANCH   3   4
ATOM      4  C   UNL     1     -10.986  -6.210  16.264  1.00  0.00     0.000 C 
BRANCH   4   5
ATOM      5  C   UNL     1     -10.206  -6.766  15.063  1.00  0.00     0.000 C 
BRANCH   5   6
ATOM      6  C   UNL     1     -11.090  -7.693  14.216  1.00  0.00     0.000 C 
BRANCH   6   7
ATOM      7  C   UNL     1     -11.754  -6.965  13.035  1.00  0.00     0.000 C 
BRANCH   7   8
ATOM      8  C   UNL     1     -10.969  -5.753  12.497  1.00  0.00     0.000 C 
BRANCH   8   9
ATOM      9  C   UNL     1      -9.776  -6.136  11.594  1.00  0.00     0.000 C 
BRANCH   9  10
ATOM     10  C   UNL     1      -9.905  -5.555  10.175  1.00  0.00     0.000 C 
BRANCH  10  11
ATOM     11  C   UNL     1     -11.308  -4.967   9.913  1.00  0.00     0.000 C 
BRANCH  11  12
ATOM     12  C   UNL     1     -12.235  -5.912   9.128  1.00  0.00     0.000 C 
BRANCH  12  13
ATOM     13  C   UNL     1     -13.721  -5.543   9.268  1.00  0.00     0.006 C 
BRANCH  13  14
ATOM     14  C   UNL     1     -13.952  -4.457  10.327  1.00  0.00     0.053 C 
BRANCH  14  15
ATOM     15  C   UNL     1     -15.163  -3.630  10.018  1.00  0.00     0.041 C 
ATOM     16  O   UNL     1     -15.125  -2.378  10.150  1.00  0.00    -0.550 OA
ATOM     17  O   UNL     1     -16.342  -4.245   9.618  1.00  0.00    -0.550 OA
ENDBRANCH  14  15
ENDBRANCH  13  14
ENDBRANCH  12  13
ENDBRANCH  11  12
ENDBRANCH  10  11
ENDBRANCH   9  10
ENDBRANCH   8   9
ENDBRANCH   7   8
ENDBRANCH   6   7
ENDBRANCH   5   6
ENDBRANCH   4   5
ENDBRANCH   3   4
ENDBRANCH   2   3
ENDBRANCH   1   2
BRANCH   1  18
ATOM     18  C   UNL     1      -9.789  -2.651  17.940  1.00  0.00     0.000 C 
BRANCH  18  19
ATOM     19  C   UNL     1      -8.694  -3.603  17.429  1.00  0.00     0.000 C 
BRANCH  19  20
ATOM     20  C   UNL     1      -7.353  -2.892  17.193  1.00  0.00     0.000 C 
BRANCH  20  21
ATOM     21  C   UNL     1      -6.740  -3.227  15.821  1.00  0.00     0.000 C 
BRANCH  21  22
ATOM     22  C   UNL     1      -7.348  -4.495  15.200  1.00  0.00     0.000 C 
BRANCH  22  23
ATOM     23  C   UNL     1      -7.045  -4.621  13.697  1.00  0.00     0.000 C 
BRANCH  23  24
ATOM     24  C   UNL     1      -7.406  -3.354  12.905  1.00  0.00    -0.000 C 
BRANCH  24  25
ATOM     25  C   UNL     1      -8.887  -2.962  13.065  1.00  0.00    -0.000 C 
BRANCH  25  26
ATOM     26  C   UNL     1      -9.086  -1.458  13.329  1.00  0.00    -0.000 C 
BRANCH  26  27
ATOM     27  C   UNL     1     -10.283  -0.819  12.600  1.00  0.00    -0.000 C 
BRANCH  27  28
ATOM     28  C   UNL     1     -11.384  -1.836  12.248  1.00  0.00    -0.000 C 
BRANCH  28  29
ATOM     29  C   UNL     1     -12.771  -1.186  12.126  1.00  0.00    -0.000 C 
BRANCH  29  30
ATOM     30  C   UNL     1     -13.648  -1.433  13.367  1.00  0.00    -0.000 C 
BRANCH  30  31
ATOM     31  C   UNL     1     -13.785  -2.925  13.705  1.00  0.00    -0.003 C 
ATOM     32  C   UNL     1     -14.848  -3.195  14.770  1.00  0.00     0.004 C 
ENDBRANCH  30  31
ENDBRANCH  29  30
ENDBRANCH  28  29
ENDBRANCH  27  28
ENDBRANCH  26  27
ENDBRANCH  25  26
ENDBRANCH  24  25
ENDBRANCH  23  24
ENDBRANCH  22  23
ENDBRANCH  21  22
ENDBRANCH  20  21
ENDBRANCH  19  20
ENDBRANCH  18  19
ENDBRANCH   1  18
TORSDOF 28
ENDMDL
MODEL 4
REMARK VINA RESULT:    -5.739      2.874      5.747
REMARK INTER + INTRA:         -20.609
REMARK INTER:                 -15.414
REMARK INTRA:                  -5.195
REMARK UNBOUND:                -5.476
REMARK SMILES CCCCCCCCCCCCCCCCCCCCCCCCCCCCCC(=O)[O-]
REMARK SMILES IDX 16 1 17 2 18 3 19 4 20 5 21 6 22 7 23 8 24 9 25 10 26 11
REMARK SMILES IDX 27 12 28 13 29 14 30 15 31 16 32 17 15 18 14 19 13 20 12 21
REMARK SMILES IDX 11 22 10 23 9 24 8 25 7 26 6 27 5 28 4 29 3 30 2 31 1 32
REMARK H PARENT
REMARK Flexibility Score: inf
ROOT
ATOM      1  C   UNL     1     -14.395  -3.709  10.589  1.00  0.00     0.000 C 
ENDROOT
BRANCH   1   2
ATOM      2  C   UNL     1     -15.346  -3.818  11.793  1.00  0.00     0.000 C 
BRANCH   2   3
ATOM      3  C   UNL     1     -14.627  -4.236  13.089  1.00  0.00     0.000 C 
BRANCH   3   4
ATOM      4  C   UNL     1     -14.722  -3.217  14.241  1.00  0.00     0.000 C 
BRANCH   4   5
ATOM      5  C   UNL     1     -13.950  -1.919  13.964  1.00  0.00     0.000 C 
BRANCH   5   6
ATOM      6  C   UNL     1     -12.493  -2.216  13.580  1.00  0.00     0.000 C 
BRANCH   6   7
ATOM      7  C   UNL     1     -12.061  -1.497  12.291  1.00  0.00     0.000 C 
BRANCH   7   8
ATOM      8  C   UNL     1     -10.546  -1.531  12.008  1.00  0.00     0.000 C 
BRANCH   8   9
ATOM      9  C   UNL     1      -9.734  -0.527  12.855  1.00  0.00     0.000 C 
BRANCH   9  10
ATOM     10  C   UNL     1      -8.549  -1.192  13.578  1.00  0.00     0.000 C 
BRANCH  10  11
ATOM     11  C   UNL     1      -8.370  -2.668  13.160  1.00  0.00     0.000 C 
BRANCH  11  12
ATOM     12  C   UNL     1      -6.996  -3.251  13.534  1.00  0.00     0.000 C 
BRANCH  12  13
ATOM     13  C   UNL     1      -7.013  -4.006  14.873  1.00  0.00     0.006 C 
BRANCH  13  14
ATOM     14  C   UNL     1      -6.966  -3.055  16.076  1.00  0.00     0.053 C 
BRANCH  14  15
ATOM     15  C   UNL     1      -5.609  -2.445  16.248  1.00  0.00     0.041 C 
ATOM     16  O   UNL     1      -4.707  -3.070  16.866  1.00  0.00    -0.550 OA
ATOM     17  O   UNL     1      -5.352  -1.171  15.757  1.00  0.00    -0.550 OA
ENDBRANCH  14  15
ENDBRANCH  13  14
ENDBRANCH  12  13
ENDBRANCH  11  12
ENDBRANCH  10  11
ENDBRANCH   9  10
ENDBRANCH   8   9
ENDBRANCH   7   8
ENDBRANCH   6   7
ENDBRANCH   5   6
ENDBRANCH   4   5
ENDBRANCH   3   4
ENDBRANCH   2   3
ENDBRANCH   1   2
BRANCH   1  18
ATOM     18  C   UNL     1     -13.149  -4.596  10.741  1.00  0.00     0.000 C 
BRANCH  18  19
ATOM     19  C   UNL     1     -13.026  -5.630   9.609  1.00  0.00     0.000 C 
BRANCH  19  20
ATOM     20  C   UNL     1     -11.580  -5.801   9.117  1.00  0.00     0.000 C 
BRANCH  20  21
ATOM     21  C   UNL     1     -10.565  -5.049   9.995  1.00  0.00     0.000 C 
BRANCH  21  22
ATOM     22  C   UNL     1      -9.509  -5.984  10.605  1.00  0.00     0.000 C 
BRANCH  22  23
ATOM     23  C   UNL     1      -9.335  -5.772  12.119  1.00  0.00     0.000 C 
BRANCH  23  24
ATOM     24  C   UNL     1     -10.648  -5.401  12.827  1.00  0.00    -0.000 C 
BRANCH  24  25
ATOM     25  C   UNL     1     -11.401  -6.636  13.354  1.00  0.00    -0.000 C 
BRANCH  25  26
ATOM     26  C   UNL     1     -11.003  -7.016  14.792  1.00  0.00    -0.000 C 
BRANCH  26  27
ATOM     27  C   UNL     1     -10.812  -5.826  15.753  1.00  0.00    -0.000 C 
BRANCH  27  28
ATOM     28  C   UNL     1     -12.141  -5.170  16.166  1.00  0.00    -0.000 C 
BRANCH  28  29
ATOM     29  C   UNL     1     -11.977  -3.689  16.543  1.00  0.00    -0.000 C 
BRANCH  29  30
ATOM     30  C   UNL     1     -10.503  -3.245  16.560  1.00  0.00    -0.000 C 
BRANCH  30  31
ATOM     31  C   UNL     1     -10.180  -2.320  17.745  1.00  0.00    -0.003 C 
ATOM     32  C   UNL     1      -9.122  -2.906  18.680  1.00  0.00     0.004 C 
ENDBRANCH  30  31
ENDBRANCH  29  30
ENDBRANCH  28  29
ENDBRANCH  27  28
ENDBRANCH  26  27
ENDBRANCH  25  26
ENDBRANCH  24  25
ENDBRANCH  23  24
ENDBRANCH  22  23
ENDBRANCH  21  22
ENDBRANCH  20  21
ENDBRANCH  19  20
ENDBRANCH  18  19
ENDBRANCH   1  18
TORSDOF 28
ENDMDL
MODEL 5
REMARK VINA RESULT:    -5.705      1.684      5.160
REMARK INTER + INTRA:         -20.520
REMARK INTER:                 -15.058
REMARK INTRA:                  -5.462
REMARK UNBOUND:                -5.476
REMARK SMILES CCCCCCCCCCCCCCCCCCCCCCCCCCCCCC(=O)[O-]
REMARK SMILES IDX 16 1 17 2 18 3 19 4 20 5 21 6 22 7 23 8 24 9 25 10 26 11
REMARK SMILES IDX 27 12 28 13 29 14 30 15 31 16 32 17 15 18 14 19 13 20 12 21
REMARK SMILES IDX 11 22 10 23 9 24 8 25 7 26 6 27 5 28 4 29 3 30 2 31 1 32
REMARK H PARENT
REMARK Flexibility Score: inf
ROOT
ATOM      1  C   UNL     1      -7.847  -3.014  16.811  1.00  0.00     0.000 C 
ENDROOT
BRANCH   1   2
ATOM      2  C   UNL     1      -7.848  -4.234  15.873  1.00  0.00     0.000 C 
BRANCH   2   3
ATOM      3  C   UNL     1      -6.641  -4.255  14.917  1.00  0.00     0.000 C 
BRANCH   3   4
ATOM      4  C   UNL     1      -6.978  -4.598  13.453  1.00  0.00     0.000 C 
BRANCH   4   5
ATOM      5  C   UNL     1      -7.244  -3.357  12.588  1.00  0.00     0.000 C 
BRANCH   5   6
ATOM      6  C   UNL     1      -6.955  -2.068  13.372  1.00  0.00     0.000 C 
BRANCH   6   7
ATOM      7  C   UNL     1      -8.115  -1.061  13.307  1.00  0.00     0.000 C 
BRANCH   7   8
ATOM      8  C   UNL     1      -9.502  -1.649  13.634  1.00  0.00     0.000 C 
BRANCH   8   9
ATOM      9  C   UNL     1     -10.644  -1.058  12.779  1.00  0.00     0.000 C 
BRANCH   9  10
ATOM     10  C   UNL     1     -11.513  -2.148  12.127  1.00  0.00     0.000 C 
BRANCH  10  11
ATOM     11  C   UNL     1     -13.015  -1.789  12.160  1.00  0.00     0.000 C 
BRANCH  11  12
ATOM     12  C   UNL     1     -13.912  -2.942  12.642  1.00  0.00     0.000 C 
BRANCH  12  13
ATOM     13  C   UNL     1     -14.250  -3.944  11.525  1.00  0.00     0.006 C 
BRANCH  13  14
ATOM     14  C   UNL     1     -14.932  -3.270  10.328  1.00  0.00     0.053 C 
BRANCH  14  15
ATOM     15  C   UNL     1     -16.199  -3.973   9.943  1.00  0.00     0.041 C 
ATOM     16  O   UNL     1     -16.338  -4.435   8.780  1.00  0.00    -0.550 OA
ATOM     17  O   UNL     1     -17.237  -4.087  10.860  1.00  0.00    -0.550 OA
ENDBRANCH  14  15
ENDBRANCH  13  14
ENDBRANCH  12  13
ENDBRANCH  11  12
ENDBRANCH  10  11
ENDBRANCH   9  10
ENDBRANCH   8   9
ENDBRANCH   7   8
ENDBRANCH   6   7
ENDBRANCH   5   6
ENDBRANCH   4   5
ENDBRANCH   3   4
ENDBRANCH   2   3
ENDBRANCH   1   2
BRANCH   1  18
ATOM     18  C   UNL     1      -8.318  -3.365  18.232  1.00  0.00     0.000 C 
BRANCH  18  19
ATOM     19  C   UNL     1      -9.616  -2.634  18.615  1.00  0.00     0.000 C 
BRANCH  19  20
ATOM     20  C   UNL     1     -10.461  -2.244  17.392  1.00  0.00     0.000 C 
BRANCH  20  21
ATOM     21  C   UNL     1     -11.744  -3.084  17.269  1.00  0.00     0.000 C 
BRANCH  21  22
ATOM     22  C   UNL     1     -12.207  -3.240  15.812  1.00  0.00     0.000 C 
BRANCH  22  23
ATOM     23  C   UNL     1     -11.470  -4.374  15.076  1.00  0.00     0.000 C 
BRANCH  23  24
ATOM     24  C   UNL     1     -11.075  -5.533  16.004  1.00  0.00    -0.000 C 
BRANCH  24  25
ATOM     25  C   UNL     1     -11.514  -6.902  15.455  1.00  0.00    -0.000 C 
BRANCH  25  26
ATOM     26  C   UNL     1     -12.024  -6.833  14.003  1.00  0.00    -0.000 C 
BRANCH  26  27
ATOM     27  C   UNL     1     -11.131  -7.537  12.963  1.00  0.00    -0.000 C 
BRANCH  27  28
ATOM     28  C   UNL     1      -9.863  -6.736  12.620  1.00  0.00    -0.000 C 
BRANCH  28  29
ATOM     29  C   UNL     1     -10.170  -5.440  11.855  1.00  0.00    -0.000 C 
BRANCH  29  30
ATOM     30  C   UNL     1     -10.059  -5.615  10.330  1.00  0.00    -0.000 C 
BRANCH  30  31
ATOM     31  C   UNL     1     -11.278  -5.055   9.581  1.00  0.00    -0.003 C 
ATOM     32  C   UNL     1     -12.342  -6.119   9.305  1.00  0.00     0.004 C 
ENDBRANCH  30  31
ENDBRANCH  29  30
ENDBRANCH  28  29
ENDBRANCH  27  28
ENDBRANCH  26  27
ENDBRANCH  25  26
ENDBRANCH  24  25
ENDBRANCH  23  24
ENDBRANCH  22  23
ENDBRANCH  21  22
ENDBRANCH  20  21
ENDBRANCH  19  20
ENDBRANCH  18  19
ENDBRANCH   1  18
TORSDOF 28
ENDMDL
MODEL 6
REMARK VINA RESULT:    -5.638      2.563      4.490
REMARK INTER + INTRA:         -20.342
REMARK INTER:                 -14.712
REMARK INTRA:                  -5.630
REMARK UNBOUND:                -5.476
REMARK SMILES CCCCCCCCCCCCCCCCCCCCCCCCCCCCCC(=O)[O-]
REMARK SMILES IDX 16 1 17 2 18 3 19 4 20 5 21 6 22 7 23 8 24 9 25 10 26 11
REMARK SMILES IDX 27 12 28 13 29 14 30 15 31 16 32 17 15 18 14 19 13 20 12 21
REMARK SMILES IDX 11 22 10 23 9 24 8 25 7 26 6 27 5 28 4 29 3 30 2 31 1 32
REMARK H PARENT
REMARK Flexibility Score: inf
ROOT
ATOM      1  C   UNL     1     -10.492  -5.249  10.525  1.00  0.00     0.000 C 
ENDROOT
BRANCH   1   2
ATOM      2  C   UNL     1     -11.201  -5.871   9.310  1.00  0.00     0.000 C 
BRANCH   2   3
ATOM      3  C   UNL     1     -12.732  -5.711   9.362  1.00  0.00     0.000 C 
BRANCH   3   4
ATOM      4  C   UNL     1     -13.257  -4.871  10.541  1.00  0.00     0.000 C 
BRANCH   4   5
ATOM      5  C   UNL     1     -14.574  -4.145  10.226  1.00  0.00     0.000 C 
BRANCH   5   6
ATOM      6  C   UNL     1     -15.352  -3.836  11.513  1.00  0.00     0.000 C 
BRANCH   6   7
ATOM      7  C   UNL     1     -14.555  -4.171  12.785  1.00  0.00     0.000 C 
BRANCH   7   8
ATOM      8  C   UNL     1     -14.759  -3.190  13.955  1.00  0.00     0.000 C 
BRANCH   8   9
ATOM      9  C   UNL     1     -13.746  -2.023  13.970  1.00  0.00     0.000 C 
BRANCH   9  10
ATOM     10  C   UNL     1     -13.504  -1.438  12.568  1.00  0.00     0.000 C 
BRANCH  10  11
ATOM     11  C   UNL     1     -12.009  -1.459  12.180  1.00  0.00     0.000 C 
BRANCH  11  12
ATOM     12  C   UNL     1     -11.232  -2.639  12.788  1.00  0.00     0.000 C 
BRANCH  12  13
ATOM     13  C   UNL     1      -9.765  -2.294  13.096  1.00  0.00     0.006 C 
BRANCH  13  14
ATOM     14  C   UNL     1      -9.529  -0.780  13.169  1.00  0.00     0.053 C 
BRANCH  14  15
ATOM     15  C   UNL     1      -8.078  -0.454  13.356  1.00  0.00     0.041 C 
ATOM     16  O   UNL     1      -7.264  -1.356  13.687  1.00  0.00    -0.550 OA
ATOM     17  O   UNL     1      -7.633   0.853  13.199  1.00  0.00    -0.550 OA
ENDBRANCH  14  15
ENDBRANCH  13  14
ENDBRANCH  12  13
ENDBRANCH  11  12
ENDBRANCH  10  11
ENDBRANCH   9  10
ENDBRANCH   8   9
ENDBRANCH   7   8
ENDBRANCH   6   7
ENDBRANCH   5   6
ENDBRANCH   4   5
ENDBRANCH   3   4
ENDBRANCH   2   3
ENDBRANCH   1   2
BRANCH   1  18
ATOM     18  C   UNL     1      -9.185  -5.976  10.879  1.00  0.00     0.000 C 
BRANCH  18  19
ATOM     19  C   UNL     1      -9.282  -6.740  12.210  1.00  0.00     0.000 C 
BRANCH  19  20
ATOM     20  C   UNL     1     -10.393  -6.200  13.124  1.00  0.00     0.000 C 
BRANCH  20  21
ATOM     21  C   UNL     1     -10.775  -7.190  14.239  1.00  0.00     0.000 C 
BRANCH  21  22
ATOM     22  C   UNL     1     -11.190  -6.481  15.538  1.00  0.00     0.000 C 
BRANCH  22  23
ATOM     23  C   UNL     1     -11.996  -5.196  15.279  1.00  0.00     0.000 C 
BRANCH  23  24
ATOM     24  C   UNL     1     -12.274  -4.395  16.560  1.00  0.00    -0.000 C 
BRANCH  24  25
ATOM     25  C   UNL     1     -11.657  -2.986  16.518  1.00  0.00    -0.000 C 
BRANCH  25  26
ATOM     26  C   UNL     1     -11.027  -2.564  17.858  1.00  0.00    -0.000 C 
BRANCH  26  27
ATOM     27  C   UNL     1      -9.490  -2.666  17.920  1.00  0.00    -0.000 C 
BRANCH  27  28
ATOM     28  C   UNL     1      -8.841  -2.791  16.530  1.00  0.00    -0.000 C 
BRANCH  28  29
ATOM     29  C   UNL     1      -7.888  -3.993  16.430  1.00  0.00    -0.000 C 
BRANCH  29  30
ATOM     30  C   UNL     1      -7.954  -4.684  15.057  1.00  0.00    -0.000 C 
BRANCH  30  31
ATOM     31  C   UNL     1      -6.573  -4.815  14.395  1.00  0.00    -0.003 C 
ATOM     32  C   UNL     1      -6.627  -4.646  12.877  1.00  0.00     0.004 C 
ENDBRANCH  30  31
ENDBRANCH  29  30
ENDBRANCH  28  29
ENDBRANCH  27  28
ENDBRANCH  26  27
ENDBRANCH  25  26
ENDBRANCH  24  25
ENDBRANCH  23  24
ENDBRANCH  22  23
ENDBRANCH  21  22
ENDBRANCH  20  21
ENDBRANCH  19  20
ENDBRANCH  18  19
ENDBRANCH   1  18
TORSDOF 28
ENDMDL
MODEL 7
REMARK VINA RESULT:    -5.634      1.559      4.817
REMARK INTER + INTRA:         -20.331
REMARK INTER:                 -15.212
REMARK INTRA:                  -5.119
REMARK UNBOUND:                -5.476
REMARK SMILES CCCCCCCCCCCCCCCCCCCCCCCCCCCCCC(=O)[O-]
REMARK SMILES IDX 16 1 17 2 18 3 19 4 20 5 21 6 22 7 23 8 24 9 25 10 26 11
REMARK SMILES IDX 27 12 28 13 29 14 30 15 31 16 32 17 15 18 14 19 13 20 12 21
REMARK SMILES IDX 11 22 10 23 9 24 8 25 7 26 6 27 5 28 4 29 3 30 2 31 1 32
REMARK H PARENT
REMARK Flexibility Score: inf
ROOT
ATOM      1  C   UNL     1     -12.935  -3.740  16.554  1.00  0.00     0.000 C 
ENDROOT
BRANCH   1   2
ATOM      2  C   UNL     1     -11.436  -3.404  16.630  1.00  0.00     0.000 C 
BRANCH   2   3
ATOM      3  C   UNL     1     -10.579  -4.266  15.683  1.00  0.00     0.000 C 
BRANCH   3   4
ATOM      4  C   UNL     1     -10.267  -5.683  16.198  1.00  0.00     0.000 C 
BRANCH   4   5
ATOM      5  C   UNL     1     -10.347  -6.756  15.102  1.00  0.00     0.000 C 
BRANCH   5   6
ATOM      6  C   UNL     1     -11.793  -6.942  14.619  1.00  0.00     0.000 C 
BRANCH   6   7
ATOM      7  C   UNL     1     -11.927  -6.836  13.091  1.00  0.00     0.000 C 
BRANCH   7   8
ATOM      8  C   UNL     1     -11.221  -5.619  12.462  1.00  0.00     0.000 C 
BRANCH   8   9
ATOM      9  C   UNL     1      -9.916  -5.975  11.716  1.00  0.00     0.000 C 
BRANCH   9  10
ATOM     10  C   UNL     1     -10.001  -5.674  10.209  1.00  0.00     0.000 C 
BRANCH  10  11
ATOM     11  C   UNL     1     -11.312  -4.951   9.834  1.00  0.00     0.000 C 
BRANCH  11  12
ATOM     12  C   UNL     1     -12.443  -5.905   9.412  1.00  0.00     0.000 C 
BRANCH  12  13
ATOM     13  C   UNL     1     -13.830  -5.242   9.450  1.00  0.00     0.006 C 
BRANCH  13  14
ATOM     14  C   UNL     1     -13.913  -4.131  10.505  1.00  0.00     0.053 C 
BRANCH  14  15
ATOM     15  C   UNL     1     -15.171  -3.329  10.367  1.00  0.00     0.041 C 
ATOM     16  O   UNL     1     -15.112  -2.098  10.107  1.00  0.00    -0.550 OA
ATOM     17  O   UNL     1     -16.407  -3.934  10.561  1.00  0.00    -0.550 OA
ENDBRANCH  14  15
ENDBRANCH  13  14
ENDBRANCH  12  13
ENDBRANCH  11  12
ENDBRANCH  10  11
ENDBRANCH   9  10
ENDBRANCH   8   9
ENDBRANCH   7   8
ENDBRANCH   6   7
ENDBRANCH   5   6
ENDBRANCH   4   5
ENDBRANCH   3   4
ENDBRANCH   2   3
ENDBRANCH   1   2
BRANCH   1  18
ATOM     18  C   UNL     1     -13.430  -3.894  15.107  1.00  0.00     0.000 C 
BRANCH  18  19
ATOM     19  C   UNL     1     -14.505  -2.855  14.743  1.00  0.00     0.000 C 
BRANCH  19  20
ATOM     20  C   UNL     1     -14.025  -1.848  13.687  1.00  0.00     0.000 C 
BRANCH  20  21
ATOM     21  C   UNL     1     -12.576  -2.108  13.239  1.00  0.00     0.000 C 
BRANCH  21  22
ATOM     22  C   UNL     1     -12.135  -1.173  12.102  1.00  0.00     0.000 C 
BRANCH  22  23
ATOM     23  C   UNL     1     -10.614  -0.940  12.084  1.00  0.00     0.000 C 
BRANCH  23  24
ATOM     24  C   UNL     1      -9.880  -1.685  13.210  1.00  0.00    -0.000 C 
BRANCH  24  25
ATOM     25  C   UNL     1      -8.424  -1.213  13.376  1.00  0.00    -0.000 C 
BRANCH  25  26
ATOM     26  C   UNL     1      -7.397  -2.334  13.131  1.00  0.00    -0.000 C 
BRANCH  26  27
ATOM     27  C   UNL     1      -7.842  -3.739  13.581  1.00  0.00    -0.000 C 
BRANCH  27  28
ATOM     28  C   UNL     1      -7.091  -4.236  14.828  1.00  0.00    -0.000 C 
BRANCH  28  29
ATOM     29  C   UNL     1      -6.160  -3.167  15.422  1.00  0.00    -0.000 C 
BRANCH  29  30
ATOM     30  C   UNL     1      -6.486  -2.852  16.893  1.00  0.00    -0.000 C 
BRANCH  30  31
ATOM     31  C   UNL     1      -7.983  -3.000  17.209  1.00  0.00    -0.003 C 
ATOM     32  C   UNL     1      -8.265  -3.069  18.710  1.00  0.00     0.004 C 
ENDBRANCH  30  31
ENDBRANCH  29  30
ENDBRANCH  28  29
ENDBRANCH  27  28
ENDBRANCH  26  27
ENDBRANCH  25  26
ENDBRANCH  24  25
ENDBRANCH  23  24
ENDBRANCH  22  23
ENDBRANCH  21  22
ENDBRANCH  20  21
ENDBRANCH  19  20
ENDBRANCH  18  19
ENDBRANCH   1  18
TORSDOF 28
ENDMDL
MODEL 8
REMARK VINA RESULT:    -5.629      1.682      5.083
REMARK INTER + INTRA:         -20.320
REMARK INTER:                 -14.681
REMARK INTRA:                  -5.639
REMARK UNBOUND:                -5.476
REMARK SMILES CCCCCCCCCCCCCCCCCCCCCCCCCCCCCC(=O)[O-]
REMARK SMILES IDX 16 1 17 2 18 3 19 4 20 5 21 6 22 7 23 8 24 9 25 10 26 11
REMARK SMILES IDX 27 12 28 13 29 14 30 15 31 16 32 17 15 18 14 19 13 20 12 21
REMARK SMILES IDX 11 22 10 23 9 24 8 25 7 26 6 27 5 28 4 29 3 30 2 31 1 32
REMARK H PARENT
REMARK Flexibility Score: inf
ROOT
ATOM      1  C   UNL     1     -12.373  -4.821  16.092  1.00  0.00     0.000 C 
ENDROOT
BRANCH   1   2
ATOM      2  C   UNL     1     -11.246  -5.090  15.081  1.00  0.00     0.000 C 
BRANCH   2   3
ATOM      3  C   UNL     1     -10.427  -6.351  15.418  1.00  0.00     0.000 C 
BRANCH   3   4
ATOM      4  C   UNL     1     -10.566  -7.504  14.406  1.00  0.00     0.000 C 
BRANCH   4   5
ATOM      5  C   UNL     1     -10.462  -7.043  12.945  1.00  0.00     0.000 C 
BRANCH   5   6
ATOM      6  C   UNL     1      -8.996  -6.979  12.492  1.00  0.00     0.000 C 
BRANCH   6   7
ATOM      7  C   UNL     1      -8.770  -5.972  11.351  1.00  0.00     0.000 C 
BRANCH   7   8
ATOM      8  C   UNL     1     -10.021  -5.174  10.936  1.00  0.00     0.000 C 
BRANCH   8   9
ATOM      9  C   UNL     1     -10.655  -5.658   9.613  1.00  0.00     0.000 C 
BRANCH   9  10
ATOM     10  C   UNL     1     -12.194  -5.652   9.663  1.00  0.00     0.000 C 
BRANCH  10  11
ATOM     11  C   UNL     1     -12.741  -4.504  10.540  1.00  0.00     0.000 C 
BRANCH  11  12
ATOM     12  C   UNL     1     -13.436  -4.988  11.824  1.00  0.00     0.000 C 
BRANCH  12  13
ATOM     13  C   UNL     1     -14.737  -4.225  12.123  1.00  0.00     0.006 C 
BRANCH  13  14
ATOM     14  C   UNL     1     -15.213  -3.397  10.923  1.00  0.00     0.053 C 
BRANCH  14  15
ATOM     15  C   UNL     1     -16.391  -4.029  10.246  1.00  0.00     0.041 C 
ATOM     16  O   UNL     1     -17.458  -4.228  10.886  1.00  0.00    -0.550 OA
ATOM     17  O   UNL     1     -16.299  -4.429   8.919  1.00  0.00    -0.550 OA
ENDBRANCH  14  15
ENDBRANCH  13  14
ENDBRANCH  12  13
ENDBRANCH  11  12
ENDBRANCH  10  11
ENDBRANCH   9  10
ENDBRANCH   8   9
ENDBRANCH   7   8
ENDBRANCH   6   7
ENDBRANCH   5   6
ENDBRANCH   4   5
ENDBRANCH   3   4
ENDBRANCH   2   3
ENDBRANCH   1   2
BRANCH   1  18
ATOM     18  C   UNL     1     -12.339  -3.385  16.641  1.00  0.00     0.000 C 
BRANCH  18  19
ATOM     19  C   UNL     1     -10.945  -2.746  16.520  1.00  0.00     0.000 C 
BRANCH  19  20
ATOM     20  C   UNL     1     -10.420  -2.211  17.861  1.00  0.00     0.000 C 
BRANCH  20  21
ATOM     21  C   UNL     1      -9.171  -2.966  18.350  1.00  0.00     0.000 C 
BRANCH  21  22
ATOM     22  C   UNL     1      -8.413  -3.652  17.202  1.00  0.00     0.000 C 
BRANCH  22  23
ATOM     23  C   UNL     1      -7.143  -2.885  16.791  1.00  0.00     0.000 C 
BRANCH  23  24
ATOM     24  C   UNL     1      -6.560  -3.366  15.453  1.00  0.00    -0.000 C 
BRANCH  24  25
ATOM     25  C   UNL     1      -7.619  -4.028  14.554  1.00  0.00    -0.000 C 
BRANCH  25  26
ATOM     26  C   UNL     1      -7.950  -3.197  13.300  1.00  0.00    -0.000 C 
BRANCH  26  27
ATOM     27  C   UNL     1      -8.013  -1.674  13.524  1.00  0.00    -0.000 C 
BRANCH  27  28
ATOM     28  C   UNL     1      -9.453  -1.138  13.608  1.00  0.00    -0.000 C 
BRANCH  28  29
ATOM     29  C   UNL     1     -10.445  -1.979  12.789  1.00  0.00    -0.000 C 
BRANCH  29  30
ATOM     30  C   UNL     1     -11.248  -1.132  11.786  1.00  0.00    -0.000 C 
BRANCH  30  31
ATOM     31  C   UNL     1     -12.736  -1.034  12.157  1.00  0.00    -0.003 C 
ATOM     32  C   UNL     1     -13.058  -1.707  13.491  1.00  0.00     0.004 C 
ENDBRANCH  30  31
ENDBRANCH  29  30
ENDBRANCH  28  29
ENDBRANCH  27  28
ENDBRANCH  26  27
ENDBRANCH  25  26
ENDBRANCH  24  25
ENDBRANCH  23  24
ENDBRANCH  22  23
ENDBRANCH  21  22
ENDBRANCH  20  21
ENDBRANCH  19  20
ENDBRANCH  18  19
ENDBRANCH   1  18
TORSDOF 28
ENDMDL
MODEL 9
REMARK VINA RESULT:    -5.608      2.530      5.311
REMARK INTER + INTRA:         -20.263
REMARK INTER:                 -14.740
REMARK INTRA:                  -5.523
REMARK UNBOUND:                -5.476
REMARK SMILES CCCCCCCCCCCCCCCCCCCCCCCCCCCCCC(=O)[O-]
REMARK SMILES IDX 16 1 17 2 18 3 19 4 20 5 21 6 22 7 23 8 24 9 25 10 26 11
REMARK SMILES IDX 27 12 28 13 29 14 30 15 31 16 32 17 15 18 14 19 13 20 12 21
REMARK SMILES IDX 11 22 10 23 9 24 8 25 7 26 6 27 5 28 4 29 3 30 2 31 1 32
REMARK H PARENT
REMARK Flexibility Score: inf
ROOT
ATOM      1  C   UNL     1     -10.262  -5.644   9.853  1.00  0.00     0.000 C 
ENDROOT
BRANCH   1   2
ATOM      2  C   UNL     1     -11.752  -5.606   9.471  1.00  0.00     0.000 C 
BRANCH   2   3
ATOM      3  C   UNL     1     -12.659  -5.175  10.639  1.00  0.00     0.000 C 
BRANCH   3   4
ATOM      4  C   UNL     1     -13.933  -4.414  10.225  1.00  0.00     0.000 C 
BRANCH   4   5
ATOM      5  C   UNL     1     -14.849  -4.079  11.411  1.00  0.00     0.000 C 
BRANCH   5   6
ATOM      6  C   UNL     1     -14.176  -4.438  12.744  1.00  0.00     0.000 C 
BRANCH   6   7
ATOM      7  C   UNL     1     -14.899  -3.828  13.957  1.00  0.00     0.000 C 
BRANCH   7   8
ATOM      8  C   UNL     1     -14.635  -2.327  14.180  1.00  0.00     0.000 C 
BRANCH   8   9
ATOM      9  C   UNL     1     -13.188  -1.895  13.854  1.00  0.00     0.000 C 
BRANCH   9  10
ATOM     10  C   UNL     1     -13.079  -1.196  12.487  1.00  0.00     0.000 C 
BRANCH  10  11
ATOM     11  C   UNL     1     -11.710  -1.445  11.816  1.00  0.00     0.000 C 
BRANCH  11  12
ATOM     12  C   UNL     1     -10.891  -2.563  12.483  1.00  0.00     0.000 C 
BRANCH  12  13
ATOM     13  C   UNL     1      -9.848  -2.026  13.478  1.00  0.00     0.006 C 
BRANCH  13  14
ATOM     14  C   UNL     1      -9.367  -0.617  13.110  1.00  0.00     0.053 C 
BRANCH  14  15
ATOM     15  C   UNL     1      -7.895  -0.456  13.342  1.00  0.00     0.041 C 
ATOM     16  O   UNL     1      -7.184  -1.458  13.616  1.00  0.00    -0.550 OA
ATOM     17  O   UNL     1      -7.317   0.806  13.291  1.00  0.00    -0.550 OA
ENDBRANCH  14  15
ENDBRANCH  13  14
ENDBRANCH  12  13
ENDBRANCH  11  12
ENDBRANCH  10  11
ENDBRANCH   9  10
ENDBRANCH   8   9
ENDBRANCH   7   8
ENDBRANCH   6   7
ENDBRANCH   5   6
ENDBRANCH   4   5
ENDBRANCH   3   4
ENDBRANCH   2   3
ENDBRANCH   1   2
BRANCH   1  18
ATOM     18  C   UNL     1     -10.044  -5.622  11.374  1.00  0.00     0.000 C 
BRANCH  18  19
ATOM     19  C   UNL     1      -8.601  -5.985  11.763  1.00  0.00     0.000 C 
BRANCH  19  20
ATOM     20  C   UNL     1      -7.879  -4.843  12.495  1.00  0.00     0.000 C 
BRANCH  20  21
ATOM     21  C   UNL     1      -6.523  -5.279  13.079  1.00  0.00     0.000 C 
BRANCH  21  22
ATOM     22  C   UNL     1      -6.311  -4.770  14.513  1.00  0.00     0.000 C 
BRANCH  22  23
ATOM     23  C   UNL     1      -7.633  -4.592  15.280  1.00  0.00     0.000 C 
BRANCH  23  24
ATOM     24  C   UNL     1      -7.606  -3.403  16.253  1.00  0.00    -0.000 C 
BRANCH  24  25
ATOM     25  C   UNL     1      -8.707  -3.495  17.325  1.00  0.00    -0.000 C 
BRANCH  25  26
ATOM     26  C   UNL     1      -9.830  -2.460  17.124  1.00  0.00    -0.000 C 
BRANCH  26  27
ATOM     27  C   UNL     1     -11.231  -2.921  17.571  1.00  0.00    -0.000 C 
BRANCH  27  28
ATOM     28  C   UNL     1     -12.115  -3.380  16.399  1.00  0.00    -0.000 C 
BRANCH  28  29
ATOM     29  C   UNL     1     -12.097  -4.905  16.206  1.00  0.00    -0.000 C 
BRANCH  29  30
ATOM     30  C   UNL     1     -11.260  -5.335  14.988  1.00  0.00    -0.000 C 
BRANCH  30  31
ATOM     31  C   UNL     1     -11.697  -6.696  14.424  1.00  0.00    -0.003 C 
ATOM     32  C   UNL     1     -10.553  -7.709  14.373  1.00  0.00     0.004 C 
ENDBRANCH  30  31
ENDBRANCH  29  30
ENDBRANCH  28  29
ENDBRANCH  27  28
ENDBRANCH  26  27
ENDBRANCH  25  26
ENDBRANCH  24  25
ENDBRANCH  23  24
ENDBRANCH  22  23
ENDBRANCH  21  22
ENDBRANCH  20  21
ENDBRANCH  19  20
ENDBRANCH  18  19
ENDBRANCH   1  18
TORSDOF 28
ENDMDL
