MODEL 1
REMARK VINA RESULT:    -6.200      0.000      0.000
REMARK INTER + INTRA:          -7.716
REMARK INTER:                  -7.469
REMARK INTRA:                  -0.247
REMARK UNBOUND:                -0.247
REMARK SMILES O=c1c(O)c(-c2ccc(O)c(O)c2)oc2cc(O)cc(O)c12
REMARK SMILES IDX 5 1 3 2 2 3 1 4 22 5 20 6 19 7 17 8 16 9 15 10 14 11 6 12
REMARK SMILES IDX 7 13 8 14 9 15 13 16 11 17 10 18 12 20 4 22 21 24 18 26
REMARK H PARENT 10 19 12 21 4 23 21 25 18 27
REMARK Flexibility Score: inf
ROOT
ATOM      1  C   UNL     1      23.901  41.358 129.357  1.00  0.00     0.180 A 
ATOM      2  C   UNL     1      25.111  41.934 129.779  1.00  0.00     0.208 A 
ATOM      3  C   UNL     1      26.275  41.149 129.779  1.00  0.00     0.238 A 
ATOM      4  O   UNL     1      27.345  41.655 130.209  1.00  0.00    -0.285 OA
ATOM      5  C   UNL     1      26.218  39.804 129.341  1.00  0.00     0.111 A 
ATOM      6  C   UNL     1      27.344  38.929 129.261  1.00  0.00     0.134 A 
ATOM      7  C   UNL     1      27.149  37.580 128.939  1.00  0.00     0.093 A 
ATOM      8  C   UNL     1      25.880  37.090 128.631  1.00  0.00     0.123 A 
ATOM      9  C   UNL     1      24.782  37.950 128.648  1.00  0.00     0.094 A 
ATOM     10  C   UNL     1      24.939  39.292 129.001  1.00  0.00     0.146 A 
ATOM     11  O   UNL     1      23.867  40.075 129.015  1.00  0.00    -0.452 OA
ENDROOT
BRANCH   1  12
ATOM     12  C   UNL     1      22.636  42.128 129.306  1.00  0.00     0.025 A 
ATOM     13  C   UNL     1      22.458  43.098 128.308  1.00  0.00     0.016 A 
ATOM     14  C   UNL     1      21.282  43.851 128.254  1.00  0.00     0.051 A 
ATOM     15  C   UNL     1      20.275  43.655 129.208  1.00  0.00     0.157 A 
ATOM     16  C   UNL     1      21.632  41.949 130.274  1.00  0.00     0.062 A 
ATOM     17  C   UNL     1      20.451  42.707 130.222  1.00  0.00     0.158 A 
BRANCH  15  18
ATOM     18  O   UNL     1      19.100  44.402 129.157  1.00  0.00    -0.504 OA
ATOM     19  H   UNL     1      18.415  44.264 128.423  1.00  0.00     0.293 HD
ENDBRANCH  15  18
BRANCH  17  20
ATOM     20  O   UNL     1      19.454  42.523 131.178  1.00  0.00    -0.504 OA
ATOM     21  H   UNL     1      18.478  42.690 130.966  1.00  0.00     0.293 HD
ENDBRANCH  17  20
ENDBRANCH   1  12
BRANCH   2  22
ATOM     22  O   UNL     1      25.140  43.257 130.227  1.00  0.00    -0.502 OA
ATOM     23  H   UNL     1      24.949  43.510 131.189  1.00  0.00     0.293 HD
ENDBRANCH   2  22
BRANCH   6  24
ATOM     24  O   UNL     1      28.666  39.338 129.460  1.00  0.00    -0.507 OA
ATOM     25  H   UNL     1      29.419  38.731 129.745  1.00  0.00     0.293 HD
ENDBRANCH   6  24
BRANCH   8  26
ATOM     26  O   UNL     1      25.725  35.745 128.299  1.00  0.00    -0.508 OA
ATOM     27  H   UNL     1      25.779  35.427 127.338  1.00  0.00     0.293 HD
ENDBRANCH   8  26
TORSDOF 6
ENDMDL
MODEL 2
REMARK VINA RESULT:    -5.956      2.220      3.946
REMARK INTER + INTRA:          -7.421
REMARK INTER:                  -7.093
REMARK INTRA:                  -0.328
REMARK UNBOUND:                -0.247
REMARK SMILES O=c1c(O)c(-c2ccc(O)c(O)c2)oc2cc(O)cc(O)c12
REMARK SMILES IDX 5 1 3 2 2 3 1 4 22 5 20 6 19 7 17 8 16 9 15 10 14 11 6 12
REMARK SMILES IDX 7 13 8 14 9 15 13 16 11 17 10 18 12 20 4 22 21 24 18 26
REMARK H PARENT 10 19 12 21 4 23 21 25 18 27
REMARK Flexibility Score: inf
ROOT
ATOM      1  C   UNL     1      21.765  42.281 130.013  1.00  0.00     0.180 A 
ATOM      2  C   UNL     1      21.702  40.947 129.579  1.00  0.00     0.208 A 
ATOM      3  C   UNL     1      22.873  40.322 129.123  1.00  0.00     0.238 A 
ATOM      4  O   UNL     1      22.799  39.144 128.685  1.00  0.00    -0.285 OA
ATOM      5  C   UNL     1      24.096  41.034 129.122  1.00  0.00     0.111 A 
ATOM      6  C   UNL     1      25.352  40.488 128.719  1.00  0.00     0.134 A 
ATOM      7  C   UNL     1      26.474  41.322 128.635  1.00  0.00     0.093 A 
ATOM      8  C   UNL     1      26.400  42.666 129.000  1.00  0.00     0.123 A 
ATOM      9  C   UNL     1      25.192  43.196 129.452  1.00  0.00     0.094 A 
ATOM     10  C   UNL     1      24.047  42.398 129.512  1.00  0.00     0.146 A 
ATOM     11  O   UNL     1      22.913  42.943 129.938  1.00  0.00    -0.452 OA
ENDROOT
BRANCH   1  12
ATOM     12  C   UNL     1      20.577  43.000 130.530  1.00  0.00     0.025 A 
ATOM     13  C   UNL     1      19.771  43.730 129.643  1.00  0.00     0.016 A 
ATOM     14  C   UNL     1      18.658  44.432 130.111  1.00  0.00     0.051 A 
ATOM     15  C   UNL     1      18.345  44.428 131.477  1.00  0.00     0.157 A 
ATOM     16  C   UNL     1      20.272  43.015 131.903  1.00  0.00     0.062 A 
ATOM     17  C   UNL     1      19.156  43.722 132.375  1.00  0.00     0.158 A 
BRANCH  15  18
ATOM     18  O   UNL     1      17.235  45.125 131.949  1.00  0.00    -0.504 OA
ATOM     19  H   UNL     1      16.934  45.994 131.524  1.00  0.00     0.293 HD
ENDBRANCH  15  18
BRANCH  17  20
ATOM     20  O   UNL     1      18.850  43.730 133.735  1.00  0.00    -0.504 OA
ATOM     21  H   UNL     1      19.249  44.417 134.364  1.00  0.00     0.293 HD
ENDBRANCH  17  20
ENDBRANCH   1  12
BRANCH   2  22
ATOM     22  O   UNL     1      20.479  40.269 129.568  1.00  0.00    -0.502 OA
ATOM     23  H   UNL     1      19.796  40.391 128.830  1.00  0.00     0.293 HD
ENDBRANCH   2  22
BRANCH   6  24
ATOM     24  O   UNL     1      25.556  39.137 128.421  1.00  0.00    -0.507 OA
ATOM     25  H   UNL     1      25.094  38.636 127.678  1.00  0.00     0.293 HD
ENDBRANCH   6  24
BRANCH   8  26
ATOM     26  O   UNL     1      27.540  43.464 128.919  1.00  0.00    -0.508 OA
ATOM     27  H   UNL     1      27.538  44.341 128.411  1.00  0.00     0.293 HD
ENDBRANCH   8  26
TORSDOF 6
ENDMDL
MODEL 3
REMARK VINA RESULT:    -5.854      2.738      7.824
REMARK INTER + INTRA:          -7.299
REMARK INTER:                  -6.967
REMARK INTRA:                  -0.333
REMARK UNBOUND:                -0.247
REMARK SMILES O=c1c(O)c(-c2ccc(O)c(O)c2)oc2cc(O)cc(O)c12
REMARK SMILES IDX 5 1 3 2 2 3 1 4 22 5 20 6 19 7 17 8 16 9 15 10 14 11 6 12
REMARK SMILES IDX 7 13 8 14 9 15 13 16 11 17 10 18 12 20 4 22 21 24 18 26
REMARK H PARENT 10 19 12 21 4 23 21 25 18 27
REMARK Flexibility Score: inf
ROOT
ATOM      1  C   UNL     1      21.733  43.592 130.755  1.00  0.00     0.180 A 
ATOM      2  C   UNL     1      21.864  43.916 132.116  1.00  0.00     0.208 A 
ATOM      3  C   UNL     1      20.740  44.380 132.817  1.00  0.00     0.238 A 
ATOM      4  O   UNL     1      20.876  44.721 134.021  1.00  0.00    -0.285 OA
ATOM      5  C   UNL     1      19.495  44.498 132.153  1.00  0.00     0.111 A 
ATOM      6  C   UNL     1      18.281  44.919 132.775  1.00  0.00     0.134 A 
ATOM      7  C   UNL     1      17.139  45.125 131.992  1.00  0.00     0.093 A 
ATOM      8  C   UNL     1      17.148  44.862 130.623  1.00  0.00     0.123 A 
ATOM      9  C   UNL     1      18.312  44.394 130.015  1.00  0.00     0.094 A 
ATOM     10  C   UNL     1      19.478  44.214 130.763  1.00  0.00     0.146 A 
ATOM     11  O   UNL     1      20.569  43.775 130.144  1.00  0.00    -0.452 OA
ENDROOT
BRANCH   1  12
ATOM     12  C   UNL     1      22.867  43.073 129.955  1.00  0.00     0.025 A 
ATOM     13  C   UNL     1      23.662  43.968 129.222  1.00  0.00     0.016 A 
ATOM     14  C   UNL     1      24.724  43.500 128.445  1.00  0.00     0.051 A 
ATOM     15  C   UNL     1      24.995  42.127 128.376  1.00  0.00     0.157 A 
ATOM     16  C   UNL     1      23.130  41.694 129.867  1.00  0.00     0.062 A 
ATOM     17  C   UNL     1      24.195  41.222 129.084  1.00  0.00     0.158 A 
BRANCH  15  18
ATOM     18  O   UNL     1      26.054  41.655 127.603  1.00  0.00    -0.504 OA
ATOM     19  H   UNL     1      25.925  41.382 126.635  1.00  0.00     0.293 HD
ENDBRANCH  15  18
BRANCH  17  20
ATOM     20  O   UNL     1      24.459  39.856 129.004  1.00  0.00    -0.504 OA
ATOM     21  H   UNL     1      25.114  39.404 129.630  1.00  0.00     0.293 HD
ENDBRANCH  17  20
ENDBRANCH   1  12
BRANCH   2  22
ATOM     22  O   UNL     1      23.107  43.813 132.746  1.00  0.00    -0.502 OA
ATOM     23  H   UNL     1      23.557  44.602 133.195  1.00  0.00     0.293 HD
ENDBRANCH   2  22
BRANCH   6  24
ATOM     24  O   UNL     1      18.139  45.121 134.152  1.00  0.00    -0.507 OA
ATOM     25  H   UNL     1      18.529  45.898 134.663  1.00  0.00     0.293 HD
ENDBRANCH   6  24
BRANCH   8  26
ATOM     26  O   UNL     1      15.987  45.063 129.877  1.00  0.00    -0.508 OA
ATOM     27  H   UNL     1      15.381  45.858 130.044  1.00  0.00     0.293 HD
ENDBRANCH   8  26
TORSDOF 6
ENDMDL
MODEL 4
REMARK VINA RESULT:    -5.798     11.585     13.161
REMARK INTER + INTRA:          -7.231
REMARK INTER:                  -7.054
REMARK INTRA:                  -0.177
REMARK UNBOUND:                -0.247
REMARK SMILES O=c1c(O)c(-c2ccc(O)c(O)c2)oc2cc(O)cc(O)c12
REMARK SMILES IDX 5 1 3 2 2 3 1 4 22 5 20 6 19 7 17 8 16 9 15 10 14 11 6 12
REMARK SMILES IDX 7 13 8 14 9 15 13 16 11 17 10 18 12 20 4 22 21 24 18 26
REMARK H PARENT 10 19 12 21 4 23 21 25 18 27
REMARK Flexibility Score: inf
ROOT
ATOM      1  C   UNL     1      14.616  35.821 122.864  1.00  0.00     0.180 A 
ATOM      2  C   UNL     1      15.117  34.956 121.877  1.00  0.00     0.208 A 
ATOM      3  C   UNL     1      16.193  35.382 121.081  1.00  0.00     0.238 A 
ATOM      4  O   UNL     1      16.602  34.624 120.162  1.00  0.00    -0.285 OA
ATOM      5  C   UNL     1      16.765  36.659 121.295  1.00  0.00     0.111 A 
ATOM      6  C   UNL     1      17.884  37.177 120.574  1.00  0.00     0.134 A 
ATOM      7  C   UNL     1      18.283  38.503 120.779  1.00  0.00     0.093 A 
ATOM      8  C   UNL     1      17.647  39.309 121.723  1.00  0.00     0.123 A 
ATOM      9  C   UNL     1      16.590  38.794 122.474  1.00  0.00     0.094 A 
ATOM     10  C   UNL     1      16.146  37.487 122.267  1.00  0.00     0.146 A 
ATOM     11  O   UNL     1      15.130  37.037 122.996  1.00  0.00    -0.452 OA
ENDROOT
BRANCH   1  12
ATOM     12  C   UNL     1      13.500  35.434 123.758  1.00  0.00     0.025 A 
ATOM     13  C   UNL     1      13.750  35.216 125.122  1.00  0.00     0.016 A 
ATOM     14  C   UNL     1      12.717  34.830 125.979  1.00  0.00     0.051 A 
ATOM     15  C   UNL     1      11.421  34.640 125.481  1.00  0.00     0.157 A 
ATOM     16  C   UNL     1      12.202  35.222 123.258  1.00  0.00     0.062 A 
ATOM     17  C   UNL     1      11.164  34.832 124.118  1.00  0.00     0.158 A 
BRANCH  15  18
ATOM     18  O   UNL     1      10.387  34.258 126.333  1.00  0.00    -0.504 OA
ATOM     19  H   UNL     1       9.534  34.801 126.410  1.00  0.00     0.293 HD
ENDBRANCH  15  18
BRANCH  17  20
ATOM     20  O   UNL     1       9.877  34.630 123.622  1.00  0.00    -0.504 OA
ATOM     21  H   UNL     1       9.417  33.730 123.692  1.00  0.00     0.293 HD
ENDBRANCH  17  20
ENDBRANCH   1  12
BRANCH   2  22
ATOM     22  O   UNL     1      14.524  33.708 121.668  1.00  0.00    -0.502 OA
ATOM     23  H   UNL     1      14.445  33.013 122.401  1.00  0.00     0.293 HD
ENDBRANCH   2  22
BRANCH   6  24
ATOM     24  O   UNL     1      18.648  36.427 119.675  1.00  0.00    -0.507 OA
ATOM     25  H   UNL     1      18.707  36.603 118.684  1.00  0.00     0.293 HD
ENDBRANCH   6  24
BRANCH   8  26
ATOM     26  O   UNL     1      18.081  40.620 121.911  1.00  0.00    -0.508 OA
ATOM     27  H   UNL     1      17.440  41.403 121.856  1.00  0.00     0.293 HD
ENDBRANCH   8  26
TORSDOF 6
ENDMDL
MODEL 5
REMARK VINA RESULT:    -5.787     11.255     15.676
REMARK INTER + INTRA:          -7.218
REMARK INTER:                  -6.909
REMARK INTRA:                  -0.309
REMARK UNBOUND:                -0.247
REMARK SMILES O=c1c(O)c(-c2ccc(O)c(O)c2)oc2cc(O)cc(O)c12
REMARK SMILES IDX 5 1 3 2 2 3 1 4 22 5 20 6 19 7 17 8 16 9 15 10 14 11 6 12
REMARK SMILES IDX 7 13 8 14 9 15 13 16 11 17 10 18 12 20 4 22 21 24 18 26
REMARK H PARENT 10 19 12 21 4 23 21 25 18 27
REMARK Flexibility Score: inf
ROOT
ATOM      1  C   UNL     1      25.178  29.438 120.995  1.00  0.00     0.180 A 
ATOM      2  C   UNL     1      23.826  29.142 120.752  1.00  0.00     0.208 A 
ATOM      3  C   UNL     1      22.926  30.197 120.533  1.00  0.00     0.238 A 
ATOM      4  O   UNL     1      21.707  29.929 120.369  1.00  0.00    -0.285 OA
ATOM      5  C   UNL     1      23.393  31.534 120.542  1.00  0.00     0.111 A 
ATOM      6  C   UNL     1      22.577  32.679 120.291  1.00  0.00     0.134 A 
ATOM      7  C   UNL     1      23.117  33.961 120.455  1.00  0.00     0.093 A 
ATOM      8  C   UNL     1      24.457  34.139 120.796  1.00  0.00     0.123 A 
ATOM      9  C   UNL     1      25.278  33.027 120.985  1.00  0.00     0.094 A 
ATOM     10  C   UNL     1      24.760  31.736 120.865  1.00  0.00     0.146 A 
ATOM     11  O   UNL     1      25.572  30.704 121.063  1.00  0.00    -0.452 OA
ENDROOT
BRANCH   1  12
ATOM     12  C   UNL     1      26.190  28.379 121.212  1.00  0.00     0.025 A 
ATOM     13  C   UNL     1      26.639  28.108 122.514  1.00  0.00     0.016 A 
ATOM     14  C   UNL     1      27.608  27.127 122.740  1.00  0.00     0.051 A 
ATOM     15  C   UNL     1      28.155  26.416 121.664  1.00  0.00     0.157 A 
ATOM     16  C   UNL     1      26.756  27.676 120.133  1.00  0.00     0.062 A 
ATOM     17  C   UNL     1      27.732  26.693 120.358  1.00  0.00     0.158 A 
BRANCH  15  18
ATOM     18  O   UNL     1      29.121  25.435 121.884  1.00  0.00    -0.504 OA
ATOM     19  H   UNL     1      29.590  25.343 122.778  1.00  0.00     0.293 HD
ENDBRANCH  15  18
BRANCH  17  20
ATOM     20  O   UNL     1      28.287  25.993 119.288  1.00  0.00    -0.504 OA
ATOM     21  H   UNL     1      27.885  25.125 118.956  1.00  0.00     0.293 HD
ENDBRANCH  17  20
ENDBRANCH   1  12
BRANCH   2  22
ATOM     22  O   UNL     1      23.383  27.817 120.769  1.00  0.00    -0.502 OA
ATOM     23  H   UNL     1      23.081  27.333 119.932  1.00  0.00     0.293 HD
ENDBRANCH   2  22
BRANCH   6  24
ATOM     24  O   UNL     1      21.251  32.612 119.855  1.00  0.00    -0.507 OA
ATOM     25  H   UNL     1      20.786  31.768 119.553  1.00  0.00     0.293 HD
ENDBRANCH   6  24
BRANCH   8  26
ATOM     26  O   UNL     1      24.965  35.430 120.935  1.00  0.00    -0.508 OA
ATOM     27  H   UNL     1      25.648  35.803 120.285  1.00  0.00     0.293 HD
ENDBRANCH   8  26
TORSDOF 6
ENDMDL
MODEL 6
REMARK VINA RESULT:    -5.696      1.889      6.692
REMARK INTER + INTRA:          -7.109
REMARK INTER:                  -6.890
REMARK INTRA:                  -0.219
REMARK UNBOUND:                -0.247
REMARK SMILES O=c1c(O)c(-c2ccc(O)c(O)c2)oc2cc(O)cc(O)c12
REMARK SMILES IDX 5 1 3 2 2 3 1 4 22 5 20 6 19 7 17 8 16 9 15 10 14 11 6 12
REMARK SMILES IDX 7 13 8 14 9 15 13 16 11 17 10 18 12 20 4 22 21 24 18 26
REMARK H PARENT 10 19 12 21 4 23 21 25 18 27
REMARK Flexibility Score: inf
ROOT
ATOM      1  C   UNL     1      25.781  40.120 128.571  1.00  0.00     0.180 A 
ATOM      2  C   UNL     1      26.269  41.292 129.172  1.00  0.00     0.208 A 
ATOM      3  C   UNL     1      25.375  42.130 129.857  1.00  0.00     0.238 A 
ATOM      4  O   UNL     1      25.808  43.206 130.346  1.00  0.00    -0.285 OA
ATOM      5  C   UNL     1      24.007  41.777 129.946  1.00  0.00     0.111 A 
ATOM      6  C   UNL     1      23.019  42.531 130.649  1.00  0.00     0.134 A 
ATOM      7  C   UNL     1      21.672  42.157 130.562  1.00  0.00     0.093 A 
ATOM      8  C   UNL     1      21.286  41.021 129.852  1.00  0.00     0.123 A 
ATOM      9  C   UNL     1      22.250  40.243 129.210  1.00  0.00     0.094 A 
ATOM     10  C   UNL     1      23.597  40.611 129.249  1.00  0.00     0.146 A 
ATOM     11  O   UNL     1      24.482  39.850 128.617  1.00  0.00    -0.452 OA
ENDROOT
BRANCH   1  12
ATOM     12  C   UNL     1      26.667  39.174 127.853  1.00  0.00     0.025 A 
ATOM     13  C   UNL     1      27.186  39.531 126.599  1.00  0.00     0.016 A 
ATOM     14  C   UNL     1      28.006  38.646 125.895  1.00  0.00     0.051 A 
ATOM     15  C   UNL     1      28.305  37.385 126.427  1.00  0.00     0.157 A 
ATOM     16  C   UNL     1      26.953  37.900 128.375  1.00  0.00     0.062 A 
ATOM     17  C   UNL     1      27.775  37.010 127.667  1.00  0.00     0.158 A 
BRANCH  15  18
ATOM     18  O   UNL     1      29.125  36.501 125.729  1.00  0.00    -0.504 OA
ATOM     19  H   UNL     1      28.814  35.566 125.488  1.00  0.00     0.293 HD
ENDBRANCH  15  18
BRANCH  17  20
ATOM     20  O   UNL     1      28.063  35.750 128.189  1.00  0.00    -0.504 OA
ATOM     21  H   UNL     1      27.332  35.077 128.386  1.00  0.00     0.293 HD
ENDBRANCH  17  20
ENDBRANCH   1  12
BRANCH   2  22
ATOM     22  O   UNL     1      27.619  41.633 129.053  1.00  0.00    -0.502 OA
ATOM     23  H   UNL     1      28.202  41.293 128.297  1.00  0.00     0.293 HD
ENDBRANCH   2  22
BRANCH   6  24
ATOM     24  O   UNL     1      23.310  43.630 131.464  1.00  0.00    -0.507 OA
ATOM     25  H   UNL     1      23.317  44.590 131.154  1.00  0.00     0.293 HD
ENDBRANCH   6  24
BRANCH   8  26
ATOM     26  O   UNL     1      19.938  40.670 129.799  1.00  0.00    -0.508 OA
ATOM     27  H   UNL     1      19.357  40.919 129.007  1.00  0.00     0.293 HD
ENDBRANCH   8  26
TORSDOF 6
ENDMDL
MODEL 7
REMARK VINA RESULT:    -5.688     10.303     13.774
REMARK INTER + INTRA:          -7.099
REMARK INTER:                  -6.805
REMARK INTRA:                  -0.294
REMARK UNBOUND:                -0.247
REMARK SMILES O=c1c(O)c(-c2ccc(O)c(O)c2)oc2cc(O)cc(O)c12
REMARK SMILES IDX 5 1 3 2 2 3 1 4 22 5 20 6 19 7 17 8 16 9 15 10 14 11 6 12
REMARK SMILES IDX 7 13 8 14 9 15 13 16 11 17 10 18 12 20 4 22 21 24 18 26
REMARK H PARENT 10 19 12 21 4 23 21 25 18 27
REMARK Flexibility Score: inf
ROOT
ATOM      1  C   UNL     1      13.482  37.363 125.110  1.00  0.00     0.180 A 
ATOM      2  C   UNL     1      12.343  36.559 125.284  1.00  0.00     0.208 A 
ATOM      3  C   UNL     1      11.275  37.049 126.051  1.00  0.00     0.238 A 
ATOM      4  O   UNL     1      10.280  36.303 126.248  1.00  0.00    -0.285 OA
ATOM      5  C   UNL     1      11.351  38.343 126.620  1.00  0.00     0.111 A 
ATOM      6  C   UNL     1      10.311  38.956 127.382  1.00  0.00     0.134 A 
ATOM      7  C   UNL     1      10.546  40.187 128.008  1.00  0.00     0.093 A 
ATOM      8  C   UNL     1      11.758  40.856 127.846  1.00  0.00     0.123 A 
ATOM      9  C   UNL     1      12.760  40.294 127.055  1.00  0.00     0.094 A 
ATOM     10  C   UNL     1      12.569  39.051 126.448  1.00  0.00     0.146 A 
ATOM     11  O   UNL     1      13.551  38.545 125.711  1.00  0.00    -0.452 OA
ENDROOT
BRANCH   1  12
ATOM     12  C   UNL     1      14.639  36.926 124.295  1.00  0.00     0.025 A 
ATOM     13  C   UNL     1      14.570  37.010 122.895  1.00  0.00     0.016 A 
ATOM     14  C   UNL     1      15.641  36.584 122.106  1.00  0.00     0.051 A 
ATOM     15  C   UNL     1      16.790  36.051 122.705  1.00  0.00     0.157 A 
ATOM     16  C   UNL     1      15.786  36.371 124.891  1.00  0.00     0.062 A 
ATOM     17  C   UNL     1      16.861  35.940 124.099  1.00  0.00     0.158 A 
BRANCH  15  18
ATOM     18  O   UNL     1      17.862  35.626 121.922  1.00  0.00    -0.504 OA
ATOM     19  H   UNL     1      18.662  35.154 122.328  1.00  0.00     0.293 HD
ENDBRANCH  15  18
BRANCH  17  20
ATOM     20  O   UNL     1      18.000  35.397 124.692  1.00  0.00    -0.504 OA
ATOM     21  H   UNL     1      18.931  35.639 124.374  1.00  0.00     0.293 HD
ENDBRANCH  17  20
ENDBRANCH   1  12
BRANCH   2  22
ATOM     22  O   UNL     1      12.298  35.276 124.731  1.00  0.00    -0.502 OA
ATOM     23  H   UNL     1      13.116  34.820 124.347  1.00  0.00     0.293 HD
ENDBRANCH   2  22
BRANCH   6  24
ATOM     24  O   UNL     1       9.030  38.415 127.531  1.00  0.00    -0.507 OA
ATOM     25  H   UNL     1       8.571  37.829 126.850  1.00  0.00     0.293 HD
ENDBRANCH   6  24
BRANCH   8  26
ATOM     26  O   UNL     1      11.952  42.087 128.470  1.00  0.00    -0.508 OA
ATOM     27  H   UNL     1      11.794  42.208 129.464  1.00  0.00     0.293 HD
ENDBRANCH   8  26
TORSDOF 6
ENDMDL
MODEL 8
REMARK VINA RESULT:    -5.571      5.317      8.439
REMARK INTER + INTRA:          -6.958
REMARK INTER:                  -6.637
REMARK INTRA:                  -0.320
REMARK UNBOUND:                -0.247
REMARK SMILES O=c1c(O)c(-c2ccc(O)c(O)c2)oc2cc(O)cc(O)c12
REMARK SMILES IDX 5 1 3 2 2 3 1 4 22 5 20 6 19 7 17 8 16 9 15 10 14 11 6 12
REMARK SMILES IDX 7 13 8 14 9 15 13 16 11 17 10 18 12 20 4 22 21 24 18 26
REMARK H PARENT 10 19 12 21 4 23 21 25 18 27
REMARK Flexibility Score: inf
ROOT
ATOM      1  C   UNL     1      26.748  37.106 124.225  1.00  0.00     0.180 A 
ATOM      2  C   UNL     1      27.695  38.107 124.495  1.00  0.00     0.208 A 
ATOM      3  C   UNL     1      27.895  38.515 125.823  1.00  0.00     0.238 A 
ATOM      4  O   UNL     1      28.706  39.451 126.053  1.00  0.00    -0.285 OA
ATOM      5  C   UNL     1      27.159  37.905 126.866  1.00  0.00     0.111 A 
ATOM      6  C   UNL     1      27.310  38.211 128.253  1.00  0.00     0.134 A 
ATOM      7  C   UNL     1      26.437  37.639 129.186  1.00  0.00     0.093 A 
ATOM      8  C   UNL     1      25.462  36.723 128.793  1.00  0.00     0.123 A 
ATOM      9  C   UNL     1      25.344  36.371 127.448  1.00  0.00     0.094 A 
ATOM     10  C   UNL     1      26.177  36.953 126.489  1.00  0.00     0.146 A 
ATOM     11  O   UNL     1      26.026  36.599 125.217  1.00  0.00    -0.452 OA
ENDROOT
BRANCH   1  12
ATOM     12  C   UNL     1      26.498  36.606 122.853  1.00  0.00     0.025 A 
ATOM     13  C   UNL     1      25.555  37.256 122.042  1.00  0.00     0.016 A 
ATOM     14  C   UNL     1      25.288  36.790 120.753  1.00  0.00     0.051 A 
ATOM     15  C   UNL     1      25.948  35.655 120.263  1.00  0.00     0.157 A 
ATOM     16  C   UNL     1      27.143  35.455 122.365  1.00  0.00     0.062 A 
ATOM     17  C   UNL     1      26.874  34.985 121.071  1.00  0.00     0.158 A 
BRANCH  15  18
ATOM     18  O   UNL     1      25.687  35.187 118.976  1.00  0.00    -0.504 OA
ATOM     19  H   UNL     1      24.975  35.611 118.392  1.00  0.00     0.293 HD
ENDBRANCH  15  18
BRANCH  17  20
ATOM     20  O   UNL     1      27.520  33.848 120.586  1.00  0.00    -0.504 OA
ATOM     21  H   UNL     1      27.002  33.050 120.239  1.00  0.00     0.293 HD
ENDBRANCH  17  20
ENDBRANCH   1  12
BRANCH   2  22
ATOM     22  O   UNL     1      28.395  38.712 123.448  1.00  0.00    -0.502 OA
ATOM     23  H   UNL     1      29.094  39.430 123.603  1.00  0.00     0.293 HD
ENDBRANCH   2  22
BRANCH   6  24
ATOM     24  O   UNL     1      28.312  39.043 128.763  1.00  0.00    -0.507 OA
ATOM     25  H   UNL     1      28.593  39.922 128.356  1.00  0.00     0.293 HD
ENDBRANCH   6  24
BRANCH   8  26
ATOM     26  O   UNL     1      24.620  36.161 129.751  1.00  0.00    -0.508 OA
ATOM     27  H   UNL     1      24.790  35.236 130.128  1.00  0.00     0.293 HD
ENDBRANCH   8  26
TORSDOF 6
ENDMDL
