MODEL 1
REMARK VINA RESULT:    -5.435      0.000      0.000
REMARK INTER + INTRA:          -6.681
REMARK INTER:                  -6.388
REMARK INTRA:                  -0.293
REMARK UNBOUND:                -0.293
REMARK SMILES O=c1cc(-c2ccc(O)c(O)c2)oc2cc(O)cc(O)c12
REMARK SMILES IDX 4 1 3 2 2 3 1 4 21 5 19 6 18 7 16 8 15 9 14 10 13 11 5 12
REMARK SMILES IDX 6 13 7 14 8 15 12 16 10 17 9 18 11 20 20 22 17 24
REMARK H PARENT 9 19 11 21 20 23 17 25
REMARK Flexibility Score: inf
ROOT
ATOM      1  C   UNL     1      14.060 -17.293  20.169  1.00  0.00     0.138 A 
ATOM      2  C   UNL     1      14.784 -17.958  21.172  1.00  0.00     0.100 A 
ATOM      3  C   UNL     1      16.027 -17.463  21.566  1.00  0.00     0.197 A 
ATOM      4  O   UNL     1      16.669 -18.067  22.468  1.00  0.00    -0.289 OA
ATOM      5  C   UNL     1      16.539 -16.301  20.954  1.00  0.00     0.107 A 
ATOM      6  C   UNL     1      17.790 -15.733  21.292  1.00  0.00     0.134 A 
ATOM      7  C   UNL     1      18.225 -14.571  20.640  1.00  0.00     0.093 A 
ATOM      8  C   UNL     1      17.435 -13.966  19.659  1.00  0.00     0.123 A 
ATOM      9  C   UNL     1      16.197 -14.522  19.321  1.00  0.00     0.094 A 
ATOM     10  C   UNL     1      15.746 -15.682  19.959  1.00  0.00     0.146 A 
ATOM     11  O   UNL     1      14.566 -16.192  19.619  1.00  0.00    -0.456 OA
ENDROOT
BRANCH   1  12
ATOM     12  C   UNL     1      12.732 -17.773  19.712  1.00  0.00     0.021 A 
ATOM     13  C   UNL     1      11.775 -18.168  20.663  1.00  0.00     0.016 A 
ATOM     14  C   UNL     1      10.515 -18.616  20.260  1.00  0.00     0.051 A 
ATOM     15  C   UNL     1      10.186 -18.670  18.901  1.00  0.00     0.157 A 
ATOM     16  C   UNL     1      12.389 -17.817  18.346  1.00  0.00     0.062 A 
ATOM     17  C   UNL     1      11.123 -18.266  17.943  1.00  0.00     0.158 A 
BRANCH  15  18
ATOM     18  O   UNL     1       8.930 -19.118  18.494  1.00  0.00    -0.504 OA
ATOM     19  H   UNL     1       8.293 -19.566  19.142  1.00  0.00     0.293 HD
ENDBRANCH  15  18
BRANCH  17  20
ATOM     20  O   UNL     1      10.789 -18.310  16.590  1.00  0.00    -0.504 OA
ATOM     21  H   UNL     1      10.072 -18.934  16.240  1.00  0.00     0.293 HD
ENDBRANCH  17  20
ENDBRANCH   1  12
BRANCH   6  22
ATOM     22  O   UNL     1      18.601 -16.315  22.268  1.00  0.00    -0.507 OA
ATOM     23  H   UNL     1      18.452 -17.265  22.587  1.00  0.00     0.293 HD
ENDBRANCH   6  22
BRANCH   8  24
ATOM     24  O   UNL     1      17.890 -12.811  19.027  1.00  0.00    -0.508 OA
ATOM     25  H   UNL     1      17.664 -11.889  19.382  1.00  0.00     0.293 HD
ENDBRANCH   8  24
TORSDOF 5
ENDMDL
MODEL 2
REMARK VINA RESULT:    -5.401     12.976     15.990
REMARK INTER + INTRA:          -6.642
REMARK INTER:                  -6.357
REMARK INTRA:                  -0.285
REMARK UNBOUND:                -0.293
REMARK SMILES O=c1cc(-c2ccc(O)c(O)c2)oc2cc(O)cc(O)c12
REMARK SMILES IDX 4 1 3 2 2 3 1 4 21 5 19 6 18 7 16 8 15 9 14 10 13 11 5 12
REMARK SMILES IDX 6 13 7 14 8 15 12 16 10 17 9 18 11 20 20 22 17 24
REMARK H PARENT 9 19 11 21 20 23 17 25
REMARK Flexibility Score: inf
ROOT
ATOM      1  C   UNL     1      15.802  -7.102   8.277  1.00  0.00     0.138 A 
ATOM      2  C   UNL     1      14.881  -8.033   7.770  1.00  0.00     0.100 A 
ATOM      3  C   UNL     1      14.254  -8.924   8.642  1.00  0.00     0.197 A 
ATOM      4  O   UNL     1      13.428  -9.756   8.178  1.00  0.00    -0.289 OA
ATOM      5  C   UNL     1      14.551  -8.874  10.019  1.00  0.00     0.107 A 
ATOM      6  C   UNL     1      13.963  -9.741  10.971  1.00  0.00     0.134 A 
ATOM      7  C   UNL     1      14.308  -9.623  12.325  1.00  0.00     0.093 A 
ATOM      8  C   UNL     1      15.227  -8.658  12.744  1.00  0.00     0.123 A 
ATOM      9  C   UNL     1      15.812  -7.799  11.809  1.00  0.00     0.094 A 
ATOM     10  C   UNL     1      15.482  -7.901  10.454  1.00  0.00     0.146 A 
ATOM     11  O   UNL     1      16.052  -7.073   9.583  1.00  0.00    -0.456 OA
ENDROOT
BRANCH   1  12
ATOM     12  C   UNL     1      16.497  -6.129   7.396  1.00  0.00     0.021 A 
ATOM     13  C   UNL     1      15.741  -5.302   6.548  1.00  0.00     0.016 A 
ATOM     14  C   UNL     1      16.370  -4.373   5.715  1.00  0.00     0.051 A 
ATOM     15  C   UNL     1      17.764  -4.249   5.722  1.00  0.00     0.157 A 
ATOM     16  C   UNL     1      17.900  -5.989   7.408  1.00  0.00     0.062 A 
ATOM     17  C   UNL     1      18.530  -5.055   6.573  1.00  0.00     0.158 A 
BRANCH  15  18
ATOM     18  O   UNL     1      18.396  -3.324   4.892  1.00  0.00    -0.504 OA
ATOM     19  H   UNL     1      18.337  -3.393   3.883  1.00  0.00     0.293 HD
ENDBRANCH  15  18
BRANCH  17  20
ATOM     20  O   UNL     1      19.917  -4.921   6.586  1.00  0.00    -0.504 OA
ATOM     21  H   UNL     1      20.495  -5.310   5.851  1.00  0.00     0.293 HD
ENDBRANCH  17  20
ENDBRANCH   1  12
BRANCH   6  22
ATOM     22  O   UNL     1      13.041 -10.714  10.581  1.00  0.00    -0.507 OA
ATOM     23  H   UNL     1      12.930 -11.579  11.097  1.00  0.00     0.293 HD
ENDBRANCH   6  22
BRANCH   8  24
ATOM     24  O   UNL     1      15.551  -8.562  14.096  1.00  0.00    -0.508 OA
ATOM     25  H   UNL     1      15.383  -9.329  14.737  1.00  0.00     0.293 HD
ENDBRANCH   8  24
TORSDOF 5
ENDMDL
MODEL 3
REMARK VINA RESULT:    -5.250      9.547     11.416
REMARK INTER + INTRA:          -6.464
REMARK INTER:                  -6.200
REMARK INTRA:                  -0.264
REMARK UNBOUND:                -0.293
REMARK SMILES O=c1cc(-c2ccc(O)c(O)c2)oc2cc(O)cc(O)c12
REMARK SMILES IDX 4 1 3 2 2 3 1 4 21 5 19 6 18 7 16 8 15 9 14 10 13 11 5 12
REMARK SMILES IDX 6 13 7 14 8 15 12 16 10 17 9 18 11 20 20 22 17 24
REMARK H PARENT 9 19 11 21 20 23 17 25
REMARK Flexibility Score: inf
ROOT
ATOM      1  C   UNL     1      14.566 -10.959  11.595  1.00  0.00     0.138 A 
ATOM      2  C   UNL     1      14.978 -10.184  12.691  1.00  0.00     0.100 A 
ATOM      3  C   UNL     1      15.275  -8.834  12.506  1.00  0.00     0.197 A 
ATOM      4  O   UNL     1      15.643  -8.147  13.497  1.00  0.00    -0.289 OA
ATOM      5  C   UNL     1      15.155  -8.266  11.222  1.00  0.00     0.107 A 
ATOM      6  C   UNL     1      15.437  -6.907  10.946  1.00  0.00     0.134 A 
ATOM      7  C   UNL     1      15.286  -6.416   9.641  1.00  0.00     0.093 A 
ATOM      8  C   UNL     1      14.860  -7.256   8.609  1.00  0.00     0.123 A 
ATOM      9  C   UNL     1      14.579  -8.600   8.876  1.00  0.00     0.094 A 
ATOM     10  C   UNL     1      14.724  -9.109  10.170  1.00  0.00     0.146 A 
ATOM     11  O   UNL     1      14.452 -10.390  10.398  1.00  0.00    -0.456 OA
ENDROOT
BRANCH   1  12
ATOM     12  C   UNL     1      14.236 -12.400  11.734  1.00  0.00     0.021 A 
ATOM     13  C   UNL     1      12.893 -12.811  11.664  1.00  0.00     0.016 A 
ATOM     14  C   UNL     1      12.556 -14.162  11.784  1.00  0.00     0.051 A 
ATOM     15  C   UNL     1      13.555 -15.125  11.967  1.00  0.00     0.157 A 
ATOM     16  C   UNL     1      15.237 -13.378  11.905  1.00  0.00     0.062 A 
ATOM     17  C   UNL     1      14.897 -14.733  12.023  1.00  0.00     0.158 A 
BRANCH  15  18
ATOM     18  O   UNL     1      13.222 -16.474  12.088  1.00  0.00    -0.504 OA
ATOM     19  H   UNL     1      12.268 -16.771  12.252  1.00  0.00     0.293 HD
ENDBRANCH  15  18
BRANCH  17  20
ATOM     20  O   UNL     1      15.891 -15.696  12.194  1.00  0.00    -0.504 OA
ATOM     21  H   UNL     1      16.205 -16.277  11.426  1.00  0.00     0.293 HD
ENDBRANCH  17  20
ENDBRANCH   1  12
BRANCH   6  22
ATOM     22  O   UNL     1      15.864  -6.043  11.956  1.00  0.00    -0.507 OA
ATOM     23  H   UNL     1      16.359  -5.184  11.748  1.00  0.00     0.293 HD
ENDBRANCH   6  22
BRANCH   8  24
ATOM     24  O   UNL     1      14.717  -6.744   7.322  1.00  0.00    -0.508 OA
ATOM     25  H   UNL     1      13.993  -6.071   7.096  1.00  0.00     0.293 HD
ENDBRANCH   8  24
TORSDOF 5
ENDMDL
MODEL 4
REMARK VINA RESULT:    -5.233     13.237     15.962
REMARK INTER + INTRA:          -6.444
REMARK INTER:                  -6.177
REMARK INTRA:                  -0.267
REMARK UNBOUND:                -0.293
REMARK SMILES O=c1cc(-c2ccc(O)c(O)c2)oc2cc(O)cc(O)c12
REMARK SMILES IDX 4 1 3 2 2 3 1 4 21 5 19 6 18 7 16 8 15 9 14 10 13 11 5 12
REMARK SMILES IDX 6 13 7 14 8 15 12 16 10 17 9 18 11 20 20 22 17 24
REMARK H PARENT 9 19 11 21 20 23 17 25
REMARK Flexibility Score: inf
ROOT
ATOM      1  C   UNL     1      15.210  -6.637   9.418  1.00  0.00     0.138 A 
ATOM      2  C   UNL     1      14.016  -6.703   8.681  1.00  0.00     0.100 A 
ATOM      3  C   UNL     1      14.055  -6.563   7.294  1.00  0.00     0.197 A 
ATOM      4  O   UNL     1      12.978  -6.624   6.641  1.00  0.00    -0.289 OA
ATOM      5  C   UNL     1      15.293  -6.359   6.651  1.00  0.00     0.107 A 
ATOM      6  C   UNL     1      15.423  -6.206   5.250  1.00  0.00     0.134 A 
ATOM      7  C   UNL     1      16.693  -6.013   4.686  1.00  0.00     0.093 A 
ATOM      8  C   UNL     1      17.832  -5.972   5.494  1.00  0.00     0.123 A 
ATOM      9  C   UNL     1      17.710  -6.123   6.879  1.00  0.00     0.094 A 
ATOM     10  C   UNL     1      16.453  -6.315   7.461  1.00  0.00     0.146 A 
ATOM     11  O   UNL     1      16.363  -6.455   8.780  1.00  0.00    -0.456 OA
ENDROOT
BRANCH   1  12
ATOM     12  C   UNL     1      15.227  -6.781  10.895  1.00  0.00     0.021 A 
ATOM     13  C   UNL     1      14.909  -5.674  11.701  1.00  0.00     0.016 A 
ATOM     14  C   UNL     1      14.910  -5.784  13.094  1.00  0.00     0.051 A 
ATOM     15  C   UNL     1      15.219  -7.006  13.705  1.00  0.00     0.157 A 
ATOM     16  C   UNL     1      15.524  -8.010  11.517  1.00  0.00     0.062 A 
ATOM     17  C   UNL     1      15.523  -8.121  12.916  1.00  0.00     0.158 A 
BRANCH  15  18
ATOM     18  O   UNL     1      15.223  -7.120  15.094  1.00  0.00    -0.504 OA
ATOM     19  H   UNL     1      14.365  -7.251  15.617  1.00  0.00     0.293 HD
ENDBRANCH  15  18
BRANCH  17  20
ATOM     20  O   UNL     1      15.820  -9.338  13.526  1.00  0.00    -0.504 OA
ATOM     21  H   UNL     1      16.348 -10.058  13.048  1.00  0.00     0.293 HD
ENDBRANCH  17  20
ENDBRANCH   1  12
BRANCH   6  22
ATOM     22  O   UNL     1      14.303  -6.244   4.417  1.00  0.00    -0.507 OA
ATOM     23  H   UNL     1      14.145  -7.010   3.772  1.00  0.00     0.293 HD
ENDBRANCH   6  22
BRANCH   8  24
ATOM     24  O   UNL     1      19.081  -5.780   4.908  1.00  0.00    -0.508 OA
ATOM     25  H   UNL     1      19.271  -4.981   4.314  1.00  0.00     0.293 HD
ENDBRANCH   8  24
TORSDOF 5
ENDMDL
MODEL 5
REMARK VINA RESULT:    -5.157      9.231     11.272
REMARK INTER + INTRA:          -6.355
REMARK INTER:                  -6.088
REMARK INTRA:                  -0.267
REMARK UNBOUND:                -0.293
REMARK SMILES O=c1cc(-c2ccc(O)c(O)c2)oc2cc(O)cc(O)c12
REMARK SMILES IDX 4 1 3 2 2 3 1 4 21 5 19 6 18 7 16 8 15 9 14 10 13 11 5 12
REMARK SMILES IDX 6 13 7 14 8 15 12 16 10 17 9 18 11 20 20 22 17 24
REMARK H PARENT 9 19 11 21 20 23 17 25
REMARK Flexibility Score: inf
ROOT
ATOM      1  C   UNL     1      14.435 -10.824  11.368  1.00  0.00     0.138 A 
ATOM      2  C   UNL     1      14.469 -10.299  10.066  1.00  0.00     0.100 A 
ATOM      3  C   UNL     1      14.743  -8.944   9.878  1.00  0.00     0.197 A 
ATOM      4  O   UNL     1      14.773  -8.482   8.705  1.00  0.00    -0.289 OA
ATOM      5  C   UNL     1      14.985  -8.122  10.997  1.00  0.00     0.107 A 
ATOM      6  C   UNL     1      15.269  -6.739  10.896  1.00  0.00     0.134 A 
ATOM      7  C   UNL     1      15.504  -5.991  12.059  1.00  0.00     0.093 A 
ATOM      8  C   UNL     1      15.461  -6.597  13.317  1.00  0.00     0.123 A 
ATOM      9  C   UNL     1      15.182  -7.963  13.423  1.00  0.00     0.094 A 
ATOM     10  C   UNL     1      14.943  -8.726  12.276  1.00  0.00     0.146 A 
ATOM     11  O   UNL     1      14.678 -10.023  12.403  1.00  0.00    -0.456 OA
ENDROOT
BRANCH   1  12
ATOM     12  C   UNL     1      14.150 -12.258  11.628  1.00  0.00     0.021 A 
ATOM     13  C   UNL     1      12.820 -12.712  11.610  1.00  0.00     0.016 A 
ATOM     14  C   UNL     1      12.525 -14.058  11.842  1.00  0.00     0.051 A 
ATOM     15  C   UNL     1      13.555 -14.974  12.087  1.00  0.00     0.157 A 
ATOM     16  C   UNL     1      15.183 -13.189  11.862  1.00  0.00     0.062 A 
ATOM     17  C   UNL     1      14.885 -14.539  12.093  1.00  0.00     0.158 A 
BRANCH  15  18
ATOM     18  O   UNL     1      13.264 -16.317  12.322  1.00  0.00    -0.504 OA
ATOM     19  H   UNL     1      13.610 -17.048  11.711  1.00  0.00     0.293 HD
ENDBRANCH  15  18
BRANCH  17  20
ATOM     20  O   UNL     1      15.909 -15.456  12.326  1.00  0.00    -0.504 OA
ATOM     21  H   UNL     1      15.730 -16.352  12.763  1.00  0.00     0.293 HD
ENDBRANCH  17  20
ENDBRANCH   1  12
BRANCH   6  22
ATOM     22  O   UNL     1      15.319  -6.106   9.653  1.00  0.00    -0.507 OA
ATOM     23  H   UNL     1      14.536  -5.569   9.297  1.00  0.00     0.293 HD
ENDBRANCH   6  22
BRANCH   8  24
ATOM     24  O   UNL     1      15.700  -5.831  14.456  1.00  0.00    -0.508 OA
ATOM     25  H   UNL     1      15.858  -4.831  14.399  1.00  0.00     0.293 HD
ENDBRANCH   8  24
TORSDOF 5
ENDMDL
MODEL 6
REMARK VINA RESULT:    -5.134      2.054      7.199
REMARK INTER + INTRA:          -6.327
REMARK INTER:                  -6.009
REMARK INTRA:                  -0.318
REMARK UNBOUND:                -0.293
REMARK SMILES O=c1cc(-c2ccc(O)c(O)c2)oc2cc(O)cc(O)c12
REMARK SMILES IDX 4 1 3 2 2 3 1 4 21 5 19 6 18 7 16 8 15 9 14 10 13 11 5 12
REMARK SMILES IDX 6 13 7 14 8 15 12 16 10 17 9 18 11 20 20 22 17 24
REMARK H PARENT 9 19 11 21 20 23 17 25
REMARK Flexibility Score: inf
ROOT
ATOM      1  C   UNL     1      17.012 -14.473  20.025  1.00  0.00     0.138 A 
ATOM      2  C   UNL     1      17.313 -15.392  21.043  1.00  0.00     0.100 A 
ATOM      3  C   UNL     1      16.539 -16.545  21.178  1.00  0.00     0.197 A 
ATOM      4  O   UNL     1      16.817 -17.365  22.094  1.00  0.00    -0.289 OA
ATOM      5  C   UNL     1      15.469 -16.773  20.289  1.00  0.00     0.107 A 
ATOM      6  C   UNL     1      14.635 -17.914  20.356  1.00  0.00     0.134 A 
ATOM      7  C   UNL     1      13.594 -18.069  19.429  1.00  0.00     0.093 A 
ATOM      8  C   UNL     1      13.372 -17.108  18.439  1.00  0.00     0.123 A 
ATOM      9  C   UNL     1      14.193 -15.979  18.368  1.00  0.00     0.094 A 
ATOM     10  C   UNL     1      15.236 -15.805  19.283  1.00  0.00     0.146 A 
ATOM     11  O   UNL     1      16.002 -14.722  19.195  1.00  0.00    -0.456 OA
ENDROOT
BRANCH   1  12
ATOM     12  C   UNL     1      17.803 -13.230  19.834  1.00  0.00     0.021 A 
ATOM     13  C   UNL     1      18.913 -12.984  20.659  1.00  0.00     0.016 A 
ATOM     14  C   UNL     1      19.679 -11.827  20.495  1.00  0.00     0.051 A 
ATOM     15  C   UNL     1      19.352 -10.900  19.498  1.00  0.00     0.157 A 
ATOM     16  C   UNL     1      17.489 -12.300  18.822  1.00  0.00     0.062 A 
ATOM     17  C   UNL     1      18.259 -11.139  18.658  1.00  0.00     0.158 A 
BRANCH  15  18
ATOM     18  O   UNL     1      20.112  -9.743  19.332  1.00  0.00    -0.504 OA
ATOM     19  H   UNL     1      19.978  -8.932  19.923  1.00  0.00     0.293 HD
ENDBRANCH  15  18
BRANCH  17  20
ATOM     20  O   UNL     1      17.943 -10.220  17.658  1.00  0.00    -0.504 OA
ATOM     21  H   UNL     1      17.170 -10.373  17.022  1.00  0.00     0.293 HD
ENDBRANCH  17  20
ENDBRANCH   1  12
BRANCH   6  22
ATOM     22  O   UNL     1      14.832 -18.890  21.333  1.00  0.00    -0.507 OA
ATOM     23  H   UNL     1      15.622 -19.525  21.300  1.00  0.00     0.293 HD
ENDBRANCH   6  22
BRANCH   8  24
ATOM     24  O   UNL     1      12.332 -17.288  17.530  1.00  0.00    -0.508 OA
ATOM     25  H   UNL     1      12.183 -18.174  17.062  1.00  0.00     0.293 HD
ENDBRANCH   8  24
TORSDOF 5
ENDMDL
MODEL 7
REMARK VINA RESULT:    -5.062      9.417     12.433
REMARK INTER + INTRA:          -6.243
REMARK INTER:                  -5.973
REMARK INTRA:                  -0.270
REMARK UNBOUND:                -0.293
REMARK SMILES O=c1cc(-c2ccc(O)c(O)c2)oc2cc(O)cc(O)c12
REMARK SMILES IDX 4 1 3 2 2 3 1 4 21 5 19 6 18 7 16 8 15 9 14 10 13 11 5 12
REMARK SMILES IDX 6 13 7 14 8 15 12 16 10 17 9 18 11 20 20 22 17 24
REMARK H PARENT 9 19 11 21 20 23 17 25
REMARK Flexibility Score: inf
ROOT
ATOM      1  C   UNL     1      25.081 -12.826  17.915  1.00  0.00     0.138 A 
ATOM      2  C   UNL     1      25.493 -11.937  18.921  1.00  0.00     0.100 A 
ATOM      3  C   UNL     1      25.934 -10.661  18.572  1.00  0.00     0.197 A 
ATOM      4  O   UNL     1      26.301  -9.869  19.483  1.00  0.00    -0.289 OA
ATOM      5  C   UNL     1      25.958 -10.280  17.215  1.00  0.00     0.107 A 
ATOM      6  C   UNL     1      26.392  -9.007  16.774  1.00  0.00     0.134 A 
ATOM      7  C   UNL     1      26.380  -8.704  15.405  1.00  0.00     0.093 A 
ATOM      8  C   UNL     1      25.943  -9.646  14.471  1.00  0.00     0.123 A 
ATOM      9  C   UNL     1      25.513 -10.905  14.900  1.00  0.00     0.094 A 
ATOM     10  C   UNL     1      25.518 -11.228  16.261  1.00  0.00     0.146 A 
ATOM     11  O   UNL     1      25.106 -12.432  16.644  1.00  0.00    -0.456 OA
ENDROOT
BRANCH   1  12
ATOM     12  C   UNL     1      24.601 -14.195  18.228  1.00  0.00     0.021 A 
ATOM     13  C   UNL     1      23.370 -14.362  18.885  1.00  0.00     0.016 A 
ATOM     14  C   UNL     1      22.890 -15.640  19.184  1.00  0.00     0.051 A 
ATOM     15  C   UNL     1      23.630 -16.773  18.825  1.00  0.00     0.157 A 
ATOM     16  C   UNL     1      25.334 -15.341  17.858  1.00  0.00     0.062 A 
ATOM     17  C   UNL     1      24.851 -16.623  18.157  1.00  0.00     0.158 A 
BRANCH  15  18
ATOM     18  O   UNL     1      23.157 -18.050  19.123  1.00  0.00    -0.504 OA
ATOM     19  H   UNL     1      22.166 -18.260  19.127  1.00  0.00     0.293 HD
ENDBRANCH  15  18
BRANCH  17  20
ATOM     20  O   UNL     1      25.580 -17.754  17.791  1.00  0.00    -0.504 OA
ATOM     21  H   UNL     1      25.873 -17.909  16.834  1.00  0.00     0.293 HD
ENDBRANCH  17  20
ENDBRANCH   1  12
BRANCH   6  22
ATOM     22  O   UNL     1      26.834  -8.045  17.685  1.00  0.00    -0.507 OA
ATOM     23  H   UNL     1      26.448  -7.980  18.620  1.00  0.00     0.293 HD
ENDBRANCH   6  22
BRANCH   8  24
ATOM     24  O   UNL     1      25.940  -9.319  13.117  1.00  0.00    -0.508 OA
ATOM     25  H   UNL     1      25.946 -10.034  12.399  1.00  0.00     0.293 HD
ENDBRANCH   8  24
TORSDOF 5
ENDMDL
MODEL 8
REMARK VINA RESULT:    -4.908     11.589     14.368
REMARK INTER + INTRA:          -6.062
REMARK INTER:                  -5.784
REMARK INTRA:                  -0.278
REMARK UNBOUND:                -0.293
REMARK SMILES O=c1cc(-c2ccc(O)c(O)c2)oc2cc(O)cc(O)c12
REMARK SMILES IDX 4 1 3 2 2 3 1 4 21 5 19 6 18 7 16 8 15 9 14 10 13 11 5 12
REMARK SMILES IDX 6 13 7 14 8 15 12 16 10 17 9 18 11 20 20 22 17 24
REMARK H PARENT 9 19 11 21 20 23 17 25
REMARK Flexibility Score: inf
ROOT
ATOM      1  C   UNL     1      15.247  -6.138  12.970  1.00  0.00     0.138 A 
ATOM      2  C   UNL     1      15.295  -7.490  13.348  1.00  0.00     0.100 A 
ATOM      3  C   UNL     1      15.140  -8.481  12.379  1.00  0.00     0.197 A 
ATOM      4  O   UNL     1      15.185  -9.692  12.729  1.00  0.00    -0.289 OA
ATOM      5  C   UNL     1      14.940  -8.113  11.033  1.00  0.00     0.107 A 
ATOM      6  C   UNL     1      14.772  -9.052   9.988  1.00  0.00     0.134 A 
ATOM      7  C   UNL     1      14.584  -8.603   8.673  1.00  0.00     0.093 A 
ATOM      8  C   UNL     1      14.561  -7.237   8.383  1.00  0.00     0.123 A 
ATOM      9  C   UNL     1      14.726  -6.304   9.411  1.00  0.00     0.094 A 
ATOM     10  C   UNL     1      14.914  -6.730  10.729  1.00  0.00     0.146 A 
ATOM     11  O   UNL     1      15.068  -5.823  11.689  1.00  0.00    -0.456 OA
ENDROOT
BRANCH   1  12
ATOM     12  C   UNL     1      15.408  -5.042  13.958  1.00  0.00     0.021 A 
ATOM     13  C   UNL     1      16.241  -3.952  13.652  1.00  0.00     0.016 A 
ATOM     14  C   UNL     1      16.403  -2.903  14.561  1.00  0.00     0.051 A 
ATOM     15  C   UNL     1      15.728  -2.922  15.787  1.00  0.00     0.157 A 
ATOM     16  C   UNL     1      14.721  -5.047  15.189  1.00  0.00     0.062 A 
ATOM     17  C   UNL     1      14.883  -3.993  16.100  1.00  0.00     0.158 A 
BRANCH  15  18
ATOM     18  O   UNL     1      15.888  -1.879  16.698  1.00  0.00    -0.504 OA
ATOM     19  H   UNL     1      16.733  -1.781  17.248  1.00  0.00     0.293 HD
ENDBRANCH  15  18
BRANCH  17  20
ATOM     20  O   UNL     1      14.204  -4.004  17.318  1.00  0.00    -0.504 OA
ATOM     21  H   UNL     1      13.458  -3.348  17.515  1.00  0.00     0.293 HD
ENDBRANCH  17  20
ENDBRANCH   1  12
BRANCH   6  22
ATOM     22  O   UNL     1      14.791 -10.424  10.248  1.00  0.00    -0.507 OA
ATOM     23  H   UNL     1      15.629 -10.979  10.115  1.00  0.00     0.293 HD
ENDBRANCH   6  22
BRANCH   8  24
ATOM     24  O   UNL     1      14.374  -6.818   7.068  1.00  0.00    -0.508 OA
ATOM     25  H   UNL     1      14.750  -5.939   6.733  1.00  0.00     0.293 HD
ENDBRANCH   8  24
TORSDOF 5
ENDMDL
MODEL 9
REMARK VINA RESULT:    -4.737      1.756      6.993
REMARK INTER + INTRA:          -5.861
REMARK INTER:                  -5.596
REMARK INTRA:                  -0.264
REMARK UNBOUND:                -0.293
REMARK SMILES O=c1cc(-c2ccc(O)c(O)c2)oc2cc(O)cc(O)c12
REMARK SMILES IDX 4 1 3 2 2 3 1 4 21 5 19 6 18 7 16 8 15 9 14 10 13 11 5 12
REMARK SMILES IDX 6 13 7 14 8 15 12 16 10 17 9 18 11 20 20 22 17 24
REMARK H PARENT 9 19 11 21 20 23 17 25
REMARK Flexibility Score: inf
ROOT
ATOM      1  C   UNL     1      15.439 -15.241  19.986  1.00  0.00     0.138 A 
ATOM      2  C   UNL     1      15.158 -15.807  21.240  1.00  0.00     0.100 A 
ATOM      3  C   UNL     1      14.075 -16.676  21.374  1.00  0.00     0.197 A 
ATOM      4  O   UNL     1      13.831 -17.180  22.504  1.00  0.00    -0.289 OA
ATOM      5  C   UNL     1      13.281 -16.977  20.250  1.00  0.00     0.107 A 
ATOM      6  C   UNL     1      12.165 -17.846  20.298  1.00  0.00     0.134 A 
ATOM      7  C   UNL     1      11.429 -18.098  19.131  1.00  0.00     0.093 A 
ATOM      8  C   UNL     1      11.786 -17.500  17.920  1.00  0.00     0.123 A 
ATOM      9  C   UNL     1      12.888 -16.640  17.866  1.00  0.00     0.094 A 
ATOM     10  C   UNL     1      13.634 -16.375  19.018  1.00  0.00     0.146 A 
ATOM     11  O   UNL     1      14.677 -15.553  18.941  1.00  0.00    -0.456 OA
ENDROOT
BRANCH   1  12
ATOM     12  C   UNL     1      16.579 -14.311  19.785  1.00  0.00     0.021 A 
ATOM     13  C   UNL     1      16.330 -12.936  19.631  1.00  0.00     0.016 A 
ATOM     14  C   UNL     1      17.385 -12.039  19.448  1.00  0.00     0.051 A 
ATOM     15  C   UNL     1      18.707 -12.499  19.425  1.00  0.00     0.157 A 
ATOM     16  C   UNL     1      17.914 -14.765  19.774  1.00  0.00     0.062 A 
ATOM     17  C   UNL     1      18.972 -13.863  19.592  1.00  0.00     0.158 A 
BRANCH  15  18
ATOM     18  O   UNL     1      19.763 -11.607  19.242  1.00  0.00    -0.504 OA
ATOM     19  H   UNL     1      19.615 -10.686  18.845  1.00  0.00     0.293 HD
ENDBRANCH  15  18
BRANCH  17  20
ATOM     20  O   UNL     1      20.290 -14.316  19.580  1.00  0.00    -0.504 OA
ATOM     21  H   UNL     1      21.003 -13.863  19.022  1.00  0.00     0.293 HD
ENDBRANCH  17  20
ENDBRANCH   1  12
BRANCH   6  22
ATOM     22  O   UNL     1      11.784 -18.458  21.493  1.00  0.00    -0.507 OA
ATOM     23  H   UNL     1      12.239 -19.300  21.828  1.00  0.00     0.293 HD
ENDBRANCH   6  22
BRANCH   8  24
ATOM     24  O   UNL     1      11.038 -17.768  16.776  1.00  0.00    -0.508 OA
ATOM     25  H   UNL     1      10.042 -17.945  16.823  1.00  0.00     0.293 HD
ENDBRANCH   8  24
TORSDOF 5
ENDMDL
