MODEL 1
REMARK VINA RESULT:    21.536      0.000      0.000
REMARK INTER + INTRA:          46.221
REMARK INTER:                  46.715
REMARK INTRA:                  -0.495
REMARK UNBOUND:                -0.495
REMARK SMILES CCCCCCCCCCCCCCCCCCCCCC(=O)[O-]
REMARK SMILES IDX 12 1 11 2 10 3 9 4 8 5 7 6 6 7 5 8 4 9 3 10 2 11 1 12 13 13
REMARK SMILES IDX 14 14 15 15 16 16 17 17 18 18 19 19 20 20 21 21 22 22 23 23
REMARK SMILES IDX 24 24
REMARK H PARENT
REMARK Flexibility Score: inf
ROOT
ATOM      1  C   UNL     1     -15.297 -12.398 -22.541  1.00  0.00     0.000 C 
ENDROOT
BRANCH   1   2
ATOM      2  C   UNL     1     -14.613 -12.566 -23.906  1.00  0.00     0.000 C 
BRANCH   2   3
ATOM      3  C   UNL     1     -13.880 -11.283 -24.316  1.00  0.00     0.000 C 
BRANCH   3   4
ATOM      4  C   UNL     1     -14.165 -10.146 -23.323  1.00  0.00    -0.000 C 
BRANCH   4   5
ATOM      5  C   UNL     1     -14.283  -8.769 -24.002  1.00  0.00    -0.000 C 
BRANCH   5   6
ATOM      6  C   UNL     1     -15.039  -7.700 -23.192  1.00  0.00    -0.000 C 
BRANCH   6   7
ATOM      7  C   UNL     1     -14.120  -6.887 -22.264  1.00  0.00    -0.000 C 
BRANCH   7   8
ATOM      8  C   UNL     1     -13.082  -7.758 -21.532  1.00  0.00    -0.000 C 
BRANCH   8   9
ATOM      9  C   UNL     1     -12.990  -7.533 -20.012  1.00  0.00    -0.000 C 
BRANCH   9  10
ATOM     10  C   UNL     1     -12.202  -8.632 -19.286  1.00  0.00    -0.000 C 
BRANCH  10  11
ATOM     11  C   UNL     1     -12.795  -8.912 -17.901  1.00  0.00    -0.003 C 
ATOM     12  C   UNL     1     -14.132  -8.199 -17.719  1.00  0.00     0.004 C 
ENDBRANCH  10  11
ENDBRANCH   9  10
ENDBRANCH   8   9
ENDBRANCH   7   8
ENDBRANCH   6   7
ENDBRANCH   5   6
ENDBRANCH   4   5
ENDBRANCH   3   4
ENDBRANCH   2   3
ENDBRANCH   1   2
BRANCH   1  13
ATOM     13  C   UNL     1     -16.424 -13.419 -22.306  1.00  0.00     0.000 C 
BRANCH  13  14
ATOM     14  C   UNL     1     -16.035 -14.628 -21.431  1.00  0.00     0.000 C 
BRANCH  14  15
ATOM     15  C   UNL     1     -16.576 -14.591 -19.989  1.00  0.00     0.000 C 
BRANCH  15  16
ATOM     16  C   UNL     1     -16.522 -15.936 -19.236  1.00  0.00     0.000 C 
BRANCH  16  17
ATOM     17  C   UNL     1     -17.406 -16.017 -17.978  1.00  0.00     0.000 C 
BRANCH  17  18
ATOM     18  C   UNL     1     -16.588 -16.117 -16.680  1.00  0.00     0.000 C 
BRANCH  18  19
ATOM     19  C   UNL     1     -17.431 -16.598 -15.487  1.00  0.00     0.000 C 
BRANCH  19  20
ATOM     20  C   UNL     1     -18.938 -16.379 -15.701  1.00  0.00     0.006 C 
BRANCH  20  21
ATOM     21  C   UNL     1     -19.646 -17.653 -16.182  1.00  0.00     0.053 C 
BRANCH  21  22
ATOM     22  C   UNL     1     -21.005 -17.801 -15.568  1.00  0.00     0.041 C 
ATOM     23  O   UNL     1     -21.626 -16.788 -15.152  1.00  0.00    -0.550 OA
ATOM     24  O   UNL     1     -21.573 -19.062 -15.427  1.00  0.00    -0.550 OA
ENDBRANCH  21  22
ENDBRANCH  20  21
ENDBRANCH  19  20
ENDBRANCH  18  19
ENDBRANCH  17  18
ENDBRANCH  16  17
ENDBRANCH  15  16
ENDBRANCH  14  15
ENDBRANCH  13  14
ENDBRANCH   1  13
TORSDOF 20
ENDMDL
MODEL 2
REMARK VINA RESULT:    21.553      0.841      1.128
REMARK INTER + INTRA:          46.257
REMARK INTER:                  46.617
REMARK INTRA:                  -0.360
REMARK UNBOUND:                -0.495
REMARK SMILES CCCCCCCCCCCCCCCCCCCCCC(=O)[O-]
REMARK SMILES IDX 12 1 11 2 10 3 9 4 8 5 7 6 6 7 5 8 4 9 3 10 2 11 1 12 13 13
REMARK SMILES IDX 14 14 15 15 16 16 17 17 18 18 19 19 20 20 21 21 22 22 23 23
REMARK SMILES IDX 24 24
REMARK H PARENT
REMARK Flexibility Score: inf
ROOT
ATOM      1  C   UNL     1     -15.754 -12.838 -22.234  1.00  0.00     0.000 C 
ENDROOT
BRANCH   1   2
ATOM      2  C   UNL     1     -15.372 -12.731 -23.718  1.00  0.00     0.000 C 
BRANCH   2   3
ATOM      3  C   UNL     1     -14.042 -11.987 -23.891  1.00  0.00     0.000 C 
BRANCH   3   4
ATOM      4  C   UNL     1     -14.039 -10.674 -23.095  1.00  0.00    -0.000 C 
BRANCH   4   5
ATOM      5  C   UNL     1     -14.182  -9.428 -23.989  1.00  0.00    -0.000 C 
BRANCH   5   6
ATOM      6  C   UNL     1     -14.765  -8.184 -23.292  1.00  0.00    -0.000 C 
BRANCH   6   7
ATOM      7  C   UNL     1     -13.837  -7.614 -22.206  1.00  0.00    -0.000 C 
BRANCH   7   8
ATOM      8  C   UNL     1     -12.519  -8.399 -22.069  1.00  0.00    -0.000 C 
BRANCH   8   9
ATOM      9  C   UNL     1     -12.065  -8.675 -20.623  1.00  0.00    -0.000 C 
BRANCH   9  10
ATOM     10  C   UNL     1     -12.767  -7.782 -19.591  1.00  0.00    -0.000 C 
BRANCH  10  11
ATOM     11  C   UNL     1     -12.371  -8.175 -18.164  1.00  0.00    -0.003 C 
ATOM     12  C   UNL     1     -13.198  -9.357 -17.667  1.00  0.00     0.004 C 
ENDBRANCH  10  11
ENDBRANCH   9  10
ENDBRANCH   8   9
ENDBRANCH   7   8
ENDBRANCH   6   7
ENDBRANCH   5   6
ENDBRANCH   4   5
ENDBRANCH   3   4
ENDBRANCH   2   3
ENDBRANCH   1   2
BRANCH   1  13
ATOM     13  C   UNL     1     -16.515 -14.133 -21.903  1.00  0.00     0.000 C 
BRANCH  13  14
ATOM     14  C   UNL     1     -16.095 -14.816 -20.586  1.00  0.00     0.000 C 
BRANCH  14  15
ATOM     15  C   UNL     1     -17.227 -14.997 -19.555  1.00  0.00     0.000 C 
BRANCH  15  16
ATOM     16  C   UNL     1     -16.897 -15.944 -18.384  1.00  0.00     0.000 C 
BRANCH  16  17
ATOM     17  C   UNL     1     -17.267 -15.410 -16.988  1.00  0.00     0.000 C 
BRANCH  17  18
ATOM     18  C   UNL     1     -16.929 -16.401 -15.861  1.00  0.00     0.000 C 
BRANCH  18  19
ATOM     19  C   UNL     1     -18.152 -17.210 -15.400  1.00  0.00     0.000 C 
BRANCH  19  20
ATOM     20  C   UNL     1     -19.318 -17.141 -16.401  1.00  0.00     0.006 C 
BRANCH  20  21
ATOM     21  C   UNL     1     -20.366 -18.234 -16.146  1.00  0.00     0.053 C 
BRANCH  21  22
ATOM     22  C   UNL     1     -21.439 -17.770 -15.209  1.00  0.00     0.041 C 
ATOM     23  O   UNL     1     -21.903 -18.555 -14.340  1.00  0.00    -0.550 OA
ATOM     24  O   UNL     1     -21.947 -16.481 -15.314  1.00  0.00    -0.550 OA
ENDBRANCH  21  22
ENDBRANCH  20  21
ENDBRANCH  19  20
ENDBRANCH  18  19
ENDBRANCH  17  18
ENDBRANCH  16  17
ENDBRANCH  15  16
ENDBRANCH  14  15
ENDBRANCH  13  14
ENDBRANCH   1  13
TORSDOF 20
ENDMDL
MODEL 3
REMARK VINA RESULT:    21.682      3.647      9.818
REMARK INTER + INTRA:          46.537
REMARK INTER:                  47.264
REMARK INTRA:                  -0.726
REMARK UNBOUND:                -0.495
REMARK SMILES CCCCCCCCCCCCCCCCCCCCCC(=O)[O-]
REMARK SMILES IDX 12 1 11 2 10 3 9 4 8 5 7 6 6 7 5 8 4 9 3 10 2 11 1 12 13 13
REMARK SMILES IDX 14 14 15 15 16 16 17 17 18 18 19 19 20 20 21 21 22 22 23 23
REMARK SMILES IDX 24 24
REMARK H PARENT
REMARK Flexibility Score: inf
ROOT
ATOM      1  C   UNL     1     -15.725 -12.337 -22.454  1.00  0.00     0.000 C 
ENDROOT
BRANCH   1   2
ATOM      2  C   UNL     1     -16.285 -13.767 -22.479  1.00  0.00     0.000 C 
BRANCH   2   3
ATOM      3  C   UNL     1     -16.897 -14.142 -21.123  1.00  0.00     0.000 C 
BRANCH   3   4
ATOM      4  C   UNL     1     -15.853 -14.809 -20.215  1.00  0.00    -0.000 C 
BRANCH   4   5
ATOM      5  C   UNL     1     -16.427 -15.981 -19.398  1.00  0.00    -0.000 C 
BRANCH   5   6
ATOM      6  C   UNL     1     -17.374 -15.582 -18.252  1.00  0.00    -0.000 C 
BRANCH   6   7
ATOM      7  C   UNL     1     -16.703 -15.644 -16.869  1.00  0.00    -0.000 C 
BRANCH   7   8
ATOM      8  C   UNL     1     -17.334 -16.701 -15.942  1.00  0.00    -0.000 C 
BRANCH   8   9
ATOM      9  C   UNL     1     -18.855 -16.572 -15.739  1.00  0.00    -0.000 C 
BRANCH   9  10
ATOM     10  C   UNL     1     -19.658 -17.605 -16.542  1.00  0.00    -0.000 C 
BRANCH  10  11
ATOM     11  C   UNL     1     -20.595 -18.403 -15.628  1.00  0.00    -0.003 C 
ATOM     12  C   UNL     1     -21.807 -17.572 -15.217  1.00  0.00     0.004 C 
ENDBRANCH  10  11
ENDBRANCH   9  10
ENDBRANCH   8   9
ENDBRANCH   7   8
ENDBRANCH   6   7
ENDBRANCH   5   6
ENDBRANCH   4   5
ENDBRANCH   3   4
ENDBRANCH   2   3
ENDBRANCH   1   2
BRANCH   1  13
ATOM     13  C   UNL     1     -14.270 -12.254 -22.945  1.00  0.00     0.000 C 
BRANCH  13  14
ATOM     14  C   UNL     1     -14.089 -11.627 -24.342  1.00  0.00     0.000 C 
BRANCH  14  15
ATOM     15  C   UNL     1     -13.878 -10.100 -24.349  1.00  0.00     0.000 C 
BRANCH  15  16
ATOM     16  C   UNL     1     -14.779  -9.313 -23.376  1.00  0.00     0.000 C 
BRANCH  16  17
ATOM     17  C   UNL     1     -14.457  -7.812 -23.256  1.00  0.00     0.000 C 
BRANCH  17  18
ATOM     18  C   UNL     1     -13.484  -7.500 -22.107  1.00  0.00     0.000 C 
BRANCH  18  19
ATOM     19  C   UNL     1     -12.398  -8.577 -21.944  1.00  0.00     0.000 C 
BRANCH  19  20
ATOM     20  C   UNL     1     -12.001  -8.800 -20.475  1.00  0.00     0.006 C 
BRANCH  20  21
ATOM     21  C   UNL     1     -12.698  -7.810 -19.530  1.00  0.00     0.053 C 
BRANCH  21  22
ATOM     22  C   UNL     1     -13.109  -8.462 -18.245  1.00  0.00     0.041 C 
ATOM     23  O   UNL     1     -13.777  -7.818 -17.394  1.00  0.00    -0.550 OA
ATOM     24  O   UNL     1     -12.729  -9.770 -17.974  1.00  0.00    -0.550 OA
ENDBRANCH  21  22
ENDBRANCH  20  21
ENDBRANCH  19  20
ENDBRANCH  18  19
ENDBRANCH  17  18
ENDBRANCH  16  17
ENDBRANCH  15  16
ENDBRANCH  14  15
ENDBRANCH  13  14
ENDBRANCH   1  13
TORSDOF 20
ENDMDL
MODEL 4
REMARK VINA RESULT:    21.745      4.159      5.226
REMARK INTER + INTRA:          46.674
REMARK INTER:                  47.533
REMARK INTRA:                  -0.859
REMARK UNBOUND:                -0.495
REMARK SMILES CCCCCCCCCCCCCCCCCCCCCC(=O)[O-]
REMARK SMILES IDX 12 1 11 2 10 3 9 4 8 5 7 6 6 7 5 8 4 9 3 10 2 11 1 12 13 13
REMARK SMILES IDX 14 14 15 15 16 16 17 17 18 18 19 19 20 20 21 21 22 22 23 23
REMARK SMILES IDX 24 24
REMARK H PARENT
REMARK Flexibility Score: inf
ROOT
ATOM      1  C   UNL     1     -14.217 -12.261 -22.999  1.00  0.00     0.000 C 
ENDROOT
BRANCH   1   2
ATOM      2  C   UNL     1     -13.971 -11.266 -24.143  1.00  0.00     0.000 C 
BRANCH   2   3
ATOM      3  C   UNL     1     -13.848  -9.833 -23.610  1.00  0.00     0.000 C 
BRANCH   3   4
ATOM      4  C   UNL     1     -15.027  -8.969 -24.079  1.00  0.00    -0.000 C 
BRANCH   4   5
ATOM      5  C   UNL     1     -15.087  -7.599 -23.377  1.00  0.00    -0.000 C 
BRANCH   5   6
ATOM      6  C   UNL     1     -13.736  -7.062 -22.870  1.00  0.00    -0.000 C 
BRANCH   6   7
ATOM      7  C   UNL     1     -13.480  -7.382 -21.387  1.00  0.00    -0.000 C 
BRANCH   7   8
ATOM      8  C   UNL     1     -12.427  -8.487 -21.184  1.00  0.00    -0.000 C 
BRANCH   8   9
ATOM      9  C   UNL     1     -11.941  -8.673 -19.735  1.00  0.00    -0.000 C 
BRANCH   9  10
ATOM     10  C   UNL     1     -12.597  -7.696 -18.750  1.00  0.00    -0.000 C 
BRANCH  10  11
ATOM     11  C   UNL     1     -13.493  -8.439 -17.752  1.00  0.00    -0.003 C 
ATOM     12  C   UNL     1     -13.056  -9.893 -17.595  1.00  0.00     0.004 C 
ENDBRANCH  10  11
ENDBRANCH   9  10
ENDBRANCH   8   9
ENDBRANCH   7   8
ENDBRANCH   6   7
ENDBRANCH   5   6
ENDBRANCH   4   5
ENDBRANCH   3   4
ENDBRANCH   2   3
ENDBRANCH   1   2
BRANCH   1  13
ATOM     13  C   UNL     1     -15.639 -12.168 -22.419  1.00  0.00     0.000 C 
BRANCH  13  14
ATOM     14  C   UNL     1     -16.364 -13.519 -22.253  1.00  0.00     0.000 C 
BRANCH  14  15
ATOM     15  C   UNL     1     -16.532 -14.332 -23.551  1.00  0.00     0.000 C 
BRANCH  15  16
ATOM     16  C   UNL     1     -17.571 -13.770 -24.543  1.00  0.00     0.000 C 
BRANCH  16  17
ATOM     17  C   UNL     1     -18.499 -12.683 -23.972  1.00  0.00     0.000 C 
BRANCH  17  18
ATOM     18  C   UNL     1     -19.751 -12.453 -24.835  1.00  0.00     0.000 C 
BRANCH  18  19
ATOM     19  C   UNL     1     -20.515 -13.755 -25.125  1.00  0.00     0.000 C 
BRANCH  19  20
ATOM     20  C   UNL     1     -21.908 -13.781 -24.474  1.00  0.00     0.006 C 
BRANCH  20  21
ATOM     21  C   UNL     1     -22.213 -15.132 -23.811  1.00  0.00     0.053 C 
BRANCH  21  22
ATOM     22  C   UNL     1     -22.446 -14.990 -22.338  1.00  0.00     0.041 C 
ATOM     23  O   UNL     1     -23.161 -15.827 -21.727  1.00  0.00    -0.550 OA
ATOM     24  O   UNL     1     -21.898 -13.917 -21.646  1.00  0.00    -0.550 OA
ENDBRANCH  21  22
ENDBRANCH  20  21
ENDBRANCH  19  20
ENDBRANCH  18  19
ENDBRANCH  17  18
ENDBRANCH  16  17
ENDBRANCH  15  16
ENDBRANCH  14  15
ENDBRANCH  13  14
ENDBRANCH   1  13
TORSDOF 20
ENDMDL
MODEL 5
REMARK VINA RESULT:    22.095      3.633     10.432
REMARK INTER + INTRA:          47.434
REMARK INTER:                  48.307
REMARK INTRA:                  -0.873
REMARK UNBOUND:                -0.495
REMARK SMILES CCCCCCCCCCCCCCCCCCCCCC(=O)[O-]
REMARK SMILES IDX 12 1 11 2 10 3 9 4 8 5 7 6 6 7 5 8 4 9 3 10 2 11 1 12 13 13
REMARK SMILES IDX 14 14 15 15 16 16 17 17 18 18 19 19 20 20 21 21 22 22 23 23
REMARK SMILES IDX 24 24
REMARK H PARENT
REMARK Flexibility Score: inf
ROOT
ATOM      1  C   UNL     1     -15.800 -14.343 -21.330  1.00  0.00     0.000 C 
ENDROOT
BRANCH   1   2
ATOM      2  C   UNL     1     -16.983 -14.784 -20.456  1.00  0.00     0.000 C 
BRANCH   2   3
ATOM      3  C   UNL     1     -16.501 -15.591 -19.244  1.00  0.00     0.000 C 
BRANCH   3   4
ATOM      4  C   UNL     1     -17.600 -15.688 -18.176  1.00  0.00    -0.000 C 
BRANCH   4   5
ATOM      5  C   UNL     1     -17.041 -15.754 -16.742  1.00  0.00    -0.000 C 
BRANCH   5   6
ATOM      6  C   UNL     1     -18.086 -16.015 -15.642  1.00  0.00    -0.000 C 
BRANCH   6   7
ATOM      7  C   UNL     1     -18.653 -17.445 -15.678  1.00  0.00    -0.000 C 
BRANCH   7   8
ATOM      8  C   UNL     1     -20.086 -17.509 -16.237  1.00  0.00    -0.000 C 
BRANCH   8   9
ATOM      9  C   UNL     1     -21.190 -17.742 -15.189  1.00  0.00    -0.000 C 
BRANCH   9  10
ATOM     10  C   UNL     1     -22.228 -16.611 -15.146  1.00  0.00    -0.000 C 
BRANCH  10  11
ATOM     11  C   UNL     1     -22.813 -16.454 -13.738  1.00  0.00    -0.003 C 
ATOM     12  C   UNL     1     -23.416 -15.067 -13.542  1.00  0.00     0.004 C 
ENDBRANCH  10  11
ENDBRANCH   9  10
ENDBRANCH   8   9
ENDBRANCH   7   8
ENDBRANCH   6   7
ENDBRANCH   5   6
ENDBRANCH   4   5
ENDBRANCH   3   4
ENDBRANCH   2   3
ENDBRANCH   1   2
BRANCH   1  13
ATOM     13  C   UNL     1     -16.221 -13.421 -22.488  1.00  0.00     0.000 C 
BRANCH  13  14
ATOM     14  C   UNL     1     -15.456 -12.084 -22.567  1.00  0.00     0.000 C 
BRANCH  14  15
ATOM     15  C   UNL     1     -14.378 -12.014 -23.666  1.00  0.00     0.000 C 
BRANCH  15  16
ATOM     16  C   UNL     1     -13.796 -10.609 -23.921  1.00  0.00     0.000 C 
BRANCH  16  17
ATOM     17  C   UNL     1     -14.686  -9.440 -23.461  1.00  0.00     0.000 C 
BRANCH  17  18
ATOM     18  C   UNL     1     -13.877  -8.187 -23.084  1.00  0.00     0.000 C 
BRANCH  18  19
ATOM     19  C   UNL     1     -12.812  -8.473 -22.013  1.00  0.00     0.000 C 
BRANCH  19  20
ATOM     20  C   UNL     1     -13.090  -7.738 -20.690  1.00  0.00     0.006 C 
BRANCH  20  21
ATOM     21  C   UNL     1     -12.198  -8.244 -19.548  1.00  0.00     0.053 C 
BRANCH  21  22
ATOM     22  C   UNL     1     -13.004  -8.676 -18.361  1.00  0.00     0.041 C 
ATOM     23  O   UNL     1     -13.917  -7.935 -17.912  1.00  0.00    -0.550 OA
ATOM     24  O   UNL     1     -12.727  -9.884 -17.733  1.00  0.00    -0.550 OA
ENDBRANCH  21  22
ENDBRANCH  20  21
ENDBRANCH  19  20
ENDBRANCH  18  19
ENDBRANCH  17  18
ENDBRANCH  16  17
ENDBRANCH  15  16
ENDBRANCH  14  15
ENDBRANCH  13  14
ENDBRANCH   1  13
TORSDOF 20
ENDMDL
MODEL 6
REMARK VINA RESULT:    22.240      4.415      5.467
REMARK INTER + INTRA:          47.748
REMARK INTER:                  48.536
REMARK INTRA:                  -0.787
REMARK UNBOUND:                -0.495
REMARK SMILES CCCCCCCCCCCCCCCCCCCCCC(=O)[O-]
REMARK SMILES IDX 12 1 11 2 10 3 9 4 8 5 7 6 6 7 5 8 4 9 3 10 2 11 1 12 13 13
REMARK SMILES IDX 14 14 15 15 16 16 17 17 18 18 19 19 20 20 21 21 22 22 23 23
REMARK SMILES IDX 24 24
REMARK H PARENT
REMARK Flexibility Score: inf
ROOT
ATOM      1  C   UNL     1     -14.266  -9.873 -23.710  1.00  0.00     0.000 C 
ENDROOT
BRANCH   1   2
ATOM      2  C   UNL     1     -13.507  -8.717 -23.041  1.00  0.00     0.000 C 
BRANCH   2   3
ATOM      3  C   UNL     1     -14.205  -7.376 -23.303  1.00  0.00     0.000 C 
BRANCH   3   4
ATOM      4  C   UNL     1     -15.643  -7.592 -23.795  1.00  0.00    -0.000 C 
BRANCH   4   5
ATOM      5  C   UNL     1     -16.700  -7.302 -22.714  1.00  0.00    -0.000 C 
BRANCH   5   6
ATOM      6  C   UNL     1     -16.314  -7.731 -21.286  1.00  0.00    -0.000 C 
BRANCH   6   7
ATOM      7  C   UNL     1     -15.812  -6.561 -20.422  1.00  0.00    -0.000 C 
BRANCH   7   8
ATOM      8  C   UNL     1     -14.352  -6.735 -19.965  1.00  0.00    -0.000 C 
BRANCH   8   9
ATOM      9  C   UNL     1     -14.162  -7.534 -18.663  1.00  0.00    -0.000 C 
BRANCH   9  10
ATOM     10  C   UNL     1     -12.725  -8.041 -18.472  1.00  0.00    -0.000 C 
BRANCH  10  11
ATOM     11  C   UNL     1     -12.473  -9.304 -19.303  1.00  0.00    -0.003 C 
ATOM     12  C   UNL     1     -11.898  -8.958 -20.673  1.00  0.00     0.004 C 
ENDBRANCH  10  11
ENDBRANCH   9  10
ENDBRANCH   8   9
ENDBRANCH   7   8
ENDBRANCH   6   7
ENDBRANCH   5   6
ENDBRANCH   4   5
ENDBRANCH   3   4
ENDBRANCH   2   3
ENDBRANCH   1   2
BRANCH   1  13
ATOM     13  C   UNL     1     -13.582 -11.236 -23.506  1.00  0.00     0.000 C 
BRANCH  13  14
ATOM     14  C   UNL     1     -14.529 -12.452 -23.546  1.00  0.00     0.000 C 
BRANCH  14  15
ATOM     15  C   UNL     1     -15.699 -12.400 -22.545  1.00  0.00     0.000 C 
BRANCH  15  16
ATOM     16  C   UNL     1     -16.643 -13.619 -22.580  1.00  0.00     0.000 C 
BRANCH  16  17
ATOM     17  C   UNL     1     -17.326 -13.878 -23.935  1.00  0.00     0.000 C 
BRANCH  17  18
ATOM     18  C   UNL     1     -18.344 -12.787 -24.308  1.00  0.00     0.000 C 
BRANCH  18  19
ATOM     19  C   UNL     1     -19.622 -13.364 -24.938  1.00  0.00     0.000 C 
BRANCH  19  20
ATOM     20  C   UNL     1     -20.894 -12.956 -24.174  1.00  0.00     0.006 C 
BRANCH  20  21
ATOM     21  C   UNL     1     -21.930 -14.088 -24.129  1.00  0.00     0.053 C 
BRANCH  21  22
ATOM     22  C   UNL     1     -22.243 -14.502 -22.723  1.00  0.00     0.041 C 
ATOM     23  O   UNL     1     -21.878 -13.783 -21.756  1.00  0.00    -0.550 OA
ATOM     24  O   UNL     1     -22.910 -15.697 -22.481  1.00  0.00    -0.550 OA
ENDBRANCH  21  22
ENDBRANCH  20  21
ENDBRANCH  19  20
ENDBRANCH  18  19
ENDBRANCH  17  18
ENDBRANCH  16  17
ENDBRANCH  15  16
ENDBRANCH  14  15
ENDBRANCH  13  14
ENDBRANCH   1  13
TORSDOF 20
ENDMDL
MODEL 7
REMARK VINA RESULT:    22.261      0.771      2.009
REMARK INTER + INTRA:          47.794
REMARK INTER:                  48.665
REMARK INTRA:                  -0.871
REMARK UNBOUND:                -0.495
REMARK SMILES CCCCCCCCCCCCCCCCCCCCCC(=O)[O-]
REMARK SMILES IDX 12 1 11 2 10 3 9 4 8 5 7 6 6 7 5 8 4 9 3 10 2 11 1 12 13 13
REMARK SMILES IDX 14 14 15 15 16 16 17 17 18 18 19 19 20 20 21 21 22 22 23 23
REMARK SMILES IDX 24 24
REMARK H PARENT
REMARK Flexibility Score: inf
ROOT
ATOM      1  C   UNL     1     -16.858 -13.851 -21.352  1.00  0.00     0.000 C 
ENDROOT
BRANCH   1   2
ATOM      2  C   UNL     1     -16.356 -13.420 -22.738  1.00  0.00     0.000 C 
BRANCH   2   3
ATOM      3  C   UNL     1     -15.208 -12.410 -22.618  1.00  0.00     0.000 C 
BRANCH   3   4
ATOM      4  C   UNL     1     -14.363 -12.384 -23.900  1.00  0.00    -0.000 C 
BRANCH   4   5
ATOM      5  C   UNL     1     -14.018 -10.957 -24.365  1.00  0.00    -0.000 C 
BRANCH   5   6
ATOM      6  C   UNL     1     -13.769  -9.940 -23.236  1.00  0.00    -0.000 C 
BRANCH   6   7
ATOM      7  C   UNL     1     -14.503  -8.606 -23.456  1.00  0.00    -0.000 C 
BRANCH   7   8
ATOM      8  C   UNL     1     -13.934  -7.459 -22.599  1.00  0.00    -0.000 C 
BRANCH   8   9
ATOM      9  C   UNL     1     -12.884  -7.879 -21.554  1.00  0.00    -0.000 C 
BRANCH   9  10
ATOM     10  C   UNL     1     -13.337  -7.627 -20.109  1.00  0.00    -0.000 C 
BRANCH  10  11
ATOM     11  C   UNL     1     -12.266  -8.080 -19.110  1.00  0.00    -0.003 C 
ATOM     12  C   UNL     1     -12.871  -8.943 -18.007  1.00  0.00     0.004 C 
ENDBRANCH  10  11
ENDBRANCH   9  10
ENDBRANCH   8   9
ENDBRANCH   7   8
ENDBRANCH   6   7
ENDBRANCH   5   6
ENDBRANCH   4   5
ENDBRANCH   3   4
ENDBRANCH   2   3
ENDBRANCH   1   2
BRANCH   1  13
ATOM     13  C   UNL     1     -15.763 -14.513 -20.498  1.00  0.00     0.000 C 
BRANCH  13  14
ATOM     14  C   UNL     1     -16.186 -15.821 -19.799  1.00  0.00     0.000 C 
BRANCH  14  15
ATOM     15  C   UNL     1     -17.361 -15.682 -18.811  1.00  0.00     0.000 C 
BRANCH  15  16
ATOM     16  C   UNL     1     -16.975 -15.184 -17.403  1.00  0.00     0.000 C 
BRANCH  16  17
ATOM     17  C   UNL     1     -16.417 -16.264 -16.458  1.00  0.00     0.000 C 
BRANCH  17  18
ATOM     18  C   UNL     1     -17.483 -16.831 -15.506  1.00  0.00     0.000 C 
BRANCH  18  19
ATOM     19  C   UNL     1     -18.898 -16.778 -16.105  1.00  0.00     0.000 C 
BRANCH  19  20
ATOM     20  C   UNL     1     -19.717 -18.044 -15.800  1.00  0.00     0.006 C 
BRANCH  20  21
ATOM     21  C   UNL     1     -21.218 -17.837 -16.048  1.00  0.00     0.053 C 
BRANCH  21  22
ATOM     22  C   UNL     1     -21.943 -17.462 -14.791  1.00  0.00     0.041 C 
ATOM     23  O   UNL     1     -22.077 -18.302 -13.863  1.00  0.00    -0.550 OA
ATOM     24  O   UNL     1     -22.498 -16.195 -14.658  1.00  0.00    -0.550 OA
ENDBRANCH  21  22
ENDBRANCH  20  21
ENDBRANCH  19  20
ENDBRANCH  18  19
ENDBRANCH  17  18
ENDBRANCH  16  17
ENDBRANCH  15  16
ENDBRANCH  14  15
ENDBRANCH  13  14
ENDBRANCH   1  13
TORSDOF 20
ENDMDL
MODEL 8
REMARK VINA RESULT:    22.432      1.681      3.235
REMARK INTER + INTRA:          48.165
REMARK INTER:                  49.256
REMARK INTRA:                  -1.090
REMARK UNBOUND:                -0.495
REMARK SMILES CCCCCCCCCCCCCCCCCCCCCC(=O)[O-]
REMARK SMILES IDX 12 1 11 2 10 3 9 4 8 5 7 6 6 7 5 8 4 9 3 10 2 11 1 12 13 13
REMARK SMILES IDX 14 14 15 15 16 16 17 17 18 18 19 19 20 20 21 21 22 22 23 23
REMARK SMILES IDX 24 24
REMARK H PARENT
REMARK Flexibility Score: inf
ROOT
ATOM      1  C   UNL     1     -15.764 -14.593 -20.351  1.00  0.00     0.000 C 
ENDROOT
BRANCH   1   2
ATOM      2  C   UNL     1     -16.714 -13.931 -21.360  1.00  0.00     0.000 C 
BRANCH   2   3
ATOM      3  C   UNL     1     -15.962 -13.508 -22.628  1.00  0.00     0.000 C 
BRANCH   3   4
ATOM      4  C   UNL     1     -15.435 -12.071 -22.500  1.00  0.00    -0.000 C 
BRANCH   4   5
ATOM      5  C   UNL     1     -14.077 -11.864 -23.197  1.00  0.00    -0.000 C 
BRANCH   5   6
ATOM      6  C   UNL     1     -13.895 -10.500 -23.887  1.00  0.00    -0.000 C 
BRANCH   6   7
ATOM      7  C   UNL     1     -14.624  -9.356 -23.160  1.00  0.00    -0.000 C 
BRANCH   7   8
ATOM      8  C   UNL     1     -13.661  -8.307 -22.574  1.00  0.00    -0.000 C 
BRANCH   8   9
ATOM      9  C   UNL     1     -12.284  -8.845 -22.144  1.00  0.00    -0.000 C 
BRANCH   9  10
ATOM     10  C   UNL     1     -12.219  -9.211 -20.655  1.00  0.00    -0.000 C 
BRANCH  10  11
ATOM     11  C   UNL     1     -12.614  -8.018 -19.778  1.00  0.00    -0.003 C 
ATOM     12  C   UNL     1     -12.693  -8.416 -18.307  1.00  0.00     0.004 C 
ENDBRANCH  10  11
ENDBRANCH   9  10
ENDBRANCH   8   9
ENDBRANCH   7   8
ENDBRANCH   6   7
ENDBRANCH   5   6
ENDBRANCH   4   5
ENDBRANCH   3   4
ENDBRANCH   2   3
ENDBRANCH   1   2
BRANCH   1  13
ATOM     13  C   UNL     1     -16.391 -15.808 -19.646  1.00  0.00     0.000 C 
BRANCH  13  14
ATOM     14  C   UNL     1     -17.405 -15.466 -18.536  1.00  0.00     0.000 C 
BRANCH  14  15
ATOM     15  C   UNL     1     -16.895 -15.679 -17.098  1.00  0.00     0.000 C 
BRANCH  15  16
ATOM     16  C   UNL     1     -17.949 -16.206 -16.103  1.00  0.00     0.000 C 
BRANCH  16  17
ATOM     17  C   UNL     1     -18.973 -17.191 -16.696  1.00  0.00     0.000 C 
BRANCH  17  18
ATOM     18  C   UNL     1     -19.834 -17.876 -15.621  1.00  0.00     0.000 C 
BRANCH  18  19
ATOM     19  C   UNL     1     -21.339 -17.644 -15.836  1.00  0.00     0.000 C 
BRANCH  19  20
ATOM     20  C   UNL     1     -22.044 -17.122 -14.572  1.00  0.00     0.006 C 
BRANCH  20  21
ATOM     21  C   UNL     1     -22.399 -15.632 -14.681  1.00  0.00     0.053 C 
BRANCH  21  22
ATOM     22  C   UNL     1     -23.534 -15.263 -13.775  1.00  0.00     0.041 C 
ATOM     23  O   UNL     1     -24.723 -15.359 -14.179  1.00  0.00    -0.550 OA
ATOM     24  O   UNL     1     -23.278 -14.784 -12.497  1.00  0.00    -0.550 OA
ENDBRANCH  21  22
ENDBRANCH  20  21
ENDBRANCH  19  20
ENDBRANCH  18  19
ENDBRANCH  17  18
ENDBRANCH  16  17
ENDBRANCH  15  16
ENDBRANCH  14  15
ENDBRANCH  13  14
ENDBRANCH   1  13
TORSDOF 20
ENDMDL
MODEL 9
REMARK VINA RESULT:    22.744      4.995      9.604
REMARK INTER + INTRA:          48.841
REMARK INTER:                  50.131
REMARK INTRA:                  -1.290
REMARK UNBOUND:                -0.495
REMARK SMILES CCCCCCCCCCCCCCCCCCCCCC(=O)[O-]
REMARK SMILES IDX 12 1 11 2 10 3 9 4 8 5 7 6 6 7 5 8 4 9 3 10 2 11 1 12 13 13
REMARK SMILES IDX 14 14 15 15 16 16 17 17 18 18 19 19 20 20 21 21 22 22 23 23
REMARK SMILES IDX 24 24
REMARK H PARENT
REMARK Flexibility Score: inf
ROOT
ATOM      1  C   UNL     1     -15.111 -12.191 -22.107  1.00  0.00     0.000 C 
ENDROOT
BRANCH   1   2
ATOM      2  C   UNL     1     -16.416 -12.996 -22.202  1.00  0.00     0.000 C 
BRANCH   2   3
ATOM      3  C   UNL     1     -16.317 -14.079 -23.284  1.00  0.00     0.000 C 
BRANCH   3   4
ATOM      4  C   UNL     1     -17.420 -13.906 -24.337  1.00  0.00    -0.000 C 
BRANCH   4   5
ATOM      5  C   UNL     1     -18.643 -13.134 -23.808  1.00  0.00    -0.000 C 
BRANCH   5   6
ATOM      6  C   UNL     1     -19.705 -12.780 -24.865  1.00  0.00    -0.000 C 
BRANCH   6   7
ATOM      7  C   UNL     1     -21.145 -12.967 -24.357  1.00  0.00    -0.000 C 
BRANCH   7   8
ATOM      8  C   UNL     1     -21.916 -14.058 -25.123  1.00  0.00    -0.000 C 
BRANCH   8   9
ATOM      9  C   UNL     1     -22.840 -14.938 -24.261  1.00  0.00    -0.000 C 
BRANCH   9  10
ATOM     10  C   UNL     1     -22.155 -15.470 -22.995  1.00  0.00    -0.000 C 
BRANCH  10  11
ATOM     11  C   UNL     1     -22.629 -14.708 -21.752  1.00  0.00    -0.003 C 
ATOM     12  C   UNL     1     -21.584 -13.694 -21.295  1.00  0.00     0.004 C 
ENDBRANCH  10  11
ENDBRANCH   9  10
ENDBRANCH   8   9
ENDBRANCH   7   8
ENDBRANCH   6   7
ENDBRANCH   5   6
ENDBRANCH   4   5
ENDBRANCH   3   4
ENDBRANCH   2   3
ENDBRANCH   1   2
BRANCH   1  13
ATOM     13  C   UNL     1     -14.178 -12.419 -23.308  1.00  0.00     0.000 C 
BRANCH  13  14
ATOM     14  C   UNL     1     -13.729 -11.136 -24.036  1.00  0.00     0.000 C 
BRANCH  14  15
ATOM     15  C   UNL     1     -13.979  -9.826 -23.263  1.00  0.00     0.000 C 
BRANCH  15  16
ATOM     16  C   UNL     1     -14.839  -8.784 -24.006  1.00  0.00     0.000 C 
BRANCH  16  17
ATOM     17  C   UNL     1     -15.125  -7.492 -23.219  1.00  0.00     0.000 C 
BRANCH  17  18
ATOM     18  C   UNL     1     -13.921  -7.023 -22.384  1.00  0.00     0.000 C 
BRANCH  18  19
ATOM     19  C   UNL     1     -14.195  -7.075 -20.872  1.00  0.00     0.000 C 
BRANCH  19  20
ATOM     20  C   UNL     1     -12.906  -7.021 -20.034  1.00  0.00     0.006 C 
BRANCH  20  21
ATOM     21  C   UNL     1     -12.364  -8.422 -19.715  1.00  0.00     0.053 C 
BRANCH  21  22
ATOM     22  C   UNL     1     -12.776  -8.881 -18.350  1.00  0.00     0.041 C 
ATOM     23  O   UNL     1     -12.806 -10.110 -18.077  1.00  0.00    -0.550 OA
ATOM     24  O   UNL     1     -13.157  -7.953 -17.388  1.00  0.00    -0.550 OA
ENDBRANCH  21  22
ENDBRANCH  20  21
ENDBRANCH  19  20
ENDBRANCH  18  19
ENDBRANCH  17  18
ENDBRANCH  16  17
ENDBRANCH  15  16
ENDBRANCH  14  15
ENDBRANCH  13  14
ENDBRANCH   1  13
TORSDOF 20
ENDMDL
