MODEL 1
REMARK VINA RESULT:    -4.139      0.000      0.000
REMARK INTER + INTRA:         -12.114
REMARK INTER:                  -9.463
REMARK INTRA:                  -2.651
REMARK UNBOUND:                -2.651
REMARK SMILES CCCCCCCCCCCCCCCCCCCCCCCC(=O)[O-]
REMARK SMILES IDX 13 1 14 2 15 3 16 4 17 5 18 6 19 7 20 8 21 9 22 10 23 11
REMARK SMILES IDX 24 12 25 13 26 14 12 15 11 16 10 17 9 18 8 19 7 20 6 21 5 22
REMARK SMILES IDX 4 23 3 24 2 25 1 26
REMARK H PARENT
REMARK Flexibility Score: inf
ROOT
ATOM      1  C   UNL     1      42.532  27.423   0.557  1.00  0.00     0.000 C 
ENDROOT
BRANCH   1   2
ATOM      2  C   UNL     1      43.349  27.074  -0.702  1.00  0.00     0.000 C 
BRANCH   2   3
ATOM      3  C   UNL     1      43.430  28.190  -1.763  1.00  0.00     0.000 C 
BRANCH   3   4
ATOM      4  C   UNL     1      44.801  28.897  -1.828  1.00  0.00     0.000 C 
BRANCH   4   5
ATOM      5  C   UNL     1      45.976  27.941  -1.552  1.00  0.00     0.000 C 
BRANCH   5   6
ATOM      6  C   UNL     1      46.940  27.829  -2.744  1.00  0.00     0.000 C 
BRANCH   6   7
ATOM      7  C   UNL     1      46.354  26.999  -3.900  1.00  0.00     0.000 C 
BRANCH   7   8
ATOM      8  C   UNL     1      46.727  27.564  -5.281  1.00  0.00     0.000 C 
BRANCH   8   9
ATOM      9  C   UNL     1      46.388  29.057  -5.420  1.00  0.00     0.000 C 
BRANCH   9  10
ATOM     10  C   UNL     1      45.092  29.253  -6.220  1.00  0.00     0.006 C 
BRANCH  10  11
ATOM     11  C   UNL     1      43.844  29.210  -5.328  1.00  0.00     0.053 C 
BRANCH  11  12
ATOM     12  C   UNL     1      42.950  28.061  -5.681  1.00  0.00     0.041 C 
ATOM     13  O   UNL     1      43.400  27.082  -6.334  1.00  0.00    -0.550 OA
ATOM     14  O   UNL     1      41.608  28.091  -5.319  1.00  0.00    -0.550 OA
ENDBRANCH  11  12
ENDBRANCH  10  11
ENDBRANCH   9  10
ENDBRANCH   8   9
ENDBRANCH   7   8
ENDBRANCH   6   7
ENDBRANCH   5   6
ENDBRANCH   4   5
ENDBRANCH   3   4
ENDBRANCH   2   3
ENDBRANCH   1   2
BRANCH   1  15
ATOM     15  C   UNL     1      43.268  27.208   1.897  1.00  0.00     0.000 C 
BRANCH  15  16
ATOM     16  C   UNL     1      44.749  27.625   1.900  1.00  0.00     0.000 C 
BRANCH  16  17
ATOM     17  C   UNL     1      45.690  26.492   2.333  1.00  0.00     0.000 C 
BRANCH  17  18
ATOM     18  C   UNL     1      45.087  25.698   3.500  1.00  0.00    -0.000 C 
BRANCH  18  19
ATOM     19  C   UNL     1      45.853  25.896   4.819  1.00  0.00    -0.000 C 
BRANCH  19  20
ATOM     20  C   UNL     1      46.742  27.156   4.873  1.00  0.00    -0.000 C 
BRANCH  20  21
ATOM     21  C   UNL     1      46.058  28.420   5.429  1.00  0.00    -0.000 C 
BRANCH  21  22
ATOM     22  C   UNL     1      46.439  28.784   6.876  1.00  0.00    -0.000 C 
BRANCH  22  23
ATOM     23  C   UNL     1      45.219  29.070   7.764  1.00  0.00    -0.000 C 
BRANCH  23  24
ATOM     24  C   UNL     1      45.168  28.097   8.950  1.00  0.00    -0.000 C 
BRANCH  24  25
ATOM     25  C   UNL     1      45.397  26.637   8.528  1.00  0.00    -0.003 C 
ATOM     26  C   UNL     1      46.200  25.842   9.558  1.00  0.00     0.004 C 
ENDBRANCH  24  25
ENDBRANCH  23  24
ENDBRANCH  22  23
ENDBRANCH  21  22
ENDBRANCH  20  21
ENDBRANCH  19  20
ENDBRANCH  18  19
ENDBRANCH  17  18
ENDBRANCH  16  17
ENDBRANCH  15  16
ENDBRANCH   1  15
TORSDOF 22
ENDMDL
MODEL 2
REMARK VINA RESULT:    -3.977      1.359      2.654
REMARK INTER + INTRA:         -11.742
REMARK INTER:                  -8.717
REMARK INTRA:                  -3.026
REMARK UNBOUND:                -2.651
REMARK SMILES CCCCCCCCCCCCCCCCCCCCCCCC(=O)[O-]
REMARK SMILES IDX 13 1 14 2 15 3 16 4 17 5 18 6 19 7 20 8 21 9 22 10 23 11
REMARK SMILES IDX 24 12 25 13 26 14 12 15 11 16 10 17 9 18 8 19 7 20 6 21 5 22
REMARK SMILES IDX 4 23 3 24 2 25 1 26
REMARK H PARENT
REMARK Flexibility Score: inf
ROOT
ATOM      1  C   UNL     1      43.417  26.704   0.020  1.00  0.00     0.000 C 
ENDROOT
BRANCH   1   2
ATOM      2  C   UNL     1      43.768  26.763  -1.479  1.00  0.00     0.000 C 
BRANCH   2   3
ATOM      3  C   UNL     1      44.815  27.824  -1.868  1.00  0.00     0.000 C 
BRANCH   3   4
ATOM      4  C   UNL     1      44.209  29.140  -2.401  1.00  0.00     0.000 C 
BRANCH   4   5
ATOM      5  C   UNL     1      45.250  30.036  -3.095  1.00  0.00     0.000 C 
BRANCH   5   6
ATOM      6  C   UNL     1      46.617  29.349  -3.245  1.00  0.00     0.000 C 
BRANCH   6   7
ATOM      7  C   UNL     1      46.968  29.051  -4.714  1.00  0.00     0.000 C 
BRANCH   7   8
ATOM      8  C   UNL     1      46.762  27.572  -5.082  1.00  0.00     0.000 C 
BRANCH   8   9
ATOM      9  C   UNL     1      45.988  27.392  -6.398  1.00  0.00     0.000 C 
BRANCH   9  10
ATOM     10  C   UNL     1      44.875  28.443  -6.528  1.00  0.00     0.006 C 
BRANCH  10  11
ATOM     11  C   UNL     1      43.496  27.807  -6.743  1.00  0.00     0.053 C 
BRANCH  11  12
ATOM     12  C   UNL     1      42.837  27.460  -5.444  1.00  0.00     0.041 C 
ATOM     13  O   UNL     1      41.956  28.217  -4.955  1.00  0.00    -0.550 OA
ATOM     14  O   UNL     1      43.224  26.317  -4.753  1.00  0.00    -0.550 OA
ENDBRANCH  11  12
ENDBRANCH  10  11
ENDBRANCH   9  10
ENDBRANCH   8   9
ENDBRANCH   7   8
ENDBRANCH   6   7
ENDBRANCH   5   6
ENDBRANCH   4   5
ENDBRANCH   3   4
ENDBRANCH   2   3
ENDBRANCH   1   2
BRANCH   1  15
ATOM     15  C   UNL     1      42.179  27.526   0.437  1.00  0.00     0.000 C 
BRANCH  15  16
ATOM     16  C   UNL     1      42.411  28.509   1.597  1.00  0.00     0.000 C 
BRANCH  16  17
ATOM     17  C   UNL     1      43.198  29.758   1.177  1.00  0.00     0.000 C 
BRANCH  17  18
ATOM     18  C   UNL     1      44.685  29.611   1.529  1.00  0.00    -0.000 C 
BRANCH  18  19
ATOM     19  C   UNL     1      44.916  29.184   2.989  1.00  0.00    -0.000 C 
BRANCH  19  20
ATOM     20  C   UNL     1      45.797  27.931   3.169  1.00  0.00    -0.000 C 
BRANCH  20  21
ATOM     21  C   UNL     1      45.044  26.587   3.131  1.00  0.00    -0.000 C 
BRANCH  21  22
ATOM     22  C   UNL     1      45.489  25.561   4.189  1.00  0.00    -0.000 C 
BRANCH  22  23
ATOM     23  C   UNL     1      46.528  26.122   5.172  1.00  0.00    -0.000 C 
BRANCH  23  24
ATOM     24  C   UNL     1      45.902  26.352   6.554  1.00  0.00    -0.000 C 
BRANCH  24  25
ATOM     25  C   UNL     1      46.424  27.627   7.236  1.00  0.00    -0.003 C 
ATOM     26  C   UNL     1      45.632  28.875   6.843  1.00  0.00     0.004 C 
ENDBRANCH  24  25
ENDBRANCH  23  24
ENDBRANCH  22  23
ENDBRANCH  21  22
ENDBRANCH  20  21
ENDBRANCH  19  20
ENDBRANCH  18  19
ENDBRANCH  17  18
ENDBRANCH  16  17
ENDBRANCH  15  16
ENDBRANCH   1  15
TORSDOF 22
ENDMDL
MODEL 3
REMARK VINA RESULT:    -3.936      1.342      1.867
REMARK INTER + INTRA:         -11.649
REMARK INTER:                  -9.324
REMARK INTRA:                  -2.325
REMARK UNBOUND:                -2.651
REMARK SMILES CCCCCCCCCCCCCCCCCCCCCCCC(=O)[O-]
REMARK SMILES IDX 13 1 14 2 15 3 16 4 17 5 18 6 19 7 20 8 21 9 22 10 23 11
REMARK SMILES IDX 24 12 25 13 26 14 12 15 11 16 10 17 9 18 8 19 7 20 6 21 5 22
REMARK SMILES IDX 4 23 3 24 2 25 1 26
REMARK H PARENT
REMARK Flexibility Score: inf
ROOT
ATOM      1  C   UNL     1      42.658  29.049   1.878  1.00  0.00     0.000 C 
ENDROOT
BRANCH   1   2
ATOM      2  C   UNL     1      42.160  30.015   0.786  1.00  0.00     0.000 C 
BRANCH   2   3
ATOM      3  C   UNL     1      42.522  29.616  -0.658  1.00  0.00     0.000 C 
BRANCH   3   4
ATOM      4  C   UNL     1      43.944  30.038  -1.088  1.00  0.00     0.000 C 
BRANCH   4   5
ATOM      5  C   UNL     1      44.627  28.992  -1.989  1.00  0.00     0.000 C 
BRANCH   5   6
ATOM      6  C   UNL     1      43.835  27.678  -2.075  1.00  0.00     0.000 C 
BRANCH   6   7
ATOM      7  C   UNL     1      44.423  26.702  -3.111  1.00  0.00     0.000 C 
BRANCH   7   8
ATOM      8  C   UNL     1      45.609  27.307  -3.883  1.00  0.00     0.000 C 
BRANCH   8   9
ATOM      9  C   UNL     1      45.532  27.032  -5.394  1.00  0.00     0.000 C 
BRANCH   9  10
ATOM     10  C   UNL     1      44.660  28.081  -6.099  1.00  0.00     0.006 C 
BRANCH  10  11
ATOM     11  C   UNL     1      43.247  27.560  -6.395  1.00  0.00     0.053 C 
BRANCH  11  12
ATOM     12  C   UNL     1      42.194  28.518  -5.927  1.00  0.00     0.041 C 
ATOM     13  O   UNL     1      42.205  28.946  -4.743  1.00  0.00    -0.550 OA
ATOM     14  O   UNL     1      41.179  28.910  -6.794  1.00  0.00    -0.550 OA
ENDBRANCH  11  12
ENDBRANCH  10  11
ENDBRANCH   9  10
ENDBRANCH   8   9
ENDBRANCH   7   8
ENDBRANCH   6   7
ENDBRANCH   5   6
ENDBRANCH   4   5
ENDBRANCH   3   4
ENDBRANCH   2   3
ENDBRANCH   1   2
BRANCH   1  15
ATOM     15  C   UNL     1      42.727  27.564   1.460  1.00  0.00     0.000 C 
BRANCH  15  16
ATOM     16  C   UNL     1      44.136  26.947   1.482  1.00  0.00     0.000 C 
BRANCH  16  17
ATOM     17  C   UNL     1      44.491  26.310   2.833  1.00  0.00     0.000 C 
BRANCH  17  18
ATOM     18  C   UNL     1      45.951  26.599   3.206  1.00  0.00    -0.000 C 
BRANCH  18  19
ATOM     19  C   UNL     1      46.316  28.089   3.091  1.00  0.00    -0.000 C 
BRANCH  19  20
ATOM     20  C   UNL     1      45.535  29.025   4.037  1.00  0.00    -0.000 C 
BRANCH  20  21
ATOM     21  C   UNL     1      46.393  29.771   5.078  1.00  0.00    -0.000 C 
BRANCH  21  22
ATOM     22  C   UNL     1      45.993  29.529   6.545  1.00  0.00    -0.000 C 
BRANCH  22  23
ATOM     23  C   UNL     1      45.775  28.044   6.873  1.00  0.00    -0.000 C 
BRANCH  23  24
ATOM     24  C   UNL     1      45.328  27.867   8.331  1.00  0.00    -0.000 C 
BRANCH  24  25
ATOM     25  C   UNL     1      45.238  26.391   8.748  1.00  0.00    -0.003 C 
ATOM     26  C   UNL     1      46.298  26.002   9.779  1.00  0.00     0.004 C 
ENDBRANCH  24  25
ENDBRANCH  23  24
ENDBRANCH  22  23
ENDBRANCH  21  22
ENDBRANCH  20  21
ENDBRANCH  19  20
ENDBRANCH  18  19
ENDBRANCH  17  18
ENDBRANCH  16  17
ENDBRANCH  15  16
ENDBRANCH   1  15
TORSDOF 22
ENDMDL
MODEL 4
REMARK VINA RESULT:    -3.925      4.690     11.093
REMARK INTER + INTRA:         -11.623
REMARK INTER:                  -9.456
REMARK INTRA:                  -2.167
REMARK UNBOUND:                -2.651
REMARK SMILES CCCCCCCCCCCCCCCCCCCCCCCC(=O)[O-]
REMARK SMILES IDX 13 1 14 2 15 3 16 4 17 5 18 6 19 7 20 8 21 9 22 10 23 11
REMARK SMILES IDX 24 12 25 13 26 14 12 15 11 16 10 17 9 18 8 19 7 20 6 21 5 22
REMARK SMILES IDX 4 23 3 24 2 25 1 26
REMARK H PARENT
REMARK Flexibility Score: inf
ROOT
ATOM      1  C   UNL     1      43.750  26.771  -0.564  1.00  0.00     0.000 C 
ENDROOT
BRANCH   1   2
ATOM      2  C   UNL     1      42.632  27.254   0.380  1.00  0.00     0.000 C 
BRANCH   2   3
ATOM      3  C   UNL     1      43.070  27.524   1.833  1.00  0.00     0.000 C 
BRANCH   3   4
ATOM      4  C   UNL     1      44.557  27.218   2.108  1.00  0.00     0.000 C 
BRANCH   4   5
ATOM      5  C   UNL     1      44.755  25.958   2.971  1.00  0.00     0.000 C 
BRANCH   5   6
ATOM      6  C   UNL     1      46.228  25.527   3.059  1.00  0.00     0.000 C 
BRANCH   6   7
ATOM      7  C   UNL     1      46.857  25.856   4.425  1.00  0.00     0.000 C 
BRANCH   7   8
ATOM      8  C   UNL     1      45.811  26.284   5.469  1.00  0.00     0.000 C 
BRANCH   8   9
ATOM      9  C   UNL     1      46.044  27.712   5.989  1.00  0.00     0.000 C 
BRANCH   9  10
ATOM     10  C   UNL     1      46.012  27.749   7.524  1.00  0.00     0.006 C 
BRANCH  10  11
ATOM     11  C   UNL     1      45.680  26.380   8.133  1.00  0.00     0.053 C 
BRANCH  11  12
ATOM     12  C   UNL     1      46.150  26.276   9.551  1.00  0.00     0.041 C 
ATOM     13  O   UNL     1      46.429  27.316  10.207  1.00  0.00    -0.550 OA
ATOM     14  O   UNL     1      46.316  25.026  10.138  1.00  0.00    -0.550 OA
ENDBRANCH  11  12
ENDBRANCH  10  11
ENDBRANCH   9  10
ENDBRANCH   8   9
ENDBRANCH   7   8
ENDBRANCH   6   7
ENDBRANCH   5   6
ENDBRANCH   4   5
ENDBRANCH   3   4
ENDBRANCH   2   3
ENDBRANCH   1   2
BRANCH   1  15
ATOM     15  C   UNL     1      43.748  27.412  -1.968  1.00  0.00     0.000 C 
BRANCH  15  16
ATOM     16  C   UNL     1      44.434  28.785  -2.057  1.00  0.00     0.000 C 
BRANCH  16  17
ATOM     17  C   UNL     1      45.811  28.725  -2.735  1.00  0.00     0.000 C 
BRANCH  17  18
ATOM     18  C   UNL     1      46.159  27.285  -3.136  1.00  0.00    -0.000 C 
BRANCH  18  19
ATOM     19  C   UNL     1      46.840  27.194  -4.512  1.00  0.00    -0.000 C 
BRANCH  19  20
ATOM     20  C   UNL     1      45.876  27.061  -5.709  1.00  0.00    -0.000 C 
BRANCH  20  21
ATOM     21  C   UNL     1      46.264  27.874  -6.959  1.00  0.00    -0.000 C 
BRANCH  21  22
ATOM     22  C   UNL     1      45.847  29.356  -6.929  1.00  0.00    -0.000 C 
BRANCH  22  23
ATOM     23  C   UNL     1      44.514  29.590  -6.202  1.00  0.00    -0.000 C 
BRANCH  23  24
ATOM     24  C   UNL     1      43.330  29.195  -7.095  1.00  0.00    -0.000 C 
BRANCH  24  25
ATOM     25  C   UNL     1      42.066  28.857  -6.288  1.00  0.00    -0.003 C 
ATOM     26  C   UNL     1      42.260  27.656  -5.361  1.00  0.00     0.004 C 
ENDBRANCH  24  25
ENDBRANCH  23  24
ENDBRANCH  22  23
ENDBRANCH  21  22
ENDBRANCH  20  21
ENDBRANCH  19  20
ENDBRANCH  18  19
ENDBRANCH  17  18
ENDBRANCH  16  17
ENDBRANCH  15  16
ENDBRANCH   1  15
TORSDOF 22
ENDMDL
MODEL 5
REMARK VINA RESULT:    -3.836      1.222      2.036
REMARK INTER + INTRA:         -11.422
REMARK INTER:                  -9.287
REMARK INTRA:                  -2.135
REMARK UNBOUND:                -2.651
REMARK SMILES CCCCCCCCCCCCCCCCCCCCCCCC(=O)[O-]
REMARK SMILES IDX 13 1 14 2 15 3 16 4 17 5 18 6 19 7 20 8 21 9 22 10 23 11
REMARK SMILES IDX 24 12 25 13 26 14 12 15 11 16 10 17 9 18 8 19 7 20 6 21 5 22
REMARK SMILES IDX 4 23 3 24 2 25 1 26
REMARK H PARENT
REMARK Flexibility Score: inf
ROOT
ATOM      1  C   UNL     1      42.581  27.704  -0.127  1.00  0.00     0.000 C 
ENDROOT
BRANCH   1   2
ATOM      2  C   UNL     1      43.872  27.257  -0.839  1.00  0.00     0.000 C 
BRANCH   2   3
ATOM      3  C   UNL     1      44.737  28.399  -1.408  1.00  0.00     0.000 C 
BRANCH   3   4
ATOM      4  C   UNL     1      46.246  28.076  -1.462  1.00  0.00     0.000 C 
BRANCH   4   5
ATOM      5  C   UNL     1      46.674  27.464  -2.808  1.00  0.00     0.000 C 
BRANCH   5   6
ATOM      6  C   UNL     1      46.183  28.282  -4.013  1.00  0.00     0.000 C 
BRANCH   6   7
ATOM      7  C   UNL     1      46.987  27.987  -5.293  1.00  0.00     0.000 C 
BRANCH   7   8
ATOM      8  C   UNL     1      46.095  27.514  -6.454  1.00  0.00     0.000 C 
BRANCH   8   9
ATOM      9  C   UNL     1      44.994  28.528  -6.805  1.00  0.00     0.000 C 
BRANCH   9  10
ATOM     10  C   UNL     1      43.672  27.814  -7.123  1.00  0.00     0.006 C 
BRANCH  10  11
ATOM     11  C   UNL     1      42.520  28.296  -6.230  1.00  0.00     0.053 C 
BRANCH  11  12
ATOM     12  C   UNL     1      42.666  27.804  -4.823  1.00  0.00     0.041 C 
ATOM     13  O   UNL     1      43.141  26.659  -4.596  1.00  0.00    -0.550 OA
ATOM     14  O   UNL     1      42.243  28.598  -3.763  1.00  0.00    -0.550 OA
ENDBRANCH  11  12
ENDBRANCH  10  11
ENDBRANCH   9  10
ENDBRANCH   8   9
ENDBRANCH   7   8
ENDBRANCH   6   7
ENDBRANCH   5   6
ENDBRANCH   4   5
ENDBRANCH   3   4
ENDBRANCH   2   3
ENDBRANCH   1   2
BRANCH   1  15
ATOM     15  C   UNL     1      42.721  27.954   1.390  1.00  0.00     0.000 C 
BRANCH  15  16
ATOM     16  C   UNL     1      43.756  29.022   1.780  1.00  0.00     0.000 C 
BRANCH  16  17
ATOM     17  C   UNL     1      44.704  28.560   2.896  1.00  0.00     0.000 C 
BRANCH  17  18
ATOM     18  C   UNL     1      45.582  27.396   2.418  1.00  0.00    -0.000 C 
BRANCH  18  19
ATOM     19  C   UNL     1      45.074  26.025   2.897  1.00  0.00    -0.000 C 
BRANCH  19  20
ATOM     20  C   UNL     1      45.998  25.300   3.896  1.00  0.00    -0.000 C 
BRANCH  20  21
ATOM     21  C   UNL     1      46.640  26.201   4.970  1.00  0.00    -0.000 C 
BRANCH  21  22
ATOM     22  C   UNL     1      45.889  26.250   6.313  1.00  0.00    -0.000 C 
BRANCH  22  23
ATOM     23  C   UNL     1      46.236  27.489   7.151  1.00  0.00    -0.000 C 
BRANCH  23  24
ATOM     24  C   UNL     1      45.842  28.776   6.412  1.00  0.00    -0.000 C 
BRANCH  24  25
ATOM     25  C   UNL     1      45.222  29.829   7.344  1.00  0.00    -0.003 C 
ATOM     26  C   UNL     1      44.965  29.293   8.753  1.00  0.00     0.004 C 
ENDBRANCH  24  25
ENDBRANCH  23  24
ENDBRANCH  22  23
ENDBRANCH  21  22
ENDBRANCH  20  21
ENDBRANCH  19  20
ENDBRANCH  18  19
ENDBRANCH  17  18
ENDBRANCH  16  17
ENDBRANCH  15  16
ENDBRANCH   1  15
TORSDOF 22
ENDMDL
MODEL 6
REMARK VINA RESULT:    -3.827      4.738     10.757
REMARK INTER + INTRA:         -11.399
REMARK INTER:                  -8.846
REMARK INTRA:                  -2.553
REMARK UNBOUND:                -2.651
REMARK SMILES CCCCCCCCCCCCCCCCCCCCCCCC(=O)[O-]
REMARK SMILES IDX 13 1 14 2 15 3 16 4 17 5 18 6 19 7 20 8 21 9 22 10 23 11
REMARK SMILES IDX 24 12 25 13 26 14 12 15 11 16 10 17 9 18 8 19 7 20 6 21 5 22
REMARK SMILES IDX 4 23 3 24 2 25 1 26
REMARK H PARENT
REMARK Flexibility Score: inf
ROOT
ATOM      1  C   UNL     1      42.996  26.749  -0.071  1.00  0.00     0.000 C 
ENDROOT
BRANCH   1   2
ATOM      2  C   UNL     1      42.584  27.780   0.996  1.00  0.00     0.000 C 
BRANCH   2   3
ATOM      3  C   UNL     1      43.413  27.747   2.296  1.00  0.00     0.000 C 
BRANCH   3   4
ATOM      4  C   UNL     1      44.899  28.117   2.103  1.00  0.00     0.000 C 
BRANCH   4   5
ATOM      5  C   UNL     1      45.821  26.885   2.091  1.00  0.00     0.000 C 
BRANCH   5   6
ATOM      6  C   UNL     1      45.438  25.848   3.160  1.00  0.00     0.000 C 
BRANCH   6   7
ATOM      7  C   UNL     1      46.664  25.126   3.747  1.00  0.00     0.000 C 
BRANCH   7   8
ATOM      8  C   UNL     1      47.093  25.703   5.107  1.00  0.00     0.000 C 
BRANCH   8   9
ATOM      9  C   UNL     1      45.989  26.544   5.768  1.00  0.00     0.000 C 
BRANCH   9  10
ATOM     10  C   UNL     1      46.398  26.970   7.186  1.00  0.00     0.006 C 
BRANCH  10  11
ATOM     11  C   UNL     1      45.499  26.349   8.263  1.00  0.00     0.053 C 
BRANCH  11  12
ATOM     12  C   UNL     1      46.236  26.150   9.552  1.00  0.00     0.041 C 
ATOM     13  O   UNL     1      46.378  24.994  10.031  1.00  0.00    -0.550 OA
ATOM     14  O   UNL     1      46.734  27.249  10.243  1.00  0.00    -0.550 OA
ENDBRANCH  11  12
ENDBRANCH  10  11
ENDBRANCH   9  10
ENDBRANCH   8   9
ENDBRANCH   7   8
ENDBRANCH   6   7
ENDBRANCH   5   6
ENDBRANCH   4   5
ENDBRANCH   3   4
ENDBRANCH   2   3
ENDBRANCH   1   2
BRANCH   1  15
ATOM     15  C   UNL     1      43.996  27.263  -1.129  1.00  0.00     0.000 C 
BRANCH  15  16
ATOM     16  C   UNL     1      43.880  28.761  -1.460  1.00  0.00     0.000 C 
BRANCH  16  17
ATOM     17  C   UNL     1      43.105  29.030  -2.758  1.00  0.00     0.000 C 
BRANCH  17  18
ATOM     18  C   UNL     1      43.142  27.804  -3.681  1.00  0.00    -0.000 C 
BRANCH  18  19
ATOM     19  C   UNL     1      42.643  28.109  -5.103  1.00  0.00    -0.000 C 
BRANCH  19  20
ATOM     20  C   UNL     1      43.378  27.350  -6.228  1.00  0.00    -0.000 C 
BRANCH  20  21
ATOM     21  C   UNL     1      44.374  28.192  -7.048  1.00  0.00    -0.000 C 
BRANCH  21  22
ATOM     22  C   UNL     1      44.968  29.404  -6.306  1.00  0.00    -0.000 C 
BRANCH  22  23
ATOM     23  C   UNL     1      46.451  29.223  -5.951  1.00  0.00    -0.000 C 
BRANCH  23  24
ATOM     24  C   UNL     1      46.679  29.417  -4.445  1.00  0.00    -0.000 C 
BRANCH  24  25
ATOM     25  C   UNL     1      46.686  28.090  -3.670  1.00  0.00    -0.003 C 
ATOM     26  C   UNL     1      47.120  26.904  -4.533  1.00  0.00     0.004 C 
ENDBRANCH  24  25
ENDBRANCH  23  24
ENDBRANCH  22  23
ENDBRANCH  21  22
ENDBRANCH  20  21
ENDBRANCH  19  20
ENDBRANCH  18  19
ENDBRANCH  17  18
ENDBRANCH  16  17
ENDBRANCH  15  16
ENDBRANCH   1  15
TORSDOF 22
ENDMDL
MODEL 7
REMARK VINA RESULT:    -3.803      4.788     10.751
REMARK INTER + INTRA:         -11.345
REMARK INTER:                  -8.758
REMARK INTRA:                  -2.587
REMARK UNBOUND:                -2.651
REMARK SMILES CCCCCCCCCCCCCCCCCCCCCCCC(=O)[O-]
REMARK SMILES IDX 13 1 14 2 15 3 16 4 17 5 18 6 19 7 20 8 21 9 22 10 23 11
REMARK SMILES IDX 24 12 25 13 26 14 12 15 11 16 10 17 9 18 8 19 7 20 6 21 5 22
REMARK SMILES IDX 4 23 3 24 2 25 1 26
REMARK H PARENT
REMARK Flexibility Score: inf
ROOT
ATOM      1  C   UNL     1      42.250  27.525   0.960  1.00  0.00     0.000 C 
ENDROOT
BRANCH   1   2
ATOM      2  C   UNL     1      43.616  26.812   0.924  1.00  0.00     0.000 C 
BRANCH   2   3
ATOM      3  C   UNL     1      44.279  26.594   2.298  1.00  0.00     0.000 C 
BRANCH   3   4
ATOM      4  C   UNL     1      45.772  26.982   2.344  1.00  0.00     0.000 C 
BRANCH   4   5
ATOM      5  C   UNL     1      45.991  28.468   2.679  1.00  0.00     0.000 C 
BRANCH   5   6
ATOM      6  C   UNL     1      45.598  28.812   4.125  1.00  0.00     0.000 C 
BRANCH   6   7
ATOM      7  C   UNL     1      46.822  29.079   5.020  1.00  0.00     0.000 C 
BRANCH   7   8
ATOM      8  C   UNL     1      46.786  28.267   6.327  1.00  0.00     0.000 C 
BRANCH   8   9
ATOM      9  C   UNL     1      46.350  26.810   6.106  1.00  0.00     0.000 C 
BRANCH   9  10
ATOM     10  C   UNL     1      45.575  26.279   7.321  1.00  0.00     0.006 C 
BRANCH  10  11
ATOM     11  C   UNL     1      45.669  27.221   8.529  1.00  0.00     0.053 C 
BRANCH  11  12
ATOM     12  C   UNL     1      46.213  26.521   9.736  1.00  0.00     0.041 C 
ATOM     13  O   UNL     1      46.161  25.265   9.821  1.00  0.00    -0.550 OA
ATOM     14  O   UNL     1      46.746  27.261  10.786  1.00  0.00    -0.550 OA
ENDBRANCH  11  12
ENDBRANCH  10  11
ENDBRANCH   9  10
ENDBRANCH   8   9
ENDBRANCH   7   8
ENDBRANCH   6   7
ENDBRANCH   5   6
ENDBRANCH   4   5
ENDBRANCH   3   4
ENDBRANCH   2   3
ENDBRANCH   1   2
BRANCH   1  15
ATOM     15  C   UNL     1      42.206  28.818   1.803  1.00  0.00     0.000 C 
BRANCH  15  16
ATOM     16  C   UNL     1      42.091  30.119   0.991  1.00  0.00     0.000 C 
BRANCH  16  17
ATOM     17  C   UNL     1      42.968  30.120  -0.269  1.00  0.00     0.000 C 
BRANCH  17  18
ATOM     18  C   UNL     1      42.102  30.096  -1.537  1.00  0.00    -0.000 C 
BRANCH  18  19
ATOM     19  C   UNL     1      42.860  29.579  -2.771  1.00  0.00    -0.000 C 
BRANCH  19  20
ATOM     20  C   UNL     1      43.236  28.084  -2.726  1.00  0.00    -0.000 C 
BRANCH  20  21
ATOM     21  C   UNL     1      44.738  27.788  -2.549  1.00  0.00    -0.000 C 
BRANCH  21  22
ATOM     22  C   UNL     1      45.443  27.225  -3.797  1.00  0.00    -0.000 C 
BRANCH  22  23
ATOM     23  C   UNL     1      45.527  28.238  -4.948  1.00  0.00    -0.000 C 
BRANCH  23  24
ATOM     24  C   UNL     1      45.275  27.551  -6.298  1.00  0.00    -0.000 C 
BRANCH  24  25
ATOM     25  C   UNL     1      43.779  27.410  -6.621  1.00  0.00    -0.003 C 
ATOM     26  C   UNL     1      43.002  28.709  -6.404  1.00  0.00     0.004 C 
ENDBRANCH  24  25
ENDBRANCH  23  24
ENDBRANCH  22  23
ENDBRANCH  21  22
ENDBRANCH  20  21
ENDBRANCH  19  20
ENDBRANCH  18  19
ENDBRANCH  17  18
ENDBRANCH  16  17
ENDBRANCH  15  16
ENDBRANCH   1  15
TORSDOF 22
ENDMDL
MODEL 8
REMARK VINA RESULT:    -3.776      4.310     10.492
REMARK INTER + INTRA:         -11.284
REMARK INTER:                  -8.639
REMARK INTRA:                  -2.645
REMARK UNBOUND:                -2.651
REMARK SMILES CCCCCCCCCCCCCCCCCCCCCCCC(=O)[O-]
REMARK SMILES IDX 13 1 14 2 15 3 16 4 17 5 18 6 19 7 20 8 21 9 22 10 23 11
REMARK SMILES IDX 24 12 25 13 26 14 12 15 11 16 10 17 9 18 8 19 7 20 6 21 5 22
REMARK SMILES IDX 4 23 3 24 2 25 1 26
REMARK H PARENT
REMARK Flexibility Score: inf
ROOT
ATOM      1  C   UNL     1      42.220  27.824   0.514  1.00  0.00     0.000 C 
ENDROOT
BRANCH   1   2
ATOM      2  C   UNL     1      43.276  26.756   0.854  1.00  0.00     0.000 C 
BRANCH   2   3
ATOM      3  C   UNL     1      44.122  27.043   2.110  1.00  0.00     0.000 C 
BRANCH   3   4
ATOM      4  C   UNL     1      45.637  27.154   1.835  1.00  0.00     0.000 C 
BRANCH   4   5
ATOM      5  C   UNL     1      46.481  26.310   2.808  1.00  0.00     0.000 C 
BRANCH   5   6
ATOM      6  C   UNL     1      45.622  25.564   3.842  1.00  0.00     0.000 C 
BRANCH   6   7
ATOM      7  C   UNL     1      45.990  25.935   5.291  1.00  0.00     0.000 C 
BRANCH   7   8
ATOM      8  C   UNL     1      46.670  27.311   5.393  1.00  0.00     0.000 C 
BRANCH   8   9
ATOM      9  C   UNL     1      45.739  28.390   5.968  1.00  0.00     0.000 C 
BRANCH   9  10
ATOM     10  C   UNL     1      46.226  28.856   7.348  1.00  0.00     0.006 C 
BRANCH  10  11
ATOM     11  C   UNL     1      45.297  28.395   8.479  1.00  0.00     0.053 C 
BRANCH  11  12
ATOM     12  C   UNL     1      45.663  27.029   8.974  1.00  0.00     0.041 C 
ATOM     13  O   UNL     1      46.739  26.848   9.603  1.00  0.00    -0.550 OA
ATOM     14  O   UNL     1      44.829  25.949   8.708  1.00  0.00    -0.550 OA
ENDBRANCH  11  12
ENDBRANCH  10  11
ENDBRANCH   9  10
ENDBRANCH   8   9
ENDBRANCH   7   8
ENDBRANCH   6   7
ENDBRANCH   5   6
ENDBRANCH   4   5
ENDBRANCH   3   4
ENDBRANCH   2   3
ENDBRANCH   1   2
BRANCH   1  15
ATOM     15  C   UNL     1      42.776  29.245   0.276  1.00  0.00     0.000 C 
BRANCH  15  16
ATOM     16  C   UNL     1      42.659  29.754  -1.170  1.00  0.00     0.000 C 
BRANCH  16  17
ATOM     17  C   UNL     1      43.469  28.916  -2.170  1.00  0.00     0.000 C 
BRANCH  17  18
ATOM     18  C   UNL     1      44.974  29.033  -1.887  1.00  0.00    -0.000 C 
BRANCH  18  19
ATOM     19  C   UNL     1      45.688  27.670  -1.868  1.00  0.00    -0.000 C 
BRANCH  19  20
ATOM     20  C   UNL     1      46.771  27.488  -2.951  1.00  0.00    -0.000 C 
BRANCH  20  21
ATOM     21  C   UNL     1      46.639  28.415  -4.175  1.00  0.00    -0.000 C 
BRANCH  21  22
ATOM     22  C   UNL     1      46.912  27.743  -5.534  1.00  0.00    -0.000 C 
BRANCH  22  23
ATOM     23  C   UNL     1      45.868  28.102  -6.602  1.00  0.00    -0.000 C 
BRANCH  23  24
ATOM     24  C   UNL     1      44.541  28.516  -5.950  1.00  0.00    -0.000 C 
BRANCH  24  25
ATOM     25  C   UNL     1      43.464  27.424  -6.055  1.00  0.00    -0.003 C 
ATOM     26  C   UNL     1      42.160  27.812  -5.357  1.00  0.00     0.004 C 
ENDBRANCH  24  25
ENDBRANCH  23  24
ENDBRANCH  22  23
ENDBRANCH  21  22
ENDBRANCH  20  21
ENDBRANCH  19  20
ENDBRANCH  18  19
ENDBRANCH  17  18
ENDBRANCH  16  17
ENDBRANCH  15  16
ENDBRANCH   1  15
TORSDOF 22
ENDMDL
MODEL 9
REMARK VINA RESULT:    -3.775      1.952      3.347
REMARK INTER + INTRA:         -11.282
REMARK INTER:                  -8.644
REMARK INTRA:                  -2.638
REMARK UNBOUND:                -2.651
REMARK SMILES CCCCCCCCCCCCCCCCCCCCCCCC(=O)[O-]
REMARK SMILES IDX 13 1 14 2 15 3 16 4 17 5 18 6 19 7 20 8 21 9 22 10 23 11
REMARK SMILES IDX 24 12 25 13 26 14 12 15 11 16 10 17 9 18 8 19 7 20 6 21 5 22
REMARK SMILES IDX 4 23 3 24 2 25 1 26
REMARK H PARENT
REMARK Flexibility Score: inf
ROOT
ATOM      1  C   UNL     1      43.220  29.772  -0.864  1.00  0.00     0.000 C 
ENDROOT
BRANCH   1   2
ATOM      2  C   UNL     1      42.548  29.747  -2.250  1.00  0.00     0.000 C 
BRANCH   2   3
ATOM      3  C   UNL     1      43.488  30.021  -3.441  1.00  0.00     0.000 C 
BRANCH   3   4
ATOM      4  C   UNL     1      42.976  29.465  -4.786  1.00  0.00     0.000 C 
BRANCH   4   5
ATOM      5  C   UNL     1      42.392  28.046  -4.659  1.00  0.00     0.000 C 
BRANCH   5   6
ATOM      6  C   UNL     1      43.330  26.968  -5.227  1.00  0.00     0.000 C 
BRANCH   6   7
ATOM      7  C   UNL     1      44.221  27.502  -6.363  1.00  0.00     0.000 C 
BRANCH   7   8
ATOM      8  C   UNL     1      45.711  27.185  -6.142  1.00  0.00     0.000 C 
BRANCH   8   9
ATOM      9  C   UNL     1      46.546  28.442  -5.850  1.00  0.00     0.000 C 
BRANCH   9  10
ATOM     10  C   UNL     1      46.742  28.630  -4.338  1.00  0.00     0.006 C 
BRANCH  10  11
ATOM     11  C   UNL     1      46.619  27.310  -3.566  1.00  0.00     0.053 C 
BRANCH  11  12
ATOM     12  C   UNL     1      45.913  27.498  -2.258  1.00  0.00     0.041 C 
ATOM     13  O   UNL     1      44.891  26.815  -1.983  1.00  0.00    -0.550 OA
ATOM     14  O   UNL     1      46.366  28.455  -1.356  1.00  0.00    -0.550 OA
ENDBRANCH  11  12
ENDBRANCH  10  11
ENDBRANCH   9  10
ENDBRANCH   8   9
ENDBRANCH   7   8
ENDBRANCH   6   7
ENDBRANCH   5   6
ENDBRANCH   4   5
ENDBRANCH   3   4
ENDBRANCH   2   3
ENDBRANCH   1   2
BRANCH   1  15
ATOM     15  C   UNL     1      42.255  29.922   0.332  1.00  0.00     0.000 C 
BRANCH  15  16
ATOM     16  C   UNL     1      42.575  29.029   1.542  1.00  0.00     0.000 C 
BRANCH  16  17
ATOM     17  C   UNL     1      42.394  27.532   1.248  1.00  0.00     0.000 C 
BRANCH  17  18
ATOM     18  C   UNL     1      43.708  26.770   1.470  1.00  0.00    -0.000 C 
BRANCH  18  19
ATOM     19  C   UNL     1      44.877  27.692   1.857  1.00  0.00    -0.000 C 
BRANCH  19  20
ATOM     20  C   UNL     1      46.264  27.016   1.865  1.00  0.00    -0.000 C 
BRANCH  20  21
ATOM     21  C   UNL     1      46.826  26.686   3.262  1.00  0.00    -0.000 C 
BRANCH  21  22
ATOM     22  C   UNL     1      45.834  26.871   4.424  1.00  0.00    -0.000 C 
BRANCH  22  23
ATOM     23  C   UNL     1      46.527  27.097   5.776  1.00  0.00    -0.000 C 
BRANCH  23  24
ATOM     24  C   UNL     1      45.846  26.278   6.882  1.00  0.00    -0.000 C 
BRANCH  24  25
ATOM     25  C   UNL     1      45.501  27.124   8.118  1.00  0.00    -0.003 C 
ATOM     26  C   UNL     1      45.903  26.446   9.429  1.00  0.00     0.004 C 
ENDBRANCH  24  25
ENDBRANCH  23  24
ENDBRANCH  22  23
ENDBRANCH  21  22
ENDBRANCH  20  21
ENDBRANCH  19  20
ENDBRANCH  18  19
ENDBRANCH  17  18
ENDBRANCH  16  17
ENDBRANCH  15  16
ENDBRANCH   1  15
TORSDOF 22
ENDMDL
