MODEL 1
REMARK VINA RESULT:    -4.745      0.000      0.000
REMARK INTER + INTRA:         -14.266
REMARK INTER:                 -10.292
REMARK INTRA:                  -3.973
REMARK UNBOUND:                -3.973
REMARK SMILES CCCCCCCCCCCCCCCCCCCCCC(=O)[O-]
REMARK SMILES IDX 12 1 11 2 10 3 9 4 8 5 7 6 6 7 5 8 4 9 3 10 2 11 1 12 13 13
REMARK SMILES IDX 14 14 15 15 16 16 17 17 18 18 19 19 20 20 21 21 22 22 23 23
REMARK SMILES IDX 24 24
REMARK H PARENT
REMARK Flexibility Score: inf
ROOT
ATOM      1  C   UNL     1     -23.621  58.397  29.667  1.00  0.00     0.000 C 
ENDROOT
BRANCH   1   2
ATOM      2  C   UNL     1     -24.453  58.447  30.968  1.00  0.00     0.000 C 
BRANCH   2   3
ATOM      3  C   UNL     1     -25.869  59.003  30.732  1.00  0.00     0.000 C 
BRANCH   3   4
ATOM      4  C   UNL     1     -26.356  59.894  31.885  1.00  0.00    -0.000 C 
BRANCH   4   5
ATOM      5  C   UNL     1     -25.549  59.688  33.175  1.00  0.00    -0.000 C 
BRANCH   5   6
ATOM      6  C   UNL     1     -26.022  60.650  34.277  1.00  0.00    -0.000 C 
BRANCH   6   7
ATOM      7  C   UNL     1     -24.901  61.031  35.257  1.00  0.00    -0.000 C 
BRANCH   7   8
ATOM      8  C   UNL     1     -23.646  60.156  35.091  1.00  0.00    -0.000 C 
BRANCH   8   9
ATOM      9  C   UNL     1     -22.757  60.140  36.348  1.00  0.00    -0.000 C 
BRANCH   9  10
ATOM     10  C   UNL     1     -21.905  61.404  36.561  1.00  0.00    -0.000 C 
BRANCH  10  11
ATOM     11  C   UNL     1     -21.383  62.004  35.248  1.00  0.00    -0.003 C 
ATOM     12  C   UNL     1     -19.867  61.860  35.142  1.00  0.00     0.004 C 
ENDBRANCH  10  11
ENDBRANCH   9  10
ENDBRANCH   8   9
ENDBRANCH   7   8
ENDBRANCH   6   7
ENDBRANCH   5   6
ENDBRANCH   4   5
ENDBRANCH   3   4
ENDBRANCH   2   3
ENDBRANCH   1   2
BRANCH   1  13
ATOM     13  C   UNL     1     -24.186  59.274  28.538  1.00  0.00     0.000 C 
BRANCH  13  14
ATOM     14  C   UNL     1     -23.125  60.186  27.900  1.00  0.00     0.000 C 
BRANCH  14  15
ATOM     15  C   UNL     1     -23.402  61.676  28.149  1.00  0.00     0.000 C 
BRANCH  15  16
ATOM     16  C   UNL     1     -24.697  61.913  28.945  1.00  0.00     0.000 C 
BRANCH  16  17
ATOM     17  C   UNL     1     -24.445  62.597  30.300  1.00  0.00     0.000 C 
BRANCH  17  18
ATOM     18  C   UNL     1     -22.985  62.549  30.795  1.00  0.00     0.000 C 
BRANCH  18  19
ATOM     19  C   UNL     1     -22.743  61.656  32.024  1.00  0.00     0.000 C 
BRANCH  19  20
ATOM     20  C   UNL     1     -21.635  60.613  31.796  1.00  0.00     0.006 C 
BRANCH  20  21
ATOM     21  C   UNL     1     -20.317  61.261  31.353  1.00  0.00     0.053 C 
BRANCH  21  22
ATOM     22  C   UNL     1     -19.967  60.894  29.943  1.00  0.00     0.041 C 
ATOM     23  O   UNL     1     -19.916  61.782  29.053  1.00  0.00    -0.550 OA
ATOM     24  O   UNL     1     -19.650  59.580  29.623  1.00  0.00    -0.550 OA
ENDBRANCH  21  22
ENDBRANCH  20  21
ENDBRANCH  19  20
ENDBRANCH  18  19
ENDBRANCH  17  18
ENDBRANCH  16  17
ENDBRANCH  15  16
ENDBRANCH  14  15
ENDBRANCH  13  14
ENDBRANCH   1  13
TORSDOF 20
ENDMDL
MODEL 2
REMARK VINA RESULT:    -4.617      1.817      5.948
REMARK INTER + INTRA:         -13.988
REMARK INTER:                 -10.610
REMARK INTRA:                  -3.379
REMARK UNBOUND:                -3.973
REMARK SMILES CCCCCCCCCCCCCCCCCCCCCC(=O)[O-]
REMARK SMILES IDX 12 1 11 2 10 3 9 4 8 5 7 6 6 7 5 8 4 9 3 10 2 11 1 12 13 13
REMARK SMILES IDX 14 14 15 15 16 16 17 17 18 18 19 19 20 20 21 21 22 22 23 23
REMARK SMILES IDX 24 24
REMARK H PARENT
REMARK Flexibility Score: inf
ROOT
ATOM      1  C   UNL     1     -25.205  62.169  30.354  1.00  0.00     0.000 C 
ENDROOT
BRANCH   1   2
ATOM      2  C   UNL     1     -23.825  62.761  30.714  1.00  0.00     0.000 C 
BRANCH   2   3
ATOM      3  C   UNL     1     -22.922  61.740  31.429  1.00  0.00     0.000 C 
BRANCH   3   4
ATOM      4  C   UNL     1     -21.433  62.114  31.359  1.00  0.00    -0.000 C 
BRANCH   4   5
ATOM      5  C   UNL     1     -20.602  61.093  30.568  1.00  0.00    -0.000 C 
BRANCH   5   6
ATOM      6  C   UNL     1     -20.122  61.691  29.236  1.00  0.00    -0.000 C 
BRANCH   6   7
ATOM      7  C   UNL     1     -21.209  61.676  28.150  1.00  0.00    -0.000 C 
BRANCH   7   8
ATOM      8  C   UNL     1     -21.887  60.302  28.010  1.00  0.00    -0.000 C 
BRANCH   8   9
ATOM      9  C   UNL     1     -23.423  60.397  27.937  1.00  0.00    -0.000 C 
BRANCH   9  10
ATOM     10  C   UNL     1     -24.173  59.090  28.250  1.00  0.00    -0.000 C 
BRANCH  10  11
ATOM     11  C   UNL     1     -23.387  58.155  29.180  1.00  0.00    -0.003 C 
ATOM     12  C   UNL     1     -23.883  58.267  30.620  1.00  0.00     0.004 C 
ENDBRANCH  10  11
ENDBRANCH   9  10
ENDBRANCH   8   9
ENDBRANCH   7   8
ENDBRANCH   6   7
ENDBRANCH   5   6
ENDBRANCH   4   5
ENDBRANCH   3   4
ENDBRANCH   2   3
ENDBRANCH   1   2
BRANCH   1  13
ATOM     13  C   UNL     1     -25.765  61.212  31.420  1.00  0.00     0.000 C 
BRANCH  13  14
ATOM     14  C   UNL     1     -26.816  61.875  32.326  1.00  0.00     0.000 C 
BRANCH  14  15
ATOM     15  C   UNL     1     -26.687  61.439  33.793  1.00  0.00     0.000 C 
BRANCH  15  16
ATOM     16  C   UNL     1     -25.484  60.510  34.033  1.00  0.00     0.000 C 
BRANCH  16  17
ATOM     17  C   UNL     1     -24.645  60.928  35.254  1.00  0.00     0.000 C 
BRANCH  17  18
ATOM     18  C   UNL     1     -23.119  60.790  35.076  1.00  0.00     0.000 C 
BRANCH  18  19
ATOM     19  C   UNL     1     -22.303  62.036  35.465  1.00  0.00     0.000 C 
BRANCH  19  20
ATOM     20  C   UNL     1     -20.860  61.700  35.876  1.00  0.00     0.006 C 
BRANCH  20  21
ATOM     21  C   UNL     1     -19.869  61.903  34.722  1.00  0.00     0.053 C 
BRANCH  21  22
ATOM     22  C   UNL     1     -18.934  60.741  34.586  1.00  0.00     0.041 C 
ATOM     23  O   UNL     1     -18.351  60.277  35.600  1.00  0.00    -0.550 OA
ATOM     24  O   UNL     1     -18.744  60.140  33.348  1.00  0.00    -0.550 OA
ENDBRANCH  21  22
ENDBRANCH  20  21
ENDBRANCH  19  20
ENDBRANCH  18  19
ENDBRANCH  17  18
ENDBRANCH  16  17
ENDBRANCH  15  16
ENDBRANCH  14  15
ENDBRANCH  13  14
ENDBRANCH   1  13
TORSDOF 20
ENDMDL
MODEL 3
REMARK VINA RESULT:    -4.583      2.018      5.714
REMARK INTER + INTRA:         -13.915
REMARK INTER:                  -9.782
REMARK INTRA:                  -4.132
REMARK UNBOUND:                -3.973
REMARK SMILES CCCCCCCCCCCCCCCCCCCCCC(=O)[O-]
REMARK SMILES IDX 12 1 11 2 10 3 9 4 8 5 7 6 6 7 5 8 4 9 3 10 2 11 1 12 13 13
REMARK SMILES IDX 14 14 15 15 16 16 17 17 18 18 19 19 20 20 21 21 22 22 23 23
REMARK SMILES IDX 24 24
REMARK H PARENT
REMARK Flexibility Score: inf
ROOT
ATOM      1  C   UNL     1     -23.045  61.706  31.473  1.00  0.00     0.000 C 
ENDROOT
BRANCH   1   2
ATOM      2  C   UNL     1     -21.639  62.246  31.129  1.00  0.00     0.000 C 
BRANCH   2   3
ATOM      3  C   UNL     1     -20.599  61.119  30.998  1.00  0.00     0.000 C 
BRANCH   3   4
ATOM      4  C   UNL     1     -20.495  60.573  29.565  1.00  0.00    -0.000 C 
BRANCH   4   5
ATOM      5  C   UNL     1     -20.752  61.650  28.500  1.00  0.00    -0.000 C 
BRANCH   5   6
ATOM      6  C   UNL     1     -21.974  61.288  27.639  1.00  0.00    -0.000 C 
BRANCH   6   7
ATOM      7  C   UNL     1     -22.382  59.812  27.775  1.00  0.00    -0.000 C 
BRANCH   7   8
ATOM      8  C   UNL     1     -23.867  59.639  28.137  1.00  0.00    -0.000 C 
BRANCH   8   9
ATOM      9  C   UNL     1     -24.077  58.837  29.435  1.00  0.00    -0.000 C 
BRANCH   9  10
ATOM     10  C   UNL     1     -23.127  57.642  29.625  1.00  0.00    -0.000 C 
BRANCH  10  11
ATOM     11  C   UNL     1     -22.328  57.713  30.934  1.00  0.00    -0.003 C 
ATOM     12  C   UNL     1     -23.240  58.027  32.118  1.00  0.00     0.004 C 
ENDBRANCH  10  11
ENDBRANCH   9  10
ENDBRANCH   8   9
ENDBRANCH   7   8
ENDBRANCH   6   7
ENDBRANCH   5   6
ENDBRANCH   4   5
ENDBRANCH   3   4
ENDBRANCH   2   3
ENDBRANCH   1   2
BRANCH   1  13
ATOM     13  C   UNL     1     -24.177  62.381  30.681  1.00  0.00     0.000 C 
BRANCH  13  14
ATOM     14  C   UNL     1     -25.540  62.286  31.386  1.00  0.00     0.000 C 
BRANCH  14  15
ATOM     15  C   UNL     1     -26.151  60.879  31.299  1.00  0.00     0.000 C 
BRANCH  15  16
ATOM     16  C   UNL     1     -26.272  60.199  32.673  1.00  0.00     0.000 C 
BRANCH  16  17
ATOM     17  C   UNL     1     -26.390  61.209  33.828  1.00  0.00     0.000 C 
BRANCH  17  18
ATOM     18  C   UNL     1     -25.455  60.942  35.026  1.00  0.00     0.000 C 
BRANCH  18  19
ATOM     19  C   UNL     1     -23.979  60.704  34.660  1.00  0.00     0.000 C 
BRANCH  19  20
ATOM     20  C   UNL     1     -23.014  61.584  35.472  1.00  0.00     0.006 C 
BRANCH  20  21
ATOM     21  C   UNL     1     -21.609  61.621  34.853  1.00  0.00     0.053 C 
BRANCH  21  22
ATOM     22  C   UNL     1     -20.865  60.344  35.094  1.00  0.00     0.041 C 
ATOM     23  O   UNL     1     -20.711  59.516  34.159  1.00  0.00    -0.550 OA
ATOM     24  O   UNL     1     -20.300  60.090  36.337  1.00  0.00    -0.550 OA
ENDBRANCH  21  22
ENDBRANCH  20  21
ENDBRANCH  19  20
ENDBRANCH  18  19
ENDBRANCH  17  18
ENDBRANCH  16  17
ENDBRANCH  15  16
ENDBRANCH  14  15
ENDBRANCH  13  14
ENDBRANCH   1  13
TORSDOF 20
ENDMDL
MODEL 4
REMARK VINA RESULT:    -4.559      3.002      5.903
REMARK INTER + INTRA:         -13.863
REMARK INTER:                 -10.539
REMARK INTRA:                  -3.324
REMARK UNBOUND:                -3.973
REMARK SMILES CCCCCCCCCCCCCCCCCCCCCC(=O)[O-]
REMARK SMILES IDX 12 1 11 2 10 3 9 4 8 5 7 6 6 7 5 8 4 9 3 10 2 11 1 12 13 13
REMARK SMILES IDX 14 14 15 15 16 16 17 17 18 18 19 19 20 20 21 21 22 22 23 23
REMARK SMILES IDX 24 24
REMARK H PARENT
REMARK Flexibility Score: inf
ROOT
ATOM      1  C   UNL     1     -22.269  60.886  28.441  1.00  0.00     0.000 C 
ENDROOT
BRANCH   1   2
ATOM      2  C   UNL     1     -23.629  61.556  28.145  1.00  0.00     0.000 C 
BRANCH   2   3
ATOM      3  C   UNL     1     -24.164  62.346  29.352  1.00  0.00     0.000 C 
BRANCH   3   4
ATOM      4  C   UNL     1     -24.532  61.440  30.538  1.00  0.00    -0.000 C 
BRANCH   4   5
ATOM      5  C   UNL     1     -25.565  60.366  30.166  1.00  0.00    -0.000 C 
BRANCH   5   6
ATOM      6  C   UNL     1     -25.041  58.961  30.506  1.00  0.00    -0.000 C 
BRANCH   6   7
ATOM      7  C   UNL     1     -23.662  58.987  31.183  1.00  0.00    -0.000 C 
BRANCH   7   8
ATOM      8  C   UNL     1     -22.878  57.679  30.979  1.00  0.00    -0.000 C 
BRANCH   8   9
ATOM      9  C   UNL     1     -23.221  56.975  29.653  1.00  0.00    -0.000 C 
BRANCH   9  10
ATOM     10  C   UNL     1     -22.437  57.474  28.426  1.00  0.00    -0.000 C 
BRANCH  10  11
ATOM     11  C   UNL     1     -23.322  57.667  27.187  1.00  0.00    -0.003 C 
ATOM     12  C   UNL     1     -22.477  57.847  25.929  1.00  0.00     0.004 C 
ENDBRANCH  10  11
ENDBRANCH   9  10
ENDBRANCH   8   9
ENDBRANCH   7   8
ENDBRANCH   6   7
ENDBRANCH   5   6
ENDBRANCH   4   5
ENDBRANCH   3   4
ENDBRANCH   2   3
ENDBRANCH   1   2
BRANCH   1  13
ATOM     13  C   UNL     1     -21.061  61.807  28.200  1.00  0.00     0.000 C 
BRANCH  13  14
ATOM     14  C   UNL     1     -19.966  61.649  29.267  1.00  0.00     0.000 C 
BRANCH  14  15
ATOM     15  C   UNL     1     -20.530  61.224  30.631  1.00  0.00     0.000 C 
BRANCH  15  16
ATOM     16  C   UNL     1     -21.029  62.418  31.464  1.00  0.00     0.000 C 
BRANCH  16  17
ATOM     17  C   UNL     1     -21.052  62.121  32.974  1.00  0.00     0.000 C 
BRANCH  17  18
ATOM     18  C   UNL     1     -22.318  61.396  33.478  1.00  0.00     0.000 C 
BRANCH  18  19
ATOM     19  C   UNL     1     -22.499  61.390  35.006  1.00  0.00     0.000 C 
BRANCH  19  20
ATOM     20  C   UNL     1     -23.888  60.893  35.440  1.00  0.00     0.006 C 
BRANCH  20  21
ATOM     21  C   UNL     1     -24.875  60.841  34.265  1.00  0.00     0.053 C 
BRANCH  21  22
ATOM     22  C   UNL     1     -26.295  60.948  34.731  1.00  0.00     0.041 C 
ATOM     23  O   UNL     1     -26.637  61.878  35.506  1.00  0.00    -0.550 OA
ATOM     24  O   UNL     1     -27.249  60.050  34.270  1.00  0.00    -0.550 OA
ENDBRANCH  21  22
ENDBRANCH  20  21
ENDBRANCH  19  20
ENDBRANCH  18  19
ENDBRANCH  17  18
ENDBRANCH  16  17
ENDBRANCH  15  16
ENDBRANCH  14  15
ENDBRANCH  13  14
ENDBRANCH   1  13
TORSDOF 20
ENDMDL
MODEL 5
REMARK VINA RESULT:    -4.539      2.328      5.454
REMARK INTER + INTRA:         -13.820
REMARK INTER:                  -9.967
REMARK INTRA:                  -3.853
REMARK UNBOUND:                -3.973
REMARK SMILES CCCCCCCCCCCCCCCCCCCCCC(=O)[O-]
REMARK SMILES IDX 12 1 11 2 10 3 9 4 8 5 7 6 6 7 5 8 4 9 3 10 2 11 1 12 13 13
REMARK SMILES IDX 14 14 15 15 16 16 17 17 18 18 19 19 20 20 21 21 22 22 23 23
REMARK SMILES IDX 24 24
REMARK H PARENT
REMARK Flexibility Score: inf
ROOT
ATOM      1  C   UNL     1     -23.095  61.644  27.970  1.00  0.00     0.000 C 
ENDROOT
BRANCH   1   2
ATOM      2  C   UNL     1     -21.706  61.019  27.717  1.00  0.00     0.000 C 
BRANCH   2   3
ATOM      3  C   UNL     1     -20.586  61.773  28.455  1.00  0.00     0.000 C 
BRANCH   3   4
ATOM      4  C   UNL     1     -20.419  61.311  29.911  1.00  0.00    -0.000 C 
BRANCH   4   5
ATOM      5  C   UNL     1     -21.032  62.295  30.919  1.00  0.00    -0.000 C 
BRANCH   5   6
ATOM      6  C   UNL     1     -22.088  61.599  31.792  1.00  0.00    -0.000 C 
BRANCH   6   7
ATOM      7  C   UNL     1     -21.864  60.082  31.901  1.00  0.00    -0.000 C 
BRANCH   7   8
ATOM      8  C   UNL     1     -23.125  59.272  31.551  1.00  0.00    -0.000 C 
BRANCH   8   9
ATOM      9  C   UNL     1     -22.803  57.848  31.060  1.00  0.00    -0.000 C 
BRANCH   9  10
ATOM     10  C   UNL     1     -23.376  57.488  29.677  1.00  0.00    -0.000 C 
BRANCH  10  11
ATOM     11  C   UNL     1     -22.302  57.421  28.583  1.00  0.00    -0.003 C 
ATOM     12  C   UNL     1     -22.933  57.408  27.193  1.00  0.00     0.004 C 
ENDBRANCH  10  11
ENDBRANCH   9  10
ENDBRANCH   8   9
ENDBRANCH   7   8
ENDBRANCH   6   7
ENDBRANCH   5   6
ENDBRANCH   4   5
ENDBRANCH   3   4
ENDBRANCH   2   3
ENDBRANCH   1   2
BRANCH   1  13
ATOM     13  C   UNL     1     -24.182  60.614  28.322  1.00  0.00     0.000 C 
BRANCH  13  14
ATOM     14  C   UNL     1     -25.317  61.208  29.172  1.00  0.00     0.000 C 
BRANCH  14  15
ATOM     15  C   UNL     1     -24.911  62.518  29.863  1.00  0.00     0.000 C 
BRANCH  15  16
ATOM     16  C   UNL     1     -25.560  62.684  31.248  1.00  0.00     0.000 C 
BRANCH  16  17
ATOM     17  C   UNL     1     -26.103  61.359  31.813  1.00  0.00     0.000 C 
BRANCH  17  18
ATOM     18  C   UNL     1     -27.122  61.508  32.961  1.00  0.00     0.000 C 
BRANCH  18  19
ATOM     19  C   UNL     1     -26.545  61.305  34.374  1.00  0.00     0.000 C 
BRANCH  19  20
ATOM     20  C   UNL     1     -25.159  60.638  34.361  1.00  0.00     0.006 C 
BRANCH  20  21
ATOM     21  C   UNL     1     -24.336  60.995  35.606  1.00  0.00     0.053 C 
BRANCH  21  22
ATOM     22  C   UNL     1     -22.875  60.738  35.395  1.00  0.00     0.041 C 
ATOM     23  O   UNL     1     -22.065  61.699  35.341  1.00  0.00    -0.550 OA
ATOM     24  O   UNL     1     -22.403  59.435  35.306  1.00  0.00    -0.550 OA
ENDBRANCH  21  22
ENDBRANCH  20  21
ENDBRANCH  19  20
ENDBRANCH  18  19
ENDBRANCH  17  18
ENDBRANCH  16  17
ENDBRANCH  15  16
ENDBRANCH  14  15
ENDBRANCH  13  14
ENDBRANCH   1  13
TORSDOF 20
ENDMDL
MODEL 6
REMARK VINA RESULT:    -4.467      1.947      3.640
REMARK INTER + INTRA:         -13.664
REMARK INTER:                 -10.480
REMARK INTRA:                  -3.185
REMARK UNBOUND:                -3.973
REMARK SMILES CCCCCCCCCCCCCCCCCCCCCC(=O)[O-]
REMARK SMILES IDX 12 1 11 2 10 3 9 4 8 5 7 6 6 7 5 8 4 9 3 10 2 11 1 12 13 13
REMARK SMILES IDX 14 14 15 15 16 16 17 17 18 18 19 19 20 20 21 21 22 22 23 23
REMARK SMILES IDX 24 24
REMARK H PARENT
REMARK Flexibility Score: inf
ROOT
ATOM      1  C   UNL     1     -25.219  62.634  30.725  1.00  0.00     0.000 C 
ENDROOT
BRANCH   1   2
ATOM      2  C   UNL     1     -25.872  61.482  31.519  1.00  0.00     0.000 C 
BRANCH   2   3
ATOM      3  C   UNL     1     -26.997  61.978  32.446  1.00  0.00     0.000 C 
BRANCH   3   4
ATOM      4  C   UNL     1     -27.128  61.133  33.723  1.00  0.00    -0.000 C 
BRANCH   4   5
ATOM      5  C   UNL     1     -25.811  60.451  34.122  1.00  0.00    -0.000 C 
BRANCH   5   6
ATOM      6  C   UNL     1     -25.127  61.210  35.270  1.00  0.00    -0.000 C 
BRANCH   6   7
ATOM      7  C   UNL     1     -23.723  60.671  35.587  1.00  0.00    -0.000 C 
BRANCH   7   8
ATOM      8  C   UNL     1     -22.667  61.786  35.677  1.00  0.00    -0.000 C 
BRANCH   8   9
ATOM      9  C   UNL     1     -21.366  61.324  36.359  1.00  0.00    -0.000 C 
BRANCH   9  10
ATOM     10  C   UNL     1     -20.622  60.183  35.643  1.00  0.00    -0.000 C 
BRANCH  10  11
ATOM     11  C   UNL     1     -19.289  60.629  35.027  1.00  0.00    -0.003 C 
ATOM     12  C   UNL     1     -18.273  59.490  35.028  1.00  0.00     0.004 C 
ENDBRANCH  10  11
ENDBRANCH   9  10
ENDBRANCH   8   9
ENDBRANCH   7   8
ENDBRANCH   6   7
ENDBRANCH   5   6
ENDBRANCH   4   5
ENDBRANCH   3   4
ENDBRANCH   2   3
ENDBRANCH   1   2
BRANCH   1  13
ATOM     13  C   UNL     1     -23.682  62.621  30.767  1.00  0.00     0.000 C 
BRANCH  13  14
ATOM     14  C   UNL     1     -23.120  61.629  31.799  1.00  0.00     0.000 C 
BRANCH  14  15
ATOM     15  C   UNL     1     -21.686  61.975  32.228  1.00  0.00     0.000 C 
BRANCH  15  16
ATOM     16  C   UNL     1     -20.626  61.175  31.451  1.00  0.00     0.000 C 
BRANCH  16  17
ATOM     17  C   UNL     1     -20.186  61.875  30.153  1.00  0.00     0.000 C 
BRANCH  17  18
ATOM     18  C   UNL     1     -20.410  61.059  28.863  1.00  0.00     0.000 C 
BRANCH  18  19
ATOM     19  C   UNL     1     -21.381  61.695  27.852  1.00  0.00     0.000 C 
BRANCH  19  20
ATOM     20  C   UNL     1     -22.719  60.943  27.757  1.00  0.00     0.006 C 
BRANCH  20  21
ATOM     21  C   UNL     1     -22.708  59.641  28.569  1.00  0.00     0.053 C 
BRANCH  21  22
ATOM     22  C   UNL     1     -24.078  59.283  29.057  1.00  0.00     0.041 C 
ATOM     23  O   UNL     1     -25.095  59.776  28.505  1.00  0.00    -0.550 OA
ATOM     24  O   UNL     1     -24.233  58.368  30.090  1.00  0.00    -0.550 OA
ENDBRANCH  21  22
ENDBRANCH  20  21
ENDBRANCH  19  20
ENDBRANCH  18  19
ENDBRANCH  17  18
ENDBRANCH  16  17
ENDBRANCH  15  16
ENDBRANCH  14  15
ENDBRANCH  13  14
ENDBRANCH   1  13
TORSDOF 20
ENDMDL
MODEL 7
REMARK VINA RESULT:    -4.446      1.568      3.971
REMARK INTER + INTRA:         -13.619
REMARK INTER:                  -9.552
REMARK INTRA:                  -4.067
REMARK UNBOUND:                -3.973
REMARK SMILES CCCCCCCCCCCCCCCCCCCCCC(=O)[O-]
REMARK SMILES IDX 12 1 11 2 10 3 9 4 8 5 7 6 6 7 5 8 4 9 3 10 2 11 1 12 13 13
REMARK SMILES IDX 14 14 15 15 16 16 17 17 18 18 19 19 20 20 21 21 22 22 23 23
REMARK SMILES IDX 24 24
REMARK H PARENT
REMARK Flexibility Score: inf
ROOT
ATOM      1  C   UNL     1     -23.018  59.113  31.975  1.00  0.00     0.000 C 
ENDROOT
BRANCH   1   2
ATOM      2  C   UNL     1     -22.799  58.900  33.489  1.00  0.00     0.000 C 
BRANCH   2   3
ATOM      3  C   UNL     1     -23.610  59.893  34.340  1.00  0.00     0.000 C 
BRANCH   3   4
ATOM      4  C   UNL     1     -23.033  61.317  34.301  1.00  0.00    -0.000 C 
BRANCH   4   5
ATOM      5  C   UNL     1     -22.390  61.733  35.631  1.00  0.00    -0.000 C 
BRANCH   5   6
ATOM      6  C   UNL     1     -20.889  62.015  35.451  1.00  0.00    -0.000 C 
BRANCH   6   7
ATOM      7  C   UNL     1     -20.012  60.792  35.759  1.00  0.00    -0.000 C 
BRANCH   7   8
ATOM      8  C   UNL     1     -19.421  60.152  34.490  1.00  0.00    -0.000 C 
BRANCH   8   9
ATOM      9  C   UNL     1     -19.331  61.137  33.309  1.00  0.00    -0.000 C 
BRANCH   9  10
ATOM     10  C   UNL     1     -19.574  60.516  31.922  1.00  0.00    -0.000 C 
BRANCH  10  11
ATOM     11  C   UNL     1     -20.328  61.454  30.969  1.00  0.00    -0.003 C 
ATOM     12  C   UNL     1     -20.986  62.601  31.733  1.00  0.00     0.004 C 
ENDBRANCH  10  11
ENDBRANCH   9  10
ENDBRANCH   8   9
ENDBRANCH   7   8
ENDBRANCH   6   7
ENDBRANCH   5   6
ENDBRANCH   4   5
ENDBRANCH   3   4
ENDBRANCH   2   3
ENDBRANCH   1   2
BRANCH   1  13
ATOM     13  C   UNL     1     -24.060  58.162  31.361  1.00  0.00     0.000 C 
BRANCH  13  14
ATOM     14  C   UNL     1     -25.265  58.903  30.760  1.00  0.00     0.000 C 
BRANCH  14  15
ATOM     15  C   UNL     1     -26.247  59.398  31.833  1.00  0.00     0.000 C 
BRANCH  15  16
ATOM     16  C   UNL     1     -26.739  60.832  31.570  1.00  0.00     0.000 C 
BRANCH  16  17
ATOM     17  C   UNL     1     -25.650  61.889  31.822  1.00  0.00     0.000 C 
BRANCH  17  18
ATOM     18  C   UNL     1     -25.195  62.668  30.570  1.00  0.00     0.000 C 
BRANCH  18  19
ATOM     19  C   UNL     1     -23.842  62.226  29.984  1.00  0.00     0.000 C 
BRANCH  19  20
ATOM     20  C   UNL     1     -23.966  61.660  28.559  1.00  0.00     0.006 C 
BRANCH  20  21
ATOM     21  C   UNL     1     -22.595  61.443  27.904  1.00  0.00     0.053 C 
BRANCH  21  22
ATOM     22  C   UNL     1     -22.275  59.987  27.762  1.00  0.00     0.041 C 
ATOM     23  O   UNL     1     -21.862  59.331  28.753  1.00  0.00    -0.550 OA
ATOM     24  O   UNL     1     -22.479  59.344  26.548  1.00  0.00    -0.550 OA
ENDBRANCH  21  22
ENDBRANCH  20  21
ENDBRANCH  19  20
ENDBRANCH  18  19
ENDBRANCH  17  18
ENDBRANCH  16  17
ENDBRANCH  15  16
ENDBRANCH  14  15
ENDBRANCH  13  14
ENDBRANCH   1  13
TORSDOF 20
ENDMDL
MODEL 8
REMARK VINA RESULT:    -4.402      2.008      3.864
REMARK INTER + INTRA:         -13.522
REMARK INTER:                  -9.997
REMARK INTRA:                  -3.525
REMARK UNBOUND:                -3.973
REMARK SMILES CCCCCCCCCCCCCCCCCCCCCC(=O)[O-]
REMARK SMILES IDX 12 1 11 2 10 3 9 4 8 5 7 6 6 7 5 8 4 9 3 10 2 11 1 12 13 13
REMARK SMILES IDX 14 14 15 15 16 16 17 17 18 18 19 19 20 20 21 21 22 22 23 23
REMARK SMILES IDX 24 24
REMARK H PARENT
REMARK Flexibility Score: inf
ROOT
ATOM      1  C   UNL     1     -23.245  61.574  31.601  1.00  0.00     0.000 C 
ENDROOT
BRANCH   1   2
ATOM      2  C   UNL     1     -23.995  62.653  30.790  1.00  0.00     0.000 C 
BRANCH   2   3
ATOM      3  C   UNL     1     -25.520  62.446  30.819  1.00  0.00     0.000 C 
BRANCH   3   4
ATOM      4  C   UNL     1     -25.916  60.963  30.883  1.00  0.00    -0.000 C 
BRANCH   4   5
ATOM      5  C   UNL     1     -26.958  60.674  31.973  1.00  0.00    -0.000 C 
BRANCH   5   6
ATOM      6  C   UNL     1     -27.439  61.977  32.631  1.00  0.00    -0.000 C 
BRANCH   6   7
ATOM      7  C   UNL     1     -27.365  61.932  34.165  1.00  0.00    -0.000 C 
BRANCH   7   8
ATOM      8  C   UNL     1     -26.486  60.779  34.682  1.00  0.00    -0.000 C 
BRANCH   8   9
ATOM      9  C   UNL     1     -25.173  61.267  35.322  1.00  0.00    -0.000 C 
BRANCH   9  10
ATOM     10  C   UNL     1     -23.898  60.580  34.801  1.00  0.00    -0.000 C 
BRANCH  10  11
ATOM     11  C   UNL     1     -22.610  61.233  35.321  1.00  0.00    -0.003 C 
ATOM     12  C   UNL     1     -21.570  60.179  35.693  1.00  0.00     0.004 C 
ENDBRANCH  10  11
ENDBRANCH   9  10
ENDBRANCH   8   9
ENDBRANCH   7   8
ENDBRANCH   6   7
ENDBRANCH   5   6
ENDBRANCH   4   5
ENDBRANCH   3   4
ENDBRANCH   2   3
ENDBRANCH   1   2
BRANCH   1  13
ATOM     13  C   UNL     1     -21.740  61.855  31.759  1.00  0.00     0.000 C 
BRANCH  13  14
ATOM     14  C   UNL     1     -20.880  60.585  31.651  1.00  0.00     0.000 C 
BRANCH  14  15
ATOM     15  C   UNL     1     -19.964  60.598  30.419  1.00  0.00     0.000 C 
BRANCH  15  16
ATOM     16  C   UNL     1     -20.122  61.875  29.575  1.00  0.00     0.000 C 
BRANCH  16  17
ATOM     17  C   UNL     1     -20.606  61.585  28.143  1.00  0.00     0.000 C 
BRANCH  17  18
ATOM     18  C   UNL     1     -22.137  61.607  27.954  1.00  0.00     0.000 C 
BRANCH  18  19
ATOM     19  C   UNL     1     -22.761  60.259  27.549  1.00  0.00     0.000 C 
BRANCH  19  20
ATOM     20  C   UNL     1     -23.367  59.501  28.742  1.00  0.00     0.006 C 
BRANCH  20  21
ATOM     21  C   UNL     1     -22.748  58.107  28.914  1.00  0.00     0.053 C 
BRANCH  21  22
ATOM     22  C   UNL     1     -23.341  57.378  30.080  1.00  0.00     0.041 C 
ATOM     23  O   UNL     1     -23.022  56.183  30.309  1.00  0.00    -0.550 OA
ATOM     24  O   UNL     1     -24.210  58.034  30.943  1.00  0.00    -0.550 OA
ENDBRANCH  21  22
ENDBRANCH  20  21
ENDBRANCH  19  20
ENDBRANCH  18  19
ENDBRANCH  17  18
ENDBRANCH  16  17
ENDBRANCH  15  16
ENDBRANCH  14  15
ENDBRANCH  13  14
ENDBRANCH   1  13
TORSDOF 20
ENDMDL
MODEL 9
REMARK VINA RESULT:    -4.400      1.775      4.053
REMARK INTER + INTRA:         -13.518
REMARK INTER:                  -9.693
REMARK INTRA:                  -3.825
REMARK UNBOUND:                -3.973
REMARK SMILES CCCCCCCCCCCCCCCCCCCCCC(=O)[O-]
REMARK SMILES IDX 12 1 11 2 10 3 9 4 8 5 7 6 6 7 5 8 4 9 3 10 2 11 1 12 13 13
REMARK SMILES IDX 14 14 15 15 16 16 17 17 18 18 19 19 20 20 21 21 22 22 23 23
REMARK SMILES IDX 24 24
REMARK H PARENT
REMARK Flexibility Score: inf
ROOT
ATOM      1  C   UNL     1     -26.179  60.364  33.739  1.00  0.00     0.000 C 
ENDROOT
BRANCH   1   2
ATOM      2  C   UNL     1     -25.314  60.967  34.868  1.00  0.00     0.000 C 
BRANCH   2   3
ATOM      3  C   UNL     1     -23.839  60.539  34.761  1.00  0.00     0.000 C 
BRANCH   3   4
ATOM      4  C   UNL     1     -22.908  61.400  35.631  1.00  0.00    -0.000 C 
BRANCH   4   5
ATOM      5  C   UNL     1     -21.726  61.980  34.840  1.00  0.00    -0.000 C 
BRANCH   5   6
ATOM      6  C   UNL     1     -20.443  61.968  35.686  1.00  0.00    -0.000 C 
BRANCH   6   7
ATOM      7  C   UNL     1     -19.342  61.079  35.085  1.00  0.00    -0.000 C 
BRANCH   7   8
ATOM      8  C   UNL     1     -19.662  60.629  33.649  1.00  0.00    -0.000 C 
BRANCH   8   9
ATOM      9  C   UNL     1     -19.757  59.099  33.507  1.00  0.00    -0.000 C 
BRANCH   9  10
ATOM     10  C   UNL     1     -20.901  58.596  32.608  1.00  0.00    -0.000 C 
BRANCH  10  11
ATOM     11  C   UNL     1     -22.003  57.869  33.390  1.00  0.00    -0.003 C 
ATOM     12  C   UNL     1     -21.581  57.624  34.837  1.00  0.00     0.004 C 
ENDBRANCH  10  11
ENDBRANCH   9  10
ENDBRANCH   8   9
ENDBRANCH   7   8
ENDBRANCH   6   7
ENDBRANCH   5   6
ENDBRANCH   4   5
ENDBRANCH   3   4
ENDBRANCH   2   3
ENDBRANCH   1   2
BRANCH   1  13
ATOM     13  C   UNL     1     -25.487  59.225  32.971  1.00  0.00     0.000 C 
BRANCH  13  14
ATOM     14  C   UNL     1     -25.672  59.331  31.448  1.00  0.00     0.000 C 
BRANCH  14  15
ATOM     15  C   UNL     1     -26.045  60.752  30.999  1.00  0.00     0.000 C 
BRANCH  15  16
ATOM     16  C   UNL     1     -24.996  61.371  30.060  1.00  0.00     0.000 C 
BRANCH  16  17
ATOM     17  C   UNL     1     -24.033  62.324  30.790  1.00  0.00     0.000 C 
BRANCH  17  18
ATOM     18  C   UNL     1     -22.789  61.650  31.406  1.00  0.00     0.000 C 
BRANCH  18  19
ATOM     19  C   UNL     1     -21.440  62.243  30.963  1.00  0.00     0.000 C 
BRANCH  19  20
ATOM     20  C   UNL     1     -20.612  61.269  30.110  1.00  0.00     0.006 C 
BRANCH  20  21
ATOM     21  C   UNL     1     -20.617  61.656  28.624  1.00  0.00     0.053 C 
BRANCH  21  22
ATOM     22  C   UNL     1     -21.856  61.176  27.933  1.00  0.00     0.041 C 
ATOM     23  O   UNL     1     -22.641  62.001  27.398  1.00  0.00    -0.550 OA
ATOM     24  O   UNL     1     -22.118  59.815  27.837  1.00  0.00    -0.550 OA
ENDBRANCH  21  22
ENDBRANCH  20  21
ENDBRANCH  19  20
ENDBRANCH  18  19
ENDBRANCH  17  18
ENDBRANCH  16  17
ENDBRANCH  15  16
ENDBRANCH  14  15
ENDBRANCH  13  14
ENDBRANCH   1  13
TORSDOF 20
ENDMDL
