MODEL 1
REMARK VINA RESULT:    -5.849      0.000      0.000
REMARK INTER + INTRA:          -6.408
REMARK INTER:                  -6.362
REMARK INTRA:                  -0.046
REMARK UNBOUND:                -0.046
REMARK SMILES COc1cc2ccc(=O)oc2cc1O
REMARK SMILES IDX 3 1 13 2 12 3 11 4 5 5 4 6 6 7 7 8 8 9 9 10 10 11 2 12 1 13
REMARK SMILES IDX 14 14
REMARK H PARENT 14 15
REMARK Flexibility Score: inf
ROOT
ATOM      1  C   UNL     1     -13.470  -9.504 -15.501  1.00  0.00     0.161 A 
ATOM      2  C   UNL     1     -13.962  -8.964 -14.302  1.00  0.00     0.161 A 
ATOM      3  C   UNL     1     -15.299  -9.167 -13.929  1.00  0.00     0.098 A 
ATOM      4  C   UNL     1     -16.153  -9.909 -14.748  1.00  0.00     0.142 A 
ATOM      5  C   UNL     1     -15.667 -10.456 -15.954  1.00  0.00     0.022 A 
ATOM      6  C   UNL     1     -14.331 -10.254 -16.327  1.00  0.00     0.062 A 
ATOM      7  C   UNL     1     -16.547 -11.195 -16.753  1.00  0.00     0.019 A 
ATOM      8  C   UNL     1     -17.866 -11.370 -16.337  1.00  0.00     0.094 A 
ATOM      9  C   UNL     1     -18.277 -10.797 -15.128  1.00  0.00     0.336 A 
ATOM     10  O   UNL     1     -19.465 -10.942 -14.736  1.00  0.00    -0.246 OA
ATOM     11  O   UNL     1     -17.420 -10.098 -14.388  1.00  0.00    -0.423 OA
ENDROOT
BRANCH   1  12
ATOM     12  O   UNL     1     -12.126  -9.275 -15.834  1.00  0.00    -0.493 OA
ATOM     13  C   UNL     1     -11.051 -10.144 -15.493  1.00  0.00     0.278 C 
ENDBRANCH   1  12
BRANCH   2  14
ATOM     14  O   UNL     1     -13.112  -8.222 -13.483  1.00  0.00    -0.504 OA
ATOM     15  H   UNL     1     -12.701  -8.620 -12.647  1.00  0.00     0.293 HD
ENDBRANCH   2  14
TORSDOF 2
ENDMDL
MODEL 2
REMARK VINA RESULT:    -5.789     13.756     15.113
REMARK INTER + INTRA:          -6.343
REMARK INTER:                  -6.278
REMARK INTRA:                  -0.065
REMARK UNBOUND:                -0.046
REMARK SMILES COc1cc2ccc(=O)oc2cc1O
REMARK SMILES IDX 3 1 13 2 12 3 11 4 5 5 4 6 6 7 7 8 8 9 9 10 10 11 2 12 1 13
REMARK SMILES IDX 14 14
REMARK H PARENT 14 15
REMARK Flexibility Score: inf
ROOT
ATOM      1  C   UNL     1     -12.074 -19.773  -6.112  1.00  0.00     0.161 A 
ATOM      2  C   UNL     1     -11.521 -20.736  -5.252  1.00  0.00     0.161 A 
ATOM      3  C   UNL     1     -10.133 -20.930  -5.206  1.00  0.00     0.098 A 
ATOM      4  C   UNL     1      -9.287 -20.167  -6.014  1.00  0.00     0.142 A 
ATOM      5  C   UNL     1      -9.835 -19.198  -6.881  1.00  0.00     0.022 A 
ATOM      6  C   UNL     1     -11.222 -19.003  -6.928  1.00  0.00     0.062 A 
ATOM      7  C   UNL     1      -8.962 -18.449  -7.679  1.00  0.00     0.019 A 
ATOM      8  C   UNL     1      -7.590 -18.679  -7.595  1.00  0.00     0.094 A 
ATOM      9  C   UNL     1      -7.120 -19.658  -6.712  1.00  0.00     0.336 A 
ATOM     10  O   UNL     1      -5.884 -19.882  -6.622  1.00  0.00    -0.246 OA
ATOM     11  O   UNL     1      -7.971 -20.356  -5.965  1.00  0.00    -0.423 OA
ENDROOT
BRANCH   1  12
ATOM     12  O   UNL     1     -13.469 -19.614  -6.126  1.00  0.00    -0.493 OA
ATOM     13  C   UNL     1     -14.326 -20.111  -7.148  1.00  0.00     0.278 C 
ENDBRANCH   1  12
BRANCH   2  14
ATOM     14  O   UNL     1     -12.363 -21.498  -4.444  1.00  0.00    -0.504 OA
ATOM     15  H   UNL     1     -12.178 -21.623  -3.455  1.00  0.00     0.293 HD
ENDBRANCH   2  14
TORSDOF 2
ENDMDL
MODEL 3
REMARK VINA RESULT:    -5.752     12.963     14.497
REMARK INTER + INTRA:          -6.303
REMARK INTER:                  -6.244
REMARK INTRA:                  -0.059
REMARK UNBOUND:                -0.046
REMARK SMILES COc1cc2ccc(=O)oc2cc1O
REMARK SMILES IDX 3 1 13 2 12 3 11 4 5 5 4 6 6 7 7 8 8 9 9 10 10 11 2 12 1 13
REMARK SMILES IDX 14 14
REMARK H PARENT 14 15
REMARK Flexibility Score: inf
ROOT
ATOM      1  C   UNL     1     -11.672 -19.405  -6.614  1.00  0.00     0.161 A 
ATOM      2  C   UNL     1     -11.403 -18.280  -7.410  1.00  0.00     0.161 A 
ATOM      3  C   UNL     1     -10.082 -17.950  -7.747  1.00  0.00     0.098 A 
ATOM      4  C   UNL     1      -9.022 -18.738  -7.293  1.00  0.00     0.142 A 
ATOM      5  C   UNL     1      -9.284 -19.870  -6.493  1.00  0.00     0.022 A 
ATOM      6  C   UNL     1     -10.603 -20.201  -6.156  1.00  0.00     0.062 A 
ATOM      7  C   UNL     1      -8.201 -20.641  -6.054  1.00  0.00     0.019 A 
ATOM      8  C   UNL     1      -6.906 -20.272  -6.417  1.00  0.00     0.094 A 
ATOM      9  C   UNL     1      -6.724 -19.135  -7.213  1.00  0.00     0.336 A 
ATOM     10  O   UNL     1      -5.563 -18.785  -7.551  1.00  0.00    -0.246 OA
ATOM     11  O   UNL     1      -7.771 -18.421  -7.616  1.00  0.00    -0.423 OA
ENDROOT
BRANCH   1  12
ATOM     12  O   UNL     1     -13.009 -19.696  -6.302  1.00  0.00    -0.493 OA
ATOM     13  C   UNL     1     -13.821 -20.623  -7.016  1.00  0.00     0.278 C 
ENDBRANCH   1  12
BRANCH   2  14
ATOM     14  O   UNL     1     -12.459 -17.491  -7.864  1.00  0.00    -0.504 OA
ATOM     15  H   UNL     1     -13.398 -17.862  -7.953  1.00  0.00     0.293 HD
ENDBRANCH   2  14
TORSDOF 2
ENDMDL
MODEL 4
REMARK VINA RESULT:    -5.670      1.580      4.725
REMARK INTER + INTRA:          -6.214
REMARK INTER:                  -6.168
REMARK INTRA:                  -0.045
REMARK UNBOUND:                -0.046
REMARK SMILES COc1cc2ccc(=O)oc2cc1O
REMARK SMILES IDX 3 1 13 2 12 3 11 4 5 5 4 6 6 7 7 8 8 9 9 10 10 11 2 12 1 13
REMARK SMILES IDX 14 14
REMARK H PARENT 14 15
REMARK Flexibility Score: inf
ROOT
ATOM      1  C   UNL     1     -17.036 -11.215 -16.486  1.00  0.00     0.161 A 
ATOM      2  C   UNL     1     -17.644 -10.804 -15.289  1.00  0.00     0.161 A 
ATOM      3  C   UNL     1     -17.022  -9.852 -14.470  1.00  0.00     0.098 A 
ATOM      4  C   UNL     1     -15.791  -9.303 -14.836  1.00  0.00     0.142 A 
ATOM      5  C   UNL     1     -15.173  -9.710 -16.037  1.00  0.00     0.022 A 
ATOM      6  C   UNL     1     -15.794 -10.662 -16.858  1.00  0.00     0.062 A 
ATOM      7  C   UNL     1     -13.940  -9.143 -16.378  1.00  0.00     0.019 A 
ATOM      8  C   UNL     1     -13.363  -8.198 -15.529  1.00  0.00     0.094 A 
ATOM      9  C   UNL     1     -14.035  -7.844 -14.354  1.00  0.00     0.336 A 
ATOM     10  O   UNL     1     -13.530  -6.994 -13.574  1.00  0.00    -0.246 OA
ATOM     11  O   UNL     1     -15.206  -8.399 -14.054  1.00  0.00    -0.423 OA
ENDROOT
BRANCH   1  12
ATOM     12  O   UNL     1     -17.694 -12.171 -17.275  1.00  0.00    -0.493 OA
ATOM     13  C   UNL     1     -17.299 -12.540 -18.592  1.00  0.00     0.278 C 
ENDBRANCH   1  12
BRANCH   2  14
ATOM     14  O   UNL     1     -18.873 -11.350 -14.921  1.00  0.00    -0.504 OA
ATOM     15  H   UNL     1     -19.724 -10.800 -14.939  1.00  0.00     0.293 HD
ENDBRANCH   2  14
TORSDOF 2
ENDMDL
MODEL 5
REMARK VINA RESULT:    -5.336     13.428     14.184
REMARK INTER + INTRA:          -5.851
REMARK INTER:                  -5.786
REMARK INTRA:                  -0.064
REMARK UNBOUND:                -0.046
REMARK SMILES COc1cc2ccc(=O)oc2cc1O
REMARK SMILES IDX 3 1 13 2 12 3 11 4 5 5 4 6 6 7 7 8 8 9 9 10 10 11 2 12 1 13
REMARK SMILES IDX 14 14
REMARK H PARENT 14 15
REMARK Flexibility Score: inf
ROOT
ATOM      1  C   UNL     1      -7.538 -19.231  -7.160  1.00  0.00     0.161 A 
ATOM      2  C   UNL     1      -7.678 -20.358  -6.335  1.00  0.00     0.161 A 
ATOM      3  C   UNL     1      -8.942 -20.734  -5.858  1.00  0.00     0.098 A 
ATOM      4  C   UNL     1     -10.074 -19.990  -6.199  1.00  0.00     0.142 A 
ATOM      5  C   UNL     1      -9.942 -18.855  -7.028  1.00  0.00     0.022 A 
ATOM      6  C   UNL     1      -8.679 -18.479  -7.505  1.00  0.00     0.062 A 
ATOM      7  C   UNL     1     -11.093 -18.130  -7.352  1.00  0.00     0.019 A 
ATOM      8  C   UNL     1     -12.328 -18.545  -6.853  1.00  0.00     0.094 A 
ATOM      9  C   UNL     1     -12.381 -19.681  -6.037  1.00  0.00     0.336 A 
ATOM     10  O   UNL     1     -13.485 -20.071  -5.575  1.00  0.00    -0.246 OA
ATOM     11  O   UNL     1     -11.270 -20.351  -5.743  1.00  0.00    -0.423 OA
ENDROOT
BRANCH   1  12
ATOM     12  O   UNL     1      -6.253 -18.892  -7.614  1.00  0.00    -0.493 OA
ATOM     13  C   UNL     1      -5.513 -17.761  -7.165  1.00  0.00     0.278 C 
ENDBRANCH   1  12
BRANCH   2  14
ATOM     14  O   UNL     1      -6.550 -21.103  -5.993  1.00  0.00    -0.504 OA
ATOM     15  H   UNL     1      -6.533 -22.112  -6.087  1.00  0.00     0.293 HD
ENDBRANCH   2  14
TORSDOF 2
ENDMDL
MODEL 6
REMARK VINA RESULT:    -5.290      1.616      4.819
REMARK INTER + INTRA:          -5.801
REMARK INTER:                  -5.752
REMARK INTRA:                  -0.048
REMARK UNBOUND:                -0.046
REMARK SMILES COc1cc2ccc(=O)oc2cc1O
REMARK SMILES IDX 3 1 13 2 12 3 11 4 5 5 4 6 6 7 7 8 8 9 9 10 10 11 2 12 1 13
REMARK SMILES IDX 14 14
REMARK H PARENT 14 15
REMARK Flexibility Score: inf
ROOT
ATOM      1  C   UNL     1     -15.995 -10.509 -14.923  1.00  0.00     0.161 A 
ATOM      2  C   UNL     1     -15.024  -9.930 -14.090  1.00  0.00     0.161 A 
ATOM      3  C   UNL     1     -13.818  -9.461 -14.629  1.00  0.00     0.098 A 
ATOM      4  C   UNL     1     -13.570  -9.565 -16.000  1.00  0.00     0.142 A 
ATOM      5  C   UNL     1     -14.540 -10.146 -16.844  1.00  0.00     0.022 A 
ATOM      6  C   UNL     1     -15.747 -10.615 -16.306  1.00  0.00     0.062 A 
ATOM      7  C   UNL     1     -14.264 -10.237 -18.212  1.00  0.00     0.019 A 
ATOM      8  C   UNL     1     -13.049  -9.754 -18.699  1.00  0.00     0.094 A 
ATOM      9  C   UNL     1     -12.136  -9.191 -17.801  1.00  0.00     0.336 A 
ATOM     10  O   UNL     1     -11.033  -8.751 -18.221  1.00  0.00    -0.246 OA
ATOM     11  O   UNL     1     -12.424  -9.118 -16.505  1.00  0.00    -0.423 OA
ENDROOT
BRANCH   1  12
ATOM     12  O   UNL     1     -17.187 -10.966 -14.340  1.00  0.00    -0.493 OA
ATOM     13  C   UNL     1     -18.457 -10.951 -14.985  1.00  0.00     0.278 C 
ENDBRANCH   1  12
BRANCH   2  14
ATOM     14  O   UNL     1     -15.268  -9.824 -12.722  1.00  0.00    -0.504 OA
ATOM     15  H   UNL     1     -14.511  -9.760 -12.051  1.00  0.00     0.293 HD
ENDBRANCH   2  14
TORSDOF 2
ENDMDL
MODEL 7
REMARK VINA RESULT:    -5.127     13.586     14.154
REMARK INTER + INTRA:          -5.623
REMARK INTER:                  -5.559
REMARK INTRA:                  -0.064
REMARK UNBOUND:                -0.046
REMARK SMILES COc1cc2ccc(=O)oc2cc1O
REMARK SMILES IDX 3 1 13 2 12 3 11 4 5 5 4 6 6 7 7 8 8 9 9 10 10 11 2 12 1 13
REMARK SMILES IDX 14 14
REMARK H PARENT 14 15
REMARK Flexibility Score: inf
ROOT
ATOM      1  C   UNL     1      -8.492 -19.927  -6.488  1.00  0.00     0.161 A 
ATOM      2  C   UNL     1      -8.932 -19.163  -7.581  1.00  0.00     0.161 A 
ATOM      3  C   UNL     1     -10.303 -19.011  -7.833  1.00  0.00     0.098 A 
ATOM      4  C   UNL     1     -11.244 -19.617  -6.998  1.00  0.00     0.142 A 
ATOM      5  C   UNL     1     -10.811 -20.386  -5.897  1.00  0.00     0.022 A 
ATOM      6  C   UNL     1      -9.441 -20.539  -5.645  1.00  0.00     0.062 A 
ATOM      7  C   UNL     1     -11.778 -20.981  -5.079  1.00  0.00     0.019 A 
ATOM      8  C   UNL     1     -13.129 -20.798  -5.371  1.00  0.00     0.094 A 
ATOM      9  C   UNL     1     -13.483 -20.022  -6.480  1.00  0.00     0.336 A 
ATOM     10  O   UNL     1     -14.698 -19.846  -6.762  1.00  0.00    -0.246 OA
ATOM     11  O   UNL     1     -12.543 -19.468  -7.242  1.00  0.00    -0.423 OA
ENDROOT
BRANCH   1  12
ATOM     12  O   UNL     1      -7.110 -20.053  -6.275  1.00  0.00    -0.493 OA
ATOM     13  C   UNL     1      -6.334 -21.182  -6.665  1.00  0.00     0.278 C 
ENDBRANCH   1  12
BRANCH   2  14
ATOM     14  O   UNL     1      -7.994 -18.556  -8.416  1.00  0.00    -0.504 OA
ATOM     15  H   UNL     1      -7.076 -18.292  -8.078  1.00  0.00     0.293 HD
ENDBRANCH   2  14
TORSDOF 2
ENDMDL
MODEL 8
REMARK VINA RESULT:    -5.078     13.092     13.255
REMARK INTER + INTRA:          -5.570
REMARK INTER:                  -5.506
REMARK INTRA:                  -0.064
REMARK UNBOUND:                -0.046
REMARK SMILES COc1cc2ccc(=O)oc2cc1O
REMARK SMILES IDX 3 1 13 2 12 3 11 4 5 5 4 6 6 7 7 8 8 9 9 10 10 11 2 12 1 13
REMARK SMILES IDX 14 14
REMARK H PARENT 14 15
REMARK Flexibility Score: inf
ROOT
ATOM      1  C   UNL     1     -11.005 -20.351  -6.904  1.00  0.00     0.161 A 
ATOM      2  C   UNL     1     -11.717 -20.323  -5.695  1.00  0.00     0.161 A 
ATOM      3  C   UNL     1     -13.119 -20.323  -5.698  1.00  0.00     0.098 A 
ATOM      4  C   UNL     1     -13.821 -20.352  -6.906  1.00  0.00     0.142 A 
ATOM      5  C   UNL     1     -13.113 -20.381  -8.126  1.00  0.00     0.022 A 
ATOM      6  C   UNL     1     -11.711 -20.381  -8.123  1.00  0.00     0.062 A 
ATOM      7  C   UNL     1     -13.843 -20.410  -9.319  1.00  0.00     0.019 A 
ATOM      8  C   UNL     1     -15.237 -20.410  -9.269  1.00  0.00     0.094 A 
ATOM      9  C   UNL     1     -15.870 -20.381  -8.021  1.00  0.00     0.336 A 
ATOM     10  O   UNL     1     -17.127 -20.379  -7.955  1.00  0.00    -0.246 OA
ATOM     11  O   UNL     1     -15.151 -20.353  -6.902  1.00  0.00    -0.423 OA
ENDROOT
BRANCH   1  12
ATOM     12  O   UNL     1      -9.602 -20.349  -6.853  1.00  0.00    -0.493 OA
ATOM     13  C   UNL     1      -8.783 -19.250  -7.241  1.00  0.00     0.278 C 
ENDBRANCH   1  12
BRANCH   2  14
ATOM     14  O   UNL     1     -11.019 -20.294  -4.488  1.00  0.00    -0.504 OA
ATOM     15  H   UNL     1     -10.394 -19.531  -4.255  1.00  0.00     0.293 HD
ENDBRANCH   2  14
TORSDOF 2
ENDMDL
MODEL 9
REMARK VINA RESULT:    -4.959      1.455      2.513
REMARK INTER + INTRA:          -5.441
REMARK INTER:                  -5.376
REMARK INTRA:                  -0.065
REMARK UNBOUND:                -0.046
REMARK SMILES COc1cc2ccc(=O)oc2cc1O
REMARK SMILES IDX 3 1 13 2 12 3 11 4 5 5 4 6 6 7 7 8 8 9 9 10 10 11 2 12 1 13
REMARK SMILES IDX 14 14
REMARK H PARENT 14 15
REMARK Flexibility Score: inf
ROOT
ATOM      1  C   UNL     1     -12.813  -9.779 -16.273  1.00  0.00     0.161 A 
ATOM      2  C   UNL     1     -13.557  -9.985 -17.446  1.00  0.00     0.161 A 
ATOM      3  C   UNL     1     -14.926 -10.279 -17.374  1.00  0.00     0.098 A 
ATOM      4  C   UNL     1     -15.563 -10.371 -16.134  1.00  0.00     0.142 A 
ATOM      5  C   UNL     1     -14.823 -10.166 -14.950  1.00  0.00     0.022 A 
ATOM      6  C   UNL     1     -13.455  -9.872 -15.021  1.00  0.00     0.062 A 
ATOM      7  C   UNL     1     -15.489 -10.264 -13.724  1.00  0.00     0.019 A 
ATOM      8  C   UNL     1     -16.852 -10.558 -13.706  1.00  0.00     0.094 A 
ATOM      9  C   UNL     1     -17.520 -10.748 -14.921  1.00  0.00     0.336 A 
ATOM     10  O   UNL     1     -18.750 -11.016 -14.926  1.00  0.00    -0.246 OA
ATOM     11  O   UNL     1     -16.862 -10.650 -16.073  1.00  0.00    -0.423 OA
ENDROOT
BRANCH   1  12
ATOM     12  O   UNL     1     -11.445  -9.488 -16.392  1.00  0.00    -0.493 OA
ATOM     13  C   UNL     1     -10.400 -10.435 -16.194  1.00  0.00     0.278 C 
ENDBRANCH   1  12
BRANCH   2  14
ATOM     14  O   UNL     1     -12.924  -9.894 -18.684  1.00  0.00    -0.504 OA
ATOM     15  H   UNL     1     -13.344 -10.277 -19.524  1.00  0.00     0.293 HD
ENDBRANCH   2  14
TORSDOF 2
ENDMDL
