MODEL 1
REMARK VINA RESULT:    -6.976      0.000      0.000
REMARK INTER + INTRA:         -11.350
REMARK INTER:                  -9.627
REMARK INTRA:                  -1.723
REMARK UNBOUND:                -1.723
REMARK SMILES CC[C@H](CC[C@H](C)[C@H]1CC[C@H]2[C@@H]3CC=C4C[C@@H](O)CC[C@@]4(C)[C@@H]3CC[C@@]12C)C(C)C
REMARK SMILES IDX 5 1 4 2 3 3 2 4 1 5 28 6 29 7 30 8 6 9 7 10 8 11 9 12 26 13
REMARK SMILES IDX 10 14 11 15 25 16 27 17 12 18 24 19 23 20 13 21 21 22 14 23
REMARK SMILES IDX 15 24 20 25 22 26 16 27 19 28 17 29 18 30
REMARK H PARENT 18 31
REMARK Flexibility Score: inf
ROOT
ATOM      1  C   UNL     1      10.643   3.887  55.034  1.00  0.00     0.004 C 
ENDROOT
BRANCH   1   2
ATOM      2  C   UNL     1       9.292   3.225  55.372  1.00  0.00     0.004 C 
BRANCH   2   3
ATOM      3  C   UNL     1       8.553   2.533  54.185  1.00  0.00    -0.009 C 
BRANCH   3   4
ATOM      4  C   UNL     1       8.654   0.979  54.279  1.00  0.00     0.000 C 
ATOM      5  C   UNL     1       8.943   0.409  55.673  1.00  0.00     0.004 C 
ENDBRANCH   3   4
BRANCH   3   6
ATOM      6  C   UNL     1       7.113   3.087  53.901  1.00  0.00    -0.014 C 
ATOM      7  C   UNL     1       7.102   4.205  52.843  1.00  0.00     0.007 C 
ATOM      8  C   UNL     1       6.072   2.016  53.545  1.00  0.00     0.007 C 
ENDBRANCH   3   6
ENDBRANCH   2   3
ENDBRANCH   1   2
BRANCH   1   9
ATOM      9  C   UNL     1      11.110   3.655  53.560  1.00  0.00    -0.011 C 
ATOM     10  C   UNL     1      12.083   2.457  53.529  1.00  0.00     0.008 C 
BRANCH   9  11
ATOM     11  C   UNL     1      11.663   4.980  52.916  1.00  0.00    -0.002 C 
ATOM     12  C   UNL     1      13.107   4.948  52.451  1.00  0.00     0.005 C 
ATOM     13  C   UNL     1      10.864   5.642  51.745  1.00  0.00    -0.026 C 
ATOM     14  C   UNL     1      13.271   6.269  51.722  1.00  0.00     0.005 C 
ATOM     15  C   UNL     1      11.922   6.545  51.016  1.00  0.00    -0.001 C 
ATOM     16  C   UNL     1      10.265   4.606  50.756  1.00  0.00     0.007 C 
ATOM     17  C   UNL     1       9.725   6.509  52.355  1.00  0.00     0.012 C 
ATOM     18  C   UNL     1      12.070   6.324  49.467  1.00  0.00     0.000 C 
ATOM     19  C   UNL     1       9.671   5.279  49.519  1.00  0.00     0.005 C 
ATOM     20  C   UNL     1      10.734   6.050  48.694  1.00  0.00     0.003 C 
ATOM     21  C   UNL     1      12.928   7.457  48.834  1.00  0.00     0.031 C 
ATOM     22  C   UNL     1      10.169   7.278  47.888  1.00  0.00    -0.008 C 
ATOM     23  C   UNL     1      12.564   7.811  47.421  1.00  0.00    -0.027 C 
ATOM     24  C   UNL     1      11.289   7.806  46.986  1.00  0.00    -0.065 C 
ATOM     25  C   UNL     1       8.964   6.791  47.018  1.00  0.00     0.014 C 
ATOM     26  C   UNL     1       9.701   8.423  48.819  1.00  0.00     0.016 C 
ATOM     27  C   UNL     1      10.967   8.564  45.710  1.00  0.00     0.063 C 
ATOM     28  C   UNL     1       8.597   7.741  45.873  1.00  0.00     0.033 C 
ATOM     29  C   UNL     1       9.793   7.958  44.940  1.00  0.00     0.118 C 
BRANCH  29  30
ATOM     30  O   UNL     1      10.190   6.744  44.353  1.00  0.00    -0.393 OA
ATOM     31  H   UNL     1      11.081   6.902  43.944  1.00  0.00     0.210 HD
ENDBRANCH  29  30
ENDBRANCH   9  11
ENDBRANCH   1   9
TORSDOF 7
ENDMDL
MODEL 2
REMARK VINA RESULT:    -6.850      6.195      9.828
REMARK INTER + INTRA:         -11.177
REMARK INTER:                 -10.641
REMARK INTRA:                  -0.536
REMARK UNBOUND:                -1.723
REMARK SMILES CC[C@H](CC[C@H](C)[C@H]1CC[C@H]2[C@@H]3CC=C4C[C@@H](O)CC[C@@]4(C)[C@@H]3CC[C@@]12C)C(C)C
REMARK SMILES IDX 5 1 4 2 3 3 2 4 1 5 28 6 29 7 30 8 6 9 7 10 8 11 9 12 26 13
REMARK SMILES IDX 10 14 11 15 25 16 27 17 12 18 24 19 23 20 13 21 21 22 14 23
REMARK SMILES IDX 15 24 20 25 22 26 16 27 19 28 17 29 18 30
REMARK H PARENT 18 31
REMARK Flexibility Score: inf
ROOT
ATOM      1  C   UNL     1       2.166  10.267  46.741  1.00  0.00     0.004 C 
ENDROOT
BRANCH   1   2
ATOM      2  C   UNL     1       1.275   9.256  47.492  1.00  0.00     0.004 C 
BRANCH   2   3
ATOM      3  C   UNL     1      -0.171   9.074  46.937  1.00  0.00    -0.009 C 
BRANCH   3   4
ATOM      4  C   UNL     1      -1.225   9.766  47.855  1.00  0.00     0.000 C 
ATOM      5  C   UNL     1      -2.449   8.921  48.228  1.00  0.00     0.004 C 
ENDBRANCH   3   4
BRANCH   3   6
ATOM      6  C   UNL     1      -0.326   9.377  45.406  1.00  0.00    -0.014 C 
ATOM      7  C   UNL     1      -0.905   8.188  44.618  1.00  0.00     0.007 C 
ATOM      8  C   UNL     1      -1.110  10.656  45.080  1.00  0.00     0.007 C 
ENDBRANCH   3   6
ENDBRANCH   2   3
ENDBRANCH   1   2
BRANCH   1   9
ATOM      9  C   UNL     1       2.202  11.686  47.395  1.00  0.00    -0.011 C 
ATOM     10  C   UNL     1       1.905  12.743  46.309  1.00  0.00     0.008 C 
BRANCH   9  11
ATOM     11  C   UNL     1       3.533  11.916  48.201  1.00  0.00    -0.002 C 
ATOM     12  C   UNL     1       3.699  11.101  49.471  1.00  0.00     0.005 C 
ATOM     13  C   UNL     1       4.901  11.799  47.452  1.00  0.00    -0.026 C 
ATOM     14  C   UNL     1       5.125  11.398  49.896  1.00  0.00     0.005 C 
ATOM     15  C   UNL     1       5.948  11.533  48.592  1.00  0.00    -0.001 C 
ATOM     16  C   UNL     1       4.929  10.646  46.413  1.00  0.00     0.007 C 
ATOM     17  C   UNL     1       5.191  13.155  46.743  1.00  0.00     0.012 C 
ATOM     18  C   UNL     1       6.870  10.275  48.404  1.00  0.00     0.000 C 
ATOM     19  C   UNL     1       6.332  10.424  45.847  1.00  0.00     0.005 C 
ATOM     20  C   UNL     1       7.352  10.004  46.937  1.00  0.00     0.003 C 
ATOM     21  C   UNL     1       8.029  10.288  49.442  1.00  0.00     0.031 C 
ATOM     22  C   UNL     1       8.837  10.428  46.637  1.00  0.00    -0.008 C 
ATOM     23  C   UNL     1       9.308   9.663  48.967  1.00  0.00    -0.027 C 
ATOM     24  C   UNL     1       9.736   9.779  47.694  1.00  0.00    -0.065 C 
ATOM     25  C   UNL     1       9.225   9.911  45.213  1.00  0.00     0.014 C 
ATOM     26  C   UNL     1       9.030  11.962  46.696  1.00  0.00     0.016 C 
ATOM     27  C   UNL     1      11.199   9.495  47.404  1.00  0.00     0.063 C 
ATOM     28  C   UNL     1      10.735   9.855  44.959  1.00  0.00     0.033 C 
ATOM     29  C   UNL     1      11.430   8.960  45.990  1.00  0.00     0.118 C 
BRANCH  29  30
ATOM     30  O   UNL     1      10.952   7.641  45.902  1.00  0.00    -0.393 OA
ATOM     31  H   UNL     1      10.056   7.689  45.478  1.00  0.00     0.210 HD
ENDBRANCH  29  30
ENDBRANCH   9  11
ENDBRANCH   1   9
TORSDOF 7
ENDMDL
MODEL 3
REMARK VINA RESULT:    -6.659      2.550      7.421
REMARK INTER + INTRA:         -10.913
REMARK INTER:                  -9.137
REMARK INTRA:                  -1.776
REMARK UNBOUND:                -1.723
REMARK SMILES CC[C@H](CC[C@H](C)[C@H]1CC[C@H]2[C@@H]3CC=C4C[C@@H](O)CC[C@@]4(C)[C@@H]3CC[C@@]12C)C(C)C
REMARK SMILES IDX 5 1 4 2 3 3 2 4 1 5 28 6 29 7 30 8 6 9 7 10 8 11 9 12 26 13
REMARK SMILES IDX 10 14 11 15 25 16 27 17 12 18 24 19 23 20 13 21 21 22 14 23
REMARK SMILES IDX 15 24 20 25 22 26 16 27 19 28 17 29 18 30
REMARK H PARENT 18 31
REMARK Flexibility Score: inf
ROOT
ATOM      1  C   UNL     1      11.337   8.280  48.552  1.00  0.00     0.004 C 
ENDROOT
BRANCH   1   2
ATOM      2  C   UNL     1      11.876   7.022  47.842  1.00  0.00     0.004 C 
BRANCH   2   3
ATOM      3  C   UNL     1      10.824   5.918  47.512  1.00  0.00    -0.009 C 
BRANCH   3   4
ATOM      4  C   UNL     1      11.342   4.501  47.909  1.00  0.00     0.000 C 
ATOM      5  C   UNL     1      12.845   4.391  48.191  1.00  0.00     0.004 C 
ENDBRANCH   3   4
BRANCH   3   6
ATOM      6  C   UNL     1       9.365   6.246  47.983  1.00  0.00    -0.014 C 
ATOM      7  C   UNL     1       8.498   6.854  46.866  1.00  0.00     0.007 C 
ATOM      8  C   UNL     1       8.625   5.074  48.644  1.00  0.00     0.007 C 
ENDBRANCH   3   6
ENDBRANCH   2   3
ENDBRANCH   1   2
BRANCH   1   9
ATOM      9  C   UNL     1      11.949   8.517  49.971  1.00  0.00    -0.011 C 
ATOM     10  C   UNL     1      13.209   7.638  50.124  1.00  0.00     0.008 C 
BRANCH   9  11
ATOM     11  C   UNL     1      10.870   8.337  51.101  1.00  0.00    -0.002 C 
ATOM     12  C   UNL     1       9.419   8.416  50.663  1.00  0.00     0.005 C 
ATOM     13  C   UNL     1      10.954   7.084  52.035  1.00  0.00    -0.026 C 
ATOM     14  C   UNL     1       8.653   8.019  51.912  1.00  0.00     0.005 C 
ATOM     15  C   UNL     1       9.503   6.935  52.617  1.00  0.00    -0.001 C 
ATOM     16  C   UNL     1      11.368   5.792  51.282  1.00  0.00     0.007 C 
ATOM     17  C   UNL     1      11.976   7.384  53.170  1.00  0.00     0.012 C 
ATOM     18  C   UNL     1       8.830   5.526  52.446  1.00  0.00     0.000 C 
ATOM     19  C   UNL     1      11.244   4.552  52.168  1.00  0.00     0.005 C 
ATOM     20  C   UNL     1       9.785   4.296  52.628  1.00  0.00     0.003 C 
ATOM     21  C   UNL     1       7.534   5.433  53.302  1.00  0.00     0.031 C 
ATOM     22  C   UNL     1       9.659   3.555  54.011  1.00  0.00    -0.008 C 
ATOM     23  C   UNL     1       7.220   4.061  53.824  1.00  0.00    -0.027 C 
ATOM     24  C   UNL     1       8.182   3.207  54.226  1.00  0.00    -0.065 C 
ATOM     25  C   UNL     1      10.515   2.247  53.955  1.00  0.00     0.014 C 
ATOM     26  C   UNL     1      10.138   4.434  55.190  1.00  0.00     0.016 C 
ATOM     27  C   UNL     1       7.779   2.043  55.113  1.00  0.00     0.063 C 
ATOM     28  C   UNL     1      10.153   1.218  55.031  1.00  0.00     0.033 C 
ATOM     29  C   UNL     1       8.678   0.819  54.930  1.00  0.00     0.118 C 
BRANCH  29  30
ATOM     30  O   UNL     1       8.410   0.220  53.687  1.00  0.00    -0.393 OA
ATOM     31  H   UNL     1       9.208  -0.324  53.454  1.00  0.00     0.210 HD
ENDBRANCH  29  30
ENDBRANCH   9  11
ENDBRANCH   1   9
TORSDOF 7
ENDMDL
MODEL 4
REMARK VINA RESULT:    -6.370      3.352      8.260
REMARK INTER + INTRA:         -10.513
REMARK INTER:                  -8.351
REMARK INTRA:                  -2.163
REMARK UNBOUND:                -1.723
REMARK SMILES CC[C@H](CC[C@H](C)[C@H]1CC[C@H]2[C@@H]3CC=C4C[C@@H](O)CC[C@@]4(C)[C@@H]3CC[C@@]12C)C(C)C
REMARK SMILES IDX 5 1 4 2 3 3 2 4 1 5 28 6 29 7 30 8 6 9 7 10 8 11 9 12 26 13
REMARK SMILES IDX 10 14 11 15 25 16 27 17 12 18 24 19 23 20 13 21 21 22 14 23
REMARK SMILES IDX 15 24 20 25 22 26 16 27 19 28 17 29 18 30
REMARK H PARENT 18 31
REMARK Flexibility Score: inf
ROOT
ATOM      1  C   UNL     1      12.380   9.796  49.810  1.00  0.00     0.004 C 
ENDROOT
BRANCH   1   2
ATOM      2  C   UNL     1      12.738  10.428  51.170  1.00  0.00     0.004 C 
BRANCH   2   3
ATOM      3  C   UNL     1      11.808  11.584  51.654  1.00  0.00    -0.009 C 
BRANCH   3   4
ATOM      4  C   UNL     1      10.631  11.821  50.659  1.00  0.00     0.000 C 
ATOM      5  C   UNL     1      10.744  13.067  49.771  1.00  0.00     0.004 C 
ENDBRANCH   3   4
BRANCH   3   6
ATOM      6  C   UNL     1      11.392  11.498  53.164  1.00  0.00    -0.014 C 
ATOM      7  C   UNL     1       9.995  10.885  53.364  1.00  0.00     0.007 C 
ATOM      8  C   UNL     1      12.411  10.795  54.072  1.00  0.00     0.007 C 
ENDBRANCH   3   6
ENDBRANCH   2   3
ENDBRANCH   1   2
BRANCH   1   9
ATOM      9  C   UNL     1      11.881   8.318  49.911  1.00  0.00    -0.011 C 
ATOM     10  C   UNL     1      11.436   7.845  48.510  1.00  0.00     0.008 C 
BRANCH   9  11
ATOM     11  C   UNL     1      10.803   8.150  51.045  1.00  0.00    -0.002 C 
ATOM     12  C   UNL     1       9.351   8.197  50.603  1.00  0.00     0.005 C 
ATOM     13  C   UNL     1      10.903   6.922  52.009  1.00  0.00    -0.026 C 
ATOM     14  C   UNL     1       8.589   7.820  51.860  1.00  0.00     0.005 C 
ATOM     15  C   UNL     1       9.454   6.767  52.593  1.00  0.00    -0.001 C 
ATOM     16  C   UNL     1      11.338   5.618  51.289  1.00  0.00     0.007 C 
ATOM     17  C   UNL     1      11.919   7.265  53.138  1.00  0.00     0.012 C 
ATOM     18  C   UNL     1       8.802   5.345  52.457  1.00  0.00     0.000 C 
ATOM     19  C   UNL     1      11.229   4.399  52.206  1.00  0.00     0.005 C 
ATOM     20  C   UNL     1       9.773   4.133  52.670  1.00  0.00     0.003 C 
ATOM     21  C   UNL     1       7.506   5.254  53.313  1.00  0.00     0.031 C 
ATOM     22  C   UNL     1       9.656   3.425  54.071  1.00  0.00    -0.008 C 
ATOM     23  C   UNL     1       7.211   3.891  53.869  1.00  0.00    -0.027 C 
ATOM     24  C   UNL     1       8.184   3.062  54.293  1.00  0.00    -0.065 C 
ATOM     25  C   UNL     1      10.531   2.129  54.049  1.00  0.00     0.014 C 
ATOM     26  C   UNL     1      10.121   4.340  55.229  1.00  0.00     0.016 C 
ATOM     27  C   UNL     1       7.796   1.914  55.208  1.00  0.00     0.063 C 
ATOM     28  C   UNL     1      10.182   1.122  55.150  1.00  0.00     0.033 C 
ATOM     29  C   UNL     1       8.713   0.699  55.057  1.00  0.00     0.118 C 
BRANCH  29  30
ATOM     30  O   UNL     1       8.456   0.066  53.829  1.00  0.00    -0.393 OA
ATOM     31  H   UNL     1       9.262   0.199  53.264  1.00  0.00     0.210 HD
ENDBRANCH  29  30
ENDBRANCH   9  11
ENDBRANCH   1   9
TORSDOF 7
ENDMDL
MODEL 5
REMARK VINA RESULT:    -6.311      2.340      3.778
REMARK INTER + INTRA:         -10.432
REMARK INTER:                  -8.560
REMARK INTRA:                  -1.872
REMARK UNBOUND:                -1.723
REMARK SMILES CC[C@H](CC[C@H](C)[C@H]1CC[C@H]2[C@@H]3CC=C4C[C@@H](O)CC[C@@]4(C)[C@@H]3CC[C@@]12C)C(C)C
REMARK SMILES IDX 5 1 4 2 3 3 2 4 1 5 28 6 29 7 30 8 6 9 7 10 8 11 9 12 26 13
REMARK SMILES IDX 10 14 11 15 25 16 27 17 12 18 24 19 23 20 13 21 21 22 14 23
REMARK SMILES IDX 15 24 20 25 22 26 16 27 19 28 17 29 18 30
REMARK H PARENT 18 31
REMARK Flexibility Score: inf
ROOT
ATOM      1  C   UNL     1      12.160   5.326  51.868  1.00  0.00     0.004 C 
ENDROOT
BRANCH   1   2
ATOM      2  C   UNL     1      11.017   5.228  52.899  1.00  0.00     0.004 C 
BRANCH   2   3
ATOM      3  C   UNL     1       9.785   4.369  52.476  1.00  0.00    -0.009 C 
BRANCH   3   4
ATOM      4  C   UNL     1       9.608   3.130  53.408  1.00  0.00     0.000 C 
ATOM      5  C   UNL     1      10.850   2.706  54.203  1.00  0.00     0.004 C 
ENDBRANCH   3   4
BRANCH   3   6
ATOM      6  C   UNL     1       8.476   5.190  52.212  1.00  0.00    -0.014 C 
ATOM      7  C   UNL     1       7.208   4.467  52.699  1.00  0.00     0.007 C 
ATOM      8  C   UNL     1       8.500   6.628  52.750  1.00  0.00     0.007 C 
ENDBRANCH   3   6
ENDBRANCH   2   3
ENDBRANCH   1   2
BRANCH   1   9
ATOM      9  C   UNL     1      11.686   5.192  50.384  1.00  0.00    -0.011 C 
ATOM     10  C   UNL     1      12.215   3.860  49.810  1.00  0.00     0.008 C 
BRANCH   9  11
ATOM     11  C   UNL     1      12.052   6.471  49.545  1.00  0.00    -0.002 C 
ATOM     12  C   UNL     1      12.714   6.227  48.202  1.00  0.00     0.005 C 
ATOM     13  C   UNL     1      10.942   7.540  49.272  1.00  0.00    -0.026 C 
ATOM     14  C   UNL     1      12.759   7.608  47.575  1.00  0.00     0.005 C 
ATOM     15  C   UNL     1      11.462   8.328  48.017  1.00  0.00    -0.001 C 
ATOM     16  C   UNL     1       9.553   6.913  48.980  1.00  0.00     0.007 C 
ATOM     17  C   UNL     1      10.848   8.478  50.511  1.00  0.00     0.012 C 
ATOM     18  C   UNL     1      10.466   8.434  46.807  1.00  0.00     0.000 C 
ATOM     19  C   UNL     1       8.542   7.962  48.517  1.00  0.00     0.005 C 
ATOM     20  C   UNL     1       8.960   8.644  47.188  1.00  0.00     0.003 C 
ATOM     21  C   UNL     1      10.987   9.462  45.761  1.00  0.00     0.031 C 
ATOM     22  C   UNL     1       8.430  10.116  47.017  1.00  0.00    -0.008 C 
ATOM     23  C   UNL     1       9.914  10.196  45.010  1.00  0.00    -0.027 C 
ATOM     24  C   UNL     1       8.758  10.572  45.592  1.00  0.00    -0.065 C 
ATOM     25  C   UNL     1       6.881  10.117  47.237  1.00  0.00     0.014 C 
ATOM     26  C   UNL     1       9.091  11.095  48.015  1.00  0.00     0.016 C 
ATOM     27  C   UNL     1       7.933  11.650  44.910  1.00  0.00     0.063 C 
ATOM     28  C   UNL     1       6.172  11.357  46.682  1.00  0.00     0.033 C 
ATOM     29  C   UNL     1       6.434  11.508  45.180  1.00  0.00     0.118 C 
BRANCH  29  30
ATOM     30  O   UNL     1       5.931  10.401  44.475  1.00  0.00    -0.393 OA
ATOM     31  H   UNL     1       6.454   9.611  44.773  1.00  0.00     0.210 HD
ENDBRANCH  29  30
ENDBRANCH   9  11
ENDBRANCH   1   9
TORSDOF 7
ENDMDL
MODEL 6
REMARK VINA RESULT:    -6.306      3.377      8.564
REMARK INTER + INTRA:         -10.425
REMARK INTER:                  -8.363
REMARK INTRA:                  -2.063
REMARK UNBOUND:                -1.723
REMARK SMILES CC[C@H](CC[C@H](C)[C@H]1CC[C@H]2[C@@H]3CC=C4C[C@@H](O)CC[C@@]4(C)[C@@H]3CC[C@@]12C)C(C)C
REMARK SMILES IDX 5 1 4 2 3 3 2 4 1 5 28 6 29 7 30 8 6 9 7 10 8 11 9 12 26 13
REMARK SMILES IDX 10 14 11 15 25 16 27 17 12 18 24 19 23 20 13 21 21 22 14 23
REMARK SMILES IDX 15 24 20 25 22 26 16 27 19 28 17 29 18 30
REMARK H PARENT 18 31
REMARK Flexibility Score: inf
ROOT
ATOM      1  C   UNL     1       7.851  11.528  44.611  1.00  0.00     0.004 C 
ENDROOT
BRANCH   1   2
ATOM      2  C   UNL     1       6.569  11.982  45.338  1.00  0.00     0.004 C 
BRANCH   2   3
ATOM      3  C   UNL     1       6.611  11.926  46.897  1.00  0.00    -0.009 C 
BRANCH   3   4
ATOM      4  C   UNL     1       6.569  13.357  47.518  1.00  0.00     0.000 C 
ATOM      5  C   UNL     1       7.857  13.827  48.206  1.00  0.00     0.004 C 
ENDBRANCH   3   4
BRANCH   3   6
ATOM      6  C   UNL     1       5.619  10.896  47.540  1.00  0.00    -0.014 C 
ATOM      7  C   UNL     1       5.377  11.156  49.038  1.00  0.00     0.007 C 
ATOM      8  C   UNL     1       4.278  10.752  46.808  1.00  0.00     0.007 C 
ENDBRANCH   3   6
ENDBRANCH   2   3
ENDBRANCH   1   2
BRANCH   1   9
ATOM      9  C   UNL     1       9.119  11.495  45.524  1.00  0.00    -0.011 C 
ATOM     10  C   UNL     1      10.017  12.701  45.174  1.00  0.00     0.008 C 
BRANCH   9  11
ATOM     11  C   UNL     1       9.833  10.094  45.469  1.00  0.00    -0.002 C 
ATOM     12  C   UNL     1      11.350  10.114  45.451  1.00  0.00     0.005 C 
ATOM     13  C   UNL     1       9.444   9.005  46.523  1.00  0.00    -0.026 C 
ATOM     14  C   UNL     1      11.722   8.650  45.591  1.00  0.00     0.005 C 
ATOM     15  C   UNL     1      10.668   8.021  46.534  1.00  0.00    -0.001 C 
ATOM     16  C   UNL     1       9.207   9.588  47.941  1.00  0.00     0.007 C 
ATOM     17  C   UNL     1       8.159   8.279  46.028  1.00  0.00     0.012 C 
ATOM     18  C   UNL     1      11.308   7.730  47.939  1.00  0.00     0.000 C 
ATOM     19  C   UNL     1       9.032   8.487  48.987  1.00  0.00     0.005 C 
ATOM     20  C   UNL     1      10.295   7.597  49.127  1.00  0.00     0.003 C 
ATOM     21  C   UNL     1      12.310   6.543  47.846  1.00  0.00     0.031 C 
ATOM     22  C   UNL     1      10.002   6.121  49.589  1.00  0.00    -0.008 C 
ATOM     23  C   UNL     1      12.414   5.706  49.089  1.00  0.00    -0.027 C 
ATOM     24  C   UNL     1      11.346   5.439  49.866  1.00  0.00    -0.065 C 
ATOM     25  C   UNL     1       9.146   6.169  50.897  1.00  0.00     0.014 C 
ATOM     26  C   UNL     1       9.247   5.309  48.510  1.00  0.00     0.016 C 
ATOM     27  C   UNL     1      11.442   4.272  50.833  1.00  0.00     0.063 C 
ATOM     28  C   UNL     1       9.155   4.861  51.697  1.00  0.00     0.033 C 
ATOM     29  C   UNL     1      10.584   4.468  52.084  1.00  0.00     0.118 C 
BRANCH  29  30
ATOM     30  O   UNL     1      11.163   5.451  52.904  1.00  0.00    -0.393 OA
ATOM     31  H   UNL     1      11.668   4.972  53.612  1.00  0.00     0.210 HD
ENDBRANCH  29  30
ENDBRANCH   9  11
ENDBRANCH   1   9
TORSDOF 7
ENDMDL
MODEL 7
REMARK VINA RESULT:    -6.285      3.930      6.591
REMARK INTER + INTRA:         -10.396
REMARK INTER:                  -8.179
REMARK INTRA:                  -2.217
REMARK UNBOUND:                -1.723
REMARK SMILES CC[C@H](CC[C@H](C)[C@H]1CC[C@H]2[C@@H]3CC=C4C[C@@H](O)CC[C@@]4(C)[C@@H]3CC[C@@]12C)C(C)C
REMARK SMILES IDX 5 1 4 2 3 3 2 4 1 5 28 6 29 7 30 8 6 9 7 10 8 11 9 12 26 13
REMARK SMILES IDX 10 14 11 15 25 16 27 17 12 18 24 19 23 20 13 21 21 22 14 23
REMARK SMILES IDX 15 24 20 25 22 26 16 27 19 28 17 29 18 30
REMARK H PARENT 18 31
REMARK Flexibility Score: inf
ROOT
ATOM      1  C   UNL     1      11.924   7.080  49.628  1.00  0.00     0.004 C 
ENDROOT
BRANCH   1   2
ATOM      2  C   UNL     1      11.443   6.853  51.075  1.00  0.00     0.004 C 
BRANCH   2   3
ATOM      3  C   UNL     1       9.923   7.088  51.336  1.00  0.00    -0.009 C 
BRANCH   3   4
ATOM      4  C   UNL     1       9.178   5.745  51.607  1.00  0.00     0.000 C 
ATOM      5  C   UNL     1      10.031   4.474  51.516  1.00  0.00     0.004 C 
ENDBRANCH   3   4
BRANCH   3   6
ATOM      6  C   UNL     1       9.605   8.238  52.353  1.00  0.00    -0.014 C 
ATOM      7  C   UNL     1      10.781   9.213  52.540  1.00  0.00     0.007 C 
ATOM      8  C   UNL     1       8.317   9.020  52.057  1.00  0.00     0.007 C 
ENDBRANCH   3   6
ENDBRANCH   2   3
ENDBRANCH   1   2
BRANCH   1   9
ATOM      9  C   UNL     1      10.797   6.928  48.556  1.00  0.00    -0.011 C 
ATOM     10  C   UNL     1      10.970   5.571  47.840  1.00  0.00     0.008 C 
BRANCH   9  11
ATOM     11  C   UNL     1      10.734   8.180  47.604  1.00  0.00    -0.002 C 
ATOM     12  C   UNL     1      10.556   7.891  46.125  1.00  0.00     0.005 C 
ATOM     13  C   UNL     1       9.720   9.326  47.928  1.00  0.00    -0.026 C 
ATOM     14  C   UNL     1      10.343   9.267  45.521  1.00  0.00     0.005 C 
ATOM     15  C   UNL     1       9.533  10.077  46.562  1.00  0.00    -0.001 C 
ATOM     16  C   UNL     1       8.355   8.801  48.448  1.00  0.00     0.007 C 
ATOM     17  C   UNL     1      10.363  10.266  48.990  1.00  0.00     0.012 C 
ATOM     18  C   UNL     1       8.052  10.257  46.069  1.00  0.00     0.000 C 
ATOM     19  C   UNL     1       7.320   9.921  48.560  1.00  0.00     0.005 C 
ATOM     20  C   UNL     1       7.002  10.574  47.189  1.00  0.00     0.003 C 
ATOM     21  C   UNL     1       7.992  11.247  44.870  1.00  0.00     0.031 C 
ATOM     22  C   UNL     1       6.554  12.081  47.274  1.00  0.00    -0.008 C 
ATOM     23  C   UNL     1       6.732  12.058  44.783  1.00  0.00    -0.027 C 
ATOM     24  C   UNL     1       6.094  12.515  45.879  1.00  0.00    -0.065 C 
ATOM     25  C   UNL     1       5.369  12.192  48.288  1.00  0.00     0.014 C 
ATOM     26  C   UNL     1       7.707  13.008  47.727  1.00  0.00     0.016 C 
ATOM     27  C   UNL     1       5.102  13.650  45.705  1.00  0.00     0.063 C 
ATOM     28  C   UNL     1       4.551  13.481  48.154  1.00  0.00     0.033 C 
ATOM     29  C   UNL     1       3.975  13.616  46.740  1.00  0.00     0.118 C 
BRANCH  29  30
ATOM     30  O   UNL     1       3.106  12.550  46.455  1.00  0.00    -0.393 OA
ATOM     31  H   UNL     1       2.266  12.723  46.956  1.00  0.00     0.210 HD
ENDBRANCH  29  30
ENDBRANCH   9  11
ENDBRANCH   1   9
TORSDOF 7
ENDMDL
MODEL 8
REMARK VINA RESULT:    -6.274      5.527      8.962
REMARK INTER + INTRA:         -10.381
REMARK INTER:                  -8.365
REMARK INTRA:                  -2.016
REMARK UNBOUND:                -1.723
REMARK SMILES CC[C@H](CC[C@H](C)[C@H]1CC[C@H]2[C@@H]3CC=C4C[C@@H](O)CC[C@@]4(C)[C@@H]3CC[C@@]12C)C(C)C
REMARK SMILES IDX 5 1 4 2 3 3 2 4 1 5 28 6 29 7 30 8 6 9 7 10 8 11 9 12 26 13
REMARK SMILES IDX 10 14 11 15 25 16 27 17 12 18 24 19 23 20 13 21 21 22 14 23
REMARK SMILES IDX 15 24 20 25 22 26 16 27 19 28 17 29 18 30
REMARK H PARENT 18 31
REMARK Flexibility Score: inf
ROOT
ATOM      1  C   UNL     1      13.384   8.192  47.717  1.00  0.00     0.004 C 
ENDROOT
BRANCH   1   2
ATOM      2  C   UNL     1      13.701   8.898  46.383  1.00  0.00     0.004 C 
BRANCH   2   3
ATOM      3  C   UNL     1      14.439  10.268  46.493  1.00  0.00    -0.009 C 
BRANCH   3   4
ATOM      4  C   UNL     1      14.056  11.217  45.315  1.00  0.00     0.000 C 
ATOM      5  C   UNL     1      12.649  11.029  44.733  1.00  0.00     0.004 C 
ENDBRANCH   3   4
BRANCH   3   6
ATOM      6  C   UNL     1      14.388  10.925  47.916  1.00  0.00    -0.014 C 
ATOM      7  C   UNL     1      15.717  10.794  48.682  1.00  0.00     0.007 C 
ATOM      8  C   UNL     1      13.913  12.385  47.933  1.00  0.00     0.007 C 
ENDBRANCH   3   6
ENDBRANCH   2   3
ENDBRANCH   1   2
BRANCH   1   9
ATOM      9  C   UNL     1      11.859   7.940  47.952  1.00  0.00    -0.011 C 
ATOM     10  C   UNL     1      11.581   6.425  47.845  1.00  0.00     0.008 C 
BRANCH   9  11
ATOM     11  C   UNL     1      10.975   8.847  47.018  1.00  0.00    -0.002 C 
ATOM     12  C   UNL     1      10.292   8.149  45.856  1.00  0.00     0.005 C 
ATOM     13  C   UNL     1       9.873   9.750  47.664  1.00  0.00    -0.026 C 
ATOM     14  C   UNL     1       9.388   9.225  45.283  1.00  0.00     0.005 C 
ATOM     15  C   UNL     1       8.878  10.051  46.488  1.00  0.00    -0.001 C 
ATOM     16  C   UNL     1       9.130   9.058  48.837  1.00  0.00     0.007 C 
ATOM     17  C   UNL     1      10.545  11.062  48.166  1.00  0.00     0.012 C 
ATOM     18  C   UNL     1       7.365   9.726  46.762  1.00  0.00     0.000 C 
ATOM     19  C   UNL     1       7.930   9.877  49.313  1.00  0.00     0.005 C 
ATOM     20  C   UNL     1       6.856  10.053  48.207  1.00  0.00     0.003 C 
ATOM     21  C   UNL     1       6.467  10.325  45.641  1.00  0.00     0.031 C 
ATOM     22  C   UNL     1       6.005  11.371  48.330  1.00  0.00    -0.008 C 
ATOM     23  C   UNL     1       5.098  10.748  46.088  1.00  0.00    -0.027 C 
ATOM     24  C   UNL     1       4.876  11.301  47.297  1.00  0.00    -0.065 C 
ATOM     25  C   UNL     1       5.406  11.445  49.773  1.00  0.00     0.014 C 
ATOM     26  C   UNL     1       6.849  12.639  48.058  1.00  0.00     0.016 C 
ATOM     27  C   UNL     1       3.584  12.072  47.503  1.00  0.00     0.063 C 
ATOM     28  C   UNL     1       4.225  12.412  49.911  1.00  0.00     0.033 C 
ATOM     29  C   UNL     1       3.094  12.030  48.951  1.00  0.00     0.118 C 
BRANCH  29  30
ATOM     30  O   UNL     1       2.606  10.746  49.247  1.00  0.00    -0.393 OA
ATOM     31  H   UNL     1       3.398  10.170  49.413  1.00  0.00     0.210 HD
ENDBRANCH  29  30
ENDBRANCH   9  11
ENDBRANCH   1   9
TORSDOF 7
ENDMDL
MODEL 9
REMARK VINA RESULT:    -6.230      1.422      2.582
REMARK INTER + INTRA:         -10.321
REMARK INTER:                  -8.533
REMARK INTRA:                  -1.788
REMARK UNBOUND:                -1.723
REMARK SMILES CC[C@H](CC[C@H](C)[C@H]1CC[C@H]2[C@@H]3CC=C4C[C@@H](O)CC[C@@]4(C)[C@@H]3CC[C@@]12C)C(C)C
REMARK SMILES IDX 5 1 4 2 3 3 2 4 1 5 28 6 29 7 30 8 6 9 7 10 8 11 9 12 26 13
REMARK SMILES IDX 10 14 11 15 25 16 27 17 12 18 24 19 23 20 13 21 21 22 14 23
REMARK SMILES IDX 15 24 20 25 22 26 16 27 19 28 17 29 18 30
REMARK H PARENT 18 31
REMARK Flexibility Score: inf
ROOT
ATOM      1  C   UNL     1      11.548   3.869  53.963  1.00  0.00     0.004 C 
ENDROOT
BRANCH   1   2
ATOM      2  C   UNL     1      10.122   3.826  54.549  1.00  0.00     0.004 C 
BRANCH   2   3
ATOM      3  C   UNL     1       9.120   2.862  53.842  1.00  0.00    -0.009 C 
BRANCH   3   4
ATOM      4  C   UNL     1       9.386   1.376  54.236  1.00  0.00     0.000 C 
ATOM      5  C   UNL     1       9.627   1.110  55.727  1.00  0.00     0.004 C 
ENDBRANCH   3   4
BRANCH   3   6
ATOM      6  C   UNL     1       7.619   3.309  53.919  1.00  0.00    -0.014 C 
ATOM      7  C   UNL     1       7.275   4.421  52.912  1.00  0.00     0.007 C 
ATOM      8  C   UNL     1       6.601   2.165  53.808  1.00  0.00     0.007 C 
ENDBRANCH   3   6
ENDBRANCH   2   3
ENDBRANCH   1   2
BRANCH   1   9
ATOM      9  C   UNL     1      11.889   5.204  53.225  1.00  0.00    -0.011 C 
ATOM     10  C   UNL     1      12.729   6.094  54.167  1.00  0.00     0.008 C 
BRANCH   9  11
ATOM     11  C   UNL     1      10.597   5.885  52.641  1.00  0.00    -0.002 C 
ATOM     12  C   UNL     1      10.199   7.213  53.261  1.00  0.00     0.005 C 
ATOM     13  C   UNL     1      10.488   6.100  51.095  1.00  0.00    -0.026 C 
ATOM     14  C   UNL     1       9.064   7.688  52.373  1.00  0.00     0.005 C 
ATOM     15  C   UNL     1       9.419   7.239  50.936  1.00  0.00    -0.001 C 
ATOM     16  C   UNL     1      11.831   6.525  50.444  1.00  0.00     0.007 C 
ATOM     17  C   UNL     1       9.984   4.777  50.449  1.00  0.00     0.012 C 
ATOM     18  C   UNL     1       9.853   8.480  50.075  1.00  0.00     0.000 C 
ATOM     19  C   UNL     1      11.652   6.926  48.980  1.00  0.00     0.005 C 
ATOM     20  C   UNL     1      10.720   8.154  48.810  1.00  0.00     0.003 C 
ATOM     21  C   UNL     1       8.626   9.386  49.766  1.00  0.00     0.031 C 
ATOM     22  C   UNL     1       9.942   8.197  47.443  1.00  0.00    -0.008 C 
ATOM     23  C   UNL     1       8.691  10.108  48.452  1.00  0.00    -0.027 C 
ATOM     24  C   UNL     1       9.227   9.549  47.350  1.00  0.00    -0.065 C 
ATOM     25  C   UNL     1      10.976   8.055  46.277  1.00  0.00     0.014 C 
ATOM     26  C   UNL     1       8.888   7.070  47.334  1.00  0.00     0.016 C 
ATOM     27  C   UNL     1       8.880  10.154  46.001  1.00  0.00     0.063 C 
ATOM     28  C   UNL     1      10.446   8.512  44.914  1.00  0.00     0.033 C 
ATOM     29  C   UNL     1       9.994   9.975  44.967  1.00  0.00     0.118 C 
BRANCH  29  30
ATOM     30  O   UNL     1      11.074  10.816  45.288  1.00  0.00    -0.393 OA
ATOM     31  H   UNL     1      10.938  11.661  44.784  1.00  0.00     0.210 HD
ENDBRANCH  29  30
ENDBRANCH   9  11
ENDBRANCH   1   9
TORSDOF 7
ENDMDL
