MODEL 1
REMARK VINA RESULT:    19.339      0.000      0.000
REMARK INTER + INTRA:          37.120
REMARK INTER:                  37.429
REMARK INTRA:                  -0.309
REMARK UNBOUND:                -0.309
REMARK SMILES CCCCCCCCCCCCCCCCCC(=O)[O-]
REMARK SMILES IDX 10 1 11 2 12 3 13 4 14 5 15 6 16 7 17 8 18 9 19 10 20 11
REMARK SMILES IDX 9 12 8 13 7 14 6 15 5 16 4 17 3 18 2 19 1 20
REMARK H PARENT
REMARK Flexibility Score: inf
ROOT
ATOM      1  C   UNL     1     -36.734  23.129  -8.413  1.00  0.00     0.000 C 
ENDROOT
BRANCH   1   2
ATOM      2  C   UNL     1     -36.263  22.227  -7.259  1.00  0.00     0.000 C 
BRANCH   2   3
ATOM      3  C   UNL     1     -37.411  21.851  -6.305  1.00  0.00     0.000 C 
BRANCH   3   4
ATOM      4  C   UNL     1     -37.693  22.949  -5.265  1.00  0.00     0.000 C 
BRANCH   4   5
ATOM      5  C   UNL     1     -36.798  24.185  -5.454  1.00  0.00     0.000 C 
BRANCH   5   6
ATOM      6  C   UNL     1     -37.564  25.507  -5.265  1.00  0.00     0.000 C 
BRANCH   6   7
ATOM      7  C   UNL     1     -36.642  26.673  -4.875  1.00  0.00     0.006 C 
BRANCH   7   8
ATOM      8  C   UNL     1     -36.633  27.794  -5.922  1.00  0.00     0.053 C 
BRANCH   8   9
ATOM      9  C   UNL     1     -37.477  28.942  -5.465  1.00  0.00     0.041 C 
ATOM     10  O   UNL     1     -38.577  28.730  -4.888  1.00  0.00    -0.550 OA
ATOM     11  O   UNL     1     -37.032  30.247  -5.640  1.00  0.00    -0.550 OA
ENDBRANCH   8   9
ENDBRANCH   7   8
ENDBRANCH   6   7
ENDBRANCH   5   6
ENDBRANCH   4   5
ENDBRANCH   3   4
ENDBRANCH   2   3
ENDBRANCH   1   2
BRANCH   1  12
ATOM     12  C   UNL     1     -36.522  22.486  -9.793  1.00  0.00     0.000 C 
BRANCH  12  13
ATOM     13  C   UNL     1     -37.016  23.380 -10.946  1.00  0.00    -0.000 C 
BRANCH  13  14
ATOM     14  C   UNL     1     -37.633  22.566 -12.095  1.00  0.00    -0.000 C 
BRANCH  14  15
ATOM     15  C   UNL     1     -38.243  23.462 -13.186  1.00  0.00    -0.000 C 
BRANCH  15  16
ATOM     16  C   UNL     1     -39.446  24.279 -12.684  1.00  0.00    -0.000 C 
BRANCH  16  17
ATOM     17  C   UNL     1     -40.424  24.692 -13.805  1.00  0.00    -0.000 C 
BRANCH  17  18
ATOM     18  C   UNL     1     -41.820  24.073 -13.614  1.00  0.00    -0.000 C 
BRANCH  18  19
ATOM     19  C   UNL     1     -42.036  23.531 -12.192  1.00  0.00    -0.003 C 
ATOM     20  C   UNL     1     -42.463  24.615 -11.205  1.00  0.00     0.004 C 
ENDBRANCH  18  19
ENDBRANCH  17  18
ENDBRANCH  16  17
ENDBRANCH  15  16
ENDBRANCH  14  15
ENDBRANCH  13  14
ENDBRANCH  12  13
ENDBRANCH   1  12
TORSDOF 16
ENDMDL
MODEL 2
REMARK VINA RESULT:    20.142      8.936     13.190
REMARK INTER + INTRA:          38.673
REMARK INTER:                  39.386
REMARK INTRA:                  -0.713
REMARK UNBOUND:                -0.309
REMARK SMILES CCCCCCCCCCCCCCCCCC(=O)[O-]
REMARK SMILES IDX 10 1 11 2 12 3 13 4 14 5 15 6 16 7 17 8 18 9 19 10 20 11
REMARK SMILES IDX 9 12 8 13 7 14 6 15 5 16 4 17 3 18 2 19 1 20
REMARK H PARENT
REMARK Flexibility Score: inf
ROOT
ATOM      1  C   UNL     1     -38.323  25.172 -21.425  1.00  0.00     0.000 C 
ENDROOT
BRANCH   1   2
ATOM      2  C   UNL     1     -37.589  26.522 -21.366  1.00  0.00     0.000 C 
BRANCH   2   3
ATOM      3  C   UNL     1     -38.371  27.644 -22.070  1.00  0.00     0.000 C 
BRANCH   3   4
ATOM      4  C   UNL     1     -38.246  28.993 -21.342  1.00  0.00     0.000 C 
BRANCH   4   5
ATOM      5  C   UNL     1     -39.603  29.530 -20.858  1.00  0.00     0.000 C 
BRANCH   5   6
ATOM      6  C   UNL     1     -40.745  29.236 -21.846  1.00  0.00     0.000 C 
BRANCH   6   7
ATOM      7  C   UNL     1     -41.463  30.513 -22.315  1.00  0.00     0.006 C 
BRANCH   7   8
ATOM      8  C   UNL     1     -42.983  30.333 -22.407  1.00  0.00     0.053 C 
BRANCH   8   9
ATOM      9  C   UNL     1     -43.686  31.486 -21.763  1.00  0.00     0.041 C 
ATOM     10  O   UNL     1     -44.583  32.111 -22.388  1.00  0.00    -0.550 OA
ATOM     11  O   UNL     1     -43.379  31.846 -20.456  1.00  0.00    -0.550 OA
ENDBRANCH   8   9
ENDBRANCH   7   8
ENDBRANCH   6   7
ENDBRANCH   5   6
ENDBRANCH   4   5
ENDBRANCH   3   4
ENDBRANCH   2   3
ENDBRANCH   1   2
BRANCH   1  12
ATOM     12  C   UNL     1     -37.633  24.083 -20.585  1.00  0.00     0.000 C 
BRANCH  12  13
ATOM     13  C   UNL     1     -38.388  23.773 -19.280  1.00  0.00    -0.000 C 
BRANCH  13  14
ATOM     14  C   UNL     1     -38.437  22.267 -18.975  1.00  0.00    -0.000 C 
BRANCH  14  15
ATOM     15  C   UNL     1     -39.809  21.822 -18.441  1.00  0.00    -0.000 C 
BRANCH  15  16
ATOM     16  C   UNL     1     -40.800  22.989 -18.295  1.00  0.00    -0.000 C 
BRANCH  16  17
ATOM     17  C   UNL     1     -41.910  22.732 -17.253  1.00  0.00    -0.000 C 
BRANCH  17  18
ATOM     18  C   UNL     1     -41.878  23.758 -16.107  1.00  0.00    -0.000 C 
BRANCH  18  19
ATOM     19  C   UNL     1     -42.768  23.350 -14.923  1.00  0.00    -0.003 C 
ATOM     20  C   UNL     1     -42.264  23.898 -13.588  1.00  0.00     0.004 C 
ENDBRANCH  18  19
ENDBRANCH  17  18
ENDBRANCH  16  17
ENDBRANCH  15  16
ENDBRANCH  14  15
ENDBRANCH  13  14
ENDBRANCH  12  13
ENDBRANCH   1  12
TORSDOF 16
ENDMDL
MODEL 3
REMARK VINA RESULT:    20.510      7.416     11.680
REMARK INTER + INTRA:          39.385
REMARK INTER:                  40.060
REMARK INTRA:                  -0.675
REMARK UNBOUND:                -0.309
REMARK SMILES CCCCCCCCCCCCCCCCCC(=O)[O-]
REMARK SMILES IDX 10 1 11 2 12 3 13 4 14 5 15 6 16 7 17 8 18 9 19 10 20 11
REMARK SMILES IDX 9 12 8 13 7 14 6 15 5 16 4 17 3 18 2 19 1 20
REMARK H PARENT
REMARK Flexibility Score: inf
ROOT
ATOM      1  C   UNL     1     -38.920  21.337 -18.668  1.00  0.00     0.000 C 
ENDROOT
BRANCH   1   2
ATOM      2  C   UNL     1     -38.000  22.564 -18.788  1.00  0.00     0.000 C 
BRANCH   2   3
ATOM      3  C   UNL     1     -38.099  23.237 -20.168  1.00  0.00     0.000 C 
BRANCH   3   4
ATOM      4  C   UNL     1     -37.350  24.580 -20.221  1.00  0.00     0.000 C 
BRANCH   4   5
ATOM      5  C   UNL     1     -37.854  25.492 -21.352  1.00  0.00     0.000 C 
BRANCH   5   6
ATOM      6  C   UNL     1     -37.268  26.913 -21.274  1.00  0.00     0.000 C 
BRANCH   6   7
ATOM      7  C   UNL     1     -38.124  27.946 -22.025  1.00  0.00     0.006 C 
BRANCH   7   8
ATOM      8  C   UNL     1     -38.148  29.311 -21.326  1.00  0.00     0.053 C 
BRANCH   8   9
ATOM      9  C   UNL     1     -39.536  29.645 -20.879  1.00  0.00     0.041 C 
ATOM     10  O   UNL     1     -39.725  30.224 -19.777  1.00  0.00    -0.550 OA
ATOM     11  O   UNL     1     -40.621  29.353 -21.698  1.00  0.00    -0.550 OA
ENDBRANCH   8   9
ENDBRANCH   7   8
ENDBRANCH   6   7
ENDBRANCH   5   6
ENDBRANCH   4   5
ENDBRANCH   3   4
ENDBRANCH   2   3
ENDBRANCH   1   2
BRANCH   1  12
ATOM     12  C   UNL     1     -40.409  21.715 -18.597  1.00  0.00     0.000 C 
BRANCH  12  13
ATOM     13  C   UNL     1     -40.685  22.852 -17.597  1.00  0.00    -0.000 C 
BRANCH  13  14
ATOM     14  C   UNL     1     -42.188  23.096 -17.387  1.00  0.00    -0.000 C 
BRANCH  14  15
ATOM     15  C   UNL     1     -42.650  22.719 -15.969  1.00  0.00    -0.000 C 
BRANCH  15  16
ATOM     16  C   UNL     1     -42.420  23.845 -14.947  1.00  0.00    -0.000 C 
BRANCH  16  17
ATOM     17  C   UNL     1     -42.248  23.340 -13.498  1.00  0.00    -0.000 C 
BRANCH  17  18
ATOM     18  C   UNL     1     -41.878  24.476 -12.528  1.00  0.00    -0.000 C 
BRANCH  18  19
ATOM     19  C   UNL     1     -40.431  24.371 -12.020  1.00  0.00    -0.003 C 
ATOM     20  C   UNL     1     -39.404  24.405 -13.151  1.00  0.00     0.004 C 
ENDBRANCH  18  19
ENDBRANCH  17  18
ENDBRANCH  16  17
ENDBRANCH  15  16
ENDBRANCH  14  15
ENDBRANCH  13  14
ENDBRANCH  12  13
ENDBRANCH   1  12
TORSDOF 16
ENDMDL
MODEL 4
REMARK VINA RESULT:    20.548      6.707     10.437
REMARK INTER + INTRA:          39.460
REMARK INTER:                  40.358
REMARK INTRA:                  -0.898
REMARK UNBOUND:                -0.309
REMARK SMILES CCCCCCCCCCCCCCCCCC(=O)[O-]
REMARK SMILES IDX 10 1 11 2 12 3 13 4 14 5 15 6 16 7 17 8 18 9 19 10 20 11
REMARK SMILES IDX 9 12 8 13 7 14 6 15 5 16 4 17 3 18 2 19 1 20
REMARK H PARENT
REMARK Flexibility Score: inf
ROOT
ATOM      1  C   UNL     1     -38.398  22.194 -19.014  1.00  0.00     0.000 C 
ENDROOT
BRANCH   1   2
ATOM      2  C   UNL     1     -39.492  22.775 -18.103  1.00  0.00     0.000 C 
BRANCH   2   3
ATOM      3  C   UNL     1     -40.831  22.032 -18.250  1.00  0.00     0.000 C 
BRANCH   3   4
ATOM      4  C   UNL     1     -41.995  22.781 -17.579  1.00  0.00     0.000 C 
BRANCH   4   5
ATOM      5  C   UNL     1     -41.518  23.772 -16.504  1.00  0.00     0.000 C 
BRANCH   5   6
ATOM      6  C   UNL     1     -42.486  23.866 -15.311  1.00  0.00     0.000 C 
BRANCH   6   7
ATOM      7  C   UNL     1     -41.755  24.047 -13.971  1.00  0.00     0.006 C 
BRANCH   7   8
ATOM      8  C   UNL     1     -40.358  24.657 -14.139  1.00  0.00     0.053 C 
BRANCH   8   9
ATOM      9  C   UNL     1     -39.523  24.394 -12.926  1.00  0.00     0.041 C 
ATOM     10  O   UNL     1     -39.960  24.682 -11.781  1.00  0.00    -0.550 OA
ATOM     11  O   UNL     1     -38.276  23.792 -13.056  1.00  0.00    -0.550 OA
ENDBRANCH   8   9
ENDBRANCH   7   8
ENDBRANCH   6   7
ENDBRANCH   5   6
ENDBRANCH   4   5
ENDBRANCH   3   4
ENDBRANCH   2   3
ENDBRANCH   1   2
BRANCH   1  12
ATOM     12  C   UNL     1     -37.444  23.270 -19.558  1.00  0.00     0.000 C 
BRANCH  12  13
ATOM     13  C   UNL     1     -38.124  24.208 -20.572  1.00  0.00    -0.000 C 
BRANCH  13  14
ATOM     14  C   UNL     1     -37.266  25.442 -20.895  1.00  0.00    -0.000 C 
BRANCH  14  15
ATOM     15  C   UNL     1     -38.034  26.490 -21.719  1.00  0.00    -0.000 C 
BRANCH  15  16
ATOM     16  C   UNL     1     -37.345  27.865 -21.728  1.00  0.00    -0.000 C 
BRANCH  16  17
ATOM     17  C   UNL     1     -38.316  29.043 -21.963  1.00  0.00    -0.000 C 
BRANCH  17  18
ATOM     18  C   UNL     1     -38.621  29.810 -20.665  1.00  0.00    -0.000 C 
BRANCH  18  19
ATOM     19  C   UNL     1     -40.123  29.851 -20.342  1.00  0.00    -0.003 C 
ATOM     20  C   UNL     1     -40.998  29.599 -21.569  1.00  0.00     0.004 C 
ENDBRANCH  18  19
ENDBRANCH  17  18
ENDBRANCH  16  17
ENDBRANCH  15  16
ENDBRANCH  14  15
ENDBRANCH  13  14
ENDBRANCH  12  13
ENDBRANCH   1  12
TORSDOF 16
ENDMDL
MODEL 5
REMARK VINA RESULT:    20.924      6.491     10.062
REMARK INTER + INTRA:          40.187
REMARK INTER:                  40.993
REMARK INTRA:                  -0.805
REMARK UNBOUND:                -0.309
REMARK SMILES CCCCCCCCCCCCCCCCCC(=O)[O-]
REMARK SMILES IDX 10 1 11 2 12 3 13 4 14 5 15 6 16 7 17 8 18 9 19 10 20 11
REMARK SMILES IDX 9 12 8 13 7 14 6 15 5 16 4 17 3 18 2 19 1 20
REMARK H PARENT
REMARK Flexibility Score: inf
ROOT
ATOM      1  C   UNL     1     -39.383  22.805 -18.089  1.00  0.00     0.000 C 
ENDROOT
BRANCH   1   2
ATOM      2  C   UNL     1     -40.775  22.188 -18.309  1.00  0.00     0.000 C 
BRANCH   2   3
ATOM      3  C   UNL     1     -41.895  23.035 -17.682  1.00  0.00     0.000 C 
BRANCH   3   4
ATOM      4  C   UNL     1     -41.540  23.523 -16.266  1.00  0.00     0.000 C 
BRANCH   4   5
ATOM      5  C   UNL     1     -42.758  23.554 -15.329  1.00  0.00     0.000 C 
BRANCH   5   6
ATOM      6  C   UNL     1     -42.497  24.355 -14.041  1.00  0.00     0.000 C 
BRANCH   6   7
ATOM      7  C   UNL     1     -41.687  23.559 -13.006  1.00  0.00     0.006 C 
BRANCH   7   8
ATOM      8  C   UNL     1     -40.593  24.402 -12.339  1.00  0.00     0.053 C 
BRANCH   8   9
ATOM      9  C   UNL     1     -39.311  24.292 -13.102  1.00  0.00     0.041 C 
ATOM     10  O   UNL     1     -39.189  24.855 -14.222  1.00  0.00    -0.550 OA
ATOM     11  O   UNL     1     -38.234  23.601 -12.559  1.00  0.00    -0.550 OA
ENDBRANCH   8   9
ENDBRANCH   7   8
ENDBRANCH   6   7
ENDBRANCH   5   6
ENDBRANCH   4   5
ENDBRANCH   3   4
ENDBRANCH   2   3
ENDBRANCH   1   2
BRANCH   1  12
ATOM     12  C   UNL     1     -38.278  22.071 -18.867  1.00  0.00     0.000 C 
BRANCH  12  13
ATOM     13  C   UNL     1     -37.427  23.022 -19.729  1.00  0.00    -0.000 C 
BRANCH  13  14
ATOM     14  C   UNL     1     -38.253  24.179 -20.314  1.00  0.00    -0.000 C 
BRANCH  14  15
ATOM     15  C   UNL     1     -37.369  25.278 -20.928  1.00  0.00    -0.000 C 
BRANCH  15  16
ATOM     16  C   UNL     1     -38.183  26.368 -21.646  1.00  0.00    -0.000 C 
BRANCH  16  17
ATOM     17  C   UNL     1     -37.504  27.755 -21.636  1.00  0.00    -0.000 C 
BRANCH  17  18
ATOM     18  C   UNL     1     -38.497  28.889 -21.946  1.00  0.00    -0.000 C 
BRANCH  18  19
ATOM     19  C   UNL     1     -39.436  29.191 -20.767  1.00  0.00    -0.003 C 
ATOM     20  C   UNL     1     -40.731  29.875 -21.204  1.00  0.00     0.004 C 
ENDBRANCH  18  19
ENDBRANCH  17  18
ENDBRANCH  16  17
ENDBRANCH  15  16
ENDBRANCH  14  15
ENDBRANCH  13  14
ENDBRANCH  12  13
ENDBRANCH   1  12
TORSDOF 16
ENDMDL
MODEL 6
REMARK VINA RESULT:    21.094      8.503     12.665
REMARK INTER + INTRA:          40.517
REMARK INTER:                  41.230
REMARK INTRA:                  -0.713
REMARK UNBOUND:                -0.309
REMARK SMILES CCCCCCCCCCCCCCCCCC(=O)[O-]
REMARK SMILES IDX 10 1 11 2 12 3 13 4 14 5 15 6 16 7 17 8 18 9 19 10 20 11
REMARK SMILES IDX 9 12 8 13 7 14 6 15 5 16 4 17 3 18 2 19 1 20
REMARK H PARENT
REMARK Flexibility Score: inf
ROOT
ATOM      1  C   UNL     1     -38.256  23.945 -20.380  1.00  0.00     0.000 C 
ENDROOT
BRANCH   1   2
ATOM      2  C   UNL     1     -37.298  25.134 -20.572  1.00  0.00     0.000 C 
BRANCH   2   3
ATOM      3  C   UNL     1     -37.791  26.113 -21.651  1.00  0.00     0.000 C 
BRANCH   3   4
ATOM      4  C   UNL     1     -37.376  27.566 -21.359  1.00  0.00     0.000 C 
BRANCH   4   5
ATOM      5  C   UNL     1     -38.401  28.588 -21.877  1.00  0.00     0.000 C 
BRANCH   5   6
ATOM      6  C   UNL     1     -38.735  29.673 -20.838  1.00  0.00     0.000 C 
BRANCH   6   7
ATOM      7  C   UNL     1     -40.249  29.865 -20.652  1.00  0.00     0.006 C 
BRANCH   7   8
ATOM      8  C   UNL     1     -41.060  29.349 -21.846  1.00  0.00     0.053 C 
BRANCH   8   9
ATOM      9  C   UNL     1     -41.898  30.446 -22.423  1.00  0.00     0.041 C 
ATOM     10  O   UNL     1     -41.901  30.654 -23.665  1.00  0.00    -0.550 OA
ATOM     11  O   UNL     1     -42.706  31.215 -21.593  1.00  0.00    -0.550 OA
ENDBRANCH   8   9
ENDBRANCH   7   8
ENDBRANCH   6   7
ENDBRANCH   5   6
ENDBRANCH   4   5
ENDBRANCH   3   4
ENDBRANCH   2   3
ENDBRANCH   1   2
BRANCH   1  12
ATOM     12  C   UNL     1     -37.868  23.056 -19.186  1.00  0.00     0.000 C 
BRANCH  12  13
ATOM     13  C   UNL     1     -39.050  22.226 -18.655  1.00  0.00    -0.000 C 
BRANCH  13  14
ATOM     14  C   UNL     1     -40.336  23.058 -18.519  1.00  0.00    -0.000 C 
BRANCH  14  15
ATOM     15  C   UNL     1     -41.379  22.381 -17.613  1.00  0.00    -0.000 C 
BRANCH  15  16
ATOM     16  C   UNL     1     -42.242  23.391 -16.838  1.00  0.00    -0.000 C 
BRANCH  16  17
ATOM     17  C   UNL     1     -41.595  23.878 -15.523  1.00  0.00    -0.000 C 
BRANCH  17  18
ATOM     18  C   UNL     1     -42.582  23.844 -14.344  1.00  0.00    -0.000 C 
BRANCH  18  19
ATOM     19  C   UNL     1     -41.899  24.109 -12.993  1.00  0.00    -0.003 C 
ATOM     20  C   UNL     1     -40.388  24.296 -13.122  1.00  0.00     0.004 C 
ENDBRANCH  18  19
ENDBRANCH  17  18
ENDBRANCH  16  17
ENDBRANCH  15  16
ENDBRANCH  14  15
ENDBRANCH  13  14
ENDBRANCH  12  13
ENDBRANCH   1  12
TORSDOF 16
ENDMDL
MODEL 7
REMARK VINA RESULT:    21.152     10.128     13.461
REMARK INTER + INTRA:          40.629
REMARK INTER:                  41.564
REMARK INTRA:                  -0.935
REMARK UNBOUND:                -0.309
REMARK SMILES CCCCCCCCCCCCCCCCCC(=O)[O-]
REMARK SMILES IDX 10 1 11 2 12 3 13 4 14 5 15 6 16 7 17 8 18 9 19 10 20 11
REMARK SMILES IDX 9 12 8 13 7 14 6 15 5 16 4 17 3 18 2 19 1 20
REMARK H PARENT
REMARK Flexibility Score: inf
ROOT
ATOM      1  C   UNL     1     -38.499  26.141 -21.974  1.00  0.00     0.000 C 
ENDROOT
BRANCH   1   2
ATOM      2  C   UNL     1     -37.346  27.097 -21.623  1.00  0.00     0.000 C 
BRANCH   2   3
ATOM      3  C   UNL     1     -37.675  28.560 -21.965  1.00  0.00     0.000 C 
BRANCH   3   4
ATOM      4  C   UNL     1     -37.759  29.451 -20.714  1.00  0.00     0.000 C 
BRANCH   4   5
ATOM      5  C   UNL     1     -39.196  29.905 -20.408  1.00  0.00     0.000 C 
BRANCH   5   6
ATOM      6  C   UNL     1     -40.216  29.380 -21.434  1.00  0.00     0.000 C 
BRANCH   6   7
ATOM      7  C   UNL     1     -41.628  29.941 -21.202  1.00  0.00     0.006 C 
BRANCH   7   8
ATOM      8  C   UNL     1     -42.168  30.700 -22.419  1.00  0.00     0.053 C 
BRANCH   8   9
ATOM      9  C   UNL     1     -43.597  31.088 -22.202  1.00  0.00     0.041 C 
ATOM     10  O   UNL     1     -44.488  30.691 -22.998  1.00  0.00    -0.550 OA
ATOM     11  O   UNL     1     -43.951  31.855 -21.099  1.00  0.00    -0.550 OA
ENDBRANCH   8   9
ENDBRANCH   7   8
ENDBRANCH   6   7
ENDBRANCH   5   6
ENDBRANCH   4   5
ENDBRANCH   3   4
ENDBRANCH   2   3
ENDBRANCH   1   2
BRANCH   1  12
ATOM     12  C   UNL     1     -38.147  24.666 -21.718  1.00  0.00     0.000 C 
BRANCH  12  13
ATOM     13  C   UNL     1     -38.260  24.277 -20.233  1.00  0.00    -0.000 C 
BRANCH  13  14
ATOM     14  C   UNL     1     -37.562  22.944 -19.921  1.00  0.00    -0.000 C 
BRANCH  14  15
ATOM     15  C   UNL     1     -38.082  22.300 -18.624  1.00  0.00    -0.000 C 
BRANCH  15  16
ATOM     16  C   UNL     1     -38.946  21.053 -18.881  1.00  0.00    -0.000 C 
BRANCH  16  17
ATOM     17  C   UNL     1     -40.447  21.270 -18.593  1.00  0.00    -0.000 C 
BRANCH  17  18
ATOM     18  C   UNL     1     -40.735  22.682 -18.053  1.00  0.00    -0.000 C 
BRANCH  18  19
ATOM     19  C   UNL     1     -42.045  22.753 -17.253  1.00  0.00    -0.003 C 
ATOM     20  C   UNL     1     -41.974  23.739 -16.088  1.00  0.00     0.004 C 
ENDBRANCH  18  19
ENDBRANCH  17  18
ENDBRANCH  16  17
ENDBRANCH  15  16
ENDBRANCH  14  15
ENDBRANCH  13  14
ENDBRANCH  12  13
ENDBRANCH   1  12
TORSDOF 16
ENDMDL
MODEL 8
REMARK VINA RESULT:    21.332     11.018     12.709
REMARK INTER + INTRA:          40.977
REMARK INTER:                  41.592
REMARK INTRA:                  -0.615
REMARK UNBOUND:                -0.309
REMARK SMILES CCCCCCCCCCCCCCCCCC(=O)[O-]
REMARK SMILES IDX 10 1 11 2 12 3 13 4 14 5 15 6 16 7 17 8 18 9 19 10 20 11
REMARK SMILES IDX 9 12 8 13 7 14 6 15 5 16 4 17 3 18 2 19 1 20
REMARK H PARENT
REMARK Flexibility Score: inf
ROOT
ATOM      1  C   UNL     1     -34.978  31.747 -18.410  1.00  0.00     0.000 C 
ENDROOT
BRANCH   1   2
ATOM      2  C   UNL     1     -34.009  30.555 -18.333  1.00  0.00     0.000 C 
BRANCH   2   3
ATOM      3  C   UNL     1     -32.544  30.978 -18.539  1.00  0.00     0.000 C 
BRANCH   3   4
ATOM      4  C   UNL     1     -31.589  29.774 -18.605  1.00  0.00     0.000 C 
BRANCH   4   5
ATOM      5  C   UNL     1     -30.796  29.578 -17.302  1.00  0.00     0.000 C 
BRANCH   5   6
ATOM      6  C   UNL     1     -31.643  28.953 -16.179  1.00  0.00     0.000 C 
BRANCH   6   7
ATOM      7  C   UNL     1     -30.886  27.859 -15.409  1.00  0.00     0.006 C 
BRANCH   7   8
ATOM      8  C   UNL     1     -30.375  26.740 -16.324  1.00  0.00     0.053 C 
BRANCH   8   9
ATOM      9  C   UNL     1     -29.526  25.780 -15.552  1.00  0.00     0.041 C 
ATOM     10  O   UNL     1     -29.828  25.478 -14.368  1.00  0.00    -0.550 OA
ATOM     11  O   UNL     1     -28.422  25.187 -16.154  1.00  0.00    -0.550 OA
ENDBRANCH   8   9
ENDBRANCH   7   8
ENDBRANCH   6   7
ENDBRANCH   5   6
ENDBRANCH   4   5
ENDBRANCH   3   4
ENDBRANCH   2   3
ENDBRANCH   1   2
BRANCH   1  12
ATOM     12  C   UNL     1     -36.185  31.474 -19.323  1.00  0.00     0.000 C 
BRANCH  12  13
ATOM     13  C   UNL     1     -36.744  30.049 -19.157  1.00  0.00    -0.000 C 
BRANCH  13  14
ATOM     14  C   UNL     1     -37.477  29.557 -20.415  1.00  0.00    -0.000 C 
BRANCH  14  15
ATOM     15  C   UNL     1     -38.914  30.098 -20.505  1.00  0.00    -0.000 C 
BRANCH  15  16
ATOM     16  C   UNL     1     -39.813  29.255 -21.426  1.00  0.00    -0.000 C 
BRANCH  16  17
ATOM     17  C   UNL     1     -41.314  29.599 -21.310  1.00  0.00    -0.000 C 
BRANCH  17  18
ATOM     18  C   UNL     1     -41.738  30.689 -22.310  1.00  0.00    -0.000 C 
BRANCH  18  19
ATOM     19  C   UNL     1     -43.263  30.850 -22.397  1.00  0.00    -0.003 C 
ATOM     20  C   UNL     1     -43.858  31.521 -21.159  1.00  0.00     0.004 C 
ENDBRANCH  18  19
ENDBRANCH  17  18
ENDBRANCH  16  17
ENDBRANCH  15  16
ENDBRANCH  14  15
ENDBRANCH  13  14
ENDBRANCH  12  13
ENDBRANCH   1  12
TORSDOF 16
ENDMDL
MODEL 9
REMARK VINA RESULT:    21.371      7.654     11.591
REMARK INTER + INTRA:          41.052
REMARK INTER:                  41.736
REMARK INTRA:                  -0.684
REMARK UNBOUND:                -0.309
REMARK SMILES CCCCCCCCCCCCCCCCCC(=O)[O-]
REMARK SMILES IDX 10 1 11 2 12 3 13 4 14 5 15 6 16 7 17 8 18 9 19 10 20 11
REMARK SMILES IDX 9 12 8 13 7 14 6 15 5 16 4 17 3 18 2 19 1 20
REMARK H PARENT
REMARK Flexibility Score: inf
ROOT
ATOM      1  C   UNL     1     -38.436  24.294 -20.471  1.00  0.00     0.000 C 
ENDROOT
BRANCH   1   2
ATOM      2  C   UNL     1     -37.679  23.104 -19.858  1.00  0.00     0.000 C 
BRANCH   2   3
ATOM      3  C   UNL     1     -38.469  22.429 -18.724  1.00  0.00     0.000 C 
BRANCH   3   4
ATOM      4  C   UNL     1     -39.718  23.232 -18.321  1.00  0.00     0.000 C 
BRANCH   4   5
ATOM      5  C   UNL     1     -40.908  22.329 -17.954  1.00  0.00     0.000 C 
BRANCH   5   6
ATOM      6  C   UNL     1     -42.089  23.115 -17.357  1.00  0.00     0.000 C 
BRANCH   6   7
ATOM      7  C   UNL     1     -42.220  22.919 -15.838  1.00  0.00     0.006 C 
BRANCH   7   8
ATOM      8  C   UNL     1     -42.312  24.247 -15.078  1.00  0.00     0.053 C 
BRANCH   8   9
ATOM      9  C   UNL     1     -41.674  24.123 -13.730  1.00  0.00     0.041 C 
ATOM     10  O   UNL     1     -40.441  24.338 -13.592  1.00  0.00    -0.550 OA
ATOM     11  O   UNL     1     -42.447  23.809 -12.619  1.00  0.00    -0.550 OA
ENDBRANCH   8   9
ENDBRANCH   7   8
ENDBRANCH   6   7
ENDBRANCH   5   6
ENDBRANCH   4   5
ENDBRANCH   3   4
ENDBRANCH   2   3
ENDBRANCH   1   2
BRANCH   1  12
ATOM     12  C   UNL     1     -37.495  25.379 -21.019  1.00  0.00     0.000 C 
BRANCH  12  13
ATOM     13  C   UNL     1     -38.246  26.494 -21.769  1.00  0.00    -0.000 C 
BRANCH  13  14
ATOM     14  C   UNL     1     -37.451  27.809 -21.814  1.00  0.00    -0.000 C 
BRANCH  14  15
ATOM     15  C   UNL     1     -38.308  29.025 -21.425  1.00  0.00    -0.000 C 
BRANCH  15  16
ATOM     16  C   UNL     1     -39.819  28.746 -21.518  1.00  0.00    -0.000 C 
BRANCH  16  17
ATOM     17  C   UNL     1     -40.694  29.878 -20.938  1.00  0.00    -0.000 C 
BRANCH  17  18
ATOM     18  C   UNL     1     -41.824  30.287 -21.898  1.00  0.00    -0.000 C 
BRANCH  18  19
ATOM     19  C   UNL     1     -42.697  31.420 -21.335  1.00  0.00    -0.003 C 
ATOM     20  C   UNL     1     -44.141  31.355 -21.831  1.00  0.00     0.004 C 
ENDBRANCH  18  19
ENDBRANCH  17  18
ENDBRANCH  16  17
ENDBRANCH  15  16
ENDBRANCH  14  15
ENDBRANCH  13  14
ENDBRANCH  12  13
ENDBRANCH   1  12
TORSDOF 16
ENDMDL
