MODEL 1
REMARK VINA RESULT:    -5.238      0.000      0.000
REMARK INTER + INTRA:          -6.630
REMARK INTER:                  -6.310
REMARK INTRA:                  -0.320
REMARK UNBOUND:                -0.320
REMARK SMILES O=c1c(O)c(-c2ccc(O)c(O)c2)oc2cc(O)cc(O)c12
REMARK SMILES IDX 5 1 3 2 2 3 1 4 22 5 20 6 19 7 17 8 16 9 15 10 14 11 6 12
REMARK SMILES IDX 7 13 8 14 9 15 13 16 11 17 10 18 12 20 4 22 21 24 18 26
REMARK H PARENT 10 19 12 21 4 23 21 25 18 27
REMARK Flexibility Score: inf
ROOT
ATOM      1  C   UNL     1      66.857   8.239  14.761  1.00  0.00     0.180 A 
ATOM      2  C   UNL     1      66.166   8.862  15.814  1.00  0.00     0.208 A 
ATOM      3  C   UNL     1      64.814   8.543  16.023  1.00  0.00     0.238 A 
ATOM      4  O   UNL     1      64.215   9.065  17.000  1.00  0.00    -0.285 OA
ATOM      5  C   UNL     1      64.168   7.619  15.168  1.00  0.00     0.111 A 
ATOM      6  C   UNL     1      62.791   7.253  15.263  1.00  0.00     0.134 A 
ATOM      7  C   UNL     1      62.291   6.231  14.448  1.00  0.00     0.093 A 
ATOM      8  C   UNL     1      63.098   5.608  13.497  1.00  0.00     0.123 A 
ATOM      9  C   UNL     1      64.429   6.000  13.354  1.00  0.00     0.094 A 
ATOM     10  C   UNL     1      64.967   6.991  14.178  1.00  0.00     0.146 A 
ATOM     11  O   UNL     1      66.242   7.328  14.018  1.00  0.00    -0.452 OA
ENDROOT
BRANCH   1  12
ATOM     12  C   UNL     1      68.276   8.542  14.463  1.00  0.00     0.025 A 
ATOM     13  C   UNL     1      68.587   9.565  13.552  1.00  0.00     0.016 A 
ATOM     14  C   UNL     1      69.918   9.882  13.272  1.00  0.00     0.051 A 
ATOM     15  C   UNL     1      70.958   9.193  13.909  1.00  0.00     0.157 A 
ATOM     16  C   UNL     1      69.323   7.867  15.116  1.00  0.00     0.062 A 
ATOM     17  C   UNL     1      70.657   8.184  14.839  1.00  0.00     0.158 A 
BRANCH  15  18
ATOM     18  O   UNL     1      72.286   9.511  13.626  1.00  0.00    -0.504 OA
ATOM     19  H   UNL     1      72.767  10.260  14.110  1.00  0.00     0.293 HD
ENDBRANCH  15  18
BRANCH  17  20
ATOM     20  O   UNL     1      71.670   7.489  15.500  1.00  0.00    -0.504 OA
ATOM     21  H   UNL     1      72.463   7.961  15.917  1.00  0.00     0.293 HD
ENDBRANCH  17  20
ENDBRANCH   1  12
BRANCH   2  22
ATOM     22  O   UNL     1      66.828   9.756  16.660  1.00  0.00    -0.502 OA
ATOM     23  H   UNL     1      67.838   9.813  16.709  1.00  0.00     0.293 HD
ENDBRANCH   2  22
BRANCH   6  24
ATOM     24  O   UNL     1      61.875   7.875  16.115  1.00  0.00    -0.507 OA
ATOM     25  H   UNL     1      62.106   8.283  17.009  1.00  0.00     0.293 HD
ENDBRANCH   6  24
BRANCH   8  26
ATOM     26  O   UNL     1      62.563   4.605  12.691  1.00  0.00    -0.508 OA
ATOM     27  H   UNL     1      63.139   4.083  12.040  1.00  0.00     0.293 HD
ENDBRANCH   8  26
TORSDOF 6
ENDMDL
MODEL 2
REMARK VINA RESULT:    -5.214      2.577      2.833
REMARK INTER + INTRA:          -6.600
REMARK INTER:                  -6.566
REMARK INTRA:                  -0.035
REMARK UNBOUND:                -0.320
REMARK SMILES O=c1c(O)c(-c2ccc(O)c(O)c2)oc2cc(O)cc(O)c12
REMARK SMILES IDX 5 1 3 2 2 3 1 4 22 5 20 6 19 7 17 8 16 9 15 10 14 11 6 12
REMARK SMILES IDX 7 13 8 14 9 15 13 16 11 17 10 18 12 20 4 22 21 24 18 26
REMARK H PARENT 10 19 12 21 4 23 21 25 18 27
REMARK Flexibility Score: inf
ROOT
ATOM      1  C   UNL     1      66.142   9.862  14.672  1.00  0.00     0.180 A 
ATOM      2  C   UNL     1      65.468  10.006  15.897  1.00  0.00     0.208 A 
ATOM      3  C   UNL     1      64.646   8.959  16.348  1.00  0.00     0.238 A 
ATOM      4  O   UNL     1      64.087   9.072  17.470  1.00  0.00    -0.285 OA
ATOM      5  C   UNL     1      64.498   7.791  15.563  1.00  0.00     0.111 A 
ATOM      6  C   UNL     1      63.660   6.687  15.904  1.00  0.00     0.134 A 
ATOM      7  C   UNL     1      63.692   5.528  15.118  1.00  0.00     0.093 A 
ATOM      8  C   UNL     1      64.479   5.458  13.970  1.00  0.00     0.123 A 
ATOM      9  C   UNL     1      65.256   6.554  13.594  1.00  0.00     0.094 A 
ATOM     10  C   UNL     1      65.274   7.711  14.378  1.00  0.00     0.146 A 
ATOM     11  O   UNL     1      66.035   8.728  13.991  1.00  0.00    -0.452 OA
ENDROOT
BRANCH   1  12
ATOM     12  C   UNL     1      67.005  10.930  14.119  1.00  0.00     0.025 A 
ATOM     13  C   UNL     1      66.733  11.446  12.842  1.00  0.00     0.016 A 
ATOM     14  C   UNL     1      67.521  12.469  12.308  1.00  0.00     0.051 A 
ATOM     15  C   UNL     1      68.583  13.003  13.050  1.00  0.00     0.157 A 
ATOM     16  C   UNL     1      68.059  11.483  14.869  1.00  0.00     0.062 A 
ATOM     17  C   UNL     1      68.849  12.510  14.338  1.00  0.00     0.158 A 
BRANCH  15  18
ATOM     18  O   UNL     1      69.369  14.022  12.515  1.00  0.00    -0.504 OA
ATOM     19  H   UNL     1      69.391  14.208  11.518  1.00  0.00     0.293 HD
ENDBRANCH  15  18
BRANCH  17  20
ATOM     20  O   UNL     1      69.891  13.029  15.107  1.00  0.00    -0.504 OA
ATOM     21  H   UNL     1      70.786  12.563  15.185  1.00  0.00     0.293 HD
ENDBRANCH  17  20
ENDBRANCH   1  12
BRANCH   2  22
ATOM     22  O   UNL     1      65.645  11.158  16.667  1.00  0.00    -0.502 OA
ATOM     23  H   UNL     1      66.026  12.015  16.286  1.00  0.00     0.293 HD
ENDBRANCH   2  22
BRANCH   6  24
ATOM     24  O   UNL     1      62.767   6.688  16.979  1.00  0.00    -0.507 OA
ATOM     25  H   UNL     1      61.941   6.111  17.041  1.00  0.00     0.293 HD
ENDBRANCH   6  24
BRANCH   8  26
ATOM     26  O   UNL     1      64.473   4.295  13.203  1.00  0.00    -0.508 OA
ATOM     27  H   UNL     1      63.633   3.740  13.086  1.00  0.00     0.293 HD
ENDBRANCH   8  26
TORSDOF 6
ENDMDL
MODEL 3
REMARK VINA RESULT:    -5.132      9.950     12.207
REMARK INTER + INTRA:          -6.501
REMARK INTER:                  -6.278
REMARK INTRA:                  -0.223
REMARK UNBOUND:                -0.320
REMARK SMILES O=c1c(O)c(-c2ccc(O)c(O)c2)oc2cc(O)cc(O)c12
REMARK SMILES IDX 5 1 3 2 2 3 1 4 22 5 20 6 19 7 17 8 16 9 15 10 14 11 6 12
REMARK SMILES IDX 7 13 8 14 9 15 13 16 11 17 10 18 12 20 4 22 21 24 18 26
REMARK H PARENT 10 19 12 21 4 23 21 25 18 27
REMARK Flexibility Score: inf
ROOT
ATOM      1  C   UNL     1      76.273   6.165  18.790  1.00  0.00     0.180 A 
ATOM      2  C   UNL     1      77.413   6.807  19.301  1.00  0.00     0.208 A 
ATOM      3  C   UNL     1      78.040   7.798  18.528  1.00  0.00     0.238 A 
ATOM      4  O   UNL     1      79.029   8.407  19.014  1.00  0.00    -0.285 OA
ATOM      5  C   UNL     1      77.528   8.122  17.249  1.00  0.00     0.111 A 
ATOM      6  C   UNL     1      78.108   9.080  16.363  1.00  0.00     0.134 A 
ATOM      7  C   UNL     1      77.443   9.415  15.178  1.00  0.00     0.093 A 
ATOM      8  C   UNL     1      76.256   8.780  14.813  1.00  0.00     0.123 A 
ATOM      9  C   UNL     1      75.713   7.798  15.642  1.00  0.00     0.094 A 
ATOM     10  C   UNL     1      76.334   7.469  16.850  1.00  0.00     0.146 A 
ATOM     11  O   UNL     1      75.779   6.536  17.615  1.00  0.00    -0.452 OA
ENDROOT
BRANCH   1  12
ATOM     12  C   UNL     1      75.572   5.093  19.535  1.00  0.00     0.025 A 
ATOM     13  C   UNL     1      75.699   3.761  19.111  1.00  0.00     0.016 A 
ATOM     14  C   UNL     1      75.064   2.732  19.811  1.00  0.00     0.051 A 
ATOM     15  C   UNL     1      74.307   3.017  20.954  1.00  0.00     0.157 A 
ATOM     16  C   UNL     1      74.828   5.373  20.695  1.00  0.00     0.062 A 
ATOM     17  C   UNL     1      74.193   4.344  21.400  1.00  0.00     0.158 A 
BRANCH  15  18
ATOM     18  O   UNL     1      73.673   1.988  21.650  1.00  0.00    -0.504 OA
ATOM     19  H   UNL     1      73.964   1.721  22.584  1.00  0.00     0.293 HD
ENDBRANCH  15  18
BRANCH  17  20
ATOM     20  O   UNL     1      73.457   4.660  22.542  1.00  0.00    -0.504 OA
ATOM     21  H   UNL     1      72.465   4.473  22.611  1.00  0.00     0.293 HD
ENDBRANCH  17  20
ENDBRANCH   1  12
BRANCH   2  22
ATOM     22  O   UNL     1      77.889   6.488  20.575  1.00  0.00    -0.502 OA
ATOM     23  H   UNL     1      78.190   7.193  21.237  1.00  0.00     0.293 HD
ENDBRANCH   2  22
BRANCH   6  24
ATOM     24  O   UNL     1      79.337   9.707  16.587  1.00  0.00    -0.507 OA
ATOM     25  H   UNL     1      80.078   9.332  17.160  1.00  0.00     0.293 HD
ENDBRANCH   6  24
BRANCH   8  26
ATOM     26  O   UNL     1      75.630   9.126  13.618  1.00  0.00    -0.508 OA
ATOM     27  H   UNL     1      74.829   9.747  13.599  1.00  0.00     0.293 HD
ENDBRANCH   8  26
TORSDOF 6
ENDMDL
MODEL 4
REMARK VINA RESULT:    -5.104      2.125      7.248
REMARK INTER + INTRA:          -6.468
REMARK INTER:                  -6.249
REMARK INTRA:                  -0.220
REMARK UNBOUND:                -0.320
REMARK SMILES O=c1c(O)c(-c2ccc(O)c(O)c2)oc2cc(O)cc(O)c12
REMARK SMILES IDX 5 1 3 2 2 3 1 4 22 5 20 6 19 7 17 8 16 9 15 10 14 11 6 12
REMARK SMILES IDX 7 13 8 14 9 15 13 16 11 17 10 18 12 20 4 22 21 24 18 26
REMARK H PARENT 10 19 12 21 4 23 21 25 18 27
REMARK Flexibility Score: inf
ROOT
ATOM      1  C   UNL     1      66.438   8.647  15.030  1.00  0.00     0.180 A 
ATOM      2  C   UNL     1      67.162   8.066  13.976  1.00  0.00     0.208 A 
ATOM      3  C   UNL     1      68.200   8.800  13.377  1.00  0.00     0.238 A 
ATOM      4  O   UNL     1      68.880   8.253  12.469  1.00  0.00    -0.285 OA
ATOM      5  C   UNL     1      68.488  10.109  13.830  1.00  0.00     0.111 A 
ATOM      6  C   UNL     1      69.490  10.958  13.268  1.00  0.00     0.134 A 
ATOM      7  C   UNL     1      69.777  12.184  13.880  1.00  0.00     0.093 A 
ATOM      8  C   UNL     1      69.056  12.622  14.990  1.00  0.00     0.123 A 
ATOM      9  C   UNL     1      68.034  11.827  15.510  1.00  0.00     0.094 A 
ATOM     10  C   UNL     1      67.748  10.582  14.944  1.00  0.00     0.146 A 
ATOM     11  O   UNL     1      66.775   9.852  15.475  1.00  0.00    -0.452 OA
ENDROOT
BRANCH   1  12
ATOM     12  C   UNL     1      65.315   7.946  15.694  1.00  0.00     0.025 A 
ATOM     13  C   UNL     1      65.424   7.594  17.048  1.00  0.00     0.016 A 
ATOM     14  C   UNL     1      64.369   6.951  17.700  1.00  0.00     0.051 A 
ATOM     15  C   UNL     1      63.182   6.665  17.012  1.00  0.00     0.157 A 
ATOM     16  C   UNL     1      64.114   7.676  15.012  1.00  0.00     0.062 A 
ATOM     17  C   UNL     1      63.054   7.034  15.663  1.00  0.00     0.158 A 
BRANCH  15  18
ATOM     18  O   UNL     1      62.131   6.022  17.664  1.00  0.00    -0.504 OA
ATOM     19  H   UNL     1      61.930   5.041  17.507  1.00  0.00     0.293 HD
ENDBRANCH  15  18
BRANCH  17  20
ATOM     20  O   UNL     1      61.881   6.775  14.953  1.00  0.00    -0.504 OA
ATOM     21  H   UNL     1      61.785   5.967  14.351  1.00  0.00     0.293 HD
ENDBRANCH  17  20
ENDBRANCH   1  12
BRANCH   2  22
ATOM     22  O   UNL     1      66.876   6.763  13.559  1.00  0.00    -0.502 OA
ATOM     23  H   UNL     1      66.316   6.564  12.739  1.00  0.00     0.293 HD
ENDBRANCH   2  22
BRANCH   6  24
ATOM     24  O   UNL     1      70.206  10.657  12.107  1.00  0.00    -0.507 OA
ATOM     25  H   UNL     1      70.587  11.343  11.473  1.00  0.00     0.293 HD
ENDBRANCH   6  24
BRANCH   8  26
ATOM     26  O   UNL     1      69.358  13.855  15.564  1.00  0.00    -0.508 OA
ATOM     27  H   UNL     1      69.925  14.541  15.079  1.00  0.00     0.293 HD
ENDBRANCH   8  26
TORSDOF 6
ENDMDL
MODEL 5
REMARK VINA RESULT:    -5.098     11.083     14.187
REMARK INTER + INTRA:          -6.461
REMARK INTER:                  -6.263
REMARK INTRA:                  -0.198
REMARK UNBOUND:                -0.320
REMARK SMILES O=c1c(O)c(-c2ccc(O)c(O)c2)oc2cc(O)cc(O)c12
REMARK SMILES IDX 5 1 3 2 2 3 1 4 22 5 20 6 19 7 17 8 16 9 15 10 14 11 6 12
REMARK SMILES IDX 7 13 8 14 9 15 13 16 11 17 10 18 12 20 4 22 21 24 18 26
REMARK H PARENT 10 19 12 21 4 23 21 25 18 27
REMARK Flexibility Score: inf
ROOT
ATOM      1  C   UNL     1      74.773   1.852  23.273  1.00  0.00     0.180 A 
ATOM      2  C   UNL     1      74.938   0.784  22.375  1.00  0.00     0.208 A 
ATOM      3  C   UNL     1      74.959   1.052  20.996  1.00  0.00     0.238 A 
ATOM      4  O   UNL     1      75.161   0.098  20.199  1.00  0.00    -0.285 OA
ATOM      5  C   UNL     1      74.800   2.380  20.534  1.00  0.00     0.111 A 
ATOM      6  C   UNL     1      74.765   2.760  19.158  1.00  0.00     0.134 A 
ATOM      7  C   UNL     1      74.734   4.118  18.819  1.00  0.00     0.093 A 
ATOM      8  C   UNL     1      74.670   5.106  19.801  1.00  0.00     0.123 A 
ATOM      9  C   UNL     1      74.643   4.742  21.147  1.00  0.00     0.094 A 
ATOM     10  C   UNL     1      74.709   3.397  21.519  1.00  0.00     0.146 A 
ATOM     11  O   UNL     1      74.692   3.094  22.812  1.00  0.00    -0.452 OA
ENDROOT
BRANCH   1  12
ATOM     12  C   UNL     1      74.715   1.646  24.738  1.00  0.00     0.025 A 
ATOM     13  C   UNL     1      75.698   2.225  25.557  1.00  0.00     0.016 A 
ATOM     14  C   UNL     1      75.651   2.061  26.943  1.00  0.00     0.051 A 
ATOM     15  C   UNL     1      74.613   1.330  27.534  1.00  0.00     0.157 A 
ATOM     16  C   UNL     1      73.663   0.930  25.337  1.00  0.00     0.062 A 
ATOM     17  C   UNL     1      73.612   0.766  26.726  1.00  0.00     0.158 A 
BRANCH  15  18
ATOM     18  O   UNL     1      74.569   1.166  28.918  1.00  0.00    -0.504 OA
ATOM     19  H   UNL     1      74.312   1.929  29.535  1.00  0.00     0.293 HD
ENDBRANCH  15  18
BRANCH  17  20
ATOM     20  O   UNL     1      72.557   0.043  27.284  1.00  0.00    -0.504 OA
ATOM     21  H   UNL     1      72.670  -0.510  28.125  1.00  0.00     0.293 HD
ENDBRANCH  17  20
ENDBRANCH   1  12
BRANCH   2  22
ATOM     22  O   UNL     1      75.116  -0.517  22.853  1.00  0.00    -0.502 OA
ATOM     23  H   UNL     1      74.968  -1.335  22.274  1.00  0.00     0.293 HD
ENDBRANCH   2  22
BRANCH   6  24
ATOM     24  O   UNL     1      74.732   1.851  18.098  1.00  0.00    -0.507 OA
ATOM     25  H   UNL     1      74.379   2.056  17.175  1.00  0.00     0.293 HD
ENDBRANCH   6  24
BRANCH   8  26
ATOM     26  O   UNL     1      74.624   6.447  19.426  1.00  0.00    -0.508 OA
ATOM     27  H   UNL     1      74.588   6.724  18.452  1.00  0.00     0.293 HD
ENDBRANCH   8  26
TORSDOF 6
ENDMDL
MODEL 6
REMARK VINA RESULT:    -5.070      1.736      6.871
REMARK INTER + INTRA:          -6.427
REMARK INTER:                  -6.158
REMARK INTRA:                  -0.269
REMARK UNBOUND:                -0.320
REMARK SMILES O=c1c(O)c(-c2ccc(O)c(O)c2)oc2cc(O)cc(O)c12
REMARK SMILES IDX 5 1 3 2 2 3 1 4 22 5 20 6 19 7 17 8 16 9 15 10 14 11 6 12
REMARK SMILES IDX 7 13 8 14 9 15 13 16 11 17 10 18 12 20 4 22 21 24 18 26
REMARK H PARENT 10 19 12 21 4 23 21 25 18 27
REMARK Flexibility Score: inf
ROOT
ATOM      1  C   UNL     1      66.478   8.754  15.660  1.00  0.00     0.180 A 
ATOM      2  C   UNL     1      66.530  10.157  15.628  1.00  0.00     0.208 A 
ATOM      3  C   UNL     1      67.705  10.785  15.181  1.00  0.00     0.238 A 
ATOM      4  O   UNL     1      67.726  12.041  15.104  1.00  0.00    -0.285 OA
ATOM      5  C   UNL     1      68.816  10.001  14.788  1.00  0.00     0.111 A 
ATOM      6  C   UNL     1      70.070  10.532  14.357  1.00  0.00     0.134 A 
ATOM      7  C   UNL     1      71.054   9.665  13.868  1.00  0.00     0.093 A 
ATOM      8  C   UNL     1      70.857   8.284  13.854  1.00  0.00     0.123 A 
ATOM      9  C   UNL     1      69.658   7.752  14.329  1.00  0.00     0.094 A 
ATOM     10  C   UNL     1      68.643   8.593  14.790  1.00  0.00     0.146 A 
ATOM     11  O   UNL     1      67.513   8.046  15.224  1.00  0.00    -0.452 OA
ENDROOT
BRANCH   1  12
ATOM     12  C   UNL     1      65.285   8.021  16.142  1.00  0.00     0.025 A 
ATOM     13  C   UNL     1      65.281   7.484  17.439  1.00  0.00     0.016 A 
ATOM     14  C   UNL     1      64.158   6.807  17.922  1.00  0.00     0.051 A 
ATOM     15  C   UNL     1      63.016   6.672  17.122  1.00  0.00     0.157 A 
ATOM     16  C   UNL     1      64.129   7.901  15.350  1.00  0.00     0.062 A 
ATOM     17  C   UNL     1      63.001   7.226  15.832  1.00  0.00     0.158 A 
BRANCH  15  18
ATOM     18  O   UNL     1      61.898   5.995  17.606  1.00  0.00    -0.504 OA
ATOM     19  H   UNL     1      61.806   5.755  18.587  1.00  0.00     0.293 HD
ENDBRANCH  15  18
BRANCH  17  20
ATOM     20  O   UNL     1      61.875   7.120  15.015  1.00  0.00    -0.504 OA
ATOM     21  H   UNL     1      61.652   6.268  14.516  1.00  0.00     0.293 HD
ENDBRANCH  17  20
ENDBRANCH   1  12
BRANCH   2  22
ATOM     22  O   UNL     1      65.415  10.912  16.000  1.00  0.00    -0.502 OA
ATOM     23  H   UNL     1      65.490  11.855  16.361  1.00  0.00     0.293 HD
ENDBRANCH   2  22
BRANCH   6  24
ATOM     24  O   UNL     1      70.405  11.887  14.415  1.00  0.00    -0.507 OA
ATOM     25  H   UNL     1      70.402  12.514  13.625  1.00  0.00     0.293 HD
ENDBRANCH   6  24
BRANCH   8  26
ATOM     26  O   UNL     1      71.864   7.451  13.375  1.00  0.00    -0.508 OA
ATOM     27  H   UNL     1      72.574   7.790  12.736  1.00  0.00     0.293 HD
ENDBRANCH   8  26
TORSDOF 6
ENDMDL
MODEL 7
REMARK VINA RESULT:    -5.057      3.635      5.812
REMARK INTER + INTRA:          -6.411
REMARK INTER:                  -6.191
REMARK INTRA:                  -0.219
REMARK UNBOUND:                -0.320
REMARK SMILES O=c1c(O)c(-c2ccc(O)c(O)c2)oc2cc(O)cc(O)c12
REMARK SMILES IDX 5 1 3 2 2 3 1 4 22 5 20 6 19 7 17 8 16 9 15 10 14 11 6 12
REMARK SMILES IDX 7 13 8 14 9 15 13 16 11 17 10 18 12 20 4 22 21 24 18 26
REMARK H PARENT 10 19 12 21 4 23 21 25 18 27
REMARK Flexibility Score: inf
ROOT
ATOM      1  C   UNL     1      71.300   8.680  14.727  1.00  0.00     0.180 A 
ATOM      2  C   UNL     1      70.225   7.778  14.793  1.00  0.00     0.208 A 
ATOM      3  C   UNL     1      68.916   8.283  14.879  1.00  0.00     0.238 A 
ATOM      4  O   UNL     1      67.955   7.470  14.884  1.00  0.00    -0.285 OA
ATOM      5  C   UNL     1      68.702   9.681  14.912  1.00  0.00     0.111 A 
ATOM      6  C   UNL     1      67.423  10.302  15.038  1.00  0.00     0.134 A 
ATOM      7  C   UNL     1      67.317  11.694  14.928  1.00  0.00     0.093 A 
ATOM      8  C   UNL     1      68.449  12.492  14.763  1.00  0.00     0.123 A 
ATOM      9  C   UNL     1      69.710  11.899  14.700  1.00  0.00     0.094 A 
ATOM     10  C   UNL     1      69.845  10.510  14.770  1.00  0.00     0.146 A 
ATOM     11  O   UNL     1      71.062   9.986  14.694  1.00  0.00    -0.452 OA
ENDROOT
BRANCH   1  12
ATOM     12  C   UNL     1      72.707   8.224  14.661  1.00  0.00     0.025 A 
ATOM     13  C   UNL     1      73.470   8.498  13.514  1.00  0.00     0.016 A 
ATOM     14  C   UNL     1      74.805   8.096  13.439  1.00  0.00     0.051 A 
ATOM     15  C   UNL     1      75.404   7.428  14.515  1.00  0.00     0.157 A 
ATOM     16  C   UNL     1      73.318   7.572  15.748  1.00  0.00     0.062 A 
ATOM     17  C   UNL     1      74.656   7.170  15.676  1.00  0.00     0.158 A 
BRANCH  15  18
ATOM     18  O   UNL     1      76.736   7.026  14.437  1.00  0.00    -0.504 OA
ATOM     19  H   UNL     1      77.420   7.555  13.906  1.00  0.00     0.293 HD
ENDBRANCH  15  18
BRANCH  17  20
ATOM     20  O   UNL     1      75.227   6.518  16.770  1.00  0.00    -0.504 OA
ATOM     21  H   UNL     1      74.973   5.572  17.025  1.00  0.00     0.293 HD
ENDBRANCH  17  20
ENDBRANCH   1  12
BRANCH   2  22
ATOM     22  O   UNL     1      70.457   6.401  14.737  1.00  0.00    -0.502 OA
ATOM     23  H   UNL     1      69.714   5.719  14.831  1.00  0.00     0.293 HD
ENDBRANCH   2  22
BRANCH   6  24
ATOM     24  O   UNL     1      66.239   9.605  15.295  1.00  0.00    -0.507 OA
ATOM     25  H   UNL     1      66.023   8.687  14.938  1.00  0.00     0.293 HD
ENDBRANCH   6  24
BRANCH   8  26
ATOM     26  O   UNL     1      68.308  13.875  14.674  1.00  0.00    -0.508 OA
ATOM     27  H   UNL     1      68.555  14.484  15.446  1.00  0.00     0.293 HD
ENDBRANCH   8  26
TORSDOF 6
ENDMDL
MODEL 8
REMARK VINA RESULT:    -5.009      8.995     11.396
REMARK INTER + INTRA:          -6.353
REMARK INTER:                  -6.209
REMARK INTRA:                  -0.144
REMARK UNBOUND:                -0.320
REMARK SMILES O=c1c(O)c(-c2ccc(O)c(O)c2)oc2cc(O)cc(O)c12
REMARK SMILES IDX 5 1 3 2 2 3 1 4 22 5 20 6 19 7 17 8 16 9 15 10 14 11 6 12
REMARK SMILES IDX 7 13 8 14 9 15 13 16 11 17 10 18 12 20 4 22 21 24 18 26
REMARK H PARENT 10 19 12 21 4 23 21 25 18 27
REMARK Flexibility Score: inf
ROOT
ATOM      1  C   UNL     1      75.053   5.438  17.795  1.00  0.00     0.180 A 
ATOM      2  C   UNL     1      74.412   5.181  16.571  1.00  0.00     0.208 A 
ATOM      3  C   UNL     1      74.667   6.027  15.479  1.00  0.00     0.238 A 
ATOM      4  O   UNL     1      74.130   5.761  14.371  1.00  0.00    -0.285 OA
ATOM      5  C   UNL     1      75.547   7.125  15.629  1.00  0.00     0.111 A 
ATOM      6  C   UNL     1      75.846   8.069  14.601  1.00  0.00     0.134 A 
ATOM      7  C   UNL     1      76.832   9.039  14.821  1.00  0.00     0.093 A 
ATOM      8  C   UNL     1      77.480   9.142  16.051  1.00  0.00     0.123 A 
ATOM      9  C   UNL     1      77.152   8.262  17.082  1.00  0.00     0.094 A 
ATOM     10  C   UNL     1      76.199   7.260  16.882  1.00  0.00     0.146 A 
ATOM     11  O   UNL     1      75.923   6.436  17.886  1.00  0.00    -0.452 OA
ENDROOT
BRANCH   1  12
ATOM     12  C   UNL     1      74.816   4.607  18.997  1.00  0.00     0.025 A 
ATOM     13  C   UNL     1      75.217   3.261  18.998  1.00  0.00     0.016 A 
ATOM     14  C   UNL     1      75.021   2.464  20.129  1.00  0.00     0.051 A 
ATOM     15  C   UNL     1      74.437   3.005  21.281  1.00  0.00     0.157 A 
ATOM     16  C   UNL     1      74.248   5.151  20.164  1.00  0.00     0.062 A 
ATOM     17  C   UNL     1      74.053   4.356  21.299  1.00  0.00     0.158 A 
BRANCH  15  18
ATOM     18  O   UNL     1      74.242   2.207  22.408  1.00  0.00    -0.504 OA
ATOM     19  H   UNL     1      74.576   1.250  22.445  1.00  0.00     0.293 HD
ENDBRANCH  15  18
BRANCH  17  20
ATOM     20  O   UNL     1      73.480   4.927  22.436  1.00  0.00    -0.504 OA
ATOM     21  H   UNL     1      74.038   5.377  23.151  1.00  0.00     0.293 HD
ENDBRANCH  17  20
ENDBRANCH   1  12
BRANCH   2  22
ATOM     22  O   UNL     1      73.563   4.079  16.438  1.00  0.00    -0.502 OA
ATOM     23  H   UNL     1      73.746   3.193  16.893  1.00  0.00     0.293 HD
ENDBRANCH   2  22
BRANCH   6  24
ATOM     24  O   UNL     1      75.192   8.114  13.367  1.00  0.00    -0.507 OA
ATOM     25  H   UNL     1      74.544   7.416  13.034  1.00  0.00     0.293 HD
ENDBRANCH   6  24
BRANCH   8  26
ATOM     26  O   UNL     1      78.444  10.130  16.239  1.00  0.00    -0.508 OA
ATOM     27  H   UNL     1      78.608  10.851  15.546  1.00  0.00     0.293 HD
ENDBRANCH   8  26
TORSDOF 6
ENDMDL
MODEL 9
REMARK VINA RESULT:    -4.959      9.398     12.369
REMARK INTER + INTRA:          -6.294
REMARK INTER:                  -5.967
REMARK INTRA:                  -0.326
REMARK UNBOUND:                -0.320
REMARK SMILES O=c1c(O)c(-c2ccc(O)c(O)c2)oc2cc(O)cc(O)c12
REMARK SMILES IDX 5 1 3 2 2 3 1 4 22 5 20 6 19 7 17 8 16 9 15 10 14 11 6 12
REMARK SMILES IDX 7 13 8 14 9 15 13 16 11 17 10 18 12 20 4 22 21 24 18 26
REMARK H PARENT 10 19 12 21 4 23 21 25 18 27
REMARK Flexibility Score: inf
ROOT
ATOM      1  C   UNL     1      75.830   6.080  18.363  1.00  0.00     0.180 A 
ATOM      2  C   UNL     1      75.087   6.578  17.279  1.00  0.00     0.208 A 
ATOM      3  C   UNL     1      75.661   7.561  16.455  1.00  0.00     0.238 A 
ATOM      4  O   UNL     1      75.012   7.964  15.455  1.00  0.00    -0.285 OA
ATOM      5  C   UNL     1      76.962   8.042  16.735  1.00  0.00     0.111 A 
ATOM      6  C   UNL     1      77.625   9.064  15.991  1.00  0.00     0.134 A 
ATOM      7  C   UNL     1      78.962   9.369  16.277  1.00  0.00     0.093 A 
ATOM      8  C   UNL     1      79.638   8.738  17.320  1.00  0.00     0.123 A 
ATOM      9  C   UNL     1      78.980   7.780  18.092  1.00  0.00     0.094 A 
ATOM     10  C   UNL     1      77.658   7.428  17.809  1.00  0.00     0.146 A 
ATOM     11  O   UNL     1      77.072   6.504  18.561  1.00  0.00    -0.452 OA
ENDROOT
BRANCH   1  12
ATOM     12  C   UNL     1      75.283   5.063  19.291  1.00  0.00     0.025 A 
ATOM     13  C   UNL     1      75.468   3.700  19.009  1.00  0.00     0.016 A 
ATOM     14  C   UNL     1      74.979   2.724  19.880  1.00  0.00     0.051 A 
ATOM     15  C   UNL     1      74.312   3.095  21.054  1.00  0.00     0.157 A 
ATOM     16  C   UNL     1      74.630   5.432  20.481  1.00  0.00     0.062 A 
ATOM     17  C   UNL     1      74.141   4.456  21.357  1.00  0.00     0.158 A 
BRANCH  15  18
ATOM     18  O   UNL     1      73.823   2.119  21.921  1.00  0.00    -0.504 OA
ATOM     19  H   UNL     1      73.950   2.188  22.925  1.00  0.00     0.293 HD
ENDBRANCH  15  18
BRANCH  17  20
ATOM     20  O   UNL     1      73.492   4.859  22.525  1.00  0.00    -0.504 OA
ATOM     21  H   UNL     1      73.915   4.751  23.439  1.00  0.00     0.293 HD
ENDBRANCH  17  20
ENDBRANCH   1  12
BRANCH   2  22
ATOM     22  O   UNL     1      73.813   6.074  17.007  1.00  0.00    -0.502 OA
ATOM     23  H   UNL     1      73.075   6.642  16.608  1.00  0.00     0.293 HD
ENDBRANCH   2  22
BRANCH   6  24
ATOM     24  O   UNL     1      77.013   9.821  14.989  1.00  0.00    -0.507 OA
ATOM     25  H   UNL     1      76.328  10.543  15.151  1.00  0.00     0.293 HD
ENDBRANCH   6  24
BRANCH   8  26
ATOM     26  O   UNL     1      80.962   9.078  17.587  1.00  0.00    -0.508 OA
ATOM     27  H   UNL     1      81.205   9.961  18.021  1.00  0.00     0.293 HD
ENDBRANCH   8  26
TORSDOF 6
ENDMDL
