MODEL 1
REMARK VINA RESULT:    -4.648      0.000      0.000
REMARK INTER + INTRA:         -13.376
REMARK INTER:                 -10.625
REMARK INTRA:                  -2.751
REMARK UNBOUND:                -2.751
REMARK SMILES CCCCCCCCCCCCCCCCCCCCCCCC(=O)[O-]
REMARK SMILES IDX 13 1 14 2 15 3 16 4 17 5 18 6 19 7 20 8 21 9 22 10 23 11
REMARK SMILES IDX 24 12 25 13 26 14 12 15 11 16 10 17 9 18 8 19 7 20 6 21 5 22
REMARK SMILES IDX 4 23 3 24 2 25 1 26
REMARK H PARENT
REMARK Flexibility Score: inf
ROOT
ATOM      1  C   UNL     1     192.042  -1.520 101.232  1.00  0.00     0.000 C 
ENDROOT
BRANCH   1   2
ATOM      2  C   UNL     1     191.909  -0.021 101.565  1.00  0.00     0.000 C 
BRANCH   2   3
ATOM      3  C   UNL     1     192.976   0.890 100.924  1.00  0.00     0.000 C 
BRANCH   3   4
ATOM      4  C   UNL     1     192.469   1.773  99.769  1.00  0.00     0.000 C 
BRANCH   4   5
ATOM      5  C   UNL     1     193.001   3.215  99.845  1.00  0.00     0.000 C 
BRANCH   5   6
ATOM      6  C   UNL     1     192.227   4.177  98.928  1.00  0.00     0.000 C 
BRANCH   6   7
ATOM      7  C   UNL     1     191.039   3.493  98.226  1.00  0.00     0.000 C 
BRANCH   7   8
ATOM      8  C   UNL     1     189.804   4.405  98.134  1.00  0.00     0.000 C 
BRANCH   8   9
ATOM      9  C   UNL     1     189.617   5.007  96.730  1.00  0.00     0.000 C 
BRANCH   9  10
ATOM     10  C   UNL     1     188.981   4.014  95.745  1.00  0.00     0.006 C 
BRANCH  10  11
ATOM     11  C   UNL     1     189.651   4.035  94.366  1.00  0.00     0.053 C 
BRANCH  11  12
ATOM     12  C   UNL     1     191.123   3.803  94.498  1.00  0.00     0.041 C 
ATOM     13  O   UNL     1     191.559   2.667  94.824  1.00  0.00    -0.550 OA
ATOM     14  O   UNL     1     192.011   4.856  94.316  1.00  0.00    -0.550 OA
ENDBRANCH  11  12
ENDBRANCH  10  11
ENDBRANCH   9  10
ENDBRANCH   8   9
ENDBRANCH   7   8
ENDBRANCH   6   7
ENDBRANCH   5   6
ENDBRANCH   4   5
ENDBRANCH   3   4
ENDBRANCH   2   3
ENDBRANCH   1   2
BRANCH   1  15
ATOM     15  C   UNL     1     193.488  -2.038 101.126  1.00  0.00     0.000 C 
BRANCH  15  16
ATOM     16  C   UNL     1     194.183  -2.239 102.491  1.00  0.00     0.000 C 
BRANCH  16  17
ATOM     17  C   UNL     1     193.283  -2.946 103.515  1.00  0.00     0.000 C 
BRANCH  17  18
ATOM     18  C   UNL     1     193.288  -2.206 104.858  1.00  0.00    -0.000 C 
BRANCH  18  19
ATOM     19  C   UNL     1     193.930  -0.817 104.717  1.00  0.00    -0.000 C 
BRANCH  19  20
ATOM     20  C   UNL     1     193.037   0.305 105.272  1.00  0.00    -0.000 C 
BRANCH  20  21
ATOM     21  C   UNL     1     193.400   1.685 104.691  1.00  0.00    -0.000 C 
BRANCH  21  22
ATOM     22  C   UNL     1     192.161   2.521 104.330  1.00  0.00    -0.000 C 
BRANCH  22  23
ATOM     23  C   UNL     1     190.846   1.747 104.531  1.00  0.00    -0.000 C 
BRANCH  23  24
ATOM     24  C   UNL     1     189.905   2.420 105.547  1.00  0.00    -0.000 C 
BRANCH  24  25
ATOM     25  C   UNL     1     189.696   1.636 106.857  1.00  0.00    -0.003 C 
ATOM     26  C   UNL     1     190.808   1.870 107.880  1.00  0.00     0.004 C 
ENDBRANCH  24  25
ENDBRANCH  23  24
ENDBRANCH  22  23
ENDBRANCH  21  22
ENDBRANCH  20  21
ENDBRANCH  19  20
ENDBRANCH  18  19
ENDBRANCH  17  18
ENDBRANCH  16  17
ENDBRANCH  15  16
ENDBRANCH   1  15
TORSDOF 22
ENDMDL
MODEL 2
REMARK VINA RESULT:    -4.510      1.723      4.682
REMARK INTER + INTRA:         -13.062
REMARK INTER:                  -9.927
REMARK INTRA:                  -3.136
REMARK UNBOUND:                -2.751
REMARK SMILES CCCCCCCCCCCCCCCCCCCCCCCC(=O)[O-]
REMARK SMILES IDX 13 1 14 2 15 3 16 4 17 5 18 6 19 7 20 8 21 9 22 10 23 11
REMARK SMILES IDX 24 12 25 13 26 14 12 15 11 16 10 17 9 18 8 19 7 20 6 21 5 22
REMARK SMILES IDX 4 23 3 24 2 25 1 26
REMARK H PARENT
REMARK Flexibility Score: inf
ROOT
ATOM      1  C   UNL     1     192.666   0.407 105.826  1.00  0.00     0.000 C 
ENDROOT
BRANCH   1   2
ATOM      2  C   UNL     1     193.746   1.107 104.979  1.00  0.00     0.000 C 
BRANCH   2   3
ATOM      3  C   UNL     1     193.228   2.213 104.037  1.00  0.00     0.000 C 
BRANCH   3   4
ATOM      4  C   UNL     1     193.347   1.897 102.535  1.00  0.00     0.000 C 
BRANCH   4   5
ATOM      5  C   UNL     1     192.182   1.037 102.014  1.00  0.00     0.000 C 
BRANCH   5   6
ATOM      6  C   UNL     1     191.890   1.282 100.524  1.00  0.00     0.000 C 
BRANCH   6   7
ATOM      7  C   UNL     1     192.674   2.483  99.961  1.00  0.00     0.000 C 
BRANCH   7   8
ATOM      8  C   UNL     1     192.250   2.843  98.527  1.00  0.00     0.000 C 
BRANCH   8   9
ATOM      9  C   UNL     1     190.792   3.331  98.446  1.00  0.00     0.000 C 
BRANCH   9  10
ATOM     10  C   UNL     1     190.288   3.439  96.999  1.00  0.00     0.006 C 
BRANCH  10  11
ATOM     11  C   UNL     1     191.385   3.870  96.018  1.00  0.00     0.053 C 
BRANCH  11  12
ATOM     12  C   UNL     1     191.527   2.864  94.921  1.00  0.00     0.041 C 
ATOM     13  O   UNL     1     192.169   1.798  95.117  1.00  0.00    -0.550 OA
ATOM     14  O   UNL     1     190.999   3.127  93.663  1.00  0.00    -0.550 OA
ENDBRANCH  11  12
ENDBRANCH  10  11
ENDBRANCH   9  10
ENDBRANCH   8   9
ENDBRANCH   7   8
ENDBRANCH   6   7
ENDBRANCH   5   6
ENDBRANCH   4   5
ENDBRANCH   3   4
ENDBRANCH   2   3
ENDBRANCH   1   2
BRANCH   1  15
ATOM     15  C   UNL     1     192.715  -1.132 105.804  1.00  0.00     0.000 C 
BRANCH  15  16
ATOM     16  C   UNL     1     192.726  -1.737 104.383  1.00  0.00     0.000 C 
BRANCH  16  17
ATOM     17  C   UNL     1     193.472  -3.078 104.316  1.00  0.00     0.000 C 
BRANCH  17  18
ATOM     18  C   UNL     1     194.690  -2.987 103.391  1.00  0.00    -0.000 C 
BRANCH  18  19
ATOM     19  C   UNL     1     194.783  -1.597 102.741  1.00  0.00    -0.000 C 
BRANCH  19  20
ATOM     20  C   UNL     1     194.928  -1.668 101.211  1.00  0.00    -0.000 C 
BRANCH  20  21
ATOM     21  C   UNL     1     193.596  -1.993 100.510  1.00  0.00    -0.000 C 
BRANCH  21  22
ATOM     22  C   UNL     1     193.702  -3.202  99.566  1.00  0.00    -0.000 C 
BRANCH  22  23
ATOM     23  C   UNL     1     192.533  -4.188  99.734  1.00  0.00    -0.000 C 
BRANCH  23  24
ATOM     24  C   UNL     1     191.656  -3.874 100.961  1.00  0.00    -0.000 C 
BRANCH  24  25
ATOM     25  C   UNL     1     191.460  -5.050 101.937  1.00  0.00    -0.003 C 
ATOM     26  C   UNL     1     190.198  -5.865 101.648  1.00  0.00     0.004 C 
ENDBRANCH  24  25
ENDBRANCH  23  24
ENDBRANCH  22  23
ENDBRANCH  21  22
ENDBRANCH  20  21
ENDBRANCH  19  20
ENDBRANCH  18  19
ENDBRANCH  17  18
ENDBRANCH  16  17
ENDBRANCH  15  16
ENDBRANCH   1  15
TORSDOF 22
ENDMDL
MODEL 3
REMARK VINA RESULT:    -4.489      4.009      8.496
REMARK INTER + INTRA:         -13.014
REMARK INTER:                 -10.273
REMARK INTRA:                  -2.740
REMARK UNBOUND:                -2.751
REMARK SMILES CCCCCCCCCCCCCCCCCCCCCCCC(=O)[O-]
REMARK SMILES IDX 13 1 14 2 15 3 16 4 17 5 18 6 19 7 20 8 21 9 22 10 23 11
REMARK SMILES IDX 24 12 25 13 26 14 12 15 11 16 10 17 9 18 8 19 7 20 6 21 5 22
REMARK SMILES IDX 4 23 3 24 2 25 1 26
REMARK H PARENT
REMARK Flexibility Score: inf
ROOT
ATOM      1  C   UNL     1     192.216  -1.194 103.063  1.00  0.00     0.000 C 
ENDROOT
BRANCH   1   2
ATOM      2  C   UNL     1     193.457  -1.545 103.905  1.00  0.00     0.000 C 
BRANCH   2   3
ATOM      3  C   UNL     1     194.765  -1.716 103.105  1.00  0.00     0.000 C 
BRANCH   3   4
ATOM      4  C   UNL     1     194.657  -1.399 101.603  1.00  0.00     0.000 C 
BRANCH   4   5
ATOM      5  C   UNL     1     194.613  -2.665 100.729  1.00  0.00     0.000 C 
BRANCH   5   6
ATOM      6  C   UNL     1     193.425  -2.665  99.753  1.00  0.00     0.000 C 
BRANCH   6   7
ATOM      7  C   UNL     1     192.592  -3.957  99.840  1.00  0.00     0.000 C 
BRANCH   7   8
ATOM      8  C   UNL     1     192.696  -4.634 101.217  1.00  0.00     0.000 C 
BRANCH   8   9
ATOM      9  C   UNL     1     191.353  -4.651 101.971  1.00  0.00     0.000 C 
BRANCH   9  10
ATOM     10  C   UNL     1     190.953  -6.063 102.425  1.00  0.00     0.006 C 
BRANCH  10  11
ATOM     11  C   UNL     1     190.266  -6.871 101.318  1.00  0.00     0.053 C 
BRANCH  11  12
ATOM     12  C   UNL     1     188.787  -6.644 101.349  1.00  0.00     0.041 C 
ATOM     13  O   UNL     1     188.116  -6.692 100.284  1.00  0.00    -0.550 OA
ATOM     14  O   UNL     1     188.158  -6.325 102.545  1.00  0.00    -0.550 OA
ENDBRANCH  11  12
ENDBRANCH  10  11
ENDBRANCH   9  10
ENDBRANCH   8   9
ENDBRANCH   7   8
ENDBRANCH   6   7
ENDBRANCH   5   6
ENDBRANCH   4   5
ENDBRANCH   3   4
ENDBRANCH   2   3
ENDBRANCH   1   2
BRANCH   1  15
ATOM     15  C   UNL     1     191.503   0.110 103.465  1.00  0.00     0.000 C 
BRANCH  15  16
ATOM     16  C   UNL     1     192.303   0.980 104.459  1.00  0.00     0.000 C 
BRANCH  16  17
ATOM     17  C   UNL     1     192.655   2.362 103.888  1.00  0.00     0.000 C 
BRANCH  17  18
ATOM     18  C   UNL     1     193.841   2.273 102.920  1.00  0.00    -0.000 C 
BRANCH  18  19
ATOM     19  C   UNL     1     193.440   2.751 101.516  1.00  0.00    -0.000 C 
BRANCH  19  20
ATOM     20  C   UNL     1     192.840   1.624 100.657  1.00  0.00    -0.000 C 
BRANCH  20  21
ATOM     21  C   UNL     1     191.858   2.155  99.596  1.00  0.00    -0.000 C 
BRANCH  21  22
ATOM     22  C   UNL     1     192.289   3.512  99.016  1.00  0.00    -0.000 C 
BRANCH  22  23
ATOM     23  C   UNL     1     191.434   3.939  97.811  1.00  0.00    -0.000 C 
BRANCH  23  24
ATOM     24  C   UNL     1     191.593   3.000  96.600  1.00  0.00    -0.000 C 
BRANCH  24  25
ATOM     25  C   UNL     1     190.695   3.336  95.394  1.00  0.00    -0.003 C 
ATOM     26  C   UNL     1     191.273   4.438  94.505  1.00  0.00     0.004 C 
ENDBRANCH  24  25
ENDBRANCH  23  24
ENDBRANCH  22  23
ENDBRANCH  21  22
ENDBRANCH  20  21
ENDBRANCH  19  20
ENDBRANCH  18  19
ENDBRANCH  17  18
ENDBRANCH  16  17
ENDBRANCH  15  16
ENDBRANCH   1  15
TORSDOF 22
ENDMDL
MODEL 4
REMARK VINA RESULT:    -4.472      3.129      5.377
REMARK INTER + INTRA:         -12.974
REMARK INTER:                 -10.587
REMARK INTRA:                  -2.387
REMARK UNBOUND:                -2.751
REMARK SMILES CCCCCCCCCCCCCCCCCCCCCCCC(=O)[O-]
REMARK SMILES IDX 13 1 14 2 15 3 16 4 17 5 18 6 19 7 20 8 21 9 22 10 23 11
REMARK SMILES IDX 24 12 25 13 26 14 12 15 11 16 10 17 9 18 8 19 7 20 6 21 5 22
REMARK SMILES IDX 4 23 3 24 2 25 1 26
REMARK H PARENT
REMARK Flexibility Score: inf
ROOT
ATOM      1  C   UNL     1     192.454  -1.629 101.073  1.00  0.00     0.000 C 
ENDROOT
BRANCH   1   2
ATOM      2  C   UNL     1     191.556  -0.689 101.899  1.00  0.00     0.000 C 
BRANCH   2   3
ATOM      3  C   UNL     1     191.587   0.793 101.473  1.00  0.00     0.000 C 
BRANCH   3   4
ATOM      4  C   UNL     1     192.926   1.512 101.717  1.00  0.00     0.000 C 
BRANCH   4   5
ATOM      5  C   UNL     1     193.178   2.655 100.717  1.00  0.00     0.000 C 
BRANCH   5   6
ATOM      6  C   UNL     1     192.532   2.391  99.347  1.00  0.00     0.000 C 
BRANCH   6   7
ATOM      7  C   UNL     1     192.012   3.681  98.684  1.00  0.00     0.000 C 
BRANCH   7   8
ATOM      8  C   UNL     1     190.563   3.545  98.187  1.00  0.00     0.000 C 
BRANCH   8   9
ATOM      9  C   UNL     1     190.204   4.590  97.115  1.00  0.00     0.000 C 
BRANCH   9  10
ATOM     10  C   UNL     1     190.150   3.989  95.702  1.00  0.00     0.006 C 
BRANCH  10  11
ATOM     11  C   UNL     1     191.538   3.827  95.072  1.00  0.00     0.053 C 
BRANCH  11  12
ATOM     12  C   UNL     1     191.807   2.387  94.768  1.00  0.00     0.041 C 
ATOM     13  O   UNL     1     192.366   1.652  95.624  1.00  0.00    -0.550 OA
ATOM     14  O   UNL     1     191.491   1.870  93.518  1.00  0.00    -0.550 OA
ENDBRANCH  11  12
ENDBRANCH  10  11
ENDBRANCH   9  10
ENDBRANCH   8   9
ENDBRANCH   7   8
ENDBRANCH   6   7
ENDBRANCH   5   6
ENDBRANCH   4   5
ENDBRANCH   3   4
ENDBRANCH   2   3
ENDBRANCH   1   2
BRANCH   1  15
ATOM     15  C   UNL     1     191.927  -3.068 100.921  1.00  0.00     0.000 C 
BRANCH  15  16
ATOM     16  C   UNL     1     192.964  -4.056 100.342  1.00  0.00     0.000 C 
BRANCH  16  17
ATOM     17  C   UNL     1     192.351  -5.026  99.321  1.00  0.00     0.000 C 
BRANCH  17  18
ATOM     18  C   UNL     1     192.381  -6.467  99.842  1.00  0.00    -0.000 C 
BRANCH  18  19
ATOM     19  C   UNL     1     193.200  -6.565 101.138  1.00  0.00    -0.000 C 
BRANCH  19  20
ATOM     20  C   UNL     1     192.795  -7.770 102.004  1.00  0.00    -0.000 C 
BRANCH  20  21
ATOM     21  C   UNL     1     192.014  -7.352 103.264  1.00  0.00    -0.000 C 
BRANCH  21  22
ATOM     22  C   UNL     1     191.804  -5.831 103.353  1.00  0.00    -0.000 C 
BRANCH  22  23
ATOM     23  C   UNL     1     190.318  -5.435 103.299  1.00  0.00    -0.000 C 
BRANCH  23  24
ATOM     24  C   UNL     1     189.372  -6.647 103.385  1.00  0.00    -0.000 C 
BRANCH  24  25
ATOM     25  C   UNL     1     188.317  -6.729 102.265  1.00  0.00    -0.003 C 
ATOM     26  C   UNL     1     188.920  -6.601 100.865  1.00  0.00     0.004 C 
ENDBRANCH  24  25
ENDBRANCH  23  24
ENDBRANCH  22  23
ENDBRANCH  21  22
ENDBRANCH  20  21
ENDBRANCH  19  20
ENDBRANCH  18  19
ENDBRANCH  17  18
ENDBRANCH  16  17
ENDBRANCH  15  16
ENDBRANCH   1  15
TORSDOF 22
ENDMDL
MODEL 5
REMARK VINA RESULT:    -4.453      4.074      7.526
REMARK INTER + INTRA:         -12.930
REMARK INTER:                  -9.431
REMARK INTRA:                  -3.500
REMARK UNBOUND:                -2.751
REMARK SMILES CCCCCCCCCCCCCCCCCCCCCCCC(=O)[O-]
REMARK SMILES IDX 13 1 14 2 15 3 16 4 17 5 18 6 19 7 20 8 21 9 22 10 23 11
REMARK SMILES IDX 24 12 25 13 26 14 12 15 11 16 10 17 9 18 8 19 7 20 6 21 5 22
REMARK SMILES IDX 4 23 3 24 2 25 1 26
REMARK H PARENT
REMARK Flexibility Score: inf
ROOT
ATOM      1  C   UNL     1     193.025  -2.436 103.445  1.00  0.00     0.000 C 
ENDROOT
BRANCH   1   2
ATOM      2  C   UNL     1     193.914  -3.695 103.434  1.00  0.00     0.000 C 
BRANCH   2   3
ATOM      3  C   UNL     1     195.407  -3.441 103.144  1.00  0.00     0.000 C 
BRANCH   3   4
ATOM      4  C   UNL     1     195.738  -2.033 102.617  1.00  0.00     0.000 C 
BRANCH   4   5
ATOM      5  C   UNL     1     195.897  -1.992 101.087  1.00  0.00     0.000 C 
BRANCH   5   6
ATOM      6  C   UNL     1     195.917  -3.396 100.460  1.00  0.00     0.000 C 
BRANCH   6   7
ATOM      7  C   UNL     1     194.923  -3.532  99.291  1.00  0.00     0.000 C 
BRANCH   7   8
ATOM      8  C   UNL     1     193.466  -3.307  99.727  1.00  0.00     0.000 C 
BRANCH   8   9
ATOM      9  C   UNL     1     192.554  -4.498  99.381  1.00  0.00     0.000 C 
BRANCH   9  10
ATOM     10  C   UNL     1     192.271  -5.394 100.597  1.00  0.00     0.006 C 
BRANCH  10  11
ATOM     11  C   UNL     1     191.073  -4.912 101.424  1.00  0.00     0.053 C 
BRANCH  11  12
ATOM     12  C   UNL     1     190.095  -6.027 101.622  1.00  0.00     0.041 C 
ATOM     13  O   UNL     1     189.243  -5.966 102.547  1.00  0.00    -0.550 OA
ATOM     14  O   UNL     1     190.159  -7.158 100.818  1.00  0.00    -0.550 OA
ENDBRANCH  11  12
ENDBRANCH  10  11
ENDBRANCH   9  10
ENDBRANCH   8   9
ENDBRANCH   7   8
ENDBRANCH   6   7
ENDBRANCH   5   6
ENDBRANCH   4   5
ENDBRANCH   3   4
ENDBRANCH   2   3
ENDBRANCH   1   2
BRANCH   1  15
ATOM     15  C   UNL     1     192.241  -2.204 104.750  1.00  0.00     0.000 C 
BRANCH  15  16
ATOM     16  C   UNL     1     193.021  -1.399 105.813  1.00  0.00     0.000 C 
BRANCH  16  17
ATOM     17  C   UNL     1     193.149   0.089 105.454  1.00  0.00     0.000 C 
BRANCH  17  18
ATOM     18  C   UNL     1     191.770   0.744 105.316  1.00  0.00    -0.000 C 
BRANCH  18  19
ATOM     19  C   UNL     1     191.777   1.811 104.211  1.00  0.00    -0.000 C 
BRANCH  19  20
ATOM     20  C   UNL     1     193.187   2.352 103.920  1.00  0.00    -0.000 C 
BRANCH  20  21
ATOM     21  C   UNL     1     193.528   2.322 102.418  1.00  0.00    -0.000 C 
BRANCH  21  22
ATOM     22  C   UNL     1     193.745   0.895 101.888  1.00  0.00    -0.000 C 
BRANCH  22  23
ATOM     23  C   UNL     1     192.585   0.411 101.001  1.00  0.00    -0.000 C 
BRANCH  23  24
ATOM     24  C   UNL     1     191.743   1.568 100.432  1.00  0.00    -0.000 C 
BRANCH  24  25
ATOM     25  C   UNL     1     192.367   2.293  99.224  1.00  0.00    -0.003 C 
ATOM     26  C   UNL     1     191.337   3.046  98.379  1.00  0.00     0.004 C 
ENDBRANCH  24  25
ENDBRANCH  23  24
ENDBRANCH  22  23
ENDBRANCH  21  22
ENDBRANCH  20  21
ENDBRANCH  19  20
ENDBRANCH  18  19
ENDBRANCH  17  18
ENDBRANCH  16  17
ENDBRANCH  15  16
ENDBRANCH   1  15
TORSDOF 22
ENDMDL
MODEL 6
REMARK VINA RESULT:    -4.389      4.544      8.015
REMARK INTER + INTRA:         -12.785
REMARK INTER:                  -9.107
REMARK INTRA:                  -3.678
REMARK UNBOUND:                -2.751
REMARK SMILES CCCCCCCCCCCCCCCCCCCCCCCC(=O)[O-]
REMARK SMILES IDX 13 1 14 2 15 3 16 4 17 5 18 6 19 7 20 8 21 9 22 10 23 11
REMARK SMILES IDX 24 12 25 13 26 14 12 15 11 16 10 17 9 18 8 19 7 20 6 21 5 22
REMARK SMILES IDX 4 23 3 24 2 25 1 26
REMARK H PARENT
REMARK Flexibility Score: inf
ROOT
ATOM      1  C   UNL     1     191.992  -1.642 106.014  1.00  0.00     0.000 C 
ENDROOT
BRANCH   1   2
ATOM      2  C   UNL     1     193.217  -2.174 105.246  1.00  0.00     0.000 C 
BRANCH   2   3
ATOM      3  C   UNL     1     192.953  -2.557 103.775  1.00  0.00     0.000 C 
BRANCH   3   4
ATOM      4  C   UNL     1     191.730  -1.877 103.135  1.00  0.00     0.000 C 
BRANCH   4   5
ATOM      5  C   UNL     1     191.892  -1.664 101.619  1.00  0.00     0.000 C 
BRANCH   5   6
ATOM      6  C   UNL     1     192.071  -0.182 101.249  1.00  0.00     0.000 C 
BRANCH   6   7
ATOM      7  C   UNL     1     193.431   0.378 101.707  1.00  0.00     0.000 C 
BRANCH   7   8
ATOM      8  C   UNL     1     193.443   1.915 101.774  1.00  0.00     0.000 C 
BRANCH   8   9
ATOM      9  C   UNL     1     193.729   2.443 103.191  1.00  0.00     0.000 C 
BRANCH   9  10
ATOM     10  C   UNL     1     193.291   1.457 104.285  1.00  0.00     0.006 C 
BRANCH  10  11
ATOM     11  C   UNL     1     192.387   2.104 105.340  1.00  0.00     0.053 C 
BRANCH  11  12
ATOM     12  C   UNL     1     190.951   1.795 105.056  1.00  0.00     0.041 C 
ATOM     13  O   UNL     1     190.576   1.548 103.879  1.00  0.00    -0.550 OA
ATOM     14  O   UNL     1     190.016   1.832 106.083  1.00  0.00    -0.550 OA
ENDBRANCH  11  12
ENDBRANCH  10  11
ENDBRANCH   9  10
ENDBRANCH   8   9
ENDBRANCH   7   8
ENDBRANCH   6   7
ENDBRANCH   5   6
ENDBRANCH   4   5
ENDBRANCH   3   4
ENDBRANCH   2   3
ENDBRANCH   1   2
BRANCH   1  15
ATOM     15  C   UNL     1     191.617  -2.440 107.277  1.00  0.00     0.000 C 
BRANCH  15  16
ATOM     16  C   UNL     1     191.215  -3.904 106.994  1.00  0.00     0.000 C 
BRANCH  16  17
ATOM     17  C   UNL     1     189.999  -4.016 106.062  1.00  0.00     0.000 C 
BRANCH  17  18
ATOM     18  C   UNL     1     190.251  -5.034 104.945  1.00  0.00    -0.000 C 
BRANCH  18  19
ATOM     19  C   UNL     1     188.991  -5.868 104.667  1.00  0.00    -0.000 C 
BRANCH  19  20
ATOM     20  C   UNL     1     189.318  -7.307 104.234  1.00  0.00    -0.000 C 
BRANCH  20  21
ATOM     21  C   UNL     1     188.534  -7.735 102.980  1.00  0.00    -0.000 C 
BRANCH  21  22
ATOM     22  C   UNL     1     188.456  -6.623 101.921  1.00  0.00    -0.000 C 
BRANCH  22  23
ATOM     23  C   UNL     1     189.682  -6.603 100.992  1.00  0.00    -0.000 C 
BRANCH  23  24
ATOM     24  C   UNL     1     190.623  -5.415 101.268  1.00  0.00    -0.000 C 
BRANCH  24  25
ATOM     25  C   UNL     1     192.005  -5.799 101.832  1.00  0.00    -0.003 C 
ATOM     26  C   UNL     1     192.274  -7.304 101.788  1.00  0.00     0.004 C 
ENDBRANCH  24  25
ENDBRANCH  23  24
ENDBRANCH  22  23
ENDBRANCH  21  22
ENDBRANCH  20  21
ENDBRANCH  19  20
ENDBRANCH  18  19
ENDBRANCH  17  18
ENDBRANCH  16  17
ENDBRANCH  15  16
ENDBRANCH   1  15
TORSDOF 22
ENDMDL
MODEL 7
REMARK VINA RESULT:    -4.384      4.575      7.240
REMARK INTER + INTRA:         -12.773
REMARK INTER:                  -9.029
REMARK INTRA:                  -3.744
REMARK UNBOUND:                -2.751
REMARK SMILES CCCCCCCCCCCCCCCCCCCCCCCC(=O)[O-]
REMARK SMILES IDX 13 1 14 2 15 3 16 4 17 5 18 6 19 7 20 8 21 9 22 10 23 11
REMARK SMILES IDX 24 12 25 13 26 14 12 15 11 16 10 17 9 18 8 19 7 20 6 21 5 22
REMARK SMILES IDX 4 23 3 24 2 25 1 26
REMARK H PARENT
REMARK Flexibility Score: inf
ROOT
ATOM      1  C   UNL     1     193.693  -3.261 100.180  1.00  0.00     0.000 C 
ENDROOT
BRANCH   1   2
ATOM      2  C   UNL     1     194.613  -3.662 101.350  1.00  0.00     0.000 C 
BRANCH   2   3
ATOM      3  C   UNL     1     195.510  -2.533 101.896  1.00  0.00     0.000 C 
BRANCH   3   4
ATOM      4  C   UNL     1     195.178  -2.071 103.326  1.00  0.00     0.000 C 
BRANCH   4   5
ATOM      5  C   UNL     1     193.774  -2.508 103.782  1.00  0.00     0.000 C 
BRANCH   5   6
ATOM      6  C   UNL     1     192.773  -1.341 103.807  1.00  0.00     0.000 C 
BRANCH   6   7
ATOM      7  C   UNL     1     191.627  -1.527 102.795  1.00  0.00     0.000 C 
BRANCH   7   8
ATOM      8  C   UNL     1     191.640  -0.460 101.688  1.00  0.00     0.000 C 
BRANCH   8   9
ATOM      9  C   UNL     1     193.005   0.239 101.555  1.00  0.00     0.000 C 
BRANCH   9  10
ATOM     10  C   UNL     1     192.870   1.747 101.292  1.00  0.00     0.006 C 
BRANCH  10  11
ATOM     11  C   UNL     1     193.655   2.598 102.297  1.00  0.00     0.053 C 
BRANCH  11  12
ATOM     12  C   UNL     1     193.241   2.264 103.696  1.00  0.00     0.041 C 
ATOM     13  O   UNL     1     192.041   2.401 104.052  1.00  0.00    -0.550 OA
ATOM     14  O   UNL     1     194.192   1.855 104.623  1.00  0.00    -0.550 OA
ENDBRANCH  11  12
ENDBRANCH  10  11
ENDBRANCH   9  10
ENDBRANCH   8   9
ENDBRANCH   7   8
ENDBRANCH   6   7
ENDBRANCH   5   6
ENDBRANCH   4   5
ENDBRANCH   3   4
ENDBRANCH   2   3
ENDBRANCH   1   2
BRANCH   1  15
ATOM     15  C   UNL     1     192.611  -4.296  99.818  1.00  0.00     0.000 C 
BRANCH  15  16
ATOM     16  C   UNL     1     191.627  -4.601 100.969  1.00  0.00     0.000 C 
BRANCH  16  17
ATOM     17  C   UNL     1     191.886  -5.966 101.624  1.00  0.00     0.000 C 
BRANCH  17  18
ATOM     18  C   UNL     1     190.898  -7.020 101.111  1.00  0.00    -0.000 C 
BRANCH  18  19
ATOM     19  C   UNL     1     189.518  -6.397 100.850  1.00  0.00    -0.000 C 
BRANCH  19  20
ATOM     20  C   UNL     1     188.385  -7.148 101.570  1.00  0.00    -0.000 C 
BRANCH  20  21
ATOM     21  C   UNL     1     188.689  -7.379 103.062  1.00  0.00    -0.000 C 
BRANCH  21  22
ATOM     22  C   UNL     1     188.680  -6.075 103.877  1.00  0.00    -0.000 C 
BRANCH  22  23
ATOM     23  C   UNL     1     189.927  -5.924 104.766  1.00  0.00    -0.000 C 
BRANCH  23  24
ATOM     24  C   UNL     1     190.510  -4.499 104.743  1.00  0.00    -0.000 C 
BRANCH  24  25
ATOM     25  C   UNL     1     190.495  -3.769 106.099  1.00  0.00    -0.003 C 
ATOM     26  C   UNL     1     189.175  -3.935 106.855  1.00  0.00     0.004 C 
ENDBRANCH  24  25
ENDBRANCH  23  24
ENDBRANCH  22  23
ENDBRANCH  21  22
ENDBRANCH  20  21
ENDBRANCH  19  20
ENDBRANCH  18  19
ENDBRANCH  17  18
ENDBRANCH  16  17
ENDBRANCH  15  16
ENDBRANCH   1  15
TORSDOF 22
ENDMDL
MODEL 8
REMARK VINA RESULT:    -4.373      3.296      5.571
REMARK INTER + INTRA:         -12.749
REMARK INTER:                 -10.117
REMARK INTRA:                  -2.632
REMARK UNBOUND:                -2.751
REMARK SMILES CCCCCCCCCCCCCCCCCCCCCCCC(=O)[O-]
REMARK SMILES IDX 13 1 14 2 15 3 16 4 17 5 18 6 19 7 20 8 21 9 22 10 23 11
REMARK SMILES IDX 24 12 25 13 26 14 12 15 11 16 10 17 9 18 8 19 7 20 6 21 5 22
REMARK SMILES IDX 4 23 3 24 2 25 1 26
REMARK H PARENT
REMARK Flexibility Score: inf
ROOT
ATOM      1  C   UNL     1     191.975  -1.589 101.267  1.00  0.00     0.000 C 
ENDROOT
BRANCH   1   2
ATOM      2  C   UNL     1     191.588  -1.446 102.752  1.00  0.00     0.000 C 
BRANCH   2   3
ATOM      3  C   UNL     1     192.751  -1.098 103.703  1.00  0.00     0.000 C 
BRANCH   3   4
ATOM      4  C   UNL     1     192.871   0.393 104.067  1.00  0.00     0.000 C 
BRANCH   4   5
ATOM      5  C   UNL     1     193.899   1.137 103.198  1.00  0.00     0.000 C 
BRANCH   5   6
ATOM      6  C   UNL     1     193.406   2.527 102.761  1.00  0.00     0.000 C 
BRANCH   6   7
ATOM      7  C   UNL     1     193.387   2.691 101.230  1.00  0.00     0.000 C 
BRANCH   7   8
ATOM      8  C   UNL     1     192.368   1.761 100.549  1.00  0.00     0.000 C 
BRANCH   8   9
ATOM      9  C   UNL     1     192.233   2.034  99.041  1.00  0.00     0.000 C 
BRANCH   9  10
ATOM     10  C   UNL     1     191.801   3.478  98.741  1.00  0.00     0.006 C 
BRANCH  10  11
ATOM     11  C   UNL     1     191.285   3.659  97.309  1.00  0.00     0.053 C 
BRANCH  11  12
ATOM     12  C   UNL     1     189.792   3.573  97.278  1.00  0.00     0.041 C 
ATOM     13  O   UNL     1     189.131   3.645  98.348  1.00  0.00    -0.550 OA
ATOM     14  O   UNL     1     189.133   3.358  96.074  1.00  0.00    -0.550 OA
ENDBRANCH  11  12
ENDBRANCH  10  11
ENDBRANCH   9  10
ENDBRANCH   8   9
ENDBRANCH   7   8
ENDBRANCH   6   7
ENDBRANCH   5   6
ENDBRANCH   4   5
ENDBRANCH   3   4
ENDBRANCH   2   3
ENDBRANCH   1   2
BRANCH   1  15
ATOM     15  C   UNL     1     193.383  -2.159 101.013  1.00  0.00     0.000 C 
BRANCH  15  16
ATOM     16  C   UNL     1     193.393  -3.438 100.148  1.00  0.00     0.000 C 
BRANCH  16  17
ATOM     17  C   UNL     1     193.791  -4.690 100.945  1.00  0.00     0.000 C 
BRANCH  17  18
ATOM     18  C   UNL     1     192.663  -5.125 101.888  1.00  0.00    -0.000 C 
BRANCH  18  19
ATOM     19  C   UNL     1     191.339  -5.282 101.124  1.00  0.00    -0.000 C 
BRANCH  19  20
ATOM     20  C   UNL     1     190.653  -6.631 101.400  1.00  0.00    -0.000 C 
BRANCH  20  21
ATOM     21  C   UNL     1     189.189  -6.653 100.922  1.00  0.00    -0.000 C 
BRANCH  21  22
ATOM     22  C   UNL     1     188.188  -6.773 102.082  1.00  0.00    -0.000 C 
BRANCH  22  23
ATOM     23  C   UNL     1     188.875  -7.050 103.430  1.00  0.00    -0.000 C 
BRANCH  23  24
ATOM     24  C   UNL     1     188.633  -5.936 104.466  1.00  0.00    -0.000 C 
BRANCH  24  25
ATOM     25  C   UNL     1     189.859  -5.568 105.324  1.00  0.00    -0.003 C 
ATOM     26  C   UNL     1     190.578  -4.310 104.834  1.00  0.00     0.004 C 
ENDBRANCH  24  25
ENDBRANCH  23  24
ENDBRANCH  22  23
ENDBRANCH  21  22
ENDBRANCH  20  21
ENDBRANCH  19  20
ENDBRANCH  18  19
ENDBRANCH  17  18
ENDBRANCH  16  17
ENDBRANCH  15  16
ENDBRANCH   1  15
TORSDOF 22
ENDMDL
MODEL 9
REMARK VINA RESULT:    -4.262      5.340      8.388
REMARK INTER + INTRA:         -12.495
REMARK INTER:                  -8.364
REMARK INTRA:                  -4.131
REMARK UNBOUND:                -2.751
REMARK SMILES CCCCCCCCCCCCCCCCCCCCCCCC(=O)[O-]
REMARK SMILES IDX 13 1 14 2 15 3 16 4 17 5 18 6 19 7 20 8 21 9 22 10 23 11
REMARK SMILES IDX 24 12 25 13 26 14 12 15 11 16 10 17 9 18 8 19 7 20 6 21 5 22
REMARK SMILES IDX 4 23 3 24 2 25 1 26
REMARK H PARENT
REMARK Flexibility Score: inf
ROOT
ATOM      1  C   UNL     1     192.375  -5.256  98.818  1.00  0.00     0.000 C 
ENDROOT
BRANCH   1   2
ATOM      2  C   UNL     1     193.533  -6.193  98.425  1.00  0.00     0.000 C 
BRANCH   2   3
ATOM      3  C   UNL     1     194.887  -5.880  99.094  1.00  0.00     0.000 C 
BRANCH   3   4
ATOM      4  C   UNL     1     195.470  -4.494  98.766  1.00  0.00     0.000 C 
BRANCH   4   5
ATOM      5  C   UNL     1     195.923  -3.726 100.021  1.00  0.00     0.000 C 
BRANCH   5   6
ATOM      6  C   UNL     1     194.739  -3.257 100.882  1.00  0.00     0.000 C 
BRANCH   6   7
ATOM      7  C   UNL     1     194.597  -1.723 100.902  1.00  0.00     0.000 C 
BRANCH   7   8
ATOM      8  C   UNL     1     193.129  -1.266 100.861  1.00  0.00     0.000 C 
BRANCH   8   9
ATOM      9  C   UNL     1     192.190  -2.224 101.618  1.00  0.00     0.000 C 
BRANCH   9  10
ATOM     10  C   UNL     1     191.638  -1.605 102.911  1.00  0.00     0.006 C 
BRANCH  10  11
ATOM     11  C   UNL     1     192.654  -1.622 104.059  1.00  0.00     0.053 C 
BRANCH  11  12
ATOM     12  C   UNL     1     192.897  -0.234 104.561  1.00  0.00     0.041 C 
ATOM     13  O   UNL     1     193.594   0.571 103.887  1.00  0.00    -0.550 OA
ATOM     14  O   UNL     1     192.400   0.155 105.798  1.00  0.00    -0.550 OA
ENDBRANCH  11  12
ENDBRANCH  10  11
ENDBRANCH   9  10
ENDBRANCH   8   9
ENDBRANCH   7   8
ENDBRANCH   6   7
ENDBRANCH   5   6
ENDBRANCH   4   5
ENDBRANCH   3   4
ENDBRANCH   2   3
ENDBRANCH   1   2
BRANCH   1  15
ATOM     15  C   UNL     1     191.653  -5.626 100.127  1.00  0.00     0.000 C 
BRANCH  15  16
ATOM     16  C   UNL     1     191.861  -7.093 100.563  1.00  0.00     0.000 C 
BRANCH  16  17
ATOM     17  C   UNL     1     192.346  -7.216 102.016  1.00  0.00     0.000 C 
BRANCH  17  18
ATOM     18  C   UNL     1     192.849  -5.868 102.546  1.00  0.00    -0.000 C 
BRANCH  18  19
ATOM     19  C   UNL     1     192.380  -5.638 103.991  1.00  0.00    -0.000 C 
BRANCH  19  20
ATOM     20  C   UNL     1     190.983  -4.997 104.064  1.00  0.00    -0.000 C 
BRANCH  20  21
ATOM     21  C   UNL     1     190.026  -5.782 104.980  1.00  0.00    -0.000 C 
BRANCH  21  22
ATOM     22  C   UNL     1     188.647  -6.012 104.338  1.00  0.00    -0.000 C 
BRANCH  22  23
ATOM     23  C   UNL     1     188.735  -6.276 102.826  1.00  0.00    -0.000 C 
BRANCH  23  24
ATOM     24  C   UNL     1     188.745  -7.777 102.479  1.00  0.00    -0.000 C 
BRANCH  24  25
ATOM     25  C   UNL     1     188.253  -8.119 101.060  1.00  0.00    -0.003 C 
ATOM     26  C   UNL     1     188.128  -6.892 100.156  1.00  0.00     0.004 C 
ENDBRANCH  24  25
ENDBRANCH  23  24
ENDBRANCH  22  23
ENDBRANCH  21  22
ENDBRANCH  20  21
ENDBRANCH  19  20
ENDBRANCH  18  19
ENDBRANCH  17  18
ENDBRANCH  16  17
ENDBRANCH  15  16
ENDBRANCH   1  15
TORSDOF 22
ENDMDL
