MODEL 1
REMARK VINA RESULT:    14.668      0.000      0.000
REMARK INTER + INTRA:          19.929
REMARK INTER:                  19.384
REMARK INTRA:                   0.545
REMARK UNBOUND:                 0.545
REMARK SMILES CC[C@H](C=C[C@@H](C)[C@H]1CC[C@@H]2[C@H]3CC=C4C[C@@H](O)CC[C@@]4(C)[C@H]3CC[C@@]21C)C(C)C
REMARK SMILES IDX 6 1 7 2 5 3 4 4 3 5 2 6 1 7 28 8 29 9 30 10 8 11 9 12 26 13
REMARK SMILES IDX 10 14 11 15 25 16 27 17 12 18 24 19 23 20 13 21 21 22 14 23
REMARK SMILES IDX 15 24 20 25 22 26 16 27 19 28 17 29 18 30
REMARK H PARENT 18 31
REMARK Flexibility Score: inf
ROOT
ATOM      1  C   UNL     1      76.241  39.834  26.781  1.00  0.00     0.012 C 
ATOM      2  C   UNL     1      75.783  38.366  26.758  1.00  0.00     0.012 C 
ENDROOT
BRANCH   1   3
ATOM      3  C   UNL     1      75.419  40.558  27.828  1.00  0.00    -0.028 C 
ATOM      4  C   UNL     1      75.461  40.215  29.132  1.00  0.00    -0.027 C 
BRANCH   4   5
ATOM      5  C   UNL     1      74.673  40.971  30.178  1.00  0.00     0.014 C 
BRANCH   5   6
ATOM      6  C   UNL     1      75.532  42.125  30.771  1.00  0.00     0.004 C 
ATOM      7  C   UNL     1      76.916  41.641  31.201  1.00  0.00     0.004 C 
ENDBRANCH   5   6
BRANCH   5   8
ATOM      8  C   UNL     1      73.298  41.424  29.598  1.00  0.00    -0.011 C 
ATOM      9  C   UNL     1      72.367  42.074  30.639  1.00  0.00     0.008 C 
ATOM     10  C   UNL     1      72.578  40.269  28.880  1.00  0.00     0.008 C 
ENDBRANCH   5   8
ENDBRANCH   4   5
ENDBRANCH   1   3
BRANCH   1  11
ATOM     11  C   UNL     1      76.106  40.547  25.389  1.00  0.00     0.002 C 
ATOM     12  C   UNL     1      77.400  41.252  24.988  1.00  0.00     0.005 C 
ATOM     13  C   UNL     1      75.748  39.685  24.140  1.00  0.00    -0.026 C 
ATOM     14  C   UNL     1      77.314  41.487  23.490  1.00  0.00     0.005 C 
ATOM     15  C   UNL     1      76.205  40.566  22.929  1.00  0.00    -0.001 C 
ATOM     16  C   UNL     1      74.231  39.369  24.081  1.00  0.00     0.007 C 
ATOM     17  C   UNL     1      76.561  38.354  24.109  1.00  0.00     0.012 C 
ATOM     18  C   UNL     1      75.063  41.394  22.236  1.00  0.00     0.000 C 
ATOM     19  C   UNL     1      73.751  39.216  22.642  1.00  0.00     0.005 C 
ATOM     20  C   UNL     1      73.743  40.577  21.913  1.00  0.00     0.003 C 
ATOM     21  C   UNL     1      75.624  42.124  20.994  1.00  0.00     0.031 C 
ATOM     22  C   UNL     1      73.321  40.498  20.370  1.00  0.00    -0.008 C 
ATOM     23  C   UNL     1      75.619  41.248  19.780  1.00  0.00    -0.027 C 
ATOM     24  C   UNL     1      74.554  40.496  19.462  1.00  0.00    -0.065 C 
ATOM     25  C   UNL     1      72.437  39.237  20.066  1.00  0.00     0.014 C 
ATOM     26  C   UNL     1      72.466  41.747  20.016  1.00  0.00     0.016 C 
ATOM     27  C   UNL     1      74.479  39.968  18.038  1.00  0.00     0.063 C 
ATOM     28  C   UNL     1      72.222  38.970  18.574  1.00  0.00     0.033 C 
ATOM     29  C   UNL     1      73.566  38.748  17.875  1.00  0.00     0.118 C 
BRANCH  29  30
ATOM     30  O   UNL     1      74.191  37.595  18.386  1.00  0.00    -0.393 OA
ATOM     31  H   UNL     1      74.683  37.176  17.632  1.00  0.00     0.210 HD
ENDBRANCH  29  30
ENDBRANCH   1  11
TORSDOF 6
ENDMDL
MODEL 2
REMARK VINA RESULT:    14.928      0.633      1.712
REMARK INTER + INTRA:          20.272
REMARK INTER:                  19.698
REMARK INTRA:                   0.574
REMARK UNBOUND:                 0.545
REMARK SMILES CC[C@H](C=C[C@@H](C)[C@H]1CC[C@@H]2[C@H]3CC=C4C[C@@H](O)CC[C@@]4(C)[C@H]3CC[C@@]21C)C(C)C
REMARK SMILES IDX 6 1 7 2 5 3 4 4 3 5 2 6 1 7 28 8 29 9 30 10 8 11 9 12 26 13
REMARK SMILES IDX 10 14 11 15 25 16 27 17 12 18 24 19 23 20 13 21 21 22 14 23
REMARK SMILES IDX 15 24 20 25 22 26 16 27 19 28 17 29 18 30
REMARK H PARENT 18 31
REMARK Flexibility Score: inf
ROOT
ATOM      1  C   UNL     1      75.993  39.944  26.855  1.00  0.00     0.012 C 
ATOM      2  C   UNL     1      75.124  38.681  26.961  1.00  0.00     0.012 C 
ENDROOT
BRANCH   1   3
ATOM      3  C   UNL     1      75.447  40.965  27.833  1.00  0.00    -0.028 C 
ATOM      4  C   UNL     1      74.631  40.615  28.848  1.00  0.00    -0.027 C 
BRANCH   4   5
ATOM      5  C   UNL     1      74.127  41.632  29.848  1.00  0.00     0.014 C 
BRANCH   5   6
ATOM      6  C   UNL     1      72.902  41.066  30.623  1.00  0.00     0.004 C 
ATOM      7  C   UNL     1      71.581  41.578  30.050  1.00  0.00     0.004 C 
ENDBRANCH   5   6
BRANCH   5   8
ATOM      8  C   UNL     1      75.295  42.122  30.758  1.00  0.00    -0.011 C 
ATOM      9  C   UNL     1      76.619  41.369  30.530  1.00  0.00     0.008 C 
ATOM     10  C   UNL     1      74.907  42.090  32.246  1.00  0.00     0.008 C 
ENDBRANCH   5   8
ENDBRANCH   4   5
ENDBRANCH   1   3
BRANCH   1  11
ATOM     11  C   UNL     1      76.039  40.545  25.405  1.00  0.00     0.002 C 
ATOM     12  C   UNL     1      77.429  41.073  25.056  1.00  0.00     0.005 C 
ATOM     13  C   UNL     1      75.677  39.620  24.203  1.00  0.00    -0.026 C 
ATOM     14  C   UNL     1      77.477  41.185  23.542  1.00  0.00     0.005 C 
ATOM     15  C   UNL     1      76.315  40.340  22.967  1.00  0.00    -0.001 C 
ATOM     16  C   UNL     1      74.142  39.461  24.046  1.00  0.00     0.007 C 
ATOM     17  C   UNL     1      76.337  38.214  24.341  1.00  0.00     0.012 C 
ATOM     18  C   UNL     1      75.325  41.221  22.122  1.00  0.00     0.000 C 
ATOM     19  C   UNL     1      73.753  39.235  22.590  1.00  0.00     0.005 C 
ATOM     20  C   UNL     1      73.948  40.522  21.759  1.00  0.00     0.003 C 
ATOM     21  C   UNL     1      76.051  41.778  20.875  1.00  0.00     0.031 C 
ATOM     22  C   UNL     1      73.632  40.354  20.197  1.00  0.00    -0.008 C 
ATOM     23  C   UNL     1      76.035  40.805  19.738  1.00  0.00    -0.027 C 
ATOM     24  C   UNL     1      74.918  40.144  19.394  1.00  0.00    -0.065 C 
ATOM     25  C   UNL     1      72.637  39.172  19.923  1.00  0.00     0.014 C 
ATOM     26  C   UNL     1      72.949  41.650  19.679  1.00  0.00     0.016 C 
ATOM     27  C   UNL     1      74.888  39.506  18.015  1.00  0.00     0.063 C 
ATOM     28  C   UNL     1      72.501  38.800  18.444  1.00  0.00     0.033 C 
ATOM     29  C   UNL     1      73.858  38.378  17.875  1.00  0.00     0.118 C 
BRANCH  29  30
ATOM     30  O   UNL     1      74.312  37.215  18.523  1.00  0.00    -0.393 OA
ATOM     31  H   UNL     1      73.935  36.442  18.027  1.00  0.00     0.210 HD
ENDBRANCH  29  30
ENDBRANCH   1  11
TORSDOF 6
ENDMDL
MODEL 3
REMARK VINA RESULT:    15.685      1.202      1.911
REMARK INTER + INTRA:          21.274
REMARK INTER:                  21.345
REMARK INTRA:                  -0.071
REMARK UNBOUND:                 0.545
REMARK SMILES CC[C@H](C=C[C@@H](C)[C@H]1CC[C@@H]2[C@H]3CC=C4C[C@@H](O)CC[C@@]4(C)[C@H]3CC[C@@]21C)C(C)C
REMARK SMILES IDX 6 1 7 2 5 3 4 4 3 5 2 6 1 7 28 8 29 9 30 10 8 11 9 12 26 13
REMARK SMILES IDX 10 14 11 15 25 16 27 17 12 18 24 19 23 20 13 21 21 22 14 23
REMARK SMILES IDX 15 24 20 25 22 26 16 27 19 28 17 29 18 30
REMARK H PARENT 18 31
REMARK Flexibility Score: inf
ROOT
ATOM      1  C   UNL     1      77.642  38.810  25.817  1.00  0.00     0.012 C 
ATOM      2  C   UNL     1      77.948  37.375  25.358  1.00  0.00     0.012 C 
ENDROOT
BRANCH   1   3
ATOM      3  C   UNL     1      76.528  38.740  26.843  1.00  0.00    -0.028 C 
ATOM      4  C   UNL     1      75.800  39.823  27.181  1.00  0.00    -0.027 C 
BRANCH   4   5
ATOM      5  C   UNL     1      74.660  39.735  28.172  1.00  0.00     0.014 C 
BRANCH   5   6
ATOM      6  C   UNL     1      74.303  38.247  28.454  1.00  0.00     0.004 C 
ATOM      7  C   UNL     1      74.550  37.869  29.914  1.00  0.00     0.004 C 
ENDBRANCH   5   6
BRANCH   5   8
ATOM      8  C   UNL     1      74.985  40.573  29.447  1.00  0.00    -0.011 C 
ATOM      9  C   UNL     1      73.795  41.402  29.966  1.00  0.00     0.008 C 
ATOM     10  C   UNL     1      76.217  41.471  29.236  1.00  0.00     0.008 C 
ENDBRANCH   5   8
ENDBRANCH   4   5
ENDBRANCH   1   3
BRANCH   1  11
ATOM     11  C   UNL     1      77.241  39.766  24.638  1.00  0.00     0.002 C 
ATOM     12  C   UNL     1      78.462  40.449  24.024  1.00  0.00     0.005 C 
ATOM     13  C   UNL     1      76.494  39.162  23.410  1.00  0.00    -0.026 C 
ATOM     14  C   UNL     1      78.031  40.950  22.657  1.00  0.00     0.005 C 
ATOM     15  C   UNL     1      76.725  40.214  22.272  1.00  0.00    -0.001 C 
ATOM     16  C   UNL     1      74.985  38.958  23.705  1.00  0.00     0.007 C 
ATOM     17  C   UNL     1      77.127  37.811  22.959  1.00  0.00     0.012 C 
ATOM     18  C   UNL     1      75.542  41.222  22.042  1.00  0.00     0.000 C 
ATOM     19  C   UNL     1      74.148  39.092  22.438  1.00  0.00     0.005 C 
ATOM     20  C   UNL     1      74.103  40.559  21.957  1.00  0.00     0.003 C 
ATOM     21  C   UNL     1      75.849  42.124  20.825  1.00  0.00     0.031 C 
ATOM     22  C   UNL     1      73.304  40.781  20.586  1.00  0.00    -0.008 C 
ATOM     23  C   UNL     1      75.448  41.479  19.535  1.00  0.00    -0.027 C 
ATOM     24  C   UNL     1      74.264  40.863  19.396  1.00  0.00    -0.065 C 
ATOM     25  C   UNL     1      72.243  39.651  20.335  1.00  0.00     0.014 C 
ATOM     26  C   UNL     1      72.526  42.124  20.668  1.00  0.00     0.016 C 
ATOM     27  C   UNL     1      73.782  40.601  17.979  1.00  0.00     0.063 C 
ATOM     28  C   UNL     1      71.636  39.667  18.929  1.00  0.00     0.033 C 
ATOM     29  C   UNL     1      72.732  39.488  17.875  1.00  0.00     0.118 C 
BRANCH  29  30
ATOM     30  O   UNL     1      73.339  38.227  18.018  1.00  0.00    -0.393 OA
ATOM     31  H   UNL     1      73.614  37.935  17.110  1.00  0.00     0.210 HD
ENDBRANCH  29  30
ENDBRANCH   1  11
TORSDOF 6
ENDMDL
MODEL 4
REMARK VINA RESULT:    16.273      2.753      8.203
REMARK INTER + INTRA:          22.050
REMARK INTER:                  20.822
REMARK INTRA:                   1.228
REMARK UNBOUND:                 0.545
REMARK SMILES CC[C@H](C=C[C@@H](C)[C@H]1CC[C@@H]2[C@H]3CC=C4C[C@@H](O)CC[C@@]4(C)[C@H]3CC[C@@]21C)C(C)C
REMARK SMILES IDX 6 1 7 2 5 3 4 4 3 5 2 6 1 7 28 8 29 9 30 10 8 11 9 12 26 13
REMARK SMILES IDX 10 14 11 15 25 16 27 17 12 18 24 19 23 20 13 21 21 22 14 23
REMARK SMILES IDX 15 24 20 25 22 26 16 27 19 28 17 29 18 30
REMARK H PARENT 18 31
REMARK Flexibility Score: inf
ROOT
ATOM      1  C   UNL     1      73.141  39.887  19.308  1.00  0.00     0.012 C 
ATOM      2  C   UNL     1      73.689  39.795  17.875  1.00  0.00     0.012 C 
ENDROOT
BRANCH   1   3
ATOM      3  C   UNL     1      72.096  40.985  19.334  1.00  0.00    -0.028 C 
ATOM      4  C   UNL     1      70.817  40.744  19.685  1.00  0.00    -0.027 C 
BRANCH   4   5
ATOM      5  C   UNL     1      69.790  41.853  19.752  1.00  0.00     0.014 C 
BRANCH   5   6
ATOM      6  C   UNL     1      69.195  42.125  18.341  1.00  0.00     0.004 C 
ATOM      7  C   UNL     1      68.188  41.051  17.932  1.00  0.00     0.004 C 
ENDBRANCH   5   6
BRANCH   5   8
ATOM      8  C   UNL     1      68.728  41.542  20.851  1.00  0.00    -0.011 C 
ATOM      9  C   UNL     1      68.917  40.171  21.528  1.00  0.00     0.008 C 
ATOM     10  C   UNL     1      67.294  41.682  20.310  1.00  0.00     0.008 C 
ENDBRANCH   5   8
ENDBRANCH   4   5
ENDBRANCH   1   3
BRANCH   1  11
ATOM     11  C   UNL     1      74.254  40.164  20.381  1.00  0.00     0.002 C 
ATOM     12  C   UNL     1      74.949  41.503  20.141  1.00  0.00     0.005 C 
ATOM     13  C   UNL     1      73.842  40.222  21.884  1.00  0.00    -0.026 C 
ATOM     14  C   UNL     1      75.635  41.870  21.445  1.00  0.00     0.005 C 
ATOM     15  C   UNL     1      75.015  41.004  22.567  1.00  0.00    -0.001 C 
ATOM     16  C   UNL     1      73.674  38.801  22.484  1.00  0.00     0.007 C 
ATOM     17  C   UNL     1      72.528  41.036  22.090  1.00  0.00     0.012 C 
ATOM     18  C   UNL     1      76.097  40.108  23.270  1.00  0.00     0.000 C 
ATOM     19  C   UNL     1      74.003  38.784  23.972  1.00  0.00     0.005 C 
ATOM     20  C   UNL     1      75.518  38.966  24.206  1.00  0.00     0.003 C 
ATOM     21  C   UNL     1      77.128  41.002  23.997  1.00  0.00     0.031 C 
ATOM     22  C   UNL     1      75.946  39.034  25.748  1.00  0.00    -0.008 C 
ATOM     23  C   UNL     1      76.666  41.385  25.369  1.00  0.00    -0.027 C 
ATOM     24  C   UNL     1      76.128  40.484  26.206  1.00  0.00    -0.065 C 
ATOM     25  C   UNL     1      74.907  38.312  26.678  1.00  0.00     0.014 C 
ATOM     26  C   UNL     1      77.303  38.299  25.929  1.00  0.00     0.016 C 
ATOM     27  C   UNL     1      76.067  40.857  27.678  1.00  0.00     0.063 C 
ATOM     28  C   UNL     1      75.124  38.566  28.173  1.00  0.00     0.033 C 
ATOM     29  C   UNL     1      75.026  40.063  28.477  1.00  0.00     0.118 C 
BRANCH  29  30
ATOM     30  O   UNL     1      73.730  40.530  28.192  1.00  0.00    -0.393 OA
ATOM     31  H   UNL     1      73.658  40.597  27.204  1.00  0.00     0.210 HD
ENDBRANCH  29  30
ENDBRANCH   1  11
TORSDOF 6
ENDMDL
MODEL 5
REMARK VINA RESULT:    16.888      2.944      8.355
REMARK INTER + INTRA:          22.863
REMARK INTER:                  21.834
REMARK INTRA:                   1.029
REMARK UNBOUND:                 0.545
REMARK SMILES CC[C@H](C=C[C@@H](C)[C@H]1CC[C@@H]2[C@H]3CC=C4C[C@@H](O)CC[C@@]4(C)[C@H]3CC[C@@]21C)C(C)C
REMARK SMILES IDX 6 1 7 2 5 3 4 4 3 5 2 6 1 7 28 8 29 9 30 10 8 11 9 12 26 13
REMARK SMILES IDX 10 14 11 15 25 16 27 17 12 18 24 19 23 20 13 21 21 22 14 23
REMARK SMILES IDX 15 24 20 25 22 26 16 27 19 28 17 29 18 30
REMARK H PARENT 18 31
REMARK Flexibility Score: inf
ROOT
ATOM      1  C   UNL     1      72.174  39.424  19.178  1.00  0.00     0.012 C 
ATOM      2  C   UNL     1      72.815  38.888  17.887  1.00  0.00     0.012 C 
ENDROOT
BRANCH   1   3
ATOM      3  C   UNL     1      71.126  40.445  18.783  1.00  0.00    -0.028 C 
ATOM      4  C   UNL     1      70.192  40.881  19.653  1.00  0.00    -0.027 C 
BRANCH   4   5
ATOM      5  C   UNL     1      69.177  41.934  19.265  1.00  0.00     0.014 C 
BRANCH   5   6
ATOM      6  C   UNL     1      68.561  41.605  17.875  1.00  0.00     0.004 C 
ATOM      7  C   UNL     1      67.357  40.672  17.992  1.00  0.00     0.004 C 
ENDBRANCH   5   6
BRANCH   5   8
ATOM      8  C   UNL     1      68.130  42.123  20.406  1.00  0.00    -0.011 C 
ATOM      9  C   UNL     1      68.286  41.120  21.565  1.00  0.00     0.008 C 
ATOM     10  C   UNL     1      66.690  42.099  19.864  1.00  0.00     0.008 C 
ENDBRANCH   5   8
ENDBRANCH   4   5
ENDBRANCH   1   3
BRANCH   1  11
ATOM     11  C   UNL     1      73.213  40.060  20.168  1.00  0.00     0.002 C 
ATOM     12  C   UNL     1      73.179  41.586  20.119  1.00  0.00     0.005 C 
ATOM     13  C   UNL     1      73.091  39.732  21.688  1.00  0.00    -0.026 C 
ATOM     14  C   UNL     1      73.845  42.071  21.395  1.00  0.00     0.005 C 
ATOM     15  C   UNL     1      73.887  40.886  22.388  1.00  0.00    -0.001 C 
ATOM     16  C   UNL     1      73.687  38.339  22.021  1.00  0.00     0.007 C 
ATOM     17  C   UNL     1      71.611  39.798  22.173  1.00  0.00     0.012 C 
ATOM     18  C   UNL     1      75.362  40.528  22.797  1.00  0.00     0.000 C 
ATOM     19  C   UNL     1      74.245  38.298  23.438  1.00  0.00     0.005 C 
ATOM     20  C   UNL     1      75.532  39.143  23.552  1.00  0.00     0.003 C 
ATOM     21  C   UNL     1      75.992  41.706  23.575  1.00  0.00     0.031 C 
ATOM     22  C   UNL     1      76.147  39.216  25.029  1.00  0.00    -0.008 C 
ATOM     23  C   UNL     1      75.657  41.655  25.033  1.00  0.00    -0.027 C 
ATOM     24  C   UNL     1      75.737  40.513  25.733  1.00  0.00    -0.065 C 
ATOM     25  C   UNL     1      75.724  37.982  25.903  1.00  0.00     0.014 C 
ATOM     26  C   UNL     1      77.698  39.192  24.932  1.00  0.00     0.016 C 
ATOM     27  C   UNL     1      75.775  40.629  27.248  1.00  0.00     0.063 C 
ATOM     28  C   UNL     1      76.064  38.124  27.389  1.00  0.00     0.033 C 
ATOM     29  C   UNL     1      75.360  39.348  27.981  1.00  0.00     0.118 C 
BRANCH  29  30
ATOM     30  O   UNL     1      73.965  39.179  27.920  1.00  0.00    -0.393 OA
ATOM     31  H   UNL     1      73.567  40.086  27.855  1.00  0.00     0.210 HD
ENDBRANCH  29  30
ENDBRANCH   1  11
TORSDOF 6
ENDMDL
