MODEL 1
REMARK VINA RESULT:     4.760      0.000      0.000
REMARK INTER + INTRA:           5.834
REMARK INTER:                   5.594
REMARK INTRA:                   0.239
REMARK UNBOUND:                 0.239
REMARK SMILES O=c1c(O)c(-c2ccc(O)cc2)oc2cc(O)cc(O)c12
REMARK SMILES IDX 5 1 3 2 2 3 1 4 21 5 19 6 18 7 16 8 15 9 14 10 13 11 6 12
REMARK SMILES IDX 7 13 8 14 9 15 12 16 11 17 10 18 4 20 20 22 17 24
REMARK H PARENT 10 19 4 21 20 23 17 25
REMARK Flexibility Score: inf
ROOT
ATOM      1  C   UNL     1      14.244 -15.299   1.487  1.00  0.00     0.180 A 
ATOM      2  C   UNL     1      14.557 -13.942   1.306  1.00  0.00     0.208 A 
ATOM      3  C   UNL     1      14.300 -13.342   0.062  1.00  0.00     0.238 A 
ATOM      4  O   UNL     1      14.652 -12.148  -0.117  1.00  0.00    -0.285 OA
ATOM      5  C   UNL     1      13.680 -14.093  -0.968  1.00  0.00     0.111 A 
ATOM      6  C   UNL     1      13.331 -13.576  -2.252  1.00  0.00     0.134 A 
ATOM      7  C   UNL     1      12.818 -14.440  -3.228  1.00  0.00     0.093 A 
ATOM      8  C   UNL     1      12.581 -15.785  -2.947  1.00  0.00     0.123 A 
ATOM      9  C   UNL     1      12.867 -16.289  -1.677  1.00  0.00     0.094 A 
ATOM     10  C   UNL     1      13.416 -15.461  -0.695  1.00  0.00     0.146 A 
ATOM     11  O   UNL     1      13.692 -15.986   0.492  1.00  0.00    -0.452 OA
ENDROOT
BRANCH   1  12
ATOM     12  C   UNL     1      14.498 -16.004   2.763  1.00  0.00     0.021 A 
ATOM     13  C   UNL     1      14.912 -17.349   2.788  1.00  0.00     0.016 A 
ATOM     14  C   UNL     1      15.123 -18.000   4.008  1.00  0.00     0.047 A 
ATOM     15  C   UNL     1      14.910 -17.326   5.213  1.00  0.00     0.115 A 
ATOM     16  C   UNL     1      14.266 -15.339   3.979  1.00  0.00     0.016 A 
ATOM     17  C   UNL     1      14.478 -15.993   5.196  1.00  0.00     0.047 A 
BRANCH  15  18
ATOM     18  O   UNL     1      15.124 -17.987   6.420  1.00  0.00    -0.508 OA
ATOM     19  H   UNL     1      15.644 -18.855   6.464  1.00  0.00     0.293 HD
ENDBRANCH  15  18
ENDBRANCH   1  12
BRANCH   2  20
ATOM     20  O   UNL     1      15.097 -13.198   2.358  1.00  0.00    -0.502 OA
ATOM     21  H   UNL     1      15.591 -12.325   2.211  1.00  0.00     0.293 HD
ENDBRANCH   2  20
BRANCH   6  22
ATOM     22  O   UNL     1      13.443 -12.230  -2.611  1.00  0.00    -0.507 OA
ATOM     23  H   UNL     1      13.411 -11.455  -1.966  1.00  0.00     0.293 HD
ENDBRANCH   6  22
BRANCH   8  24
ATOM     24  O   UNL     1      12.054 -16.611  -3.937  1.00  0.00    -0.508 OA
ATOM     25  H   UNL     1      12.227 -16.435  -4.921  1.00  0.00     0.293 HD
ENDBRANCH   8  24
TORSDOF 5
ENDMDL
MODEL 2
REMARK VINA RESULT:     5.603      1.935      6.739
REMARK INTER + INTRA:           6.825
REMARK INTER:                   6.663
REMARK INTRA:                   0.161
REMARK UNBOUND:                 0.239
REMARK SMILES O=c1c(O)c(-c2ccc(O)cc2)oc2cc(O)cc(O)c12
REMARK SMILES IDX 5 1 3 2 2 3 1 4 21 5 19 6 18 7 16 8 15 9 14 10 13 11 6 12
REMARK SMILES IDX 7 13 8 14 9 15 12 16 11 17 10 18 4 20 20 22 17 24
REMARK H PARENT 10 19 4 21 20 23 17 25
REMARK Flexibility Score: inf
ROOT
ATOM      1  C   UNL     1      13.883 -14.049  -1.155  1.00  0.00     0.180 A 
ATOM      2  C   UNL     1      13.862 -13.282   0.022  1.00  0.00     0.208 A 
ATOM      3  C   UNL     1      14.110 -13.914   1.251  1.00  0.00     0.238 A 
ATOM      4  O   UNL     1      14.016 -13.237   2.307  1.00  0.00    -0.285 OA
ATOM      5  C   UNL     1      14.432 -15.293   1.284  1.00  0.00     0.111 A 
ATOM      6  C   UNL     1      14.745 -16.027   2.468  1.00  0.00     0.134 A 
ATOM      7  C   UNL     1      14.944 -17.411   2.390  1.00  0.00     0.093 A 
ATOM      8  C   UNL     1      14.904 -18.078   1.166  1.00  0.00     0.123 A 
ATOM      9  C   UNL     1      14.653 -17.362  -0.005  1.00  0.00     0.094 A 
ATOM     10  C   UNL     1      14.412 -15.986   0.044  1.00  0.00     0.146 A 
ATOM     11  O   UNL     1      14.156 -15.348  -1.091  1.00  0.00    -0.452 OA
ENDROOT
BRANCH   1  12
ATOM     12  C   UNL     1      13.618 -13.459  -2.487  1.00  0.00     0.021 A 
ATOM     13  C   UNL     1      12.625 -12.478  -2.669  1.00  0.00     0.016 A 
ATOM     14  C   UNL     1      12.376 -11.952  -3.941  1.00  0.00     0.047 A 
ATOM     15  C   UNL     1      13.102 -12.408  -5.045  1.00  0.00     0.115 A 
ATOM     16  C   UNL     1      14.328 -13.927  -3.605  1.00  0.00     0.016 A 
ATOM     17  C   UNL     1      14.077 -13.399  -4.875  1.00  0.00     0.047 A 
BRANCH  15  18
ATOM     18  O   UNL     1      12.844 -11.875  -6.306  1.00  0.00    -0.508 OA
ATOM     19  H   UNL     1      11.898 -11.714  -6.631  1.00  0.00     0.293 HD
ENDBRANCH  15  18
ENDBRANCH   1  12
BRANCH   2  20
ATOM     20  O   UNL     1      13.619 -11.907  -0.038  1.00  0.00    -0.502 OA
ATOM     21  H   UNL     1      12.884 -11.461   0.497  1.00  0.00     0.293 HD
ENDBRANCH   2  20
BRANCH   6  22
ATOM     22  O   UNL     1      14.899 -15.447   3.730  1.00  0.00    -0.507 OA
ATOM     23  H   UNL     1      15.642 -15.659   4.378  1.00  0.00     0.293 HD
ENDBRANCH   6  22
BRANCH   8  24
ATOM     24  O   UNL     1      15.123 -19.453   1.125  1.00  0.00    -0.508 OA
ATOM     25  H   UNL     1      15.116 -19.964   0.251  1.00  0.00     0.293 HD
ENDBRANCH   8  24
TORSDOF 5
ENDMDL
MODEL 3
REMARK VINA RESULT:     7.342      1.846      3.079
REMARK INTER + INTRA:           8.869
REMARK INTER:                   8.886
REMARK INTRA:                  -0.017
REMARK UNBOUND:                 0.239
REMARK SMILES O=c1c(O)c(-c2ccc(O)cc2)oc2cc(O)cc(O)c12
REMARK SMILES IDX 5 1 3 2 2 3 1 4 21 5 19 6 18 7 16 8 15 9 14 10 13 11 6 12
REMARK SMILES IDX 7 13 8 14 9 15 12 16 11 17 10 18 4 20 20 22 17 24
REMARK H PARENT 10 19 4 21 20 23 17 25
REMARK Flexibility Score: inf
ROOT
ATOM      1  C   UNL     1      13.952 -16.752   1.197  1.00  0.00     0.180 A 
ATOM      2  C   UNL     1      14.362 -17.838   0.405  1.00  0.00     0.208 A 
ATOM      3  C   UNL     1      14.013 -17.858  -0.956  1.00  0.00     0.238 A 
ATOM      4  O   UNL     1      14.319 -18.867  -1.642  1.00  0.00    -0.285 OA
ATOM      5  C   UNL     1      13.307 -16.767  -1.520  1.00  0.00     0.111 A 
ATOM      6  C   UNL     1      12.940 -16.661  -2.896  1.00  0.00     0.134 A 
ATOM      7  C   UNL     1      12.151 -15.585  -3.318  1.00  0.00     0.093 A 
ATOM      8  C   UNL     1      11.767 -14.579  -2.431  1.00  0.00     0.123 A 
ATOM      9  C   UNL     1      12.166 -14.644  -1.095  1.00  0.00     0.094 A 
ATOM     10  C   UNL     1      12.923 -15.726  -0.635  1.00  0.00     0.146 A 
ATOM     11  O   UNL     1      13.262 -15.759   0.648  1.00  0.00    -0.452 OA
ENDROOT
BRANCH   1  12
ATOM     12  C   UNL     1      14.268 -16.666   2.641  1.00  0.00     0.021 A 
ATOM     13  C   UNL     1      13.962 -17.718   3.523  1.00  0.00     0.016 A 
ATOM     14  C   UNL     1      14.249 -17.603   4.887  1.00  0.00     0.047 A 
ATOM     15  C   UNL     1      14.829 -16.435   5.389  1.00  0.00     0.115 A 
ATOM     16  C   UNL     1      14.832 -15.486   3.156  1.00  0.00     0.016 A 
ATOM     17  C   UNL     1      15.118 -15.375   4.519  1.00  0.00     0.047 A 
BRANCH  15  18
ATOM     18  O   UNL     1      15.110 -16.334   6.749  1.00  0.00    -0.508 OA
ATOM     19  H   UNL     1      14.834 -15.522   7.289  1.00  0.00     0.293 HD
ENDBRANCH  15  18
ENDBRANCH   1  12
BRANCH   2  20
ATOM     20  O   UNL     1      15.125 -18.867   0.962  1.00  0.00    -0.502 OA
ATOM     21  H   UNL     1      15.241 -18.978   1.962  1.00  0.00     0.293 HD
ENDBRANCH   2  20
BRANCH   6  22
ATOM     22  O   UNL     1      13.344 -17.562  -3.885  1.00  0.00    -0.507 OA
ATOM     23  H   UNL     1      13.887 -17.322  -4.700  1.00  0.00     0.293 HD
ENDBRANCH   6  22
BRANCH   8  24
ATOM     24  O   UNL     1      10.995 -13.515  -2.891  1.00  0.00    -0.508 OA
ATOM     25  H   UNL     1      11.416 -12.633  -3.161  1.00  0.00     0.293 HD
ENDBRANCH   8  24
TORSDOF 5
ENDMDL
MODEL 4
REMARK VINA RESULT:     7.660      2.000      6.469
REMARK INTER + INTRA:           9.243
REMARK INTER:                   8.670
REMARK INTRA:                   0.573
REMARK UNBOUND:                 0.239
REMARK SMILES O=c1c(O)c(-c2ccc(O)cc2)oc2cc(O)cc(O)c12
REMARK SMILES IDX 5 1 3 2 2 3 1 4 21 5 19 6 18 7 16 8 15 9 14 10 13 11 6 12
REMARK SMILES IDX 7 13 8 14 9 15 12 16 11 17 10 18 4 20 20 22 17 24
REMARK H PARENT 10 19 4 21 20 23 17 25
REMARK Flexibility Score: inf
ROOT
ATOM      1  C   UNL     1      13.549 -16.105  -1.755  1.00  0.00     0.180 A 
ATOM      2  C   UNL     1      13.331 -14.717  -1.797  1.00  0.00     0.208 A 
ATOM      3  C   UNL     1      13.522 -13.961  -0.629  1.00  0.00     0.238 A 
ATOM      4  O   UNL     1      13.253 -12.733  -0.655  1.00  0.00    -0.285 OA
ATOM      5  C   UNL     1      13.984 -14.592   0.552  1.00  0.00     0.111 A 
ATOM      6  C   UNL     1      14.255 -13.917   1.781  1.00  0.00     0.134 A 
ATOM      7  C   UNL     1      14.607 -14.661   2.914  1.00  0.00     0.093 A 
ATOM      8  C   UNL     1      14.758 -16.046   2.849  1.00  0.00     0.123 A 
ATOM      9  C   UNL     1      14.549 -16.710   1.639  1.00  0.00     0.094 A 
ATOM     10  C   UNL     1      14.160 -16.000   0.500  1.00  0.00     0.146 A 
ATOM     11  O   UNL     1      13.951 -16.674  -0.624  1.00  0.00    -0.452 OA
ENDROOT
BRANCH   1  12
ATOM     12  C   UNL     1      13.355 -16.970  -2.940  1.00  0.00     0.021 A 
ATOM     13  C   UNL     1      13.536 -18.364  -2.867  1.00  0.00     0.016 A 
ATOM     14  C   UNL     1      13.371 -19.158  -4.006  1.00  0.00     0.047 A 
ATOM     15  C   UNL     1      13.038 -18.572  -5.231  1.00  0.00     0.115 A 
ATOM     16  C   UNL     1      13.041 -16.387  -4.179  1.00  0.00     0.016 A 
ATOM     17  C   UNL     1      12.875 -17.183  -5.315  1.00  0.00     0.047 A 
BRANCH  15  18
ATOM     18  O   UNL     1      12.875 -19.375  -6.358  1.00  0.00    -0.508 OA
ATOM     19  H   UNL     1      13.658 -19.860  -6.781  1.00  0.00     0.293 HD
ENDBRANCH  15  18
ENDBRANCH   1  12
BRANCH   2  20
ATOM     20  O   UNL     1      12.950 -14.101  -2.992  1.00  0.00    -0.502 OA
ATOM     21  H   UNL     1      12.952 -13.095  -3.110  1.00  0.00     0.293 HD
ENDBRANCH   2  20
BRANCH   6  22
ATOM     22  O   UNL     1      14.221 -12.529   1.935  1.00  0.00    -0.507 OA
ATOM     23  H   UNL     1      13.430 -12.003   2.273  1.00  0.00     0.293 HD
ENDBRANCH   6  22
BRANCH   8  24
ATOM     24  O   UNL     1      15.125 -16.751   3.993  1.00  0.00    -0.508 OA
ATOM     25  H   UNL     1      16.077 -17.065   4.139  1.00  0.00     0.293 HD
ENDBRANCH   8  24
TORSDOF 5
ENDMDL
