MODEL 1
REMARK VINA RESULT:     4.932      0.000      0.000
REMARK INTER + INTRA:          11.321
REMARK INTER:                  12.429
REMARK INTRA:                  -1.109
REMARK UNBOUND:                -1.109
REMARK SMILES CCCCCCCCCCCCCCCCCCCCCCCCCCCC(=O)[O-]
REMARK SMILES IDX 15 1 16 2 17 3 18 4 19 5 20 6 21 7 22 8 23 9 24 10 25 11
REMARK SMILES IDX 26 12 27 13 28 14 29 15 30 16 14 17 13 18 12 19 11 20 10 21
REMARK SMILES IDX 9 22 8 23 7 24 6 25 5 26 4 27 3 28 2 29 1 30
REMARK H PARENT
REMARK Flexibility Score: inf
ROOT
ATOM      1  C   UNL     1      -2.620  51.295   0.004  1.00  0.00     0.000 C 
ENDROOT
BRANCH   1   2
ATOM      2  C   UNL     1      -3.919  52.125  -0.071  1.00  0.00     0.000 C 
BRANCH   2   3
ATOM      3  C   UNL     1      -4.769  52.078   1.215  1.00  0.00     0.000 C 
BRANCH   3   4
ATOM      4  C   UNL     1      -6.270  51.819   1.000  1.00  0.00     0.000 C 
BRANCH   4   5
ATOM      5  C   UNL     1      -6.681  51.884  -0.482  1.00  0.00     0.000 C 
BRANCH   5   6
ATOM      6  C   UNL     1      -7.868  50.962  -0.814  1.00  0.00     0.000 C 
BRANCH   6   7
ATOM      7  C   UNL     1      -8.201  50.841  -2.312  1.00  0.00     0.000 C 
BRANCH   7   8
ATOM      8  C   UNL     1      -8.570  49.409  -2.729  1.00  0.00     0.000 C 
BRANCH   8   9
ATOM      9  C   UNL     1      -8.256  48.413  -1.607  1.00  0.00     0.000 C 
BRANCH   9  10
ATOM     10  C   UNL     1      -6.983  47.611  -1.920  1.00  0.00     0.000 C 
BRANCH  10  11
ATOM     11  C   UNL     1      -7.155  46.105  -1.632  1.00  0.00     0.000 C 
BRANCH  11  12
ATOM     12  C   UNL     1      -6.048  45.231  -2.245  1.00  0.00     0.006 C 
BRANCH  12  13
ATOM     13  C   UNL     1      -6.506  43.792  -2.514  1.00  0.00     0.053 C 
BRANCH  13  14
ATOM     14  C   UNL     1      -5.582  42.817  -1.856  1.00  0.00     0.041 C 
ATOM     15  O   UNL     1      -5.858  41.589  -1.849  1.00  0.00    -0.550 OA
ATOM     16  O   UNL     1      -4.438  43.271  -1.211  1.00  0.00    -0.550 OA
ENDBRANCH  13  14
ENDBRANCH  12  13
ENDBRANCH  11  12
ENDBRANCH  10  11
ENDBRANCH   9  10
ENDBRANCH   8   9
ENDBRANCH   7   8
ENDBRANCH   6   7
ENDBRANCH   5   6
ENDBRANCH   4   5
ENDBRANCH   3   4
ENDBRANCH   2   3
ENDBRANCH   1   2
BRANCH   1  17
ATOM     17  C   UNL     1      -1.477  51.921  -0.815  1.00  0.00     0.000 C 
BRANCH  17  18
ATOM     18  C   UNL     1      -0.961  50.983  -1.920  1.00  0.00     0.000 C 
BRANCH  18  19
ATOM     19  C   UNL     1      -0.453  51.751  -3.153  1.00  0.00     0.000 C 
BRANCH  19  20
ATOM     20  C   UNL     1      -0.603  50.946  -4.453  1.00  0.00     0.000 C 
BRANCH  20  21
ATOM     21  C   UNL     1      -0.524  51.833  -5.708  1.00  0.00     0.000 C 
BRANCH  21  22
ATOM     22  C   UNL     1      -1.826  51.819  -6.525  1.00  0.00    -0.000 C 
BRANCH  22  23
ATOM     23  C   UNL     1      -1.573  51.684  -8.038  1.00  0.00    -0.000 C 
BRANCH  23  24
ATOM     24  C   UNL     1      -2.781  52.124  -8.882  1.00  0.00    -0.000 C 
BRANCH  24  25
ATOM     25  C   UNL     1      -3.879  51.049  -8.954  1.00  0.00    -0.000 C 
BRANCH  25  26
ATOM     26  C   UNL     1      -5.223  51.605  -9.460  1.00  0.00    -0.000 C 
BRANCH  26  27
ATOM     27  C   UNL     1      -6.473  50.898  -8.904  1.00  0.00    -0.000 C 
BRANCH  27  28
ATOM     28  C   UNL     1      -7.144  49.973  -9.929  1.00  0.00    -0.000 C 
BRANCH  28  29
ATOM     29  C   UNL     1      -8.643  49.833  -9.644  1.00  0.00    -0.003 C 
ATOM     30  C   UNL     1      -9.012  48.386  -9.330  1.00  0.00     0.004 C 
ENDBRANCH  28  29
ENDBRANCH  27  28
ENDBRANCH  26  27
ENDBRANCH  25  26
ENDBRANCH  24  25
ENDBRANCH  23  24
ENDBRANCH  22  23
ENDBRANCH  21  22
ENDBRANCH  20  21
ENDBRANCH  19  20
ENDBRANCH  18  19
ENDBRANCH  17  18
ENDBRANCH   1  17
TORSDOF 26
ENDMDL
MODEL 2
REMARK VINA RESULT:     7.750      1.560      2.206
REMARK INTER + INTRA:          18.422
REMARK INTER:                  20.122
REMARK INTRA:                  -1.700
REMARK UNBOUND:                -1.109
REMARK SMILES CCCCCCCCCCCCCCCCCCCCCCCCCCCC(=O)[O-]
REMARK SMILES IDX 15 1 16 2 17 3 18 4 19 5 20 6 21 7 22 8 23 9 24 10 25 11
REMARK SMILES IDX 26 12 27 13 28 14 29 15 30 16 14 17 13 18 12 19 11 20 10 21
REMARK SMILES IDX 9 22 8 23 7 24 6 25 5 26 4 27 3 28 2 29 1 30
REMARK H PARENT
REMARK Flexibility Score: inf
ROOT
ATOM      1  C   UNL     1      -2.353  51.014  -0.165  1.00  0.00     0.000 C 
ENDROOT
BRANCH   1   2
ATOM      2  C   UNL     1      -3.708  51.681  -0.485  1.00  0.00     0.000 C 
BRANCH   2   3
ATOM      3  C   UNL     1      -4.525  52.074   0.763  1.00  0.00     0.000 C 
BRANCH   3   4
ATOM      4  C   UNL     1      -5.813  51.262   0.986  1.00  0.00     0.000 C 
BRANCH   4   5
ATOM      5  C   UNL     1      -6.542  50.927  -0.327  1.00  0.00     0.000 C 
BRANCH   5   6
ATOM      6  C   UNL     1      -7.001  49.460  -0.398  1.00  0.00     0.000 C 
BRANCH   6   7
ATOM      7  C   UNL     1      -7.350  48.953  -1.809  1.00  0.00     0.000 C 
BRANCH   7   8
ATOM      8  C   UNL     1      -7.677  47.452  -1.842  1.00  0.00     0.000 C 
BRANCH   8   9
ATOM      9  C   UNL     1      -6.603  46.640  -1.108  1.00  0.00     0.000 C 
BRANCH   9  10
ATOM     10  C   UNL     1      -6.952  45.144  -1.097  1.00  0.00     0.000 C 
BRANCH  10  11
ATOM     11  C   UNL     1      -6.508  44.431  -2.391  1.00  0.00     0.000 C 
BRANCH  11  12
ATOM     12  C   UNL     1      -4.997  44.146  -2.450  1.00  0.00     0.006 C 
BRANCH  12  13
ATOM     13  C   UNL     1      -4.598  42.890  -1.666  1.00  0.00     0.053 C 
BRANCH  13  14
ATOM     14  C   UNL     1      -3.151  42.945  -1.291  1.00  0.00     0.041 C 
ATOM     15  O   UNL     1      -2.402  43.829  -1.784  1.00  0.00    -0.550 OA
ATOM     16  O   UNL     1      -2.618  41.991  -0.434  1.00  0.00    -0.550 OA
ENDBRANCH  13  14
ENDBRANCH  12  13
ENDBRANCH  11  12
ENDBRANCH  10  11
ENDBRANCH   9  10
ENDBRANCH   8   9
ENDBRANCH   7   8
ENDBRANCH   6   7
ENDBRANCH   5   6
ENDBRANCH   4   5
ENDBRANCH   3   4
ENDBRANCH   2   3
ENDBRANCH   1   2
BRANCH   1  17
ATOM     17  C   UNL     1      -1.171  51.742  -0.831  1.00  0.00     0.000 C 
BRANCH  17  18
ATOM     18  C   UNL     1      -0.629  50.987  -2.056  1.00  0.00     0.000 C 
BRANCH  18  19
ATOM     19  C   UNL     1      -0.554  51.876  -3.309  1.00  0.00     0.000 C 
BRANCH  19  20
ATOM     20  C   UNL     1      -0.546  51.062  -4.612  1.00  0.00     0.000 C 
BRANCH  20  21
ATOM     21  C   UNL     1      -0.410  51.950  -5.862  1.00  0.00     0.000 C 
BRANCH  21  22
ATOM     22  C   UNL     1      -1.741  52.124  -6.611  1.00  0.00    -0.000 C 
BRANCH  22  23
ATOM     23  C   UNL     1      -1.884  51.151  -7.795  1.00  0.00    -0.000 C 
BRANCH  23  24
ATOM     24  C   UNL     1      -3.288  51.185  -8.425  1.00  0.00    -0.000 C 
BRANCH  24  25
ATOM     25  C   UNL     1      -4.252  50.173  -7.782  1.00  0.00    -0.000 C 
BRANCH  25  26
ATOM     26  C   UNL     1      -5.707  50.357  -8.251  1.00  0.00    -0.000 C 
BRANCH  26  27
ATOM     27  C   UNL     1      -6.304  51.753  -7.994  1.00  0.00    -0.000 C 
BRANCH  27  28
ATOM     28  C   UNL     1      -7.484  51.727  -7.011  1.00  0.00    -0.000 C 
BRANCH  28  29
ATOM     29  C   UNL     1      -7.003  51.944  -5.572  1.00  0.00    -0.003 C 
ATOM     30  C   UNL     1      -8.005  51.385  -4.566  1.00  0.00     0.004 C 
ENDBRANCH  28  29
ENDBRANCH  27  28
ENDBRANCH  26  27
ENDBRANCH  25  26
ENDBRANCH  24  25
ENDBRANCH  23  24
ENDBRANCH  22  23
ENDBRANCH  21  22
ENDBRANCH  20  21
ENDBRANCH  19  20
ENDBRANCH  18  19
ENDBRANCH  17  18
ENDBRANCH   1  17
TORSDOF 26
ENDMDL
