MODEL 1
REMARK VINA RESULT:    -4.171      0.000      0.000
REMARK INTER + INTRA:          -7.362
REMARK INTER:                  -6.609
REMARK INTRA:                  -0.753
REMARK UNBOUND:                -0.753
REMARK SMILES CCCCCCCCCCCC(=O)[O-]
REMARK SMILES IDX 7 1 8 2 9 3 10 4 11 5 12 6 13 7 14 8 6 9 5 10 4 11 3 12 2 13
REMARK SMILES IDX 1 14
REMARK H PARENT
REMARK Flexibility Score: inf
ROOT
ATOM      1  C   UNL     1      34.410  26.203  70.835  1.00  0.00     0.000 C 
ENDROOT
BRANCH   1   2
ATOM      2  C   UNL     1      35.031  24.798  70.767  1.00  0.00     0.000 C 
BRANCH   2   3
ATOM      3  C   UNL     1      35.915  24.605  69.522  1.00  0.00     0.000 C 
BRANCH   3   4
ATOM      4  C   UNL     1      37.300  24.033  69.866  1.00  0.00     0.006 C 
BRANCH   4   5
ATOM      5  C   UNL     1      37.530  23.907  71.377  1.00  0.00     0.053 C 
BRANCH   5   6
ATOM      6  C   UNL     1      38.931  24.302  71.726  1.00  0.00     0.041 C 
ATOM      7  O   UNL     1      39.282  24.391  72.933  1.00  0.00    -0.550 OA
ATOM      8  O   UNL     1      39.835  24.620  70.722  1.00  0.00    -0.550 OA
ENDBRANCH   5   6
ENDBRANCH   4   5
ENDBRANCH   3   4
ENDBRANCH   2   3
ENDBRANCH   1   2
BRANCH   1   9
ATOM      9  C   UNL     1      32.878  26.169  70.972  1.00  0.00     0.000 C 
BRANCH   9  10
ATOM     10  C   UNL     1      32.276  24.812  70.571  1.00  0.00    -0.000 C 
BRANCH  10  11
ATOM     11  C   UNL     1      31.635  24.843  69.172  1.00  0.00    -0.000 C 
BRANCH  11  12
ATOM     12  C   UNL     1      32.480  24.109  68.119  1.00  0.00    -0.000 C 
BRANCH  12  13
ATOM     13  C   UNL     1      32.116  24.507  66.682  1.00  0.00    -0.003 C 
ATOM     14  C   UNL     1      30.633  24.276  66.406  1.00  0.00     0.004 C 
ENDBRANCH  12  13
ENDBRANCH  11  12
ENDBRANCH  10  11
ENDBRANCH   9  10
ENDBRANCH   1   9
TORSDOF 10
ENDMDL
MODEL 2
REMARK VINA RESULT:    -4.131      4.931      7.656
REMARK INTER + INTRA:          -7.299
REMARK INTER:                  -6.641
REMARK INTRA:                  -0.658
REMARK UNBOUND:                -0.753
REMARK SMILES CCCCCCCCCCCC(=O)[O-]
REMARK SMILES IDX 7 1 8 2 9 3 10 4 11 5 12 6 13 7 14 8 6 9 5 10 4 11 3 12 2 13
REMARK SMILES IDX 1 14
REMARK H PARENT
REMARK Flexibility Score: inf
ROOT
ATOM      1  C   UNL     1      32.469  24.243  67.691  1.00  0.00     0.000 C 
ENDROOT
BRANCH   1   2
ATOM      2  C   UNL     1      32.460  24.581  66.191  1.00  0.00     0.000 C 
BRANCH   2   3
ATOM      3  C   UNL     1      31.044  24.561  65.591  1.00  0.00     0.000 C 
BRANCH   3   4
ATOM      4  C   UNL     1      31.033  24.906  64.093  1.00  0.00     0.006 C 
BRANCH   4   5
ATOM      5  C   UNL     1      32.132  25.905  63.707  1.00  0.00     0.053 C 
BRANCH   5   6
ATOM      6  C   UNL     1      31.545  27.064  62.962  1.00  0.00     0.041 C 
ATOM      7  O   UNL     1      32.297  27.951  62.479  1.00  0.00    -0.550 OA
ATOM      8  O   UNL     1      30.167  27.190  62.846  1.00  0.00    -0.550 OA
ENDBRANCH   5   6
ENDBRANCH   4   5
ENDBRANCH   3   4
ENDBRANCH   2   3
ENDBRANCH   1   2
BRANCH   1   9
ATOM      9  C   UNL     1      31.085  24.404  68.344  1.00  0.00     0.000 C 
BRANCH   9  10
ATOM     10  C   UNL     1      31.171  24.774  69.834  1.00  0.00    -0.000 C 
BRANCH  10  11
ATOM     11  C   UNL     1      32.623  24.859  70.337  1.00  0.00    -0.000 C 
BRANCH  11  12
ATOM     12  C   UNL     1      32.964  26.237  70.925  1.00  0.00    -0.000 C 
BRANCH  12  13
ATOM     13  C   UNL     1      34.477  26.471  71.051  1.00  0.00    -0.003 C 
ATOM     14  C   UNL     1      35.259  25.213  70.687  1.00  0.00     0.004 C 
ENDBRANCH  12  13
ENDBRANCH  11  12
ENDBRANCH  10  11
ENDBRANCH   9  10
ENDBRANCH   1   9
TORSDOF 10
ENDMDL
MODEL 3
REMARK VINA RESULT:    -4.094      4.662      6.910
REMARK INTER + INTRA:          -7.240
REMARK INTER:                  -6.295
REMARK INTRA:                  -0.945
REMARK UNBOUND:                -0.753
REMARK SMILES CCCCCCCCCCCC(=O)[O-]
REMARK SMILES IDX 7 1 8 2 9 3 10 4 11 5 12 6 13 7 14 8 6 9 5 10 4 11 3 12 2 13
REMARK SMILES IDX 1 14
REMARK H PARENT
REMARK Flexibility Score: inf
ROOT
ATOM      1  C   UNL     1      31.424  24.600  68.347  1.00  0.00     0.000 C 
ENDROOT
BRANCH   1   2
ATOM      2  C   UNL     1      32.761  23.905  68.041  1.00  0.00     0.000 C 
BRANCH   2   3
ATOM      3  C   UNL     1      33.294  24.246  66.638  1.00  0.00     0.000 C 
BRANCH   3   4
ATOM      4  C   UNL     1      32.189  24.740  65.691  1.00  0.00     0.006 C 
BRANCH   4   5
ATOM      5  C   UNL     1      32.694  24.973  64.261  1.00  0.00     0.053 C 
BRANCH   5   6
ATOM      6  C   UNL     1      31.827  25.969  63.557  1.00  0.00     0.041 C 
ATOM      7  O   UNL     1      30.577  25.818  63.536  1.00  0.00    -0.550 OA
ATOM      8  O   UNL     1      32.403  27.037  62.881  1.00  0.00    -0.550 OA
ENDBRANCH   5   6
ENDBRANCH   4   5
ENDBRANCH   3   4
ENDBRANCH   2   3
ENDBRANCH   1   2
BRANCH   1   9
ATOM      9  C   UNL     1      31.264  24.951  69.836  1.00  0.00     0.000 C 
BRANCH   9  10
ATOM     10  C   UNL     1      32.548  24.703  70.645  1.00  0.00    -0.000 C 
BRANCH  10  11
ATOM     11  C   UNL     1      33.243  26.012  71.062  1.00  0.00    -0.000 C 
BRANCH  11  12
ATOM     12  C   UNL     1      34.633  26.170  70.426  1.00  0.00    -0.000 C 
BRANCH  12  13
ATOM     13  C   UNL     1      35.529  24.942  70.643  1.00  0.00    -0.003 C 
ATOM     14  C   UNL     1      36.190  24.506  69.339  1.00  0.00     0.004 C 
ENDBRANCH  12  13
ENDBRANCH  11  12
ENDBRANCH  10  11
ENDBRANCH   9  10
ENDBRANCH   1   9
TORSDOF 10
ENDMDL
MODEL 4
REMARK VINA RESULT:    -4.056      3.447      6.664
REMARK INTER + INTRA:          -7.180
REMARK INTER:                  -6.502
REMARK INTRA:                  -0.678
REMARK UNBOUND:                -0.753
REMARK SMILES CCCCCCCCCCCC(=O)[O-]
REMARK SMILES IDX 7 1 8 2 9 3 10 4 11 5 12 6 13 7 14 8 6 9 5 10 4 11 3 12 2 13
REMARK SMILES IDX 1 14
REMARK H PARENT
REMARK Flexibility Score: inf
ROOT
ATOM      1  C   UNL     1      33.704  25.879  71.350  1.00  0.00     0.000 C 
ENDROOT
BRANCH   1   2
ATOM      2  C   UNL     1      32.314  26.215  70.783  1.00  0.00     0.000 C 
BRANCH   2   3
ATOM      3  C   UNL     1      31.329  25.039  70.903  1.00  0.00     0.000 C 
BRANCH   3   4
ATOM      4  C   UNL     1      31.508  24.004  69.780  1.00  0.00     0.006 C 
BRANCH   4   5
ATOM      5  C   UNL     1      30.743  24.378  68.503  1.00  0.00     0.053 C 
BRANCH   5   6
ATOM      6  C   UNL     1      31.640  24.276  67.309  1.00  0.00     0.041 C 
ATOM      7  O   UNL     1      32.881  24.450  67.432  1.00  0.00    -0.550 OA
ATOM      8  O   UNL     1      31.100  24.039  66.052  1.00  0.00    -0.550 OA
ENDBRANCH   5   6
ENDBRANCH   4   5
ENDBRANCH   3   4
ENDBRANCH   2   3
ENDBRANCH   1   2
BRANCH   1   9
ATOM      9  C   UNL     1      34.782  25.776  70.258  1.00  0.00     0.000 C 
BRANCH   9  10
ATOM     10  C   UNL     1      35.212  24.326  69.983  1.00  0.00    -0.000 C 
BRANCH  10  11
ATOM     11  C   UNL     1      36.742  24.167  69.922  1.00  0.00    -0.000 C 
BRANCH  11  12
ATOM     12  C   UNL     1      37.362  23.902  71.303  1.00  0.00    -0.000 C 
BRANCH  12  13
ATOM     13  C   UNL     1      38.881  24.128  71.325  1.00  0.00    -0.003 C 
ATOM     14  C   UNL     1      39.352  24.564  72.709  1.00  0.00     0.004 C 
ENDBRANCH  12  13
ENDBRANCH  11  12
ENDBRANCH  10  11
ENDBRANCH   9  10
ENDBRANCH   1   9
TORSDOF 10
ENDMDL
MODEL 5
REMARK VINA RESULT:    -4.049      4.947      7.628
REMARK INTER + INTRA:          -7.170
REMARK INTER:                  -6.440
REMARK INTRA:                  -0.730
REMARK UNBOUND:                -0.753
REMARK SMILES CCCCCCCCCCCC(=O)[O-]
REMARK SMILES IDX 7 1 8 2 9 3 10 4 11 5 12 6 13 7 14 8 6 9 5 10 4 11 3 12 2 13
REMARK SMILES IDX 1 14
REMARK H PARENT
REMARK Flexibility Score: inf
ROOT
ATOM      1  C   UNL     1      32.926  24.136  67.969  1.00  0.00     0.000 C 
ENDROOT
BRANCH   1   2
ATOM      2  C   UNL     1      31.942  24.694  66.927  1.00  0.00     0.000 C 
BRANCH   2   3
ATOM      3  C   UNL     1      32.552  24.758  65.517  1.00  0.00     0.000 C 
BRANCH   3   4
ATOM      4  C   UNL     1      31.524  25.161  64.447  1.00  0.00     0.006 C 
BRANCH   4   5
ATOM      5  C   UNL     1      32.175  25.768  63.198  1.00  0.00     0.053 C 
BRANCH   5   6
ATOM      6  C   UNL     1      31.588  27.114  62.905  1.00  0.00     0.041 C 
ATOM      7  O   UNL     1      32.341  28.103  62.706  1.00  0.00    -0.550 OA
ATOM      8  O   UNL     1      30.210  27.285  62.901  1.00  0.00    -0.550 OA
ENDBRANCH   5   6
ENDBRANCH   4   5
ENDBRANCH   3   4
ENDBRANCH   2   3
ENDBRANCH   1   2
BRANCH   1   9
ATOM      9  C   UNL     1      34.372  24.076  67.448  1.00  0.00     0.000 C 
BRANCH   9  10
ATOM     10  C   UNL     1      35.409  24.407  68.534  1.00  0.00    -0.000 C 
BRANCH  10  11
ATOM     11  C   UNL     1      34.894  24.104  69.952  1.00  0.00    -0.000 C 
BRANCH  11  12
ATOM     12  C   UNL     1      35.219  25.227  70.950  1.00  0.00    -0.000 C 
BRANCH  12  13
ATOM     13  C   UNL     1      34.390  26.497  70.705  1.00  0.00    -0.003 C 
ATOM     14  C   UNL     1      32.927  26.277  71.076  1.00  0.00     0.004 C 
ENDBRANCH  12  13
ENDBRANCH  11  12
ENDBRANCH  10  11
ENDBRANCH   9  10
ENDBRANCH   1   9
TORSDOF 10
ENDMDL
MODEL 6
REMARK VINA RESULT:    -4.031      1.189      2.137
REMARK INTER + INTRA:          -7.140
REMARK INTER:                  -6.189
REMARK INTRA:                  -0.951
REMARK UNBOUND:                -0.753
REMARK SMILES CCCCCCCCCCCC(=O)[O-]
REMARK SMILES IDX 7 1 8 2 9 3 10 4 11 5 12 6 13 7 14 8 6 9 5 10 4 11 3 12 2 13
REMARK SMILES IDX 1 14
REMARK H PARENT
REMARK Flexibility Score: inf
ROOT
ATOM      1  C   UNL     1      32.080  26.514  71.004  1.00  0.00     0.000 C 
ENDROOT
BRANCH   1   2
ATOM      2  C   UNL     1      33.443  26.163  71.626  1.00  0.00     0.000 C 
BRANCH   2   3
ATOM      3  C   UNL     1      34.621  26.524  70.704  1.00  0.00     0.000 C 
BRANCH   3   4
ATOM      4  C   UNL     1      35.152  25.310  69.925  1.00  0.00     0.006 C 
BRANCH   4   5
ATOM      5  C   UNL     1      35.718  24.218  70.842  1.00  0.00     0.053 C 
BRANCH   5   6
ATOM      6  C   UNL     1      37.205  24.130  70.693  1.00  0.00     0.041 C 
ATOM      7  O   UNL     1      37.734  24.242  69.556  1.00  0.00    -0.550 OA
ATOM      8  O   UNL     1      38.001  23.875  71.801  1.00  0.00    -0.550 OA
ENDBRANCH   5   6
ENDBRANCH   4   5
ENDBRANCH   3   4
ENDBRANCH   2   3
ENDBRANCH   1   2
BRANCH   1   9
ATOM      9  C   UNL     1      31.125  25.309  70.951  1.00  0.00     0.000 C 
BRANCH   9  10
ATOM     10  C   UNL     1      31.822  24.018  70.491  1.00  0.00    -0.000 C 
BRANCH  10  11
ATOM     11  C   UNL     1      31.931  23.922  68.958  1.00  0.00    -0.000 C 
BRANCH  11  12
ATOM     12  C   UNL     1      30.601  24.224  68.252  1.00  0.00    -0.000 C 
BRANCH  12  13
ATOM     13  C   UNL     1      30.725  24.211  66.721  1.00  0.00    -0.003 C 
ATOM     14  C   UNL     1      32.137  24.581  66.281  1.00  0.00     0.004 C 
ENDBRANCH  12  13
ENDBRANCH  11  12
ENDBRANCH  10  11
ENDBRANCH   9  10
ENDBRANCH   1   9
TORSDOF 10
ENDMDL
MODEL 7
REMARK VINA RESULT:    -3.946      3.210      5.498
REMARK INTER + INTRA:          -7.006
REMARK INTER:                  -6.409
REMARK INTRA:                  -0.597
REMARK UNBOUND:                -0.753
REMARK SMILES CCCCCCCCCCCC(=O)[O-]
REMARK SMILES IDX 7 1 8 2 9 3 10 4 11 5 12 6 13 7 14 8 6 9 5 10 4 11 3 12 2 13
REMARK SMILES IDX 1 14
REMARK H PARENT
REMARK Flexibility Score: inf
ROOT
ATOM      1  C   UNL     1      30.877  24.508  66.149  1.00  0.00     0.000 C 
ENDROOT
BRANCH   1   2
ATOM      2  C   UNL     1      30.764  24.177  67.647  1.00  0.00     0.000 C 
BRANCH   2   3
ATOM      3  C   UNL     1      32.007  24.615  68.442  1.00  0.00     0.000 C 
BRANCH   3   4
ATOM      4  C   UNL     1      31.796  24.526  69.962  1.00  0.00     0.006 C 
BRANCH   4   5
ATOM      5  C   UNL     1      32.299  25.771  70.703  1.00  0.00     0.053 C 
BRANCH   5   6
ATOM      6  C   UNL     1      33.791  25.739  70.823  1.00  0.00     0.041 C 
ATOM      7  O   UNL     1      34.456  26.805  70.737  1.00  0.00    -0.550 OA
ATOM      8  O   UNL     1      34.450  24.527  70.980  1.00  0.00    -0.550 OA
ENDBRANCH   5   6
ENDBRANCH   4   5
ENDBRANCH   3   4
ENDBRANCH   2   3
ENDBRANCH   1   2
BRANCH   1   9
ATOM      9  C   UNL     1      32.329  24.749  65.701  1.00  0.00     0.000 C 
BRANCH   9  10
ATOM     10  C   UNL     1      32.447  25.026  64.194  1.00  0.00    -0.000 C 
BRANCH  10  11
ATOM     11  C   UNL     1      31.114  25.480  63.572  1.00  0.00    -0.000 C 
BRANCH  11  12
ATOM     12  C   UNL     1      31.164  26.929  63.062  1.00  0.00    -0.000 C 
BRANCH  12  13
ATOM     13  C   UNL     1      29.769  27.514  62.798  1.00  0.00    -0.003 C 
ATOM     14  C   UNL     1      28.675  26.539  63.221  1.00  0.00     0.004 C 
ENDBRANCH  12  13
ENDBRANCH  11  12
ENDBRANCH  10  11
ENDBRANCH   9  10
ENDBRANCH   1   9
TORSDOF 10
ENDMDL
MODEL 8
REMARK VINA RESULT:    -3.726     20.019     20.989
REMARK INTER + INTRA:          -6.657
REMARK INTER:                  -5.351
REMARK INTRA:                  -1.306
REMARK UNBOUND:                -0.753
REMARK SMILES CCCCCCCCCCCC(=O)[O-]
REMARK SMILES IDX 7 1 8 2 9 3 10 4 11 5 12 6 13 7 14 8 6 9 5 10 4 11 3 12 2 13
REMARK SMILES IDX 1 14
REMARK H PARENT
REMARK Flexibility Score: inf
ROOT
ATOM      1  C   UNL     1      37.967  40.214  61.999  1.00  0.00     0.000 C 
ENDROOT
BRANCH   1   2
ATOM      2  C   UNL     1      38.556  39.590  60.722  1.00  0.00     0.000 C 
BRANCH   2   3
ATOM      3  C   UNL     1      39.998  40.052  60.453  1.00  0.00     0.000 C 
BRANCH   3   4
ATOM      4  C   UNL     1      40.244  40.383  58.972  1.00  0.00     0.006 C 
BRANCH   4   5
ATOM      5  C   UNL     1      41.485  41.259  58.759  1.00  0.00     0.053 C 
BRANCH   5   6
ATOM      6  C   UNL     1      41.086  42.628  58.305  1.00  0.00     0.041 C 
ATOM      7  O   UNL     1      41.923  43.569  58.320  1.00  0.00    -0.550 OA
ATOM      8  O   UNL     1      39.777  42.878  57.915  1.00  0.00    -0.550 OA
ENDBRANCH   5   6
ENDBRANCH   4   5
ENDBRANCH   3   4
ENDBRANCH   2   3
ENDBRANCH   1   2
BRANCH   1   9
ATOM      9  C   UNL     1      38.508  41.628  62.273  1.00  0.00     0.000 C 
BRANCH   9  10
ATOM     10  C   UNL     1      38.013  42.662  61.249  1.00  0.00    -0.000 C 
BRANCH  10  11
ATOM     11  C   UNL     1      38.931  43.895  61.165  1.00  0.00    -0.000 C 
BRANCH  11  12
ATOM     12  C   UNL     1      39.893  43.995  62.359  1.00  0.00    -0.000 C 
BRANCH  12  13
ATOM     13  C   UNL     1      41.362  44.125  61.929  1.00  0.00    -0.003 C 
ATOM     14  C   UNL     1      42.068  42.774  61.971  1.00  0.00     0.004 C 
ENDBRANCH  12  13
ENDBRANCH  11  12
ENDBRANCH  10  11
ENDBRANCH   9  10
ENDBRANCH   1   9
TORSDOF 10
ENDMDL
