MODEL 1
REMARK VINA RESULT:    -3.829      0.000      0.000
REMARK INTER + INTRA:         -10.182
REMARK INTER:                  -8.305
REMARK INTRA:                  -1.876
REMARK UNBOUND:                -1.876
REMARK SMILES CCCCCCCCCCCCCCCCCCCCCC(=O)[O-]
REMARK SMILES IDX 12 1 11 2 10 3 9 4 8 5 7 6 6 7 5 8 4 9 3 10 2 11 1 12 13 13
REMARK SMILES IDX 14 14 15 15 16 16 17 17 18 18 19 19 20 20 21 21 22 22 23 23
REMARK SMILES IDX 24 24
REMARK H PARENT
REMARK Flexibility Score: inf
ROOT
ATOM      1  C   UNL     1     -45.066 -29.261  -2.011  1.00  0.00     0.000 C 
ENDROOT
BRANCH   1   2
ATOM      2  C   UNL     1     -44.611 -30.027  -0.756  1.00  0.00     0.000 C 
BRANCH   2   3
ATOM      3  C   UNL     1     -44.431 -29.114   0.468  1.00  0.00     0.000 C 
BRANCH   3   4
ATOM      4  C   UNL     1     -44.017 -27.701   0.041  1.00  0.00    -0.000 C 
BRANCH   4   5
ATOM      5  C   UNL     1     -44.844 -26.639   0.783  1.00  0.00    -0.000 C 
BRANCH   5   6
ATOM      6  C   UNL     1     -46.350 -26.949   0.779  1.00  0.00    -0.000 C 
BRANCH   6   7
ATOM      7  C   UNL     1     -47.012 -26.680   2.142  1.00  0.00    -0.000 C 
BRANCH   7   8
ATOM      8  C   UNL     1     -46.032 -26.815   3.321  1.00  0.00    -0.000 C 
BRANCH   8   9
ATOM      9  C   UNL     1     -46.669 -27.242   4.655  1.00  0.00    -0.000 C 
BRANCH   9  10
ATOM     10  C   UNL     1     -45.891 -28.364   5.360  1.00  0.00    -0.000 C 
BRANCH  10  11
ATOM     11  C   UNL     1     -45.323 -27.880   6.700  1.00  0.00    -0.003 C 
ATOM     12  C   UNL     1     -45.950 -26.553   7.118  1.00  0.00     0.004 C 
ENDBRANCH  10  11
ENDBRANCH   9  10
ENDBRANCH   8   9
ENDBRANCH   7   8
ENDBRANCH   6   7
ENDBRANCH   5   6
ENDBRANCH   4   5
ENDBRANCH   3   4
ENDBRANCH   2   3
ENDBRANCH   1   2
BRANCH   1  13
ATOM     13  C   UNL     1     -46.585 -29.278  -2.272  1.00  0.00     0.000 C 
BRANCH  13  14
ATOM     14  C   UNL     1     -47.031 -28.590  -3.575  1.00  0.00     0.000 C 
BRANCH  14  15
ATOM     15  C   UNL     1     -46.997 -29.530  -4.788  1.00  0.00     0.000 C 
BRANCH  15  16
ATOM     16  C   UNL     1     -45.792 -29.225  -5.687  1.00  0.00     0.000 C 
BRANCH  16  17
ATOM     17  C   UNL     1     -45.300 -27.786  -5.477  1.00  0.00     0.000 C 
BRANCH  17  18
ATOM     18  C   UNL     1     -44.994 -27.057  -6.798  1.00  0.00     0.000 C 
BRANCH  18  19
ATOM     19  C   UNL     1     -45.366 -27.838  -8.071  1.00  0.00     0.000 C 
BRANCH  19  20
ATOM     20  C   UNL     1     -44.224 -27.882  -9.102  1.00  0.00     0.006 C 
BRANCH  20  21
ATOM     21  C   UNL     1     -43.519 -29.244  -9.128  1.00  0.00     0.053 C 
BRANCH  21  22
ATOM     22  C   UNL     1     -42.129 -29.161  -8.576  1.00  0.00     0.041 C 
ATOM     23  O   UNL     1     -41.913 -28.551  -7.495  1.00  0.00    -0.550 OA
ATOM     24  O   UNL     1     -41.079 -29.786  -9.236  1.00  0.00    -0.550 OA
ENDBRANCH  21  22
ENDBRANCH  20  21
ENDBRANCH  19  20
ENDBRANCH  18  19
ENDBRANCH  17  18
ENDBRANCH  16  17
ENDBRANCH  15  16
ENDBRANCH  14  15
ENDBRANCH  13  14
ENDBRANCH   1  13
TORSDOF 20
ENDMDL
MODEL 2
REMARK VINA RESULT:    -3.588      4.776     11.231
REMARK INTER + INTRA:          -9.660
REMARK INTER:                  -8.029
REMARK INTRA:                  -1.631
REMARK UNBOUND:                -1.876
REMARK SMILES CCCCCCCCCCCCCCCCCCCCCC(=O)[O-]
REMARK SMILES IDX 12 1 11 2 10 3 9 4 8 5 7 6 6 7 5 8 4 9 3 10 2 11 1 12 13 13
REMARK SMILES IDX 14 14 15 15 16 16 17 17 18 18 19 19 20 20 21 21 22 22 23 23
REMARK SMILES IDX 24 24
REMARK H PARENT
REMARK Flexibility Score: inf
ROOT
ATOM      1  C   UNL     1     -44.011 -28.552  -0.037  1.00  0.00     0.000 C 
ENDROOT
BRANCH   1   2
ATOM      2  C   UNL     1     -44.458 -29.040  -1.427  1.00  0.00     0.000 C 
BRANCH   2   3
ATOM      3  C   UNL     1     -45.914 -29.533  -1.446  1.00  0.00     0.000 C 
BRANCH   3   4
ATOM      4  C   UNL     1     -46.700 -28.875  -2.586  1.00  0.00    -0.000 C 
BRANCH   4   5
ATOM      5  C   UNL     1     -45.950 -29.011  -3.921  1.00  0.00    -0.000 C 
BRANCH   5   6
ATOM      6  C   UNL     1     -45.755 -27.662  -4.632  1.00  0.00    -0.000 C 
BRANCH   6   7
ATOM      7  C   UNL     1     -46.788 -27.428  -5.749  1.00  0.00    -0.000 C 
BRANCH   7   8
ATOM      8  C   UNL     1     -46.897 -28.617  -6.721  1.00  0.00    -0.000 C 
BRANCH   8   9
ATOM      9  C   UNL     1     -46.863 -28.246  -8.215  1.00  0.00    -0.000 C 
BRANCH   9  10
ATOM     10  C   UNL     1     -45.554 -27.563  -8.635  1.00  0.00    -0.000 C 
BRANCH  10  11
ATOM     11  C   UNL     1     -44.379 -28.548  -8.581  1.00  0.00    -0.003 C 
ATOM     12  C   UNL     1     -43.352 -28.125  -7.535  1.00  0.00     0.004 C 
ENDBRANCH  10  11
ENDBRANCH   9  10
ENDBRANCH   8   9
ENDBRANCH   7   8
ENDBRANCH   6   7
ENDBRANCH   5   6
ENDBRANCH   4   5
ENDBRANCH   3   4
ENDBRANCH   2   3
ENDBRANCH   1   2
BRANCH   1  13
ATOM     13  C   UNL     1     -44.477 -27.131   0.339  1.00  0.00     0.000 C 
BRANCH  13  14
ATOM     14  C   UNL     1     -45.960 -27.013   0.731  1.00  0.00     0.000 C 
BRANCH  14  15
ATOM     15  C   UNL     1     -46.208 -25.961   1.822  1.00  0.00     0.000 C 
BRANCH  15  16
ATOM     16  C   UNL     1     -46.287 -26.614   3.208  1.00  0.00     0.000 C 
BRANCH  16  17
ATOM     17  C   UNL     1     -46.601 -28.112   3.092  1.00  0.00     0.000 C 
BRANCH  17  18
ATOM     18  C   UNL     1     -46.869 -28.777   4.455  1.00  0.00     0.000 C 
BRANCH  18  19
ATOM     19  C   UNL     1     -45.619 -29.000   5.326  1.00  0.00     0.000 C 
BRANCH  19  20
ATOM     20  C   UNL     1     -45.764 -28.415   6.742  1.00  0.00     0.006 C 
BRANCH  20  21
ATOM     21  C   UNL     1     -45.254 -26.971   6.827  1.00  0.00     0.053 C 
BRANCH  21  22
ATOM     22  C   UNL     1     -46.352 -26.013   7.175  1.00  0.00     0.041 C 
ATOM     23  O   UNL     1     -47.123 -25.579   6.277  1.00  0.00    -0.550 OA
ATOM     24  O   UNL     1     -46.549 -25.629   8.496  1.00  0.00    -0.550 OA
ENDBRANCH  21  22
ENDBRANCH  20  21
ENDBRANCH  19  20
ENDBRANCH  18  19
ENDBRANCH  17  18
ENDBRANCH  16  17
ENDBRANCH  15  16
ENDBRANCH  14  15
ENDBRANCH  13  14
ENDBRANCH   1  13
TORSDOF 20
ENDMDL
MODEL 3
REMARK VINA RESULT:    -3.558      1.288      2.450
REMARK INTER + INTRA:          -9.595
REMARK INTER:                  -7.220
REMARK INTRA:                  -2.375
REMARK UNBOUND:                -1.876
REMARK SMILES CCCCCCCCCCCCCCCCCCCCCC(=O)[O-]
REMARK SMILES IDX 12 1 11 2 10 3 9 4 8 5 7 6 6 7 5 8 4 9 3 10 2 11 1 12 13 13
REMARK SMILES IDX 14 14 15 15 16 16 17 17 18 18 19 19 20 20 21 21 22 22 23 23
REMARK SMILES IDX 24 24
REMARK H PARENT
REMARK Flexibility Score: inf
ROOT
ATOM      1  C   UNL     1     -43.589 -30.073  -0.651  1.00  0.00     0.000 C 
ENDROOT
BRANCH   1   2
ATOM      2  C   UNL     1     -42.209 -29.510  -0.266  1.00  0.00     0.000 C 
BRANCH   2   3
ATOM      3  C   UNL     1     -42.187 -27.974  -0.205  1.00  0.00     0.000 C 
BRANCH   3   4
ATOM      4  C   UNL     1     -43.147 -27.371  -1.237  1.00  0.00    -0.000 C 
BRANCH   4   5
ATOM      5  C   UNL     1     -44.223 -26.515  -0.551  1.00  0.00    -0.000 C 
BRANCH   5   6
ATOM      6  C   UNL     1     -44.193 -26.639   0.981  1.00  0.00    -0.000 C 
BRANCH   6   7
ATOM      7  C   UNL     1     -45.413 -25.982   1.651  1.00  0.00    -0.000 C 
BRANCH   7   8
ATOM      8  C   UNL     1     -46.325 -26.999   2.361  1.00  0.00    -0.000 C 
BRANCH   8   9
ATOM      9  C   UNL     1     -46.364 -26.882   3.896  1.00  0.00    -0.000 C 
BRANCH   9  10
ATOM     10  C   UNL     1     -46.100 -28.218   4.606  1.00  0.00    -0.000 C 
BRANCH  10  11
ATOM     11  C   UNL     1     -45.526 -27.989   6.010  1.00  0.00    -0.003 C 
ATOM     12  C   UNL     1     -45.766 -26.556   6.477  1.00  0.00     0.004 C 
ENDBRANCH  10  11
ENDBRANCH   9  10
ENDBRANCH   8   9
ENDBRANCH   7   8
ENDBRANCH   6   7
ENDBRANCH   5   6
ENDBRANCH   4   5
ENDBRANCH   3   4
ENDBRANCH   2   3
ENDBRANCH   1   2
BRANCH   1  13
ATOM     13  C   UNL     1     -44.619 -30.123   0.496  1.00  0.00     0.000 C 
BRANCH  13  14
ATOM     14  C   UNL     1     -46.036 -29.656   0.121  1.00  0.00     0.000 C 
BRANCH  14  15
ATOM     15  C   UNL     1     -46.342 -29.817  -1.375  1.00  0.00     0.000 C 
BRANCH  15  16
ATOM     16  C   UNL     1     -46.835 -28.497  -1.981  1.00  0.00     0.000 C 
BRANCH  16  17
ATOM     17  C   UNL     1     -46.730 -28.522  -3.513  1.00  0.00     0.000 C 
BRANCH  17  18
ATOM     18  C   UNL     1     -45.412 -27.920  -4.035  1.00  0.00     0.000 C 
BRANCH  18  19
ATOM     19  C   UNL     1     -45.333 -27.760  -5.564  1.00  0.00     0.000 C 
BRANCH  19  20
ATOM     20  C   UNL     1     -44.867 -29.042  -6.276  1.00  0.00     0.006 C 
BRANCH  20  21
ATOM     21  C   UNL     1     -44.932 -28.912  -7.803  1.00  0.00     0.053 C 
BRANCH  21  22
ATOM     22  C   UNL     1     -43.744 -28.181  -8.349  1.00  0.00     0.041 C 
ATOM     23  O   UNL     1     -43.820 -27.585  -9.456  1.00  0.00    -0.550 OA
ATOM     24  O   UNL     1     -42.563 -28.129  -7.619  1.00  0.00    -0.550 OA
ENDBRANCH  21  22
ENDBRANCH  20  21
ENDBRANCH  19  20
ENDBRANCH  18  19
ENDBRANCH  17  18
ENDBRANCH  16  17
ENDBRANCH  15  16
ENDBRANCH  14  15
ENDBRANCH  13  14
ENDBRANCH   1  13
TORSDOF 20
ENDMDL
MODEL 4
REMARK VINA RESULT:    -3.375      4.735     11.291
REMARK INTER + INTRA:          -9.197
REMARK INTER:                  -7.588
REMARK INTRA:                  -1.609
REMARK UNBOUND:                -1.876
REMARK SMILES CCCCCCCCCCCCCCCCCCCCCC(=O)[O-]
REMARK SMILES IDX 12 1 11 2 10 3 9 4 8 5 7 6 6 7 5 8 4 9 3 10 2 11 1 12 13 13
REMARK SMILES IDX 14 14 15 15 16 16 17 17 18 18 19 19 20 20 21 21 22 22 23 23
REMARK SMILES IDX 24 24
REMARK H PARENT
REMARK Flexibility Score: inf
ROOT
ATOM      1  C   UNL     1     -47.065 -29.611  -0.902  1.00  0.00     0.000 C 
ENDROOT
BRANCH   1   2
ATOM      2  C   UNL     1     -46.903 -28.679  -2.116  1.00  0.00     0.000 C 
BRANCH   2   3
ATOM      3  C   UNL     1     -46.360 -29.405  -3.357  1.00  0.00     0.000 C 
BRANCH   3   4
ATOM      4  C   UNL     1     -45.590 -28.439  -4.264  1.00  0.00    -0.000 C 
BRANCH   4   5
ATOM      5  C   UNL     1     -46.153 -28.460  -5.694  1.00  0.00    -0.000 C 
BRANCH   5   6
ATOM      6  C   UNL     1     -45.587 -27.333  -6.572  1.00  0.00    -0.000 C 
BRANCH   6   7
ATOM      7  C   UNL     1     -45.889 -27.540  -8.067  1.00  0.00    -0.000 C 
BRANCH   7   8
ATOM      8  C   UNL     1     -46.107 -29.019  -8.434  1.00  0.00    -0.000 C 
BRANCH   8   9
ATOM      9  C   UNL     1     -44.850 -29.764  -8.918  1.00  0.00    -0.000 C 
BRANCH   9  10
ATOM     10  C   UNL     1     -43.717 -28.819  -9.344  1.00  0.00    -0.000 C 
BRANCH  10  11
ATOM     11  C   UNL     1     -42.438 -29.101  -8.547  1.00  0.00    -0.003 C 
ATOM     12  C   UNL     1     -41.378 -29.766  -9.420  1.00  0.00     0.004 C 
ENDBRANCH  10  11
ENDBRANCH   9  10
ENDBRANCH   8   9
ENDBRANCH   7   8
ENDBRANCH   6   7
ENDBRANCH   5   6
ENDBRANCH   4   5
ENDBRANCH   3   4
ENDBRANCH   2   3
ENDBRANCH   1   2
BRANCH   1  13
ATOM     13  C   UNL     1     -46.070 -29.364   0.250  1.00  0.00     0.000 C 
BRANCH  13  14
ATOM     14  C   UNL     1     -44.671 -28.895  -0.186  1.00  0.00     0.000 C 
BRANCH  14  15
ATOM     15  C   UNL     1     -44.323 -27.492   0.334  1.00  0.00     0.000 C 
BRANCH  15  16
ATOM     16  C   UNL     1     -45.591 -26.670   0.592  1.00  0.00     0.000 C 
BRANCH  16  17
ATOM     17  C   UNL     1     -45.568 -26.049   1.996  1.00  0.00     0.000 C 
BRANCH  17  18
ATOM     18  C   UNL     1     -46.691 -26.580   2.907  1.00  0.00     0.000 C 
BRANCH  18  19
ATOM     19  C   UNL     1     -46.320 -27.823   3.735  1.00  0.00     0.000 C 
BRANCH  19  20
ATOM     20  C   UNL     1     -46.846 -27.759   5.180  1.00  0.00     0.006 C 
BRANCH  20  21
ATOM     21  C   UNL     1     -46.920 -26.320   5.706  1.00  0.00     0.053 C 
BRANCH  21  22
ATOM     22  C   UNL     1     -46.113 -26.143   6.955  1.00  0.00     0.041 C 
ATOM     23  O   UNL     1     -44.983 -26.689   7.061  1.00  0.00    -0.550 OA
ATOM     24  O   UNL     1     -46.592 -25.346   7.987  1.00  0.00    -0.550 OA
ENDBRANCH  21  22
ENDBRANCH  20  21
ENDBRANCH  19  20
ENDBRANCH  18  19
ENDBRANCH  17  18
ENDBRANCH  16  17
ENDBRANCH  15  16
ENDBRANCH  14  15
ENDBRANCH  13  14
ENDBRANCH   1  13
TORSDOF 20
ENDMDL
MODEL 5
REMARK VINA RESULT:    -3.283      1.452      3.102
REMARK INTER + INTRA:          -8.997
REMARK INTER:                  -7.048
REMARK INTRA:                  -1.949
REMARK UNBOUND:                -1.876
REMARK SMILES CCCCCCCCCCCCCCCCCCCCCC(=O)[O-]
REMARK SMILES IDX 12 1 11 2 10 3 9 4 8 5 7 6 6 7 5 8 4 9 3 10 2 11 1 12 13 13
REMARK SMILES IDX 14 14 15 15 16 16 17 17 18 18 19 19 20 20 21 21 22 22 23 23
REMARK SMILES IDX 24 24
REMARK H PARENT
REMARK Flexibility Score: inf
ROOT
ATOM      1  C   UNL     1     -44.380 -26.821  -0.248  1.00  0.00     0.000 C 
ENDROOT
BRANCH   1   2
ATOM      2  C   UNL     1     -44.786 -26.561   1.214  1.00  0.00     0.000 C 
BRANCH   2   3
ATOM      3  C   UNL     1     -46.308 -26.591   1.426  1.00  0.00     0.000 C 
BRANCH   3   4
ATOM      4  C   UNL     1     -46.780 -28.000   1.801  1.00  0.00    -0.000 C 
BRANCH   4   5
ATOM      5  C   UNL     1     -46.643 -28.241   3.313  1.00  0.00    -0.000 C 
BRANCH   5   6
ATOM      6  C   UNL     1     -47.095 -27.033   4.150  1.00  0.00    -0.000 C 
BRANCH   6   7
ATOM      7  C   UNL     1     -45.975 -26.490   5.055  1.00  0.00    -0.000 C 
BRANCH   7   8
ATOM      8  C   UNL     1     -46.458 -26.181   6.484  1.00  0.00    -0.000 C 
BRANCH   8   9
ATOM      9  C   UNL     1     -46.072 -27.227   7.545  1.00  0.00    -0.000 C 
BRANCH   9  10
ATOM     10  C   UNL     1     -47.007 -28.445   7.556  1.00  0.00    -0.000 C 
BRANCH  10  11
ATOM     11  C   UNL     1     -46.205 -29.752   7.543  1.00  0.00    -0.003 C 
ATOM     12  C   UNL     1     -44.927 -29.608   6.721  1.00  0.00     0.004 C 
ENDBRANCH  10  11
ENDBRANCH   9  10
ENDBRANCH   8   9
ENDBRANCH   7   8
ENDBRANCH   6   7
ENDBRANCH   5   6
ENDBRANCH   4   5
ENDBRANCH   3   4
ENDBRANCH   2   3
ENDBRANCH   1   2
BRANCH   1  13
ATOM     13  C   UNL     1     -43.432 -28.019  -0.460  1.00  0.00     0.000 C 
BRANCH  13  14
ATOM     14  C   UNL     1     -44.127 -29.385  -0.592  1.00  0.00     0.000 C 
BRANCH  14  15
ATOM     15  C   UNL     1     -45.496 -29.296  -1.282  1.00  0.00     0.000 C 
BRANCH  15  16
ATOM     16  C   UNL     1     -45.344 -29.307  -2.808  1.00  0.00     0.000 C 
BRANCH  16  17
ATOM     17  C   UNL     1     -45.642 -27.921  -3.401  1.00  0.00     0.000 C 
BRANCH  17  18
ATOM     18  C   UNL     1     -45.575 -27.898  -4.939  1.00  0.00     0.000 C 
BRANCH  18  19
ATOM     19  C   UNL     1     -45.824 -29.257  -5.619  1.00  0.00     0.000 C 
BRANCH  19  20
ATOM     20  C   UNL     1     -44.697 -29.656  -6.589  1.00  0.00     0.006 C 
BRANCH  20  21
ATOM     21  C   UNL     1     -45.007 -29.250  -8.035  1.00  0.00     0.053 C 
BRANCH  21  22
ATOM     22  C   UNL     1     -44.164 -28.094  -8.480  1.00  0.00     0.041 C 
ATOM     23  O   UNL     1     -43.400 -27.515  -7.662  1.00  0.00    -0.550 OA
ATOM     24  O   UNL     1     -44.194 -27.679  -9.806  1.00  0.00    -0.550 OA
ENDBRANCH  21  22
ENDBRANCH  20  21
ENDBRANCH  19  20
ENDBRANCH  18  19
ENDBRANCH  17  18
ENDBRANCH  16  17
ENDBRANCH  15  16
ENDBRANCH  14  15
ENDBRANCH  13  14
ENDBRANCH   1  13
TORSDOF 20
ENDMDL
MODEL 6
REMARK VINA RESULT:    -3.202      1.087      2.532
REMARK INTER + INTRA:          -8.823
REMARK INTER:                  -7.412
REMARK INTRA:                  -1.411
REMARK UNBOUND:                -1.876
REMARK SMILES CCCCCCCCCCCCCCCCCCCCCC(=O)[O-]
REMARK SMILES IDX 12 1 11 2 10 3 9 4 8 5 7 6 6 7 5 8 4 9 3 10 2 11 1 12 13 13
REMARK SMILES IDX 14 14 15 15 16 16 17 17 18 18 19 19 20 20 21 21 22 22 23 23
REMARK SMILES IDX 24 24
REMARK H PARENT
REMARK Flexibility Score: inf
ROOT
ATOM      1  C   UNL     1     -47.075 -28.933  -2.093  1.00  0.00     0.000 C 
ENDROOT
BRANCH   1   2
ATOM      2  C   UNL     1     -46.197 -30.100  -1.609  1.00  0.00     0.000 C 
BRANCH   2   3
ATOM      3  C   UNL     1     -44.694 -29.783  -1.674  1.00  0.00     0.000 C 
BRANCH   3   4
ATOM      4  C   UNL     1     -44.039 -29.951  -0.298  1.00  0.00    -0.000 C 
BRANCH   4   5
ATOM      5  C   UNL     1     -42.590 -29.440  -0.314  1.00  0.00    -0.000 C 
BRANCH   5   6
ATOM      6  C   UNL     1     -42.495 -27.917  -0.128  1.00  0.00    -0.000 C 
BRANCH   6   7
ATOM      7  C   UNL     1     -43.816 -27.198  -0.457  1.00  0.00    -0.000 C 
BRANCH   7   8
ATOM      8  C   UNL     1     -44.628 -26.837   0.799  1.00  0.00    -0.000 C 
BRANCH   8   9
ATOM      9  C   UNL     1     -46.156 -26.959   0.648  1.00  0.00    -0.000 C 
BRANCH   9  10
ATOM     10  C   UNL     1     -46.915 -26.641   1.945  1.00  0.00    -0.000 C 
BRANCH  10  11
ATOM     11  C   UNL     1     -45.962 -26.618   3.147  1.00  0.00    -0.003 C 
ATOM     12  C   UNL     1     -46.500 -27.469   4.293  1.00  0.00     0.004 C 
ENDBRANCH  10  11
ENDBRANCH   9  10
ENDBRANCH   8   9
ENDBRANCH   7   8
ENDBRANCH   6   7
ENDBRANCH   5   6
ENDBRANCH   4   5
ENDBRANCH   3   4
ENDBRANCH   2   3
ENDBRANCH   1   2
BRANCH   1  13
ATOM     13  C   UNL     1     -46.829 -28.489  -3.550  1.00  0.00     0.000 C 
BRANCH  13  14
ATOM     14  C   UNL     1     -46.674 -29.637  -4.563  1.00  0.00     0.000 C 
BRANCH  14  15
ATOM     15  C   UNL     1     -45.740 -29.281  -5.730  1.00  0.00     0.000 C 
BRANCH  15  16
ATOM     16  C   UNL     1     -45.177 -27.863  -5.570  1.00  0.00     0.000 C 
BRANCH  16  17
ATOM     17  C   UNL     1     -44.861 -27.240  -6.938  1.00  0.00     0.000 C 
BRANCH  17  18
ATOM     18  C   UNL     1     -45.454 -28.039  -8.113  1.00  0.00     0.000 C 
BRANCH  18  19
ATOM     19  C   UNL     1     -44.836 -27.725  -9.488  1.00  0.00     0.000 C 
BRANCH  19  20
ATOM     20  C   UNL     1     -44.065 -28.916 -10.084  1.00  0.00     0.006 C 
BRANCH  20  21
ATOM     21  C   UNL     1     -43.835 -30.030  -9.055  1.00  0.00     0.053 C 
BRANCH  21  22
ATOM     22  C   UNL     1     -42.565 -29.823  -8.287  1.00  0.00     0.041 C 
ATOM     23  O   UNL     1     -42.507 -30.125  -7.065  1.00  0.00    -0.550 OA
ATOM     24  O   UNL     1     -41.436 -29.331  -8.929  1.00  0.00    -0.550 OA
ENDBRANCH  21  22
ENDBRANCH  20  21
ENDBRANCH  19  20
ENDBRANCH  18  19
ENDBRANCH  17  18
ENDBRANCH  16  17
ENDBRANCH  15  16
ENDBRANCH  14  15
ENDBRANCH  13  14
ENDBRANCH   1  13
TORSDOF 20
ENDMDL
MODEL 7
REMARK VINA RESULT:    -2.979      1.303      2.367
REMARK INTER + INTRA:          -8.339
REMARK INTER:                  -7.395
REMARK INTRA:                  -0.944
REMARK UNBOUND:                -1.876
REMARK SMILES CCCCCCCCCCCCCCCCCCCCCC(=O)[O-]
REMARK SMILES IDX 12 1 11 2 10 3 9 4 8 5 7 6 6 7 5 8 4 9 3 10 2 11 1 12 13 13
REMARK SMILES IDX 14 14 15 15 16 16 17 17 18 18 19 19 20 20 21 21 22 22 23 23
REMARK SMILES IDX 24 24
REMARK H PARENT
REMARK Flexibility Score: inf
ROOT
ATOM      1  C   UNL     1     -43.216 -27.831  -0.206  1.00  0.00     0.000 C 
ENDROOT
BRANCH   1   2
ATOM      2  C   UNL     1     -43.084 -29.362  -0.122  1.00  0.00     0.000 C 
BRANCH   2   3
ATOM      3  C   UNL     1     -44.431 -30.065   0.113  1.00  0.00     0.000 C 
BRANCH   3   4
ATOM      4  C   UNL     1     -44.873 -29.928   1.574  1.00  0.00    -0.000 C 
BRANCH   4   5
ATOM      5  C   UNL     1     -46.016 -28.910   1.710  1.00  0.00    -0.000 C 
BRANCH   5   6
ATOM      6  C   UNL     1     -46.692 -28.957   3.090  1.00  0.00    -0.000 C 
BRANCH   6   7
ATOM      7  C   UNL     1     -45.753 -29.482   4.190  1.00  0.00    -0.000 C 
BRANCH   7   8
ATOM      8  C   UNL     1     -45.768 -28.609   5.457  1.00  0.00    -0.000 C 
BRANCH   8   9
ATOM      9  C   UNL     1     -45.986 -27.105   5.213  1.00  0.00    -0.000 C 
BRANCH   9  10
ATOM     10  C   UNL     1     -46.013 -26.283   6.510  1.00  0.00    -0.000 C 
BRANCH  10  11
ATOM     11  C   UNL     1     -46.837 -26.991   7.591  1.00  0.00    -0.003 C 
ATOM     12  C   UNL     1     -47.095 -26.071   8.781  1.00  0.00     0.004 C 
ENDBRANCH  10  11
ENDBRANCH   9  10
ENDBRANCH   8   9
ENDBRANCH   7   8
ENDBRANCH   6   7
ENDBRANCH   5   6
ENDBRANCH   4   5
ENDBRANCH   3   4
ENDBRANCH   2   3
ENDBRANCH   1   2
BRANCH   1  13
ATOM     13  C   UNL     1     -44.306 -27.320  -1.170  1.00  0.00     0.000 C 
BRANCH  13  14
ATOM     14  C   UNL     1     -44.875 -28.379  -2.131  1.00  0.00     0.000 C 
BRANCH  14  15
ATOM     15  C   UNL     1     -46.385 -28.221  -2.367  1.00  0.00     0.000 C 
BRANCH  15  16
ATOM     16  C   UNL     1     -46.931 -29.373  -3.220  1.00  0.00     0.000 C 
BRANCH  16  17
ATOM     17  C   UNL     1     -46.098 -29.554  -4.498  1.00  0.00     0.000 C 
BRANCH  17  18
ATOM     18  C   UNL     1     -46.404 -28.492  -5.570  1.00  0.00     0.000 C 
BRANCH  18  19
ATOM     19  C   UNL     1     -45.204 -27.617  -5.977  1.00  0.00     0.000 C 
BRANCH  19  20
ATOM     20  C   UNL     1     -44.827 -27.771  -7.461  1.00  0.00     0.006 C 
BRANCH  20  21
ATOM     21  C   UNL     1     -43.311 -27.696  -7.684  1.00  0.00     0.053 C 
BRANCH  21  22
ATOM     22  C   UNL     1     -42.701 -29.059  -7.808  1.00  0.00     0.041 C 
ATOM     23  O   UNL     1     -43.200 -30.035  -7.187  1.00  0.00    -0.550 OA
ATOM     24  O   UNL     1     -41.604 -29.258  -8.637  1.00  0.00    -0.550 OA
ENDBRANCH  21  22
ENDBRANCH  20  21
ENDBRANCH  19  20
ENDBRANCH  18  19
ENDBRANCH  17  18
ENDBRANCH  16  17
ENDBRANCH  15  16
ENDBRANCH  14  15
ENDBRANCH  13  14
ENDBRANCH   1  13
TORSDOF 20
ENDMDL
MODEL 8
REMARK VINA RESULT:    -2.950      4.813     10.900
REMARK INTER + INTRA:          -8.277
REMARK INTER:                  -6.872
REMARK INTRA:                  -1.405
REMARK UNBOUND:                -1.876
REMARK SMILES CCCCCCCCCCCCCCCCCCCCCC(=O)[O-]
REMARK SMILES IDX 12 1 11 2 10 3 9 4 8 5 7 6 6 7 5 8 4 9 3 10 2 11 1 12 13 13
REMARK SMILES IDX 14 14 15 15 16 16 17 17 18 18 19 19 20 20 21 21 22 22 23 23
REMARK SMILES IDX 24 24
REMARK H PARENT
REMARK Flexibility Score: inf
ROOT
ATOM      1  C   UNL     1     -43.224 -28.010  -0.348  1.00  0.00     0.000 C 
ENDROOT
BRANCH   1   2
ATOM      2  C   UNL     1     -43.895 -27.184  -1.459  1.00  0.00     0.000 C 
BRANCH   2   3
ATOM      3  C   UNL     1     -45.068 -27.921  -2.125  1.00  0.00     0.000 C 
BRANCH   3   4
ATOM      4  C   UNL     1     -45.159 -27.574  -3.615  1.00  0.00    -0.000 C 
BRANCH   4   5
ATOM      5  C   UNL     1     -46.318 -28.328  -4.285  1.00  0.00    -0.000 C 
BRANCH   5   6
ATOM      6  C   UNL     1     -45.867 -29.638  -4.951  1.00  0.00    -0.000 C 
BRANCH   6   7
ATOM      7  C   UNL     1     -46.396 -29.783  -6.389  1.00  0.00    -0.000 C 
BRANCH   7   8
ATOM      8  C   UNL     1     -45.293 -29.632  -7.452  1.00  0.00    -0.000 C 
BRANCH   8   9
ATOM      9  C   UNL     1     -43.853 -29.662  -6.908  1.00  0.00    -0.000 C 
BRANCH   9  10
ATOM     10  C   UNL     1     -42.905 -28.722  -7.666  1.00  0.00    -0.000 C 
BRANCH  10  11
ATOM     11  C   UNL     1     -42.777 -29.140  -9.136  1.00  0.00    -0.003 C 
ATOM     12  C   UNL     1     -41.464 -29.875  -9.390  1.00  0.00     0.004 C 
ENDBRANCH  10  11
ENDBRANCH   9  10
ENDBRANCH   8   9
ENDBRANCH   7   8
ENDBRANCH   6   7
ENDBRANCH   5   6
ENDBRANCH   4   5
ENDBRANCH   3   4
ENDBRANCH   2   3
ENDBRANCH   1   2
BRANCH   1  13
ATOM     13  C   UNL     1     -43.511 -29.525  -0.394  1.00  0.00     0.000 C 
BRANCH  13  14
ATOM     14  C   UNL     1     -44.899 -29.942   0.121  1.00  0.00     0.000 C 
BRANCH  14  15
ATOM     15  C   UNL     1     -45.208 -29.390   1.521  1.00  0.00     0.000 C 
BRANCH  15  16
ATOM     16  C   UNL     1     -46.390 -28.413   1.478  1.00  0.00     0.000 C 
BRANCH  16  17
ATOM     17  C   UNL     1     -45.960 -27.010   1.934  1.00  0.00     0.000 C 
BRANCH  17  18
ATOM     18  C   UNL     1     -46.793 -26.481   3.116  1.00  0.00     0.000 C 
BRANCH  18  19
ATOM     19  C   UNL     1     -46.195 -26.762   4.507  1.00  0.00     0.000 C 
BRANCH  19  20
ATOM     20  C   UNL     1     -46.739 -28.054   5.142  1.00  0.00     0.006 C 
BRANCH  20  21
ATOM     21  C   UNL     1     -45.648 -29.117   5.317  1.00  0.00     0.053 C 
BRANCH  21  22
ATOM     22  C   UNL     1     -45.581 -29.617   6.728  1.00  0.00     0.041 C 
ATOM     23  O   UNL     1     -46.625 -29.674   7.430  1.00  0.00    -0.550 OA
ATOM     24  O   UNL     1     -44.371 -30.052   7.256  1.00  0.00    -0.550 OA
ENDBRANCH  21  22
ENDBRANCH  20  21
ENDBRANCH  19  20
ENDBRANCH  18  19
ENDBRANCH  17  18
ENDBRANCH  16  17
ENDBRANCH  15  16
ENDBRANCH  14  15
ENDBRANCH  13  14
ENDBRANCH   1  13
TORSDOF 20
ENDMDL
MODEL 9
REMARK VINA RESULT:    -2.936      4.592     10.809
REMARK INTER + INTRA:          -8.245
REMARK INTER:                  -6.921
REMARK INTRA:                  -1.324
REMARK UNBOUND:                -1.876
REMARK SMILES CCCCCCCCCCCCCCCCCCCCCC(=O)[O-]
REMARK SMILES IDX 12 1 11 2 10 3 9 4 8 5 7 6 6 7 5 8 4 9 3 10 2 11 1 12 13 13
REMARK SMILES IDX 14 14 15 15 16 16 17 17 18 18 19 19 20 20 21 21 22 22 23 23
REMARK SMILES IDX 24 24
REMARK H PARENT
REMARK Flexibility Score: inf
ROOT
ATOM      1  C   UNL     1     -44.911 -29.767  -0.779  1.00  0.00     0.000 C 
ENDROOT
BRANCH   1   2
ATOM      2  C   UNL     1     -45.513 -29.775  -2.196  1.00  0.00     0.000 C 
BRANCH   2   3
ATOM      3  C   UNL     1     -46.616 -28.720  -2.380  1.00  0.00     0.000 C 
BRANCH   3   4
ATOM      4  C   UNL     1     -47.093 -28.676  -3.836  1.00  0.00    -0.000 C 
BRANCH   4   5
ATOM      5  C   UNL     1     -46.478 -29.825  -4.651  1.00  0.00    -0.000 C 
BRANCH   5   6
ATOM      6  C   UNL     1     -45.635 -29.327  -5.837  1.00  0.00    -0.000 C 
BRANCH   6   7
ATOM      7  C   UNL     1     -45.212 -27.855  -5.684  1.00  0.00    -0.000 C 
BRANCH   7   8
ATOM      8  C   UNL     1     -45.002 -27.149  -7.036  1.00  0.00    -0.000 C 
BRANCH   8   9
ATOM      9  C   UNL     1     -45.991 -27.550  -8.144  1.00  0.00    -0.000 C 
BRANCH   9  10
ATOM     10  C   UNL     1     -45.413 -28.586  -9.120  1.00  0.00    -0.000 C 
BRANCH  10  11
ATOM     11  C   UNL     1     -44.002 -28.186  -9.571  1.00  0.00    -0.003 C 
ATOM     12  C   UNL     1     -43.176 -29.412  -9.951  1.00  0.00     0.004 C 
ENDBRANCH  10  11
ENDBRANCH   9  10
ENDBRANCH   8   9
ENDBRANCH   7   8
ENDBRANCH   6   7
ENDBRANCH   5   6
ENDBRANCH   4   5
ENDBRANCH   3   4
ENDBRANCH   2   3
ENDBRANCH   1   2
BRANCH   1  13
ATOM     13  C   UNL     1     -43.438 -29.318  -0.697  1.00  0.00     0.000 C 
BRANCH  13  14
ATOM     14  C   UNL     1     -43.175 -28.107   0.216  1.00  0.00     0.000 C 
BRANCH  14  15
ATOM     15  C   UNL     1     -44.120 -26.930  -0.068  1.00  0.00     0.000 C 
BRANCH  15  16
ATOM     16  C   UNL     1     -45.411 -27.051   0.751  1.00  0.00     0.000 C 
BRANCH  16  17
ATOM     17  C   UNL     1     -45.514 -25.921   1.786  1.00  0.00     0.000 C 
BRANCH  17  18
ATOM     18  C   UNL     1     -45.914 -26.424   3.186  1.00  0.00     0.000 C 
BRANCH  18  19
ATOM     19  C   UNL     1     -46.395 -27.885   3.238  1.00  0.00     0.000 C 
BRANCH  19  20
ATOM     20  C   UNL     1     -46.990 -28.272   4.604  1.00  0.00     0.006 C 
BRANCH  20  21
ATOM     21  C   UNL     1     -46.170 -29.363   5.304  1.00  0.00     0.053 C 
BRANCH  21  22
ATOM     22  C   UNL     1     -45.278 -28.793   6.364  1.00  0.00     0.041 C 
ATOM     23  O   UNL     1     -45.276 -27.554   6.591  1.00  0.00    -0.550 OA
ATOM     24  O   UNL     1     -44.476 -29.634   7.126  1.00  0.00    -0.550 OA
ENDBRANCH  21  22
ENDBRANCH  20  21
ENDBRANCH  19  20
ENDBRANCH  18  19
ENDBRANCH  17  18
ENDBRANCH  16  17
ENDBRANCH  15  16
ENDBRANCH  14  15
ENDBRANCH  13  14
ENDBRANCH   1  13
TORSDOF 20
ENDMDL
