MODEL 1
REMARK VINA RESULT:    -4.980      0.000      0.000
REMARK INTER + INTRA:         -11.906
REMARK INTER:                  -9.347
REMARK INTRA:                  -2.559
REMARK UNBOUND:                -2.559
REMARK SMILES CCCCCCCCC=CCCCCCCCC(=O)[O-]
REMARK SMILES IDX 10 1 9 2 11 3 12 4 13 5 14 6 15 7 16 8 17 9 18 10 19 11
REMARK SMILES IDX 20 12 8 13 7 14 6 15 5 16 4 17 3 18 2 19 1 20
REMARK H PARENT
REMARK Flexibility Score: inf
ROOT
ATOM      1  C   UNL     1      36.648  18.129  29.132  1.00  0.00    -0.031 C 
ATOM      2  C   UNL     1      37.239  18.637  30.229  1.00  0.00    -0.031 C 
ENDROOT
BRANCH   1   3
ATOM      3  C   UNL     1      37.383  17.447  28.003  1.00  0.00     0.027 C 
BRANCH   3   4
ATOM      4  C   UNL     1      37.202  15.922  28.031  1.00  0.00     0.004 C 
BRANCH   4   5
ATOM      5  C   UNL     1      38.244  15.229  28.926  1.00  0.00     0.000 C 
BRANCH   5   6
ATOM      6  C   UNL     1      37.675  14.822  30.297  1.00  0.00     0.000 C 
BRANCH   6   7
ATOM      7  C   UNL     1      36.320  14.087  30.247  1.00  0.00     0.000 C 
BRANCH   7   8
ATOM      8  C   UNL     1      35.110  14.909  30.735  1.00  0.00     0.006 C 
BRANCH   8   9
ATOM      9  C   UNL     1      33.907  14.899  29.779  1.00  0.00     0.053 C 
BRANCH   9  10
ATOM     10  C   UNL     1      33.506  16.282  29.369  1.00  0.00     0.041 C 
ATOM     11  O   UNL     1      33.471  17.210  30.219  1.00  0.00    -0.550 OA
ATOM     12  O   UNL     1      33.220  16.559  28.038  1.00  0.00    -0.550 OA
ENDBRANCH   9  10
ENDBRANCH   8   9
ENDBRANCH   7   8
ENDBRANCH   6   7
ENDBRANCH   5   6
ENDBRANCH   4   5
ENDBRANCH   3   4
ENDBRANCH   1   3
BRANCH   2  13
ATOM     13  C   UNL     1      38.723  18.547  30.499  1.00  0.00     0.027 C 
BRANCH  13  14
ATOM     14  C   UNL     1      39.171  19.642  31.478  1.00  0.00     0.004 C 
BRANCH  14  15
ATOM     15  C   UNL     1      38.888  19.285  32.950  1.00  0.00     0.000 C 
BRANCH  15  16
ATOM     16  C   UNL     1      39.085  17.796  33.307  1.00  0.00     0.000 C 
BRANCH  16  17
ATOM     17  C   UNL     1      37.778  17.037  33.612  1.00  0.00    -0.000 C 
BRANCH  17  18
ATOM     18  C   UNL     1      36.581  17.970  33.911  1.00  0.00    -0.000 C 
BRANCH  18  19
ATOM     19  C   UNL     1      35.246  17.456  33.345  1.00  0.00    -0.003 C 
ATOM     20  C   UNL     1      34.033  18.137  33.977  1.00  0.00     0.004 C 
ENDBRANCH  18  19
ENDBRANCH  17  18
ENDBRANCH  16  17
ENDBRANCH  15  16
ENDBRANCH  14  15
ENDBRANCH  13  14
ENDBRANCH   2  13
TORSDOF 15
ENDMDL
MODEL 2
REMARK VINA RESULT:    -4.920      1.924      5.093
REMARK INTER + INTRA:         -11.793
REMARK INTER:                  -9.389
REMARK INTRA:                  -2.404
REMARK UNBOUND:                -2.559
REMARK SMILES CCCCCCCCC=CCCCCCCCC(=O)[O-]
REMARK SMILES IDX 10 1 9 2 11 3 12 4 13 5 14 6 15 7 16 8 17 9 18 10 19 11
REMARK SMILES IDX 20 12 8 13 7 14 6 15 5 16 4 17 3 18 2 19 1 20
REMARK H PARENT
REMARK Flexibility Score: inf
ROOT
ATOM      1  C   UNL     1      37.751  19.115  33.669  1.00  0.00    -0.031 C 
ATOM      2  C   UNL     1      37.000  17.999  33.680  1.00  0.00    -0.031 C 
ENDROOT
BRANCH   1   3
ATOM      3  C   UNL     1      38.874  19.379  32.696  1.00  0.00     0.027 C 
BRANCH   3   4
ATOM      4  C   UNL     1      40.235  18.925  33.244  1.00  0.00     0.004 C 
BRANCH   4   5
ATOM      5  C   UNL     1      40.970  17.987  32.271  1.00  0.00     0.000 C 
BRANCH   5   6
ATOM      6  C   UNL     1      41.001  18.529  30.831  1.00  0.00     0.000 C 
BRANCH   6   7
ATOM      7  C   UNL     1      40.609  17.509  29.742  1.00  0.00     0.000 C 
BRANCH   7   8
ATOM      8  C   UNL     1      39.247  16.816  29.953  1.00  0.00     0.006 C 
BRANCH   8   9
ATOM      9  C   UNL     1      38.337  16.812  28.715  1.00  0.00     0.053 C 
BRANCH   9  10
ATOM     10  C   UNL     1      37.359  17.946  28.735  1.00  0.00     0.041 C 
ATOM     11  O   UNL     1      37.369  18.775  29.683  1.00  0.00    -0.550 OA
ATOM     12  O   UNL     1      36.471  18.119  27.680  1.00  0.00    -0.550 OA
ENDBRANCH   9  10
ENDBRANCH   8   9
ENDBRANCH   7   8
ENDBRANCH   6   7
ENDBRANCH   5   6
ENDBRANCH   4   5
ENDBRANCH   3   4
ENDBRANCH   1   3
BRANCH   2  13
ATOM     13  C   UNL     1      37.153  16.876  32.681  1.00  0.00     0.027 C 
BRANCH  13  14
ATOM     14  C   UNL     1      35.783  16.408  32.165  1.00  0.00     0.004 C 
BRANCH  14  15
ATOM     15  C   UNL     1      34.786  17.567  31.973  1.00  0.00     0.000 C 
BRANCH  15  16
ATOM     16  C   UNL     1      34.127  17.633  30.578  1.00  0.00     0.000 C 
BRANCH  16  17
ATOM     17  C   UNL     1      33.705  16.262  30.011  1.00  0.00    -0.000 C 
BRANCH  17  18
ATOM     18  C   UNL     1      33.686  16.216  28.465  1.00  0.00    -0.000 C 
BRANCH  18  19
ATOM     19  C   UNL     1      34.571  15.105  27.874  1.00  0.00    -0.003 C 
ATOM     20  C   UNL     1      35.473  14.446  28.916  1.00  0.00     0.004 C 
ENDBRANCH  18  19
ENDBRANCH  17  18
ENDBRANCH  16  17
ENDBRANCH  15  16
ENDBRANCH  14  15
ENDBRANCH  13  14
ENDBRANCH   2  13
TORSDOF 15
ENDMDL
MODEL 3
REMARK VINA RESULT:    -4.892      1.446      2.033
REMARK INTER + INTRA:         -11.740
REMARK INTER:                  -8.820
REMARK INTRA:                  -2.920
REMARK UNBOUND:                -2.559
REMARK SMILES CCCCCCCCC=CCCCCCCCC(=O)[O-]
REMARK SMILES IDX 10 1 9 2 11 3 12 4 13 5 14 6 15 7 16 8 17 9 18 10 19 11
REMARK SMILES IDX 20 12 8 13 7 14 6 15 5 16 4 17 3 18 2 19 1 20
REMARK H PARENT
REMARK Flexibility Score: inf
ROOT
ATOM      1  C   UNL     1      37.182  17.888  29.223  1.00  0.00    -0.031 C 
ATOM      2  C   UNL     1      37.393  18.885  30.102  1.00  0.00    -0.031 C 
ENDROOT
BRANCH   1   3
ATOM      3  C   UNL     1      38.243  16.920  28.758  1.00  0.00     0.027 C 
BRANCH   3   4
ATOM      4  C   UNL     1      37.650  15.565  28.346  1.00  0.00     0.004 C 
BRANCH   4   5
ATOM      5  C   UNL     1      36.802  14.937  29.466  1.00  0.00     0.000 C 
BRANCH   5   6
ATOM      6  C   UNL     1      35.582  14.168  28.928  1.00  0.00     0.000 C 
BRANCH   6   7
ATOM      7  C   UNL     1      34.226  14.598  29.526  1.00  0.00     0.000 C 
BRANCH   7   8
ATOM      8  C   UNL     1      33.244  15.242  28.525  1.00  0.00     0.006 C 
BRANCH   8   9
ATOM      9  C   UNL     1      33.589  16.689  28.138  1.00  0.00     0.053 C 
BRANCH   9  10
ATOM     10  C   UNL     1      34.077  16.789  26.726  1.00  0.00     0.041 C 
ATOM     11  O   UNL     1      35.173  17.355  26.473  1.00  0.00    -0.550 OA
ATOM     12  O   UNL     1      33.347  16.212  25.693  1.00  0.00    -0.550 OA
ENDBRANCH   9  10
ENDBRANCH   8   9
ENDBRANCH   7   8
ENDBRANCH   6   7
ENDBRANCH   5   6
ENDBRANCH   4   5
ENDBRANCH   3   4
ENDBRANCH   1   3
BRANCH   2  13
ATOM     13  C   UNL     1      38.719  19.136  30.780  1.00  0.00     0.027 C 
BRANCH  13  14
ATOM     14  C   UNL     1      38.536  19.312  32.295  1.00  0.00     0.004 C 
BRANCH  14  15
ATOM     15  C   UNL     1      38.759  18.007  33.083  1.00  0.00     0.000 C 
BRANCH  15  16
ATOM     16  C   UNL     1      37.486  17.404  33.714  1.00  0.00     0.000 C 
BRANCH  16  17
ATOM     17  C   UNL     1      36.962  16.139  33.003  1.00  0.00    -0.000 C 
BRANCH  17  18
ATOM     18  C   UNL     1      35.522  16.290  32.461  1.00  0.00    -0.000 C 
BRANCH  18  19
ATOM     19  C   UNL     1      34.959  17.715  32.604  1.00  0.00    -0.003 C 
ATOM     20  C   UNL     1      34.076  18.125  31.427  1.00  0.00     0.004 C 
ENDBRANCH  18  19
ENDBRANCH  17  18
ENDBRANCH  16  17
ENDBRANCH  15  16
ENDBRANCH  14  15
ENDBRANCH  13  14
ENDBRANCH   2  13
TORSDOF 15
ENDMDL
MODEL 4
REMARK VINA RESULT:    -4.869      1.779      4.046
REMARK INTER + INTRA:         -11.697
REMARK INTER:                  -9.306
REMARK INTRA:                  -2.391
REMARK UNBOUND:                -2.559
REMARK SMILES CCCCCCCCC=CCCCCCCCC(=O)[O-]
REMARK SMILES IDX 10 1 9 2 11 3 12 4 13 5 14 6 15 7 16 8 17 9 18 10 19 11
REMARK SMILES IDX 20 12 8 13 7 14 6 15 5 16 4 17 3 18 2 19 1 20
REMARK H PARENT
REMARK Flexibility Score: inf
ROOT
ATOM      1  C   UNL     1      37.489  18.524  33.426  1.00  0.00    -0.031 C 
ATOM      2  C   UNL     1      38.789  18.813  33.233  1.00  0.00    -0.031 C 
ENDROOT
BRANCH   1   3
ATOM      3  C   UNL     1      36.966  17.167  33.833  1.00  0.00     0.027 C 
BRANCH   3   4
ATOM      4  C   UNL     1      35.884  16.651  32.873  1.00  0.00     0.004 C 
BRANCH   4   5
ATOM      5  C   UNL     1      35.012  17.789  32.315  1.00  0.00     0.000 C 
BRANCH   5   6
ATOM      6  C   UNL     1      34.354  17.430  30.971  1.00  0.00     0.000 C 
BRANCH   6   7
ATOM      7  C   UNL     1      34.784  16.072  30.378  1.00  0.00     0.000 C 
BRANCH   7   8
ATOM      8  C   UNL     1      33.770  15.430  29.409  1.00  0.00     0.006 C 
BRANCH   8   9
ATOM      9  C   UNL     1      33.211  16.390  28.346  1.00  0.00     0.053 C 
BRANCH   9  10
ATOM     10  C   UNL     1      33.555  15.948  26.957  1.00  0.00     0.041 C 
ATOM     11  O   UNL     1      33.144  14.838  26.525  1.00  0.00    -0.550 OA
ATOM     12  O   UNL     1      34.284  16.783  26.120  1.00  0.00    -0.550 OA
ENDBRANCH   9  10
ENDBRANCH   8   9
ENDBRANCH   7   8
ENDBRANCH   6   7
ENDBRANCH   5   6
ENDBRANCH   4   5
ENDBRANCH   3   4
ENDBRANCH   1   3
BRANCH   2  13
ATOM     13  C   UNL     1      39.908  17.821  33.447  1.00  0.00     0.027 C 
BRANCH  13  14
ATOM     14  C   UNL     1      41.109  18.145  32.546  1.00  0.00     0.004 C 
BRANCH  14  15
ATOM     15  C   UNL     1      40.701  18.485  31.100  1.00  0.00     0.000 C 
BRANCH  15  16
ATOM     16  C   UNL     1      40.876  17.333  30.087  1.00  0.00     0.000 C 
BRANCH  16  17
ATOM     17  C   UNL     1      39.589  16.957  29.325  1.00  0.00    -0.000 C 
BRANCH  17  18
ATOM     18  C   UNL     1      38.294  17.359  30.069  1.00  0.00    -0.000 C 
BRANCH  18  19
ATOM     19  C   UNL     1      37.490  18.457  29.352  1.00  0.00    -0.003 C 
ATOM     20  C   UNL     1      36.945  18.006  27.998  1.00  0.00     0.004 C 
ENDBRANCH  18  19
ENDBRANCH  17  18
ENDBRANCH  16  17
ENDBRANCH  15  16
ENDBRANCH  14  15
ENDBRANCH  13  14
ENDBRANCH   2  13
TORSDOF 15
ENDMDL
MODEL 5
REMARK VINA RESULT:    -4.869      2.015      2.978
REMARK INTER + INTRA:         -11.697
REMARK INTER:                  -9.229
REMARK INTRA:                  -2.468
REMARK UNBOUND:                -2.559
REMARK SMILES CCCCCCCCC=CCCCCCCCC(=O)[O-]
REMARK SMILES IDX 10 1 9 2 11 3 12 4 13 5 14 6 15 7 16 8 17 9 18 10 19 11
REMARK SMILES IDX 20 12 8 13 7 14 6 15 5 16 4 17 3 18 2 19 1 20
REMARK H PARENT
REMARK Flexibility Score: inf
ROOT
ATOM      1  C   UNL     1      38.614  17.426  29.387  1.00  0.00    -0.031 C 
ATOM      2  C   UNL     1      39.899  17.434  29.785  1.00  0.00    -0.031 C 
ENDROOT
BRANCH   1   3
ATOM      3  C   UNL     1      37.570  18.413  29.851  1.00  0.00     0.027 C 
BRANCH   3   4
ATOM      4  C   UNL     1      36.166  18.051  29.344  1.00  0.00     0.004 C 
BRANCH   4   5
ATOM      5  C   UNL     1      35.200  17.721  30.496  1.00  0.00     0.000 C 
BRANCH   5   6
ATOM      6  C   UNL     1      33.931  16.994  30.018  1.00  0.00     0.000 C 
BRANCH   6   7
ATOM      7  C   UNL     1      34.104  15.483  29.757  1.00  0.00     0.000 C 
BRANCH   7   8
ATOM      8  C   UNL     1      34.291  15.091  28.277  1.00  0.00     0.006 C 
BRANCH   8   9
ATOM      9  C   UNL     1      33.229  15.667  27.328  1.00  0.00     0.053 C 
BRANCH   9  10
ATOM     10  C   UNL     1      33.842  16.463  26.217  1.00  0.00     0.041 C 
ATOM     11  O   UNL     1      33.234  16.598  25.123  1.00  0.00    -0.550 OA
ATOM     12  O   UNL     1      35.063  17.099  26.408  1.00  0.00    -0.550 OA
ENDBRANCH   9  10
ENDBRANCH   8   9
ENDBRANCH   7   8
ENDBRANCH   6   7
ENDBRANCH   5   6
ENDBRANCH   4   5
ENDBRANCH   3   4
ENDBRANCH   1   3
BRANCH   2  13
ATOM     13  C   UNL     1      40.481  18.470  30.718  1.00  0.00     0.027 C 
BRANCH  13  14
ATOM     14  C   UNL     1      40.953  17.826  32.030  1.00  0.00     0.004 C 
BRANCH  14  15
ATOM     15  C   UNL     1      40.326  18.476  33.278  1.00  0.00     0.000 C 
BRANCH  15  16
ATOM     16  C   UNL     1      39.076  19.340  33.003  1.00  0.00     0.000 C 
BRANCH  16  17
ATOM     17  C   UNL     1      37.746  18.685  33.428  1.00  0.00    -0.000 C 
BRANCH  17  18
ATOM     18  C   UNL     1      37.913  17.246  33.967  1.00  0.00    -0.000 C 
BRANCH  18  19
ATOM     19  C   UNL     1      37.123  16.195  33.168  1.00  0.00    -0.003 C 
ATOM     20  C   UNL     1      38.013  15.344  32.264  1.00  0.00     0.004 C 
ENDBRANCH  18  19
ENDBRANCH  17  18
ENDBRANCH  16  17
ENDBRANCH  15  16
ENDBRANCH  14  15
ENDBRANCH  13  14
ENDBRANCH   2  13
TORSDOF 15
ENDMDL
MODEL 6
REMARK VINA RESULT:    -4.852      1.599      4.150
REMARK INTER + INTRA:         -11.665
REMARK INTER:                  -9.086
REMARK INTRA:                  -2.579
REMARK UNBOUND:                -2.559
REMARK SMILES CCCCCCCCC=CCCCCCCCC(=O)[O-]
REMARK SMILES IDX 10 1 9 2 11 3 12 4 13 5 14 6 15 7 16 8 17 9 18 10 19 11
REMARK SMILES IDX 20 12 8 13 7 14 6 15 5 16 4 17 3 18 2 19 1 20
REMARK H PARENT
REMARK Flexibility Score: inf
ROOT
ATOM      1  C   UNL     1      37.215  17.550  33.985  1.00  0.00    -0.031 C 
ATOM      2  C   UNL     1      38.250  18.071  33.301  1.00  0.00    -0.031 C 
ENDROOT
BRANCH   1   3
ATOM      3  C   UNL     1      36.202  18.364  34.753  1.00  0.00     0.027 C 
BRANCH   3   4
ATOM      4  C   UNL     1      34.771  18.141  34.242  1.00  0.00     0.004 C 
BRANCH   4   5
ATOM      5  C   UNL     1      34.739  17.299  32.954  1.00  0.00     0.000 C 
BRANCH   5   6
ATOM      6  C   UNL     1      34.314  18.115  31.720  1.00  0.00     0.000 C 
BRANCH   6   7
ATOM      7  C   UNL     1      34.731  17.510  30.364  1.00  0.00     0.000 C 
BRANCH   7   8
ATOM      8  C   UNL     1      33.620  16.740  29.620  1.00  0.00     0.006 C 
BRANCH   8   9
ATOM      9  C   UNL     1      33.871  15.230  29.488  1.00  0.00     0.053 C 
BRANCH   9  10
ATOM     10  C   UNL     1      34.422  14.870  28.142  1.00  0.00     0.041 C 
ATOM     11  O   UNL     1      35.636  14.559  28.017  1.00  0.00    -0.550 OA
ATOM     12  O   UNL     1      33.584  14.828  27.035  1.00  0.00    -0.550 OA
ENDBRANCH   9  10
ENDBRANCH   8   9
ENDBRANCH   7   8
ENDBRANCH   6   7
ENDBRANCH   5   6
ENDBRANCH   4   5
ENDBRANCH   3   4
ENDBRANCH   1   3
BRANCH   2  13
ATOM     13  C   UNL     1      38.506  19.554  33.171  1.00  0.00     0.027 C 
BRANCH  13  14
ATOM     14  C   UNL     1      38.743  19.945  31.705  1.00  0.00     0.004 C 
BRANCH  14  15
ATOM     15  C   UNL     1      38.435  18.800  30.720  1.00  0.00     0.000 C 
BRANCH  15  16
ATOM     16  C   UNL     1      39.677  18.096  30.134  1.00  0.00     0.000 C 
BRANCH  16  17
ATOM     17  C   UNL     1      39.403  16.682  29.581  1.00  0.00    -0.000 C 
BRANCH  17  18
ATOM     18  C   UNL     1      38.037  16.105  30.019  1.00  0.00    -0.000 C 
BRANCH  18  19
ATOM     19  C   UNL     1      38.143  15.068  31.151  1.00  0.00    -0.003 C 
ATOM     20  C   UNL     1      36.781  14.567  31.627  1.00  0.00     0.004 C 
ENDBRANCH  18  19
ENDBRANCH  17  18
ENDBRANCH  16  17
ENDBRANCH  15  16
ENDBRANCH  14  15
ENDBRANCH  13  14
ENDBRANCH   2  13
TORSDOF 15
ENDMDL
MODEL 7
REMARK VINA RESULT:    -4.848      2.494      4.779
REMARK INTER + INTRA:         -11.657
REMARK INTER:                  -8.934
REMARK INTRA:                  -2.724
REMARK UNBOUND:                -2.559
REMARK SMILES CCCCCCCCC=CCCCCCCCC(=O)[O-]
REMARK SMILES IDX 10 1 9 2 11 3 12 4 13 5 14 6 15 7 16 8 17 9 18 10 19 11
REMARK SMILES IDX 20 12 8 13 7 14 6 15 5 16 4 17 3 18 2 19 1 20
REMARK H PARENT
REMARK Flexibility Score: inf
ROOT
ATOM      1  C   UNL     1      34.998  17.105  26.638  1.00  0.00    -0.031 C 
ATOM      2  C   UNL     1      33.900  16.368  26.886  1.00  0.00    -0.031 C 
ENDROOT
BRANCH   1   3
ATOM      3  C   UNL     1      35.795  17.833  27.693  1.00  0.00     0.027 C 
BRANCH   3   4
ATOM      4  C   UNL     1      37.287  17.474  27.642  1.00  0.00     0.004 C 
BRANCH   4   5
ATOM      5  C   UNL     1      37.554  16.032  28.108  1.00  0.00     0.000 C 
BRANCH   5   6
ATOM      6  C   UNL     1      38.871  15.894  28.892  1.00  0.00     0.000 C 
BRANCH   6   7
ATOM      7  C   UNL     1      38.705  15.704  30.415  1.00  0.00     0.000 C 
BRANCH   7   8
ATOM      8  C   UNL     1      39.392  16.774  31.287  1.00  0.00     0.006 C 
BRANCH   8   9
ATOM      9  C   UNL     1      39.182  18.218  30.805  1.00  0.00     0.053 C 
BRANCH   9  10
ATOM     10  C   UNL     1      39.149  19.189  31.945  1.00  0.00     0.041 C 
ATOM     11  O   UNL     1      38.612  20.319  31.799  1.00  0.00    -0.550 OA
ATOM     12  O   UNL     1      39.663  18.828  33.184  1.00  0.00    -0.550 OA
ENDBRANCH   9  10
ENDBRANCH   8   9
ENDBRANCH   7   8
ENDBRANCH   6   7
ENDBRANCH   5   6
ENDBRANCH   4   5
ENDBRANCH   3   4
ENDBRANCH   1   3
BRANCH   2  13
ATOM     13  C   UNL     1      33.346  16.131  28.271  1.00  0.00     0.027 C 
BRANCH  13  14
ATOM     14  C   UNL     1      34.057  14.953  28.954  1.00  0.00     0.004 C 
BRANCH  14  15
ATOM     15  C   UNL     1      34.648  15.323  30.328  1.00  0.00     0.000 C 
BRANCH  15  16
ATOM     16  C   UNL     1      34.345  16.761  30.800  1.00  0.00     0.000 C 
BRANCH  16  17
ATOM     17  C   UNL     1      35.546  17.485  31.441  1.00  0.00    -0.000 C 
BRANCH  17  18
ATOM     18  C   UNL     1      36.003  16.856  32.777  1.00  0.00    -0.000 C 
BRANCH  18  19
ATOM     19  C   UNL     1      35.904  17.817  33.974  1.00  0.00    -0.003 C 
ATOM     20  C   UNL     1      34.461  18.120  34.375  1.00  0.00     0.004 C 
ENDBRANCH  18  19
ENDBRANCH  17  18
ENDBRANCH  16  17
ENDBRANCH  15  16
ENDBRANCH  14  15
ENDBRANCH  13  14
ENDBRANCH   2  13
TORSDOF 15
ENDMDL
MODEL 8
REMARK VINA RESULT:    -4.794      2.674      6.271
REMARK INTER + INTRA:         -11.556
REMARK INTER:                  -9.172
REMARK INTRA:                  -2.384
REMARK UNBOUND:                -2.559
REMARK SMILES CCCCCCCCC=CCCCCCCCC(=O)[O-]
REMARK SMILES IDX 10 1 9 2 11 3 12 4 13 5 14 6 15 7 16 8 17 9 18 10 19 11
REMARK SMILES IDX 20 12 8 13 7 14 6 15 5 16 4 17 3 18 2 19 1 20
REMARK H PARENT
REMARK Flexibility Score: inf
ROOT
ATOM      1  C   UNL     1      34.478  18.075  31.734  1.00  0.00    -0.031 C 
ATOM      2  C   UNL     1      34.013  17.470  30.626  1.00  0.00    -0.031 C 
ENDROOT
BRANCH   1   3
ATOM      3  C   UNL     1      35.238  17.376  32.836  1.00  0.00     0.027 C 
BRANCH   3   4
ATOM      4  C   UNL     1      36.754  17.388  32.593  1.00  0.00     0.004 C 
BRANCH   4   5
ATOM      5  C   UNL     1      37.493  18.311  33.578  1.00  0.00     0.000 C 
BRANCH   5   6
ATOM      6  C   UNL     1      38.466  19.273  32.875  1.00  0.00     0.000 C 
BRANCH   6   7
ATOM      7  C   UNL     1      39.929  19.189  33.358  1.00  0.00     0.000 C 
BRANCH   7   8
ATOM      8  C   UNL     1      40.803  18.153  32.622  1.00  0.00     0.006 C 
BRANCH   8   9
ATOM      9  C   UNL     1      40.546  18.063  31.110  1.00  0.00     0.053 C 
BRANCH   9  10
ATOM     10  C   UNL     1      40.183  16.674  30.685  1.00  0.00     0.041 C 
ATOM     11  O   UNL     1      39.724  15.854  31.524  1.00  0.00    -0.550 OA
ATOM     12  O   UNL     1      40.303  16.299  29.353  1.00  0.00    -0.550 OA
ENDBRANCH   9  10
ENDBRANCH   8   9
ENDBRANCH   7   8
ENDBRANCH   6   7
ENDBRANCH   5   6
ENDBRANCH   4   5
ENDBRANCH   3   4
ENDBRANCH   1   3
BRANCH   2  13
ATOM     13  C   UNL     1      34.235  16.008  30.316  1.00  0.00     0.027 C 
BRANCH  13  14
ATOM     14  C   UNL     1      33.234  15.512  29.261  1.00  0.00     0.004 C 
BRANCH  14  15
ATOM     15  C   UNL     1      33.919  14.916  28.016  1.00  0.00     0.000 C 
BRANCH  15  16
ATOM     16  C   UNL     1      35.254  15.587  27.625  1.00  0.00     0.000 C 
BRANCH  16  17
ATOM     17  C   UNL     1      35.095  16.918  26.862  1.00  0.00    -0.000 C 
BRANCH  17  18
ATOM     18  C   UNL     1      36.149  17.980  27.252  1.00  0.00    -0.000 C 
BRANCH  18  19
ATOM     19  C   UNL     1      37.061  17.543  28.411  1.00  0.00    -0.003 C 
ATOM     20  C   UNL     1      37.360  18.676  29.391  1.00  0.00     0.004 C 
ENDBRANCH  18  19
ENDBRANCH  17  18
ENDBRANCH  16  17
ENDBRANCH  15  16
ENDBRANCH  14  15
ENDBRANCH  13  14
ENDBRANCH   2  13
TORSDOF 15
ENDMDL
MODEL 9
REMARK VINA RESULT:    -4.773      1.691      3.963
REMARK INTER + INTRA:         -11.518
REMARK INTER:                  -8.422
REMARK INTRA:                  -3.096
REMARK UNBOUND:                -2.559
REMARK SMILES CCCCCCCCC=CCCCCCCCC(=O)[O-]
REMARK SMILES IDX 10 1 9 2 11 3 12 4 13 5 14 6 15 7 16 8 17 9 18 10 19 11
REMARK SMILES IDX 20 12 8 13 7 14 6 15 5 16 4 17 3 18 2 19 1 20
REMARK H PARENT
REMARK Flexibility Score: inf
ROOT
ATOM      1  C   UNL     1      38.246  14.944  31.908  1.00  0.00    -0.031 C 
ATOM      2  C   UNL     1      38.745  15.308  30.713  1.00  0.00    -0.031 C 
ENDROOT
BRANCH   1   3
ATOM      3  C   UNL     1      36.845  15.253  32.379  1.00  0.00     0.027 C 
BRANCH   3   4
ATOM      4  C   UNL     1      36.787  16.535  33.223  1.00  0.00     0.004 C 
BRANCH   4   5
ATOM      5  C   UNL     1      36.169  17.712  32.449  1.00  0.00     0.000 C 
BRANCH   5   6
ATOM      6  C   UNL     1      34.740  17.417  31.958  1.00  0.00     0.000 C 
BRANCH   6   7
ATOM      7  C   UNL     1      34.533  17.558  30.436  1.00  0.00     0.000 C 
BRANCH   7   8
ATOM      8  C   UNL     1      33.676  16.451  29.786  1.00  0.00     0.006 C 
BRANCH   8   9
ATOM      9  C   UNL     1      34.358  15.076  29.722  1.00  0.00     0.053 C 
BRANCH   9  10
ATOM     10  C   UNL     1      34.767  14.719  28.326  1.00  0.00     0.041 C 
ATOM     11  O   UNL     1      35.541  13.746  28.121  1.00  0.00    -0.550 OA
ATOM     12  O   UNL     1      34.254  15.427  27.246  1.00  0.00    -0.550 OA
ENDBRANCH   9  10
ENDBRANCH   8   9
ENDBRANCH   7   8
ENDBRANCH   6   7
ENDBRANCH   5   6
ENDBRANCH   4   5
ENDBRANCH   3   4
ENDBRANCH   1   3
BRANCH   2  13
ATOM     13  C   UNL     1      37.945  16.037  29.658  1.00  0.00     0.027 C 
BRANCH  13  14
ATOM     14  C   UNL     1      38.438  17.483  29.497  1.00  0.00     0.004 C 
BRANCH  14  15
ATOM     15  C   UNL     1      39.948  17.636  29.762  1.00  0.00     0.000 C 
BRANCH  15  16
ATOM     16  C   UNL     1      40.334  18.841  30.646  1.00  0.00     0.000 C 
BRANCH  16  17
ATOM     17  C   UNL     1      39.387  19.082  31.839  1.00  0.00    -0.000 C 
BRANCH  17  18
ATOM     18  C   UNL     1      40.034  18.776  33.210  1.00  0.00    -0.000 C 
BRANCH  18  19
ATOM     19  C   UNL     1      40.819  17.453  33.237  1.00  0.00    -0.003 C 
ATOM     20  C   UNL     1      40.393  16.533  34.379  1.00  0.00     0.004 C 
ENDBRANCH  18  19
ENDBRANCH  17  18
ENDBRANCH  16  17
ENDBRANCH  15  16
ENDBRANCH  14  15
ENDBRANCH  13  14
ENDBRANCH   2  13
TORSDOF 15
ENDMDL
