MODEL 1
REMARK VINA RESULT:    -3.490      0.000      0.000
REMARK INTER + INTRA:          -6.922
REMARK INTER:                  -5.530
REMARK INTRA:                  -1.391
REMARK UNBOUND:                -1.391
REMARK SMILES CCCCCCCCCCCC(=O)[O-]
REMARK SMILES IDX 7 1 8 2 9 3 10 4 11 5 12 6 13 7 14 8 6 9 5 10 4 11 3 12 2 13
REMARK SMILES IDX 1 14
REMARK H PARENT
REMARK Flexibility Score: inf
ROOT
ATOM      1  C   UNL     1      22.303   2.355  24.368  1.00  0.00     0.000 C 
ENDROOT
BRANCH   1   2
ATOM      2  C   UNL     1      21.617   1.270  25.217  1.00  0.00     0.000 C 
BRANCH   2   3
ATOM      3  C   UNL     1      21.991   1.361  26.706  1.00  0.00     0.000 C 
BRANCH   3   4
ATOM      4  C   UNL     1      22.199   2.808  27.179  1.00  0.00     0.006 C 
BRANCH   4   5
ATOM      5  C   UNL     1      23.590   2.986  27.796  1.00  0.00     0.053 C 
BRANCH   5   6
ATOM      6  C   UNL     1      24.420   3.908  26.960  1.00  0.00     0.041 C 
ATOM      7  O   UNL     1      25.388   3.459  26.291  1.00  0.00    -0.550 OA
ATOM      8  O   UNL     1      24.156   5.272  26.959  1.00  0.00    -0.550 OA
ENDBRANCH   5   6
ENDBRANCH   4   5
ENDBRANCH   3   4
ENDBRANCH   2   3
ENDBRANCH   1   2
BRANCH   1   9
ATOM      9  C   UNL     1      21.303   3.168  23.530  1.00  0.00     0.000 C 
BRANCH   9  10
ATOM     10  C   UNL     1      20.881   4.478  24.213  1.00  0.00    -0.000 C 
BRANCH  10  11
ATOM     11  C   UNL     1      19.367   4.508  24.454  1.00  0.00    -0.000 C 
BRANCH  11  12
ATOM     12  C   UNL     1      19.036   4.156  25.912  1.00  0.00    -0.000 C 
BRANCH  12  13
ATOM     13  C   UNL     1      18.525   2.715  26.070  1.00  0.00    -0.003 C 
ATOM     14  C   UNL     1      18.411   2.284  27.530  1.00  0.00     0.004 C 
ENDBRANCH  12  13
ENDBRANCH  11  12
ENDBRANCH  10  11
ENDBRANCH   9  10
ENDBRANCH   1   9
TORSDOF 10
ENDMDL
MODEL 2
REMARK VINA RESULT:    -3.413      3.248      5.569
REMARK INTER + INTRA:          -6.800
REMARK INTER:                  -5.776
REMARK INTRA:                  -1.024
REMARK UNBOUND:                -1.391
REMARK SMILES CCCCCCCCCCCC(=O)[O-]
REMARK SMILES IDX 7 1 8 2 9 3 10 4 11 5 12 6 13 7 14 8 6 9 5 10 4 11 3 12 2 13
REMARK SMILES IDX 1 14
REMARK H PARENT
REMARK Flexibility Score: inf
ROOT
ATOM      1  C   UNL     1      19.245   4.017  25.840  1.00  0.00     0.000 C 
ENDROOT
BRANCH   1   2
ATOM      2  C   UNL     1      19.315   4.684  24.455  1.00  0.00     0.000 C 
BRANCH   2   3
ATOM      3  C   UNL     1      20.434   5.736  24.363  1.00  0.00     0.000 C 
BRANCH   3   4
ATOM      4  C   UNL     1      19.965   7.140  24.773  1.00  0.00     0.006 C 
BRANCH   4   5
ATOM      5  C   UNL     1      19.211   7.820  23.627  1.00  0.00     0.053 C 
BRANCH   5   6
ATOM      6  C   UNL     1      20.025   8.937  23.053  1.00  0.00     0.041 C 
ATOM      7  O   UNL     1      19.738   9.417  21.925  1.00  0.00    -0.550 OA
ATOM      8  O   UNL     1      21.133   9.415  23.743  1.00  0.00    -0.550 OA
ENDBRANCH   5   6
ENDBRANCH   4   5
ENDBRANCH   3   4
ENDBRANCH   2   3
ENDBRANCH   1   2
BRANCH   1   9
ATOM      9  C   UNL     1      18.622   2.613  25.787  1.00  0.00     0.000 C 
BRANCH   9  10
ATOM     10  C   UNL     1      19.476   1.557  26.507  1.00  0.00    -0.000 C 
BRANCH  10  11
ATOM     11  C   UNL     1      20.926   1.591  26.008  1.00  0.00    -0.000 C 
BRANCH  11  12
ATOM     12  C   UNL     1      21.018   1.106  24.554  1.00  0.00    -0.000 C 
BRANCH  12  13
ATOM     13  C   UNL     1      21.737   2.112  23.641  1.00  0.00    -0.003 C 
ATOM     14  C   UNL     1      22.785   2.939  24.383  1.00  0.00     0.004 C 
ENDBRANCH  12  13
ENDBRANCH  11  12
ENDBRANCH  10  11
ENDBRANCH   9  10
ENDBRANCH   1   9
TORSDOF 10
ENDMDL
MODEL 3
REMARK VINA RESULT:    -3.329      1.601      2.898
REMARK INTER + INTRA:          -6.666
REMARK INTER:                  -5.144
REMARK INTRA:                  -1.522
REMARK UNBOUND:                -1.391
REMARK SMILES CCCCCCCCCCCC(=O)[O-]
REMARK SMILES IDX 7 1 8 2 9 3 10 4 11 5 12 6 13 7 14 8 6 9 5 10 4 11 3 12 2 13
REMARK SMILES IDX 1 14
REMARK H PARENT
REMARK Flexibility Score: inf
ROOT
ATOM      1  C   UNL     1      21.756   3.689  24.217  1.00  0.00     0.000 C 
ENDROOT
BRANCH   1   2
ATOM      2  C   UNL     1      20.426   4.464  24.201  1.00  0.00     0.000 C 
BRANCH   2   3
ATOM      3  C   UNL     1      20.295   5.437  25.384  1.00  0.00     0.000 C 
BRANCH   3   4
ATOM      4  C   UNL     1      21.199   5.059  26.567  1.00  0.00     0.006 C 
BRANCH   4   5
ATOM      5  C   UNL     1      21.994   6.273  27.057  1.00  0.00     0.053 C 
BRANCH   5   6
ATOM      6  C   UNL     1      23.435   5.914  27.245  1.00  0.00     0.041 C 
ATOM      7  O   UNL     1      24.284   6.809  27.499  1.00  0.00    -0.550 OA
ATOM      8  O   UNL     1      23.849   4.597  27.090  1.00  0.00    -0.550 OA
ENDBRANCH   5   6
ENDBRANCH   4   5
ENDBRANCH   3   4
ENDBRANCH   2   3
ENDBRANCH   1   2
BRANCH   1   9
ATOM      9  C   UNL     1      21.631   2.289  23.595  1.00  0.00     0.000 C 
BRANCH   9  10
ATOM     10  C   UNL     1      21.067   1.250  24.577  1.00  0.00    -0.000 C 
BRANCH  10  11
ATOM     11  C   UNL     1      21.688   1.419  25.969  1.00  0.00    -0.000 C 
BRANCH  11  12
ATOM     12  C   UNL     1      20.600   1.494  27.051  1.00  0.00    -0.000 C 
BRANCH  12  13
ATOM     13  C   UNL     1      19.188   1.621  26.458  1.00  0.00    -0.003 C 
ATOM     14  C   UNL     1      18.360   2.715  27.129  1.00  0.00     0.004 C 
ENDBRANCH  12  13
ENDBRANCH  11  12
ENDBRANCH  10  11
ENDBRANCH   9  10
ENDBRANCH   1   9
TORSDOF 10
ENDMDL
MODEL 4
REMARK VINA RESULT:    -3.325      2.772      4.930
REMARK INTER + INTRA:          -6.659
REMARK INTER:                  -5.296
REMARK INTRA:                  -1.363
REMARK UNBOUND:                -1.391
REMARK SMILES CCCCCCCCCCCC(=O)[O-]
REMARK SMILES IDX 7 1 8 2 9 3 10 4 11 5 12 6 13 7 14 8 6 9 5 10 4 11 3 12 2 13
REMARK SMILES IDX 1 14
REMARK H PARENT
REMARK Flexibility Score: inf
ROOT
ATOM      1  C   UNL     1      20.260   1.642  25.204  1.00  0.00     0.000 C 
ENDROOT
BRANCH   1   2
ATOM      2  C   UNL     1      21.443   1.896  24.252  1.00  0.00     0.000 C 
BRANCH   2   3
ATOM      3  C   UNL     1      21.616   3.385  23.911  1.00  0.00     0.000 C 
BRANCH   3   4
ATOM      4  C   UNL     1      20.303   4.175  24.016  1.00  0.00     0.006 C 
BRANCH   4   5
ATOM      5  C   UNL     1      20.546   5.560  24.625  1.00  0.00     0.053 C 
BRANCH   5   6
ATOM      6  C   UNL     1      19.695   6.587  23.948  1.00  0.00     0.041 C 
ATOM      7  O   UNL     1      20.179   7.708  23.638  1.00  0.00    -0.550 OA
ATOM      8  O   UNL     1      18.352   6.326  23.703  1.00  0.00    -0.550 OA
ENDBRANCH   5   6
ENDBRANCH   4   5
ENDBRANCH   3   4
ENDBRANCH   2   3
ENDBRANCH   1   2
BRANCH   1   9
ATOM      9  C   UNL     1      20.615   1.922  26.673  1.00  0.00     0.000 C 
BRANCH   9  10
ATOM     10  C   UNL     1      21.989   1.362  27.070  1.00  0.00    -0.000 C 
BRANCH  10  11
ATOM     11  C   UNL     1      22.771   2.376  27.915  1.00  0.00    -0.000 C 
BRANCH  11  12
ATOM     12  C   UNL     1      22.350   3.815  27.576  1.00  0.00    -0.000 C 
BRANCH  12  13
ATOM     13  C   UNL     1      23.455   4.595  26.847  1.00  0.00    -0.003 C 
ATOM     14  C   UNL     1      24.680   3.737  26.538  1.00  0.00     0.004 C 
ENDBRANCH  12  13
ENDBRANCH  11  12
ENDBRANCH  10  11
ENDBRANCH   9  10
ENDBRANCH   1   9
TORSDOF 10
ENDMDL
MODEL 5
REMARK VINA RESULT:    -3.312      2.941      4.547
REMARK INTER + INTRA:          -6.640
REMARK INTER:                  -4.998
REMARK INTRA:                  -1.642
REMARK UNBOUND:                -1.391
REMARK SMILES CCCCCCCCCCCC(=O)[O-]
REMARK SMILES IDX 7 1 8 2 9 3 10 4 11 5 12 6 13 7 14 8 6 9 5 10 4 11 3 12 2 13
REMARK SMILES IDX 1 14
REMARK H PARENT
REMARK Flexibility Score: inf
ROOT
ATOM      1  C   UNL     1      22.696   4.369  26.464  1.00  0.00     0.000 C 
ENDROOT
BRANCH   1   2
ATOM      2  C   UNL     1      21.494   4.334  27.425  1.00  0.00     0.000 C 
BRANCH   2   3
ATOM      3  C   UNL     1      20.260   5.050  26.851  1.00  0.00     0.000 C 
BRANCH   3   4
ATOM      4  C   UNL     1      20.533   5.709  25.491  1.00  0.00     0.006 C 
BRANCH   4   5
ATOM      5  C   UNL     1      19.504   5.260  24.450  1.00  0.00     0.053 C 
BRANCH   5   6
ATOM      6  C   UNL     1      18.896   6.445  23.769  1.00  0.00     0.041 C 
ATOM      7  O   UNL     1      19.627   7.377  23.343  1.00  0.00    -0.550 OA
ATOM      8  O   UNL     1      17.515   6.545  23.650  1.00  0.00    -0.550 OA
ENDBRANCH   5   6
ENDBRANCH   4   5
ENDBRANCH   3   4
ENDBRANCH   2   3
ENDBRANCH   1   2
BRANCH   1   9
ATOM      9  C   UNL     1      23.012   2.989  25.864  1.00  0.00     0.000 C 
BRANCH   9  10
ATOM     10  C   UNL     1      22.787   2.936  24.345  1.00  0.00    -0.000 C 
BRANCH  10  11
ATOM     11  C   UNL     1      21.553   2.091  24.002  1.00  0.00    -0.000 C 
BRANCH  11  12
ATOM     12  C   UNL     1      21.041   1.340  25.241  1.00  0.00    -0.000 C 
BRANCH  12  13
ATOM     13  C   UNL     1      19.575   1.671  25.566  1.00  0.00    -0.003 C 
ATOM     14  C   UNL     1      19.205   1.354  27.014  1.00  0.00     0.004 C 
ENDBRANCH  12  13
ENDBRANCH  11  12
ENDBRANCH  10  11
ENDBRANCH   9  10
ENDBRANCH   1   9
TORSDOF 10
ENDMDL
MODEL 6
REMARK VINA RESULT:    -3.296      3.196      5.141
REMARK INTER + INTRA:          -6.614
REMARK INTER:                  -5.661
REMARK INTRA:                  -0.953
REMARK UNBOUND:                -1.391
REMARK SMILES CCCCCCCCCCCC(=O)[O-]
REMARK SMILES IDX 7 1 8 2 9 3 10 4 11 5 12 6 13 7 14 8 6 9 5 10 4 11 3 12 2 13
REMARK SMILES IDX 1 14
REMARK H PARENT
REMARK Flexibility Score: inf
ROOT
ATOM      1  C   UNL     1      20.804   4.396  24.026  1.00  0.00     0.000 C 
ENDROOT
BRANCH   1   2
ATOM      2  C   UNL     1      20.559   5.284  25.260  1.00  0.00     0.000 C 
BRANCH   2   3
ATOM      3  C   UNL     1      19.293   6.146  25.123  1.00  0.00     0.000 C 
BRANCH   3   4
ATOM      4  C   UNL     1      19.090   6.683  23.698  1.00  0.00     0.006 C 
BRANCH   4   5
ATOM      5  C   UNL     1      18.813   8.189  23.717  1.00  0.00     0.053 C 
BRANCH   5   6
ATOM      6  C   UNL     1      20.022   8.950  23.273  1.00  0.00     0.041 C 
ATOM      7  O   UNL     1      20.068   9.451  22.119  1.00  0.00    -0.550 OA
ATOM      8  O   UNL     1      21.121   9.062  24.116  1.00  0.00    -0.550 OA
ENDBRANCH   5   6
ENDBRANCH   4   5
ENDBRANCH   3   4
ENDBRANCH   2   3
ENDBRANCH   1   2
BRANCH   1   9
ATOM      9  C   UNL     1      21.982   3.427  24.222  1.00  0.00     0.000 C 
BRANCH   9  10
ATOM     10  C   UNL     1      21.717   2.040  23.616  1.00  0.00    -0.000 C 
BRANCH  10  11
ATOM     11  C   UNL     1      20.883   1.175  24.570  1.00  0.00    -0.000 C 
BRANCH  11  12
ATOM     12  C   UNL     1      21.161   1.548  26.034  1.00  0.00    -0.000 C 
BRANCH  12  13
ATOM     13  C   UNL     1      19.889   1.542  26.896  1.00  0.00    -0.003 C 
ATOM     14  C   UNL     1      18.695   2.185  26.193  1.00  0.00     0.004 C 
ENDBRANCH  12  13
ENDBRANCH  11  12
ENDBRANCH  10  11
ENDBRANCH   9  10
ENDBRANCH   1   9
TORSDOF 10
ENDMDL
MODEL 7
REMARK VINA RESULT:    -3.287      1.931      3.497
REMARK INTER + INTRA:          -6.600
REMARK INTER:                  -5.489
REMARK INTRA:                  -1.110
REMARK UNBOUND:                -1.391
REMARK SMILES CCCCCCCCCCCC(=O)[O-]
REMARK SMILES IDX 7 1 8 2 9 3 10 4 11 5 12 6 13 7 14 8 6 9 5 10 4 11 3 12 2 13
REMARK SMILES IDX 1 14
REMARK H PARENT
REMARK Flexibility Score: inf
ROOT
ATOM      1  C   UNL     1      20.109   7.313  25.150  1.00  0.00     0.000 C 
ENDROOT
BRANCH   1   2
ATOM      2  C   UNL     1      20.399   6.818  26.578  1.00  0.00     0.000 C 
BRANCH   2   3
ATOM      3  C   UNL     1      21.905   6.752  26.885  1.00  0.00     0.000 C 
BRANCH   3   4
ATOM      4  C   UNL     1      22.371   5.343  27.279  1.00  0.00     0.006 C 
BRANCH   4   5
ATOM      5  C   UNL     1      23.885   5.198  27.100  1.00  0.00     0.053 C 
BRANCH   5   6
ATOM      6  C   UNL     1      24.237   3.790  26.734  1.00  0.00     0.041 C 
ATOM      7  O   UNL     1      25.393   3.513  26.317  1.00  0.00    -0.550 OA
ATOM      8  O   UNL     1      23.274   2.792  26.804  1.00  0.00    -0.550 OA
ENDBRANCH   5   6
ENDBRANCH   4   5
ENDBRANCH   3   4
ENDBRANCH   2   3
ENDBRANCH   1   2
BRANCH   1   9
ATOM      9  C   UNL     1      20.102   6.171  24.120  1.00  0.00     0.000 C 
BRANCH   9  10
ATOM     10  C   UNL     1      19.126   5.043  24.489  1.00  0.00    -0.000 C 
BRANCH  10  11
ATOM     11  C   UNL     1      19.880   3.739  24.781  1.00  0.00    -0.000 C 
BRANCH  11  12
ATOM     12  C   UNL     1      21.263   3.743  24.110  1.00  0.00    -0.000 C 
BRANCH  12  13
ATOM     13  C   UNL     1      21.620   2.384  23.489  1.00  0.00    -0.003 C 
ATOM     14  C   UNL     1      21.228   1.206  24.377  1.00  0.00     0.004 C 
ENDBRANCH  12  13
ENDBRANCH  11  12
ENDBRANCH  10  11
ENDBRANCH   9  10
ENDBRANCH   1   9
TORSDOF 10
ENDMDL
MODEL 8
REMARK VINA RESULT:    -3.282      2.608      4.756
REMARK INTER + INTRA:          -6.591
REMARK INTER:                  -5.055
REMARK INTRA:                  -1.537
REMARK UNBOUND:                -1.391
REMARK SMILES CCCCCCCCCCCC(=O)[O-]
REMARK SMILES IDX 7 1 8 2 9 3 10 4 11 5 12 6 13 7 14 8 6 9 5 10 4 11 3 12 2 13
REMARK SMILES IDX 1 14
REMARK H PARENT
REMARK Flexibility Score: inf
ROOT
ATOM      1  C   UNL     1      19.744   1.931  26.768  1.00  0.00     0.000 C 
ENDROOT
BRANCH   1   2
ATOM      2  C   UNL     1      19.251   3.387  26.843  1.00  0.00     0.000 C 
BRANCH   2   3
ATOM      3  C   UNL     1      19.027   4.006  25.452  1.00  0.00     0.000 C 
BRANCH   3   4
ATOM      4  C   UNL     1      19.276   5.521  25.429  1.00  0.00     0.006 C 
BRANCH   4   5
ATOM      5  C   UNL     1      19.988   5.938  24.138  1.00  0.00     0.053 C 
BRANCH   5   6
ATOM      6  C   UNL     1      20.176   7.422  24.100  1.00  0.00     0.041 C 
ATOM      7  O   UNL     1      20.779   8.010  25.036  1.00  0.00    -0.550 OA
ATOM      8  O   UNL     1      19.641   8.164  23.054  1.00  0.00    -0.550 OA
ENDBRANCH   5   6
ENDBRANCH   4   5
ENDBRANCH   3   4
ENDBRANCH   2   3
ENDBRANCH   1   2
BRANCH   1   9
ATOM      9  C   UNL     1      19.838   1.414  25.323  1.00  0.00     0.000 C 
BRANCH   9  10
ATOM     10  C   UNL     1      21.283   1.118  24.891  1.00  0.00    -0.000 C 
BRANCH  10  11
ATOM     11  C   UNL     1      21.680   1.975  23.682  1.00  0.00    -0.000 C 
BRANCH  11  12
ATOM     12  C   UNL     1      22.354   3.280  24.132  1.00  0.00    -0.000 C 
BRANCH  12  13
ATOM     13  C   UNL     1      23.110   3.125  25.461  1.00  0.00    -0.003 C 
ATOM     14  C   UNL     1      22.841   4.272  26.432  1.00  0.00     0.004 C 
ENDBRANCH  12  13
ENDBRANCH  11  12
ENDBRANCH  10  11
ENDBRANCH   9  10
ENDBRANCH   1   9
TORSDOF 10
ENDMDL
MODEL 9
REMARK VINA RESULT:    -3.262      2.880      4.156
REMARK INTER + INTRA:          -6.561
REMARK INTER:                  -4.838
REMARK INTRA:                  -1.723
REMARK UNBOUND:                -1.391
REMARK SMILES CCCCCCCCCCCC(=O)[O-]
REMARK SMILES IDX 7 1 8 2 9 3 10 4 11 5 12 6 13 7 14 8 6 9 5 10 4 11 3 12 2 13
REMARK SMILES IDX 1 14
REMARK H PARENT
REMARK Flexibility Score: inf
ROOT
ATOM      1  C   UNL     1      22.907   3.058  25.962  1.00  0.00     0.000 C 
ENDROOT
BRANCH   1   2
ATOM      2  C   UNL     1      22.651   2.997  24.445  1.00  0.00     0.000 C 
BRANCH   2   3
ATOM      3  C   UNL     1      21.292   2.365  24.101  1.00  0.00     0.000 C 
BRANCH   3   4
ATOM      4  C   UNL     1      20.838   1.330  25.141  1.00  0.00     0.006 C 
BRANCH   4   5
ATOM      5  C   UNL     1      19.518   1.753  25.793  1.00  0.00     0.053 C 
BRANCH   5   6
ATOM      6  C   UNL     1      19.423   1.211  27.185  1.00  0.00     0.041 C 
ATOM      7  O   UNL     1      20.420   1.255  27.952  1.00  0.00    -0.550 OA
ATOM      8  O   UNL     1      18.248   0.610  27.618  1.00  0.00    -0.550 OA
ENDBRANCH   5   6
ENDBRANCH   4   5
ENDBRANCH   3   4
ENDBRANCH   2   3
ENDBRANCH   1   2
BRANCH   1   9
ATOM      9  C   UNL     1      22.682   4.465  26.541  1.00  0.00     0.000 C 
BRANCH   9  10
ATOM     10  C   UNL     1      21.432   4.548  27.430  1.00  0.00    -0.000 C 
BRANCH  10  11
ATOM     11  C   UNL     1      20.298   5.292  26.712  1.00  0.00    -0.000 C 
BRANCH  11  12
ATOM     12  C   UNL     1      20.856   6.247  25.646  1.00  0.00    -0.000 C 
BRANCH  12  13
ATOM     13  C   UNL     1      20.150   6.095  24.290  1.00  0.00    -0.003 C 
ATOM     14  C   UNL     1      18.955   5.146  24.349  1.00  0.00     0.004 C 
ENDBRANCH  12  13
ENDBRANCH  11  12
ENDBRANCH  10  11
ENDBRANCH   9  10
ENDBRANCH   1   9
TORSDOF 10
ENDMDL
