MODEL 1
REMARK VINA RESULT:    -7.232      0.000      0.000
REMARK INTER + INTRA:          -8.764
REMARK INTER:                  -8.500
REMARK INTRA:                  -0.264
REMARK UNBOUND:                -0.264
REMARK SMILES O=c1cc(-c2ccc(O)c(O)c2)oc2cc(O)cc(O)c12
REMARK SMILES IDX 4 1 3 2 2 3 1 4 21 5 19 6 18 7 16 8 15 9 14 10 13 11 5 12
REMARK SMILES IDX 6 13 7 14 8 15 12 16 10 17 9 18 11 20 20 22 17 24
REMARK H PARENT 9 19 11 21 20 23 17 25
REMARK Flexibility Score: inf
ROOT
ATOM      1  C   UNL     1     -36.580  -8.794  21.896  1.00  0.00     0.138 A 
ATOM      2  C   UNL     1     -37.700  -9.014  22.710  1.00  0.00     0.100 A 
ATOM      3  C   UNL     1     -38.972  -8.688  22.237  1.00  0.00     0.197 A 
ATOM      4  O   UNL     1     -39.950  -8.839  23.014  1.00  0.00    -0.289 OA
ATOM      5  C   UNL     1     -39.125  -8.169  20.930  1.00  0.00     0.107 A 
ATOM      6  C   UNL     1     -40.376  -7.840  20.327  1.00  0.00     0.134 A 
ATOM      7  C   UNL     1     -40.395  -7.223  19.070  1.00  0.00     0.093 A 
ATOM      8  C   UNL     1     -39.215  -6.980  18.368  1.00  0.00     0.123 A 
ATOM      9  C   UNL     1     -37.989  -7.347  18.925  1.00  0.00     0.094 A 
ATOM     10  C   UNL     1     -37.934  -7.932  20.193  1.00  0.00     0.146 A 
ATOM     11  O   UNL     1     -36.747  -8.254  20.693  1.00  0.00    -0.456 OA
ENDROOT
BRANCH   1  12
ATOM     12  C   UNL     1     -35.206  -9.122  22.348  1.00  0.00     0.021 A 
ATOM     13  C   UNL     1     -34.442  -8.145  23.010  1.00  0.00     0.016 A 
ATOM     14  C   UNL     1     -33.144  -8.426  23.439  1.00  0.00     0.051 A 
ATOM     15  C   UNL     1     -32.580  -9.687  23.205  1.00  0.00     0.157 A 
ATOM     16  C   UNL     1     -34.627 -10.384  22.105  1.00  0.00     0.062 A 
ATOM     17  C   UNL     1     -33.322 -10.665  22.534  1.00  0.00     0.158 A 
BRANCH  15  18
ATOM     18  O   UNL     1     -31.285  -9.972  23.632  1.00  0.00    -0.504 OA
ATOM     19  H   UNL     1     -31.085 -10.212  24.597  1.00  0.00     0.293 HD
ENDBRANCH  15  18
BRANCH  17  20
ATOM     20  O   UNL     1     -32.755 -11.916  22.293  1.00  0.00    -0.504 OA
ATOM     21  H   UNL     1     -32.209 -12.100  21.459  1.00  0.00     0.293 HD
ENDBRANCH  17  20
ENDBRANCH   1  12
BRANCH   6  22
ATOM     22  O   UNL     1     -41.618  -8.118  20.905  1.00  0.00    -0.507 OA
ATOM     23  H   UNL     1     -42.133  -8.976  20.780  1.00  0.00     0.293 HD
ENDBRANCH   6  22
BRANCH   8  24
ATOM     24  O   UNL     1     -39.274  -6.379  17.114  1.00  0.00    -0.508 OA
ATOM     25  H   UNL     1     -39.277  -5.371  17.007  1.00  0.00     0.293 HD
ENDBRANCH   8  24
TORSDOF 5
ENDMDL
MODEL 2
REMARK VINA RESULT:    -7.065      1.463      7.130
REMARK INTER + INTRA:          -8.568
REMARK INTER:                  -8.304
REMARK INTRA:                  -0.264
REMARK UNBOUND:                -0.264
REMARK SMILES O=c1cc(-c2ccc(O)c(O)c2)oc2cc(O)cc(O)c12
REMARK SMILES IDX 4 1 3 2 2 3 1 4 21 5 19 6 18 7 16 8 15 9 14 10 13 11 5 12
REMARK SMILES IDX 6 13 7 14 8 15 12 16 10 17 9 18 11 20 20 22 17 24
REMARK H PARENT 9 19 11 21 20 23 17 25
REMARK Flexibility Score: inf
ROOT
ATOM      1  C   UNL     1     -36.809  -9.388  21.875  1.00  0.00     0.138 A 
ATOM      2  C   UNL     1     -36.423 -10.665  21.445  1.00  0.00     0.100 A 
ATOM      3  C   UNL     1     -35.125 -11.114  21.691  1.00  0.00     0.197 A 
ATOM      4  O   UNL     1     -34.790 -12.239  21.238  1.00  0.00    -0.289 OA
ATOM      5  C   UNL     1     -34.218 -10.291  22.400  1.00  0.00     0.107 A 
ATOM      6  C   UNL     1     -32.884 -10.660  22.743  1.00  0.00     0.134 A 
ATOM      7  C   UNL     1     -32.041  -9.717  23.344  1.00  0.00     0.093 A 
ATOM      8  C   UNL     1     -32.500  -8.441  23.669  1.00  0.00     0.123 A 
ATOM      9  C   UNL     1     -33.820  -8.088  23.386  1.00  0.00     0.094 A 
ATOM     10  C   UNL     1     -34.676  -8.994  22.755  1.00  0.00     0.146 A 
ATOM     11  O   UNL     1     -35.921  -8.614  22.490  1.00  0.00    -0.456 OA
ENDROOT
BRANCH   1  12
ATOM     12  C   UNL     1     -38.176  -8.861  21.640  1.00  0.00     0.021 A 
ATOM     13  C   UNL     1     -39.050  -8.694  22.728  1.00  0.00     0.016 A 
ATOM     14  C   UNL     1     -40.344  -8.207  22.532  1.00  0.00     0.051 A 
ATOM     15  C   UNL     1     -40.792  -7.889  21.244  1.00  0.00     0.157 A 
ATOM     16  C   UNL     1     -38.638  -8.551  20.345  1.00  0.00     0.062 A 
ATOM     17  C   UNL     1     -39.938  -8.065  20.149  1.00  0.00     0.158 A 
BRANCH  15  18
ATOM     18  O   UNL     1     -42.082  -7.402  21.045  1.00  0.00    -0.504 OA
ATOM     19  H   UNL     1     -42.269  -6.408  20.972  1.00  0.00     0.293 HD
ENDBRANCH  15  18
BRANCH  17  20
ATOM     20  O   UNL     1     -40.390  -7.757  18.867  1.00  0.00    -0.504 OA
ATOM     21  H   UNL     1     -39.817  -7.923  18.048  1.00  0.00     0.293 HD
ENDBRANCH  17  20
ENDBRANCH   1  12
BRANCH   6  22
ATOM     22  O   UNL     1     -32.349 -11.936  22.542  1.00  0.00    -0.507 OA
ATOM     23  H   UNL     1     -32.893 -12.773  22.400  1.00  0.00     0.293 HD
ENDBRANCH   6  22
BRANCH   8  24
ATOM     24  O   UNL     1     -31.638  -7.535  24.280  1.00  0.00    -0.508 OA
ATOM     25  H   UNL     1     -30.666  -7.457  24.002  1.00  0.00     0.293 HD
ENDBRANCH   8  24
TORSDOF 5
ENDMDL
MODEL 3
REMARK VINA RESULT:    -7.046      2.815      7.930
REMARK INTER + INTRA:          -8.545
REMARK INTER:                  -8.227
REMARK INTRA:                  -0.318
REMARK UNBOUND:                -0.264
REMARK SMILES O=c1cc(-c2ccc(O)c(O)c2)oc2cc(O)cc(O)c12
REMARK SMILES IDX 4 1 3 2 2 3 1 4 21 5 19 6 18 7 16 8 15 9 14 10 13 11 5 12
REMARK SMILES IDX 6 13 7 14 8 15 12 16 10 17 9 18 11 20 20 22 17 24
REMARK H PARENT 9 19 11 21 20 23 17 25
REMARK Flexibility Score: inf
ROOT
ATOM      1  C   UNL     1     -33.758  -9.463  22.508  1.00  0.00     0.138 A 
ATOM      2  C   UNL     1     -33.450  -8.103  22.652  1.00  0.00     0.100 A 
ATOM      3  C   UNL     1     -32.167  -7.724  23.047  1.00  0.00     0.197 A 
ATOM      4  O   UNL     1     -31.939  -6.500  23.228  1.00  0.00    -0.289 OA
ATOM      5  C   UNL     1     -31.178  -8.711  23.269  1.00  0.00     0.107 A 
ATOM      6  C   UNL     1     -29.827  -8.440  23.635  1.00  0.00     0.134 A 
ATOM      7  C   UNL     1     -28.968  -9.503  23.942  1.00  0.00     0.093 A 
ATOM      8  C   UNL     1     -29.394 -10.827  23.837  1.00  0.00     0.123 A 
ATOM      9  C   UNL     1     -30.699 -11.105  23.428  1.00  0.00     0.094 A 
ATOM     10  C   UNL     1     -31.589 -10.066  23.149  1.00  0.00     0.146 A 
ATOM     11  O   UNL     1     -32.827 -10.372  22.775  1.00  0.00    -0.456 OA
ENDROOT
BRANCH   1  12
ATOM     12  C   UNL     1     -35.106  -9.921  22.090  1.00  0.00     0.021 A 
ATOM     13  C   UNL     1     -36.136  -8.980  21.920  1.00  0.00     0.016 A 
ATOM     14  C   UNL     1     -37.415  -9.387  21.535  1.00  0.00     0.051 A 
ATOM     15  C   UNL     1     -37.691 -10.744  21.322  1.00  0.00     0.157 A 
ATOM     16  C   UNL     1     -35.394 -11.286  21.886  1.00  0.00     0.062 A 
ATOM     17  C   UNL     1     -36.680 -11.694  21.501  1.00  0.00     0.158 A 
BRANCH  15  18
ATOM     18  O   UNL     1     -38.965 -11.153  20.936  1.00  0.00    -0.504 OA
ATOM     19  H   UNL     1     -39.212 -12.136  20.877  1.00  0.00     0.293 HD
ENDBRANCH  15  18
BRANCH  17  20
ATOM     20  O   UNL     1     -36.960 -13.045  21.298  1.00  0.00    -0.504 OA
ATOM     21  H   UNL     1     -36.243 -13.697  21.000  1.00  0.00     0.293 HD
ENDBRANCH  17  20
ENDBRANCH   1  12
BRANCH   6  22
ATOM     22  O   UNL     1     -29.274  -7.157  23.687  1.00  0.00    -0.507 OA
ATOM     23  H   UNL     1     -29.789  -6.315  23.890  1.00  0.00     0.293 HD
ENDBRANCH   6  22
BRANCH   8  24
ATOM     24  O   UNL     1     -28.508 -11.859  24.135  1.00  0.00    -0.508 OA
ATOM     25  H   UNL     1     -28.748 -12.592  24.794  1.00  0.00     0.293 HD
ENDBRANCH   8  24
TORSDOF 5
ENDMDL
MODEL 4
REMARK VINA RESULT:    -6.880      2.370      4.215
REMARK INTER + INTRA:          -8.350
REMARK INTER:                  -8.073
REMARK INTRA:                  -0.277
REMARK UNBOUND:                -0.264
REMARK SMILES O=c1cc(-c2ccc(O)c(O)c2)oc2cc(O)cc(O)c12
REMARK SMILES IDX 4 1 3 2 2 3 1 4 21 5 19 6 18 7 16 8 15 9 14 10 13 11 5 12
REMARK SMILES IDX 6 13 7 14 8 15 12 16 10 17 9 18 11 20 20 22 17 24
REMARK H PARENT 9 19 11 21 20 23 17 25
REMARK Flexibility Score: inf
ROOT
ATOM      1  C   UNL     1     -33.183  -9.263  22.014  1.00  0.00     0.138 A 
ATOM      2  C   UNL     1     -33.237  -8.044  21.325  1.00  0.00     0.100 A 
ATOM      3  C   UNL     1     -34.432  -7.641  20.728  1.00  0.00     0.197 A 
ATOM      4  O   UNL     1     -34.433  -6.572  20.064  1.00  0.00    -0.289 OA
ATOM      5  C   UNL     1     -35.587  -8.449  20.849  1.00  0.00     0.107 A 
ATOM      6  C   UNL     1     -36.869  -8.120  20.317  1.00  0.00     0.134 A 
ATOM      7  C   UNL     1     -37.910  -9.053  20.399  1.00  0.00     0.093 A 
ATOM      8  C   UNL     1     -37.734 -10.275  21.046  1.00  0.00     0.123 A 
ATOM      9  C   UNL     1     -36.499 -10.585  21.618  1.00  0.00     0.094 A 
ATOM     10  C   UNL     1     -35.431  -9.691  21.522  1.00  0.00     0.146 A 
ATOM     11  O   UNL     1     -34.267 -10.029  22.067  1.00  0.00    -0.456 OA
ENDROOT
BRANCH   1  12
ATOM     12  C   UNL     1     -31.939  -9.740  22.668  1.00  0.00     0.021 A 
ATOM     13  C   UNL     1     -31.999 -10.271  23.968  1.00  0.00     0.016 A 
ATOM     14  C   UNL     1     -30.841 -10.718  24.608  1.00  0.00     0.051 A 
ATOM     15  C   UNL     1     -29.600 -10.634  23.963  1.00  0.00     0.157 A 
ATOM     16  C   UNL     1     -30.685  -9.646  22.031  1.00  0.00     0.062 A 
ATOM     17  C   UNL     1     -29.522 -10.094  22.675  1.00  0.00     0.158 A 
BRANCH  15  18
ATOM     18  O   UNL     1     -28.443 -11.081  24.598  1.00  0.00    -0.504 OA
ATOM     19  H   UNL     1     -28.263 -12.069  24.738  1.00  0.00     0.293 HD
ENDBRANCH  15  18
BRANCH  17  20
ATOM     20  O   UNL     1     -28.284 -10.001  22.040  1.00  0.00    -0.504 OA
ATOM     21  H   UNL     1     -27.435  -9.810  22.558  1.00  0.00     0.293 HD
ENDBRANCH  17  20
ENDBRANCH   1  12
BRANCH   6  22
ATOM     22  O   UNL     1     -37.178  -6.892  19.726  1.00  0.00    -0.507 OA
ATOM     23  H   UNL     1     -38.078  -6.439  19.771  1.00  0.00     0.293 HD
ENDBRANCH   6  22
BRANCH   8  24
ATOM     24  O   UNL     1     -38.797 -11.172  21.122  1.00  0.00    -0.508 OA
ATOM     25  H   UNL     1     -38.990 -11.696  21.968  1.00  0.00     0.293 HD
ENDBRANCH   8  24
TORSDOF 5
ENDMDL
MODEL 5
REMARK VINA RESULT:    -6.859      2.669      3.730
REMARK INTER + INTRA:          -8.326
REMARK INTER:                  -8.019
REMARK INTRA:                  -0.306
REMARK UNBOUND:                -0.264
REMARK SMILES O=c1cc(-c2ccc(O)c(O)c2)oc2cc(O)cc(O)c12
REMARK SMILES IDX 4 1 3 2 2 3 1 4 21 5 19 6 18 7 16 8 15 9 14 10 13 11 5 12
REMARK SMILES IDX 6 13 7 14 8 15 12 16 10 17 9 18 11 20 20 22 17 24
REMARK H PARENT 9 19 11 21 20 23 17 25
REMARK Flexibility Score: inf
ROOT
ATOM      1  C   UNL     1     -34.472  -9.770  22.576  1.00  0.00     0.138 A 
ATOM      2  C   UNL     1     -35.047 -10.789  21.803  1.00  0.00     0.100 A 
ATOM      3  C   UNL     1     -36.420 -10.779  21.559  1.00  0.00     0.197 A 
ATOM      4  O   UNL     1     -36.916 -11.739  20.914  1.00  0.00    -0.289 OA
ATOM      5  C   UNL     1     -37.217  -9.725  22.065  1.00  0.00     0.107 A 
ATOM      6  C   UNL     1     -38.620  -9.589  21.845  1.00  0.00     0.134 A 
ATOM      7  C   UNL     1     -39.325  -8.567  22.494  1.00  0.00     0.093 A 
ATOM      8  C   UNL     1     -38.669  -7.642  23.305  1.00  0.00     0.123 A 
ATOM      9  C   UNL     1     -37.288  -7.733  23.484  1.00  0.00     0.094 A 
ATOM     10  C   UNL     1     -36.562  -8.762  22.879  1.00  0.00     0.146 A 
ATOM     11  O   UNL     1     -35.251  -8.823  23.085  1.00  0.00    -0.456 OA
ENDROOT
BRANCH   1  12
ATOM     12  C   UNL     1     -33.017  -9.732  22.866  1.00  0.00     0.021 A 
ATOM     13  C   UNL     1     -32.291 -10.934  22.923  1.00  0.00     0.016 A 
ATOM     14  C   UNL     1     -30.922 -10.926  23.202  1.00  0.00     0.051 A 
ATOM     15  C   UNL     1     -30.257  -9.717  23.439  1.00  0.00     0.157 A 
ATOM     16  C   UNL     1     -32.343  -8.520  23.119  1.00  0.00     0.062 A 
ATOM     17  C   UNL     1     -30.970  -8.513  23.401  1.00  0.00     0.158 A 
BRANCH  15  18
ATOM     18  O   UNL     1     -28.892  -9.704  23.717  1.00  0.00    -0.504 OA
ATOM     19  H   UNL     1     -28.535  -9.940  24.636  1.00  0.00     0.293 HD
ENDBRANCH  15  18
BRANCH  17  20
ATOM     20  O   UNL     1     -30.307  -7.312  23.648  1.00  0.00    -0.504 OA
ATOM     21  H   UNL     1     -29.300  -7.234  23.567  1.00  0.00     0.293 HD
ENDBRANCH  17  20
ENDBRANCH   1  12
BRANCH   6  22
ATOM     22  O   UNL     1     -39.359 -10.408  20.986  1.00  0.00    -0.507 OA
ATOM     23  H   UNL     1     -40.176 -10.935  21.253  1.00  0.00     0.293 HD
ENDBRANCH   6  22
BRANCH   8  24
ATOM     24  O   UNL     1     -39.399  -6.630  23.922  1.00  0.00    -0.508 OA
ATOM     25  H   UNL     1     -40.318  -6.360  23.590  1.00  0.00     0.293 HD
ENDBRANCH   8  24
TORSDOF 5
ENDMDL
MODEL 6
REMARK VINA RESULT:    -6.720      1.452      1.609
REMARK INTER + INTRA:          -8.162
REMARK INTER:                  -7.882
REMARK INTRA:                  -0.280
REMARK UNBOUND:                -0.264
REMARK SMILES O=c1cc(-c2ccc(O)c(O)c2)oc2cc(O)cc(O)c12
REMARK SMILES IDX 4 1 3 2 2 3 1 4 21 5 19 6 18 7 16 8 15 9 14 10 13 11 5 12
REMARK SMILES IDX 6 13 7 14 8 15 12 16 10 17 9 18 11 20 20 22 17 24
REMARK H PARENT 9 19 11 21 20 23 17 25
REMARK Flexibility Score: inf
ROOT
ATOM      1  C   UNL     1     -35.742  -8.680  21.381  1.00  0.00     0.138 A 
ATOM      2  C   UNL     1     -36.847  -9.542  21.336  1.00  0.00     0.100 A 
ATOM      3  C   UNL     1     -37.971  -9.184  20.592  1.00  0.00     0.197 A 
ATOM      4  O   UNL     1     -38.970  -9.948  20.621  1.00  0.00    -0.289 OA
ATOM      5  C   UNL     1     -37.977  -7.971  19.863  1.00  0.00     0.107 A 
ATOM      6  C   UNL     1     -39.050  -7.522  19.038  1.00  0.00     0.134 A 
ATOM      7  C   UNL     1     -38.990  -6.249  18.458  1.00  0.00     0.093 A 
ATOM      8  C   UNL     1     -37.871  -5.434  18.623  1.00  0.00     0.123 A 
ATOM      9  C   UNL     1     -36.792  -5.885  19.384  1.00  0.00     0.094 A 
ATOM     10  C   UNL     1     -36.836  -7.136  20.005  1.00  0.00     0.146 A 
ATOM     11  O   UNL     1     -35.794  -7.522  20.732  1.00  0.00    -0.456 OA
ENDROOT
BRANCH   1  12
ATOM     12  C   UNL     1     -34.521  -9.012  22.156  1.00  0.00     0.021 A 
ATOM     13  C   UNL     1     -33.888  -8.010  22.913  1.00  0.00     0.016 A 
ATOM     14  C   UNL     1     -32.733  -8.294  23.645  1.00  0.00     0.051 A 
ATOM     15  C   UNL     1     -32.184  -9.583  23.625  1.00  0.00     0.157 A 
ATOM     16  C   UNL     1     -33.955 -10.302  22.131  1.00  0.00     0.062 A 
ATOM     17  C   UNL     1     -32.794 -10.586  22.865  1.00  0.00     0.158 A 
BRANCH  15  18
ATOM     18  O   UNL     1     -31.032  -9.871  24.355  1.00  0.00    -0.504 OA
ATOM     19  H   UNL     1     -30.291 -10.448  23.972  1.00  0.00     0.293 HD
ENDBRANCH  15  18
BRANCH  17  20
ATOM     20  O   UNL     1     -32.239 -11.865  22.839  1.00  0.00    -0.504 OA
ATOM     21  H   UNL     1     -32.773 -12.681  23.115  1.00  0.00     0.293 HD
ENDBRANCH  17  20
ENDBRANCH   1  12
BRANCH   6  22
ATOM     22  O   UNL     1     -40.178  -8.292  18.737  1.00  0.00    -0.507 OA
ATOM     23  H   UNL     1     -40.473  -9.108  19.251  1.00  0.00     0.293 HD
ENDBRANCH   6  22
BRANCH   8  24
ATOM     24  O   UNL     1     -37.839  -4.180  18.019  1.00  0.00    -0.508 OA
ATOM     25  H   UNL     1     -36.964  -3.722  17.792  1.00  0.00     0.293 HD
ENDBRANCH   8  24
TORSDOF 5
ENDMDL
MODEL 7
REMARK VINA RESULT:    -6.670      1.580      7.197
REMARK INTER + INTRA:          -8.104
REMARK INTER:                  -7.839
REMARK INTRA:                  -0.264
REMARK UNBOUND:                -0.264
REMARK SMILES O=c1cc(-c2ccc(O)c(O)c2)oc2cc(O)cc(O)c12
REMARK SMILES IDX 4 1 3 2 2 3 1 4 21 5 19 6 18 7 16 8 15 9 14 10 13 11 5 12
REMARK SMILES IDX 6 13 7 14 8 15 12 16 10 17 9 18 11 20 20 22 17 24
REMARK H PARENT 9 19 11 21 20 23 17 25
REMARK Flexibility Score: inf
ROOT
ATOM      1  C   UNL     1     -36.381  -8.023  21.912  1.00  0.00     0.138 A 
ATOM      2  C   UNL     1     -35.632  -6.856  22.116  1.00  0.00     0.100 A 
ATOM      3  C   UNL     1     -34.268  -6.950  22.395  1.00  0.00     0.197 A 
ATOM      4  O   UNL     1     -33.636  -5.889  22.634  1.00  0.00    -0.289 OA
ATOM      5  C   UNL     1     -33.645  -8.220  22.439  1.00  0.00     0.107 A 
ATOM      6  C   UNL     1     -32.255  -8.436  22.674  1.00  0.00     0.134 A 
ATOM      7  C   UNL     1     -31.773  -9.743  22.810  1.00  0.00     0.093 A 
ATOM      8  C   UNL     1     -32.617 -10.843  22.661  1.00  0.00     0.123 A 
ATOM      9  C   UNL     1     -33.969 -10.644  22.377  1.00  0.00     0.094 A 
ATOM     10  C   UNL     1     -34.487  -9.351  22.270  1.00  0.00     0.146 A 
ATOM     11  O   UNL     1     -35.783  -9.205  22.013  1.00  0.00    -0.456 OA
ENDROOT
BRANCH   1  12
ATOM     12  C   UNL     1     -37.834  -7.980  21.612  1.00  0.00     0.021 A 
ATOM     13  C   UNL     1     -38.761  -8.149  22.654  1.00  0.00     0.016 A 
ATOM     14  C   UNL     1     -40.133  -8.121  22.396  1.00  0.00     0.051 A 
ATOM     15  C   UNL     1     -40.603  -7.933  21.090  1.00  0.00     0.157 A 
ATOM     16  C   UNL     1     -38.314  -7.805  20.298  1.00  0.00     0.062 A 
ATOM     17  C   UNL     1     -39.692  -7.778  20.040  1.00  0.00     0.158 A 
BRANCH  15  18
ATOM     18  O   UNL     1     -41.972  -7.903  20.830  1.00  0.00    -0.504 OA
ATOM     19  H   UNL     1     -42.603  -7.325  21.374  1.00  0.00     0.293 HD
ENDBRANCH  15  18
BRANCH  17  20
ATOM     20  O   UNL     1     -40.163  -7.602  18.740  1.00  0.00    -0.504 OA
ATOM     21  H   UNL     1     -40.214  -6.684  18.313  1.00  0.00     0.293 HD
ENDBRANCH  17  20
ENDBRANCH   1  12
BRANCH   6  22
ATOM     22  O   UNL     1     -31.308  -7.410  22.754  1.00  0.00    -0.507 OA
ATOM     23  H   UNL     1     -30.321  -7.521  22.578  1.00  0.00     0.293 HD
ENDBRANCH   6  22
BRANCH   8  24
ATOM     24  O   UNL     1     -32.099 -12.129  22.788  1.00  0.00    -0.508 OA
ATOM     25  H   UNL     1     -31.653 -12.439  23.644  1.00  0.00     0.293 HD
ENDBRANCH   8  24
TORSDOF 5
ENDMDL
MODEL 8
REMARK VINA RESULT:    -6.597      2.684      7.595
REMARK INTER + INTRA:          -8.018
REMARK INTER:                  -7.721
REMARK INTRA:                  -0.297
REMARK UNBOUND:                -0.264
REMARK SMILES O=c1cc(-c2ccc(O)c(O)c2)oc2cc(O)cc(O)c12
REMARK SMILES IDX 4 1 3 2 2 3 1 4 21 5 19 6 18 7 16 8 15 9 14 10 13 11 5 12
REMARK SMILES IDX 6 13 7 14 8 15 12 16 10 17 9 18 11 20 20 22 17 24
REMARK H PARENT 9 19 11 21 20 23 17 25
REMARK Flexibility Score: inf
ROOT
ATOM      1  C   UNL     1     -33.690  -9.707  22.401  1.00  0.00     0.138 A 
ATOM      2  C   UNL     1     -32.778 -10.744  22.638  1.00  0.00     0.100 A 
ATOM      3  C   UNL     1     -31.485 -10.442  23.065  1.00  0.00     0.197 A 
ATOM      4  O   UNL     1     -30.670 -11.390  23.210  1.00  0.00    -0.289 OA
ATOM      5  C   UNL     1     -31.114  -9.094  23.287  1.00  0.00     0.107 A 
ATOM      6  C   UNL     1     -29.837  -8.670  23.761  1.00  0.00     0.134 A 
ATOM      7  C   UNL     1     -29.547  -7.302  23.831  1.00  0.00     0.093 A 
ATOM      8  C   UNL     1     -30.505  -6.344  23.503  1.00  0.00     0.123 A 
ATOM      9  C   UNL     1     -31.775  -6.747  23.089  1.00  0.00     0.094 A 
ATOM     10  C   UNL     1     -32.084  -8.105  22.975  1.00  0.00     0.146 A 
ATOM     11  O   UNL     1     -33.300  -8.448  22.564  1.00  0.00    -0.456 OA
ENDROOT
BRANCH   1  12
ATOM     12  C   UNL     1     -35.078  -9.973  21.946  1.00  0.00     0.021 A 
ATOM     13  C   UNL     1     -35.924  -8.893  21.638  1.00  0.00     0.016 A 
ATOM     14  C   UNL     1     -37.236  -9.116  21.216  1.00  0.00     0.051 A 
ATOM     15  C   UNL     1     -37.730 -10.422  21.102  1.00  0.00     0.157 A 
ATOM     16  C   UNL     1     -35.585 -11.283  21.842  1.00  0.00     0.062 A 
ATOM     17  C   UNL     1     -36.904 -11.506  21.419  1.00  0.00     0.158 A 
BRANCH  15  18
ATOM     18  O   UNL     1     -39.038 -10.649  20.680  1.00  0.00    -0.504 OA
ATOM     19  H   UNL     1     -39.833 -10.405  21.260  1.00  0.00     0.293 HD
ENDBRANCH  15  18
BRANCH  17  20
ATOM     20  O   UNL     1     -37.401 -12.805  21.315  1.00  0.00    -0.504 OA
ATOM     21  H   UNL     1     -37.494 -13.405  22.127  1.00  0.00     0.293 HD
ENDBRANCH  17  20
ENDBRANCH   1  12
BRANCH   6  22
ATOM     22  O   UNL     1     -28.836  -9.543  24.197  1.00  0.00    -0.507 OA
ATOM     23  H   UNL     1     -28.732 -10.499  23.893  1.00  0.00     0.293 HD
ENDBRANCH   6  22
BRANCH   8  24
ATOM     24  O   UNL     1     -30.186  -4.992  23.599  1.00  0.00    -0.508 OA
ATOM     25  H   UNL     1     -30.856  -4.310  23.936  1.00  0.00     0.293 HD
ENDBRANCH   8  24
TORSDOF 5
ENDMDL
MODEL 9
REMARK VINA RESULT:    -6.324      2.584      3.726
REMARK INTER + INTRA:          -7.697
REMARK INTER:                  -7.408
REMARK INTRA:                  -0.289
REMARK UNBOUND:                -0.264
REMARK SMILES O=c1cc(-c2ccc(O)c(O)c2)oc2cc(O)cc(O)c12
REMARK SMILES IDX 4 1 3 2 2 3 1 4 21 5 19 6 18 7 16 8 15 9 14 10 13 11 5 12
REMARK SMILES IDX 6 13 7 14 8 15 12 16 10 17 9 18 11 20 20 22 17 24
REMARK H PARENT 9 19 11 21 20 23 17 25
REMARK Flexibility Score: inf
ROOT
ATOM      1  C   UNL     1     -34.103  -8.836  23.140  1.00  0.00     0.138 A 
ATOM      2  C   UNL     1     -34.516  -7.650  23.763  1.00  0.00     0.100 A 
ATOM      3  C   UNL     1     -35.855  -7.265  23.697  1.00  0.00     0.197 A 
ATOM      4  O   UNL     1     -36.183  -6.165  24.212  1.00  0.00    -0.289 OA
ATOM      5  C   UNL     1     -36.792  -8.089  23.030  1.00  0.00     0.107 A 
ATOM      6  C   UNL     1     -38.189  -7.818  22.934  1.00  0.00     0.134 A 
ATOM      7  C   UNL     1     -39.000  -8.646  22.148  1.00  0.00     0.093 A 
ATOM      8  C   UNL     1     -38.477  -9.768  21.506  1.00  0.00     0.123 A 
ATOM      9  C   UNL     1     -37.122 -10.073  21.637  1.00  0.00     0.094 A 
ATOM     10  C   UNL     1     -36.280  -9.246  22.385  1.00  0.00     0.146 A 
ATOM     11  O   UNL     1     -34.993  -9.563  22.473  1.00  0.00    -0.456 OA
ENDROOT
BRANCH   1  12
ATOM     12  C   UNL     1     -32.691  -9.292  23.179  1.00  0.00     0.021 A 
ATOM     13  C   UNL     1     -32.404 -10.664  23.072  1.00  0.00     0.016 A 
ATOM     14  C   UNL     1     -31.085 -11.120  23.114  1.00  0.00     0.051 A 
ATOM     15  C   UNL     1     -30.029 -10.213  23.275  1.00  0.00     0.157 A 
ATOM     16  C   UNL     1     -31.625  -8.387  23.353  1.00  0.00     0.062 A 
ATOM     17  C   UNL     1     -30.300  -8.846  23.397  1.00  0.00     0.158 A 
BRANCH  15  18
ATOM     18  O   UNL     1     -28.711 -10.664  23.316  1.00  0.00    -0.504 OA
ATOM     19  H   UNL     1     -28.067 -10.353  24.035  1.00  0.00     0.293 HD
ENDBRANCH  15  18
BRANCH  17  20
ATOM     20  O   UNL     1     -29.248  -7.947  23.567  1.00  0.00    -0.504 OA
ATOM     21  H   UNL     1     -29.170  -7.372  24.398  1.00  0.00     0.293 HD
ENDBRANCH  17  20
ENDBRANCH   1  12
BRANCH   6  22
ATOM     22  O   UNL     1     -38.830  -6.773  23.605  1.00  0.00    -0.507 OA
ATOM     23  H   UNL     1     -39.606  -6.242  23.239  1.00  0.00     0.293 HD
ENDBRANCH   6  22
BRANCH   8  24
ATOM     24  O   UNL     1     -39.317 -10.578  20.745  1.00  0.00    -0.508 OA
ATOM     25  H   UNL     1     -39.766 -11.397  21.140  1.00  0.00     0.293 HD
ENDBRANCH   8  24
TORSDOF 5
ENDMDL
