MODEL 1
REMARK VINA RESULT:    -5.098      0.000      0.000
REMARK INTER + INTRA:          -6.242
REMARK INTER:                  -5.992
REMARK INTRA:                  -0.251
REMARK UNBOUND:                -0.251
REMARK SMILES O=c1c(O)c(-c2ccc(O)cc2)oc2cc(O)cc(O)c12
REMARK SMILES IDX 5 1 3 2 2 3 1 4 21 5 19 6 18 7 16 8 15 9 14 10 13 11 6 12
REMARK SMILES IDX 7 13 8 14 9 15 12 16 11 17 10 18 4 20 20 22 17 24
REMARK H PARENT 10 19 4 21 20 23 17 25
REMARK Flexibility Score: inf
ROOT
ATOM      1  C   UNL     1     118.559 105.733 122.291  1.00  0.00     0.180 A 
ATOM      2  C   UNL     1     119.013 104.667 121.494  1.00  0.00     0.208 A 
ATOM      3  C   UNL     1     120.372 104.611 121.142  1.00  0.00     0.238 A 
ATOM      4  O   UNL     1     120.783 103.627 120.474  1.00  0.00    -0.285 OA
ATOM      5  C   UNL     1     121.255 105.630 121.576  1.00  0.00     0.111 A 
ATOM      6  C   UNL     1     122.641 105.695 121.245  1.00  0.00     0.134 A 
ATOM      7  C   UNL     1     123.448 106.675 121.837  1.00  0.00     0.093 A 
ATOM      8  C   UNL     1     122.905 107.630 122.696  1.00  0.00     0.123 A 
ATOM      9  C   UNL     1     121.540 107.612 122.980  1.00  0.00     0.094 A 
ATOM     10  C   UNL     1     120.716 106.625 122.433  1.00  0.00     0.146 A 
ATOM     11  O   UNL     1     119.424 106.636 122.736  1.00  0.00    -0.452 OA
ENDROOT
BRANCH   1  12
ATOM     12  C   UNL     1     117.138 105.873 122.682  1.00  0.00     0.021 A 
ATOM     13  C   UNL     1     116.584 105.099 123.719  1.00  0.00     0.016 A 
ATOM     14  C   UNL     1     115.233 105.231 124.054  1.00  0.00     0.047 A 
ATOM     15  C   UNL     1     114.417 106.127 123.350  1.00  0.00     0.115 A 
ATOM     16  C   UNL     1     116.306 106.753 121.968  1.00  0.00     0.016 A 
ATOM     17  C   UNL     1     114.956 106.883 122.306  1.00  0.00     0.047 A 
BRANCH  15  18
ATOM     18  O   UNL     1     113.070 106.267 123.677  1.00  0.00    -0.508 OA
ATOM     19  H   UNL     1     112.437 105.475 123.668  1.00  0.00     0.293 HD
ENDBRANCH  15  18
ENDBRANCH   1  12
BRANCH   2  20
ATOM     20  O   UNL     1     118.129 103.661 121.094  1.00  0.00    -0.502 OA
ATOM     21  H   UNL     1     118.445 102.750 120.786  1.00  0.00     0.293 HD
ENDBRANCH   2  20
BRANCH   6  22
ATOM     22  O   UNL     1     123.265 104.845 120.326  1.00  0.00    -0.507 OA
ATOM     23  H   UNL     1     122.886 103.968 120.006  1.00  0.00     0.293 HD
ENDBRANCH   6  22
BRANCH   8  24
ATOM     24  O   UNL     1     123.734 108.601 123.255  1.00  0.00    -0.508 OA
ATOM     25  H   UNL     1     123.355 109.428 123.700  1.00  0.00     0.293 HD
ENDBRANCH   8  24
TORSDOF 5
ENDMDL
MODEL 2
REMARK VINA RESULT:    -4.538      1.196      1.205
REMARK INTER + INTRA:          -5.585
REMARK INTER:                  -5.315
REMARK INTRA:                  -0.270
REMARK UNBOUND:                -0.251
REMARK SMILES O=c1c(O)c(-c2ccc(O)cc2)oc2cc(O)cc(O)c12
REMARK SMILES IDX 5 1 3 2 2 3 1 4 21 5 19 6 18 7 16 8 15 9 14 10 13 11 6 12
REMARK SMILES IDX 7 13 8 14 9 15 12 16 11 17 10 18 4 20 20 22 17 24
REMARK H PARENT 10 19 4 21 20 23 17 25
REMARK Flexibility Score: inf
ROOT
ATOM      1  C   UNL     1     118.926 106.590 121.784  1.00  0.00     0.180 A 
ATOM      2  C   UNL     1     119.399 105.878 120.668  1.00  0.00     0.208 A 
ATOM      3  C   UNL     1     120.750 106.005 120.302  1.00  0.00     0.238 A 
ATOM      4  O   UNL     1     121.180 105.323 119.335  1.00  0.00    -0.285 OA
ATOM      5  C   UNL     1     121.605 106.854 121.046  1.00  0.00     0.111 A 
ATOM      6  C   UNL     1     122.979 107.087 120.740  1.00  0.00     0.134 A 
ATOM      7  C   UNL     1     123.763 107.844 121.620  1.00  0.00     0.093 A 
ATOM      8  C   UNL     1     123.207 108.428 122.758  1.00  0.00     0.123 A 
ATOM      9  C   UNL     1     121.851 108.254 123.036  1.00  0.00     0.094 A 
ATOM     10  C   UNL     1     121.051 107.475 122.195  1.00  0.00     0.146 A 
ATOM     11  O   UNL     1     119.768 107.326 122.500  1.00  0.00    -0.452 OA
ENDROOT
BRANCH   1  12
ATOM     12  C   UNL     1     117.511 106.527 122.216  1.00  0.00     0.021 A 
ATOM     13  C   UNL     1     117.094 105.646 123.230  1.00  0.00     0.016 A 
ATOM     14  C   UNL     1     115.747 105.585 123.604  1.00  0.00     0.047 A 
ATOM     15  C   UNL     1     114.802 106.395 122.961  1.00  0.00     0.115 A 
ATOM     16  C   UNL     1     116.552 107.319 121.562  1.00  0.00     0.016 A 
ATOM     17  C   UNL     1     115.207 107.258 121.939  1.00  0.00     0.047 A 
BRANCH  15  18
ATOM     18  O   UNL     1     113.458 106.344 123.327  1.00  0.00    -0.508 OA
ATOM     19  H   UNL     1     113.171 106.039 124.250  1.00  0.00     0.293 HD
ENDBRANCH  15  18
ENDBRANCH   1  12
BRANCH   2  20
ATOM     20  O   UNL     1     118.544 105.029 119.961  1.00  0.00    -0.502 OA
ATOM     21  H   UNL     1     118.861 104.458 119.187  1.00  0.00     0.293 HD
ENDBRANCH   2  20
BRANCH   6  22
ATOM     22  O   UNL     1     123.610 106.627 119.581  1.00  0.00    -0.507 OA
ATOM     23  H   UNL     1     123.758 105.656 119.354  1.00  0.00     0.293 HD
ENDBRANCH   6  22
BRANCH   8  24
ATOM     24  O   UNL     1     124.013 109.187 123.604  1.00  0.00    -0.508 OA
ATOM     25  H   UNL     1     123.827 109.250 124.598  1.00  0.00     0.293 HD
ENDBRANCH   8  24
TORSDOF 5
ENDMDL
MODEL 3
REMARK VINA RESULT:    -4.480      1.622      6.444
REMARK INTER + INTRA:          -5.516
REMARK INTER:                  -5.457
REMARK INTRA:                  -0.060
REMARK UNBOUND:                -0.251
REMARK SMILES O=c1c(O)c(-c2ccc(O)cc2)oc2cc(O)cc(O)c12
REMARK SMILES IDX 5 1 3 2 2 3 1 4 21 5 19 6 18 7 16 8 15 9 14 10 13 11 6 12
REMARK SMILES IDX 7 13 8 14 9 15 12 16 11 17 10 18 4 20 20 22 17 24
REMARK H PARENT 10 19 4 21 20 23 17 25
REMARK Flexibility Score: inf
ROOT
ATOM      1  C   UNL     1     118.725 106.175 122.475  1.00  0.00     0.180 A 
ATOM      2  C   UNL     1     118.901 104.796 122.270  1.00  0.00     0.208 A 
ATOM      3  C   UNL     1     117.812 103.933 122.474  1.00  0.00     0.238 A 
ATOM      4  O   UNL     1     117.961 102.706 122.236  1.00  0.00    -0.285 OA
ATOM      5  C   UNL     1     116.566 104.458 122.896  1.00  0.00     0.111 A 
ATOM      6  C   UNL     1     115.408 103.672 123.172  1.00  0.00     0.134 A 
ATOM      7  C   UNL     1     114.193 104.308 123.456  1.00  0.00     0.093 A 
ATOM      8  C   UNL     1     114.111 105.697 123.540  1.00  0.00     0.123 A 
ATOM      9  C   UNL     1     115.251 106.474 123.330  1.00  0.00     0.094 A 
ATOM     10  C   UNL     1     116.469 105.869 123.009  1.00  0.00     0.146 A 
ATOM     11  O   UNL     1     117.528 106.644 122.807  1.00  0.00    -0.452 OA
ENDROOT
BRANCH   1  12
ATOM     12  C   UNL     1     119.832 107.144 122.304  1.00  0.00     0.021 A 
ATOM     13  C   UNL     1     121.043 107.006 123.007  1.00  0.00     0.016 A 
ATOM     14  C   UNL     1     122.064 107.947 122.848  1.00  0.00     0.047 A 
ATOM     15  C   UNL     1     121.884 109.045 121.996  1.00  0.00     0.115 A 
ATOM     16  C   UNL     1     119.652 108.260 121.468  1.00  0.00     0.016 A 
ATOM     17  C   UNL     1     120.676 109.199 121.310  1.00  0.00     0.047 A 
BRANCH  15  18
ATOM     18  O   UNL     1     122.895 109.988 121.829  1.00  0.00    -0.508 OA
ATOM     19  H   UNL     1     122.686 110.967 121.668  1.00  0.00     0.293 HD
ENDBRANCH  15  18
ENDBRANCH   1  12
BRANCH   2  20
ATOM     20  O   UNL     1     120.133 104.301 121.832  1.00  0.00    -0.502 OA
ATOM     21  H   UNL     1     120.886 104.077 122.470  1.00  0.00     0.293 HD
ENDBRANCH   2  20
BRANCH   6  22
ATOM     22  O   UNL     1     115.403 102.274 123.206  1.00  0.00    -0.507 OA
ATOM     23  H   UNL     1     114.695 101.713 123.653  1.00  0.00     0.293 HD
ENDBRANCH   6  22
BRANCH   8  24
ATOM     24  O   UNL     1     112.890 106.296 123.840  1.00  0.00    -0.508 OA
ATOM     25  H   UNL     1     112.767 106.862 124.672  1.00  0.00     0.293 HD
ENDBRANCH   8  24
TORSDOF 5
ENDMDL
MODEL 4
REMARK VINA RESULT:    -4.477      2.695      3.948
REMARK INTER + INTRA:          -5.513
REMARK INTER:                  -5.225
REMARK INTRA:                  -0.288
REMARK UNBOUND:                -0.251
REMARK SMILES O=c1c(O)c(-c2ccc(O)cc2)oc2cc(O)cc(O)c12
REMARK SMILES IDX 5 1 3 2 2 3 1 4 21 5 19 6 18 7 16 8 15 9 14 10 13 11 6 12
REMARK SMILES IDX 7 13 8 14 9 15 12 16 11 17 10 18 4 20 20 22 17 24
REMARK H PARENT 10 19 4 21 20 23 17 25
REMARK Flexibility Score: inf
ROOT
ATOM      1  C   UNL     1     119.778 106.313 122.291  1.00  0.00     0.180 A 
ATOM      2  C   UNL     1     119.026 107.250 121.561  1.00  0.00     0.208 A 
ATOM      3  C   UNL     1     119.579 108.516 121.306  1.00  0.00     0.238 A 
ATOM      4  O   UNL     1     118.923 109.332 120.606  1.00  0.00    -0.285 OA
ATOM      5  C   UNL     1     120.869 108.834 121.796  1.00  0.00     0.111 A 
ATOM      6  C   UNL     1     121.508 110.099 121.630  1.00  0.00     0.134 A 
ATOM      7  C   UNL     1     122.837 110.260 122.043  1.00  0.00     0.093 A 
ATOM      8  C   UNL     1     123.525 109.224 122.673  1.00  0.00     0.123 A 
ATOM      9  C   UNL     1     122.890 108.001 122.893  1.00  0.00     0.094 A 
ATOM     10  C   UNL     1     121.576 107.799 122.460  1.00  0.00     0.146 A 
ATOM     11  O   UNL     1     121.011 106.619 122.680  1.00  0.00    -0.452 OA
ENDROOT
BRANCH   1  12
ATOM     12  C   UNL     1     119.254 104.968 122.620  1.00  0.00     0.021 A 
ATOM     13  C   UNL     1     119.460 103.871 121.764  1.00  0.00     0.016 A 
ATOM     14  C   UNL     1     118.934 102.616 122.084  1.00  0.00     0.047 A 
ATOM     15  C   UNL     1     118.186 102.444 123.256  1.00  0.00     0.115 A 
ATOM     16  C   UNL     1     118.485 104.791 123.783  1.00  0.00     0.016 A 
ATOM     17  C   UNL     1     117.961 103.535 124.101  1.00  0.00     0.047 A 
BRANCH  15  18
ATOM     18  O   UNL     1     117.658 101.198 123.586  1.00  0.00    -0.508 OA
ATOM     19  H   UNL     1     116.658 101.044 123.645  1.00  0.00     0.293 HD
ENDBRANCH  15  18
ENDBRANCH   1  12
BRANCH   2  20
ATOM     20  O   UNL     1     117.764 106.908 121.068  1.00  0.00    -0.502 OA
ATOM     21  H   UNL     1     116.993 106.656 121.674  1.00  0.00     0.293 HD
ENDBRANCH   2  20
BRANCH   6  22
ATOM     22  O   UNL     1     120.880 111.228 121.097  1.00  0.00    -0.507 OA
ATOM     23  H   UNL     1     119.951 111.238 120.706  1.00  0.00     0.293 HD
ENDBRANCH   6  22
BRANCH   8  24
ATOM     24  O   UNL     1     124.841 109.423 123.085  1.00  0.00    -0.508 OA
ATOM     25  H   UNL     1     125.607 109.442 122.421  1.00  0.00     0.293 HD
ENDBRANCH   8  24
TORSDOF 5
ENDMDL
MODEL 5
REMARK VINA RESULT:    -4.238     15.741     18.302
REMARK INTER + INTRA:          -5.232
REMARK INTER:                  -5.195
REMARK INTRA:                  -0.037
REMARK UNBOUND:                -0.251
REMARK SMILES O=c1c(O)c(-c2ccc(O)cc2)oc2cc(O)cc(O)c12
REMARK SMILES IDX 5 1 3 2 2 3 1 4 21 5 19 6 18 7 16 8 15 9 14 10 13 11 6 12
REMARK SMILES IDX 7 13 8 14 9 15 12 16 11 17 10 18 4 20 20 22 17 24
REMARK H PARENT 10 19 4 21 20 23 17 25
REMARK Flexibility Score: inf
ROOT
ATOM      1  C   UNL     1     125.804 115.483 109.222  1.00  0.00     0.180 A 
ATOM      2  C   UNL     1     124.473 115.837 109.505  1.00  0.00     0.208 A 
ATOM      3  C   UNL     1     123.466 114.868 109.363  1.00  0.00     0.238 A 
ATOM      4  O   UNL     1     122.284 115.176 109.670  1.00  0.00    -0.285 OA
ATOM      5  C   UNL     1     123.799 113.564 108.924  1.00  0.00     0.111 A 
ATOM      6  C   UNL     1     122.855 112.517 108.707  1.00  0.00     0.134 A 
ATOM      7  C   UNL     1     123.310 111.229 108.398  1.00  0.00     0.093 A 
ATOM      8  C   UNL     1     124.670 110.967 108.235  1.00  0.00     0.123 A 
ATOM      9  C   UNL     1     125.599 111.997 108.388  1.00  0.00     0.094 A 
ATOM     10  C   UNL     1     125.177 113.284 108.731  1.00  0.00     0.146 A 
ATOM     11  O   UNL     1     126.092 114.234 108.876  1.00  0.00    -0.452 OA
ENDROOT
BRANCH   1  12
ATOM     12  C   UNL     1     126.916 116.455 109.325  1.00  0.00     0.021 A 
ATOM     13  C   UNL     1     126.875 117.690 108.652  1.00  0.00     0.016 A 
ATOM     14  C   UNL     1     127.948 118.581 108.744  1.00  0.00     0.047 A 
ATOM     15  C   UNL     1     129.080 118.244 109.498  1.00  0.00     0.115 A 
ATOM     16  C   UNL     1     128.065 116.116 110.061  1.00  0.00     0.016 A 
ATOM     17  C   UNL     1     129.136 117.010 110.152  1.00  0.00     0.047 A 
BRANCH  15  18
ATOM     18  O   UNL     1     130.155 119.125 109.598  1.00  0.00    -0.508 OA
ATOM     19  H   UNL     1     130.490 119.645 108.795  1.00  0.00     0.293 HD
ENDBRANCH  15  18
ENDBRANCH   1  12
BRANCH   2  20
ATOM     20  O   UNL     1     124.168 117.124 109.958  1.00  0.00    -0.502 OA
ATOM     21  H   UNL     1     123.655 117.790 109.396  1.00  0.00     0.293 HD
ENDBRANCH   2  20
BRANCH   6  22
ATOM     22  O   UNL     1     121.469 112.693 108.754  1.00  0.00    -0.507 OA
ATOM     23  H   UNL     1     121.000 113.583 108.687  1.00  0.00     0.293 HD
ENDBRANCH   6  22
BRANCH   8  24
ATOM     24  O   UNL     1     125.087 109.677 107.913  1.00  0.00    -0.508 OA
ATOM     25  H   UNL     1     125.864 109.513 107.284  1.00  0.00     0.293 HD
ENDBRANCH   8  24
TORSDOF 5
ENDMDL
MODEL 6
REMARK VINA RESULT:    -4.213      1.871      6.679
REMARK INTER + INTRA:          -5.203
REMARK INTER:                  -4.913
REMARK INTRA:                  -0.289
REMARK UNBOUND:                -0.251
REMARK SMILES O=c1c(O)c(-c2ccc(O)cc2)oc2cc(O)cc(O)c12
REMARK SMILES IDX 5 1 3 2 2 3 1 4 21 5 19 6 18 7 16 8 15 9 14 10 13 11 6 12
REMARK SMILES IDX 7 13 8 14 9 15 12 16 11 17 10 18 4 20 20 22 17 24
REMARK H PARENT 10 19 4 21 20 23 17 25
REMARK Flexibility Score: inf
ROOT
ATOM      1  C   UNL     1     118.562 106.792 121.554  1.00  0.00     0.180 A 
ATOM      2  C   UNL     1     118.363 106.182 120.303  1.00  0.00     0.208 A 
ATOM      3  C   UNL     1     117.100 105.646 120.000  1.00  0.00     0.238 A 
ATOM      4  O   UNL     1     116.913 105.149 118.859  1.00  0.00    -0.285 OA
ATOM      5  C   UNL     1     116.058 105.713 120.957  1.00  0.00     0.111 A 
ATOM      6  C   UNL     1     114.753 105.168 120.771  1.00  0.00     0.134 A 
ATOM      7  C   UNL     1     113.762 105.407 121.731  1.00  0.00     0.093 A 
ATOM      8  C   UNL     1     114.046 106.114 122.899  1.00  0.00     0.123 A 
ATOM      9  C   UNL     1     115.335 106.602 123.118  1.00  0.00     0.094 A 
ATOM     10  C   UNL     1     116.336 106.410 122.161  1.00  0.00     0.146 A 
ATOM     11  O   UNL     1     117.546 106.898 122.403  1.00  0.00    -0.452 OA
ENDROOT
BRANCH   1  12
ATOM     12  C   UNL     1     119.870 107.358 121.955  1.00  0.00     0.021 A 
ATOM     13  C   UNL     1     120.210 108.692 121.668  1.00  0.00     0.016 A 
ATOM     14  C   UNL     1     121.462 109.197 122.035  1.00  0.00     0.047 A 
ATOM     15  C   UNL     1     122.393 108.371 122.679  1.00  0.00     0.115 A 
ATOM     16  C   UNL     1     120.818 106.531 122.582  1.00  0.00     0.016 A 
ATOM     17  C   UNL     1     122.068 107.038 122.948  1.00  0.00     0.047 A 
BRANCH  15  18
ATOM     18  O   UNL     1     123.642 108.863 123.050  1.00  0.00    -0.508 OA
ATOM     19  H   UNL     1     124.098 108.563 123.904  1.00  0.00     0.293 HD
ENDBRANCH  15  18
ENDBRANCH   1  12
BRANCH   2  20
ATOM     20  O   UNL     1     119.398 106.146 119.365  1.00  0.00    -0.502 OA
ATOM     21  H   UNL     1     120.317 106.526 119.555  1.00  0.00     0.293 HD
ENDBRANCH   2  20
BRANCH   6  22
ATOM     22  O   UNL     1     114.388 104.367 119.685  1.00  0.00    -0.507 OA
ATOM     23  H   UNL     1     114.389 104.669 118.723  1.00  0.00     0.293 HD
ENDBRANCH   6  22
BRANCH   8  24
ATOM     24  O   UNL     1     113.040 106.320 123.840  1.00  0.00    -0.508 OA
ATOM     25  H   UNL     1     112.224 106.883 123.629  1.00  0.00     0.293 HD
ENDBRANCH   8  24
TORSDOF 5
ENDMDL
MODEL 7
REMARK VINA RESULT:    -4.193     15.551     18.088
REMARK INTER + INTRA:          -5.180
REMARK INTER:                  -4.938
REMARK INTRA:                  -0.242
REMARK UNBOUND:                -0.251
REMARK SMILES O=c1c(O)c(-c2ccc(O)cc2)oc2cc(O)cc(O)c12
REMARK SMILES IDX 5 1 3 2 2 3 1 4 21 5 19 6 18 7 16 8 15 9 14 10 13 11 6 12
REMARK SMILES IDX 7 13 8 14 9 15 12 16 11 17 10 18 4 20 20 22 17 24
REMARK H PARENT 10 19 4 21 20 23 17 25
REMARK Flexibility Score: inf
ROOT
ATOM      1  C   UNL     1     125.792 115.506 109.350  1.00  0.00     0.180 A 
ATOM      2  C   UNL     1     125.912 114.262 108.707  1.00  0.00     0.208 A 
ATOM      3  C   UNL     1     124.782 113.432 108.612  1.00  0.00     0.238 A 
ATOM      4  O   UNL     1     124.882 112.344 107.988  1.00  0.00    -0.285 OA
ATOM      5  C   UNL     1     123.552 113.851 109.176  1.00  0.00     0.111 A 
ATOM      6  C   UNL     1     122.355 113.074 109.173  1.00  0.00     0.134 A 
ATOM      7  C   UNL     1     121.163 113.640 109.643  1.00  0.00     0.093 A 
ATOM      8  C   UNL     1     121.140 114.928 110.175  1.00  0.00     0.123 A 
ATOM      9  C   UNL     1     122.317 115.676 110.236  1.00  0.00     0.094 A 
ATOM     10  C   UNL     1     123.514 115.151 109.742  1.00  0.00     0.146 A 
ATOM     11  O   UNL     1     124.609 115.897 109.810  1.00  0.00    -0.452 OA
ENDROOT
BRANCH   1  12
ATOM     12  C   UNL     1     126.943 116.423 109.511  1.00  0.00     0.021 A 
ATOM     13  C   UNL     1     127.960 116.167 110.448  1.00  0.00     0.016 A 
ATOM     14  C   UNL     1     129.024 117.061 110.600  1.00  0.00     0.047 A 
ATOM     15  C   UNL     1     129.078 118.228 109.826  1.00  0.00     0.115 A 
ATOM     16  C   UNL     1     126.995 117.607 108.755  1.00  0.00     0.016 A 
ATOM     17  C   UNL     1     128.061 118.499 108.907  1.00  0.00     0.047 A 
BRANCH  15  18
ATOM     18  O   UNL     1     130.135 119.125 109.968  1.00  0.00    -0.508 OA
ATOM     19  H   UNL     1     130.051 119.957 110.542  1.00  0.00     0.293 HD
ENDBRANCH  15  18
ENDBRANCH   1  12
BRANCH   2  20
ATOM     20  O   UNL     1     127.130 113.878 108.138  1.00  0.00    -0.502 OA
ATOM     21  H   UNL     1     127.189 113.222 107.370  1.00  0.00     0.293 HD
ENDBRANCH   2  20
BRANCH   6  22
ATOM     22  O   UNL     1     122.289 111.743 108.749  1.00  0.00    -0.507 OA
ATOM     23  H   UNL     1     123.024 111.259 108.259  1.00  0.00     0.293 HD
ENDBRANCH   6  22
BRANCH   8  24
ATOM     24  O   UNL     1     119.940 115.455 110.647  1.00  0.00    -0.508 OA
ATOM     25  H   UNL     1     119.796 116.454 110.732  1.00  0.00     0.293 HD
ENDBRANCH   8  24
TORSDOF 5
ENDMDL
MODEL 8
REMARK VINA RESULT:    -4.056     15.252     17.098
REMARK INTER + INTRA:          -5.018
REMARK INTER:                  -4.802
REMARK INTRA:                  -0.216
REMARK UNBOUND:                -0.251
REMARK SMILES O=c1c(O)c(-c2ccc(O)cc2)oc2cc(O)cc(O)c12
REMARK SMILES IDX 5 1 3 2 2 3 1 4 21 5 19 6 18 7 16 8 15 9 14 10 13 11 6 12
REMARK SMILES IDX 7 13 8 14 9 15 12 16 11 17 10 18 4 20 20 22 17 24
REMARK H PARENT 10 19 4 21 20 23 17 25
REMARK Flexibility Score: inf
ROOT
ATOM      1  C   UNL     1     125.129 113.785 109.345  1.00  0.00     0.180 A 
ATOM      2  C   UNL     1     126.167 114.650 108.958  1.00  0.00     0.208 A 
ATOM      3  C   UNL     1     126.042 116.025 109.220  1.00  0.00     0.238 A 
ATOM      4  O   UNL     1     126.998 116.786 108.921  1.00  0.00    -0.285 OA
ATOM      5  C   UNL     1     124.874 116.518 109.851  1.00  0.00     0.111 A 
ATOM      6  C   UNL     1     124.624 117.895 110.128  1.00  0.00     0.134 A 
ATOM      7  C   UNL     1     123.494 118.256 110.872  1.00  0.00     0.093 A 
ATOM      8  C   UNL     1     122.573 117.297 111.292  1.00  0.00     0.123 A 
ATOM      9  C   UNL     1     122.777 115.953 110.976  1.00  0.00     0.094 A 
ATOM     10  C   UNL     1     123.914 115.559 110.265  1.00  0.00     0.146 A 
ATOM     11  O   UNL     1     124.076 114.270 109.993  1.00  0.00    -0.452 OA
ENDROOT
BRANCH   1  12
ATOM     12  C   UNL     1     125.177 112.329 109.081  1.00  0.00     0.021 A 
ATOM     13  C   UNL     1     124.365 111.735 108.097  1.00  0.00     0.016 A 
ATOM     14  C   UNL     1     124.410 110.354 107.883  1.00  0.00     0.047 A 
ATOM     15  C   UNL     1     125.256 109.549 108.657  1.00  0.00     0.115 A 
ATOM     16  C   UNL     1     126.007 111.510 109.866  1.00  0.00     0.016 A 
ATOM     17  C   UNL     1     126.051 110.130 109.649  1.00  0.00     0.047 A 
BRANCH  15  18
ATOM     18  O   UNL     1     125.310 108.172 108.451  1.00  0.00    -0.508 OA
ATOM     19  H   UNL     1     125.619 107.539 109.180  1.00  0.00     0.293 HD
ENDBRANCH  15  18
ENDBRANCH   1  12
BRANCH   2  20
ATOM     20  O   UNL     1     127.321 114.139 108.357  1.00  0.00    -0.502 OA
ATOM     21  H   UNL     1     127.646 113.195 108.519  1.00  0.00     0.293 HD
ENDBRANCH   2  20
BRANCH   6  22
ATOM     22  O   UNL     1     125.432 118.942 109.675  1.00  0.00    -0.507 OA
ATOM     23  H   UNL     1     125.342 119.904 109.963  1.00  0.00     0.293 HD
ENDBRANCH   6  22
BRANCH   8  24
ATOM     24  O   UNL     1     121.452 117.693 112.018  1.00  0.00    -0.508 OA
ATOM     25  H   UNL     1     121.437 117.660 113.031  1.00  0.00     0.293 HD
ENDBRANCH   8  24
TORSDOF 5
ENDMDL
MODEL 9
REMARK VINA RESULT:    -3.992     16.045     18.080
REMARK INTER + INTRA:          -4.943
REMARK INTER:                  -4.673
REMARK INTRA:                  -0.271
REMARK UNBOUND:                -0.251
REMARK SMILES O=c1c(O)c(-c2ccc(O)cc2)oc2cc(O)cc(O)c12
REMARK SMILES IDX 5 1 3 2 2 3 1 4 21 5 19 6 18 7 16 8 15 9 14 10 13 11 6 12
REMARK SMILES IDX 7 13 8 14 9 15 12 16 11 17 10 18 4 20 20 22 17 24
REMARK H PARENT 10 19 4 21 20 23 17 25
REMARK Flexibility Score: inf
ROOT
ATOM      1  C   UNL     1     126.105 115.748 109.390  1.00  0.00     0.180 A 
ATOM      2  C   UNL     1     126.204 117.137 109.584  1.00  0.00     0.208 A 
ATOM      3  C   UNL     1     127.469 117.704 109.812  1.00  0.00     0.238 A 
ATOM      4  O   UNL     1     127.559 118.954 109.931  1.00  0.00    -0.285 OA
ATOM      5  C   UNL     1     128.615 116.873 109.859  1.00  0.00     0.111 A 
ATOM      6  C   UNL     1     129.939 117.335 110.123  1.00  0.00     0.134 A 
ATOM      7  C   UNL     1     131.015 116.445 110.016  1.00  0.00     0.093 A 
ATOM      8  C   UNL     1     130.808 115.098 109.720  1.00  0.00     0.123 A 
ATOM      9  C   UNL     1     129.512 114.623 109.518  1.00  0.00     0.094 A 
ATOM     10  C   UNL     1     128.421 115.495 109.583  1.00  0.00     0.146 A 
ATOM     11  O   UNL     1     127.206 115.006 109.375  1.00  0.00    -0.452 OA
ENDROOT
BRANCH   1  12
ATOM     12  C   UNL     1     124.805 115.075 109.169  1.00  0.00     0.021 A 
ATOM     13  C   UNL     1     123.939 114.783 110.240  1.00  0.00     0.016 A 
ATOM     14  C   UNL     1     122.728 114.124 110.010  1.00  0.00     0.047 A 
ATOM     15  C   UNL     1     122.372 113.738 108.711  1.00  0.00     0.115 A 
ATOM     16  C   UNL     1     124.449 114.665 107.873  1.00  0.00     0.016 A 
ATOM     17  C   UNL     1     123.236 114.007 107.646  1.00  0.00     0.047 A 
BRANCH  15  18
ATOM     18  O   UNL     1     121.167 113.082 108.470  1.00  0.00    -0.508 OA
ATOM     19  H   UNL     1     120.397 113.544 107.999  1.00  0.00     0.293 HD
ENDBRANCH  15  18
ENDBRANCH   1  12
BRANCH   2  20
ATOM     20  O   UNL     1     125.063 117.941 109.512  1.00  0.00    -0.502 OA
ATOM     21  H   UNL     1     125.084 118.933 109.712  1.00  0.00     0.293 HD
ENDBRANCH   2  20
BRANCH   6  22
ATOM     22  O   UNL     1     130.247 118.641 110.517  1.00  0.00    -0.507 OA
ATOM     23  H   UNL     1     129.595 119.409 110.518  1.00  0.00     0.293 HD
ENDBRANCH   6  22
BRANCH   8  24
ATOM     24  O   UNL     1     131.901 114.237 109.637  1.00  0.00    -0.508 OA
ATOM     25  H   UNL     1     131.787 113.258 109.404  1.00  0.00     0.293 HD
ENDBRANCH   8  24
TORSDOF 5
ENDMDL
