MODEL 1
REMARK VINA RESULT:    21.742      0.000      0.000
REMARK INTER + INTRA:          54.290
REMARK INTER:                  54.790
REMARK INTRA:                  -0.500
REMARK UNBOUND:                -0.500
REMARK SMILES CCCCCCCCCCCCCCCCCCCCCCCCCCCC(=O)[O-]
REMARK SMILES IDX 15 1 16 2 17 3 18 4 19 5 20 6 21 7 22 8 23 9 24 10 25 11
REMARK SMILES IDX 26 12 27 13 28 14 29 15 30 16 14 17 13 18 12 19 11 20 10 21
REMARK SMILES IDX 9 22 8 23 7 24 6 25 5 26 4 27 3 28 2 29 1 30
REMARK H PARENT
REMARK Flexibility Score: inf
ROOT
ATOM      1  C   UNL     1      -8.428 -18.094  27.208  1.00  0.00     0.000 C 
ENDROOT
BRANCH   1   2
ATOM      2  C   UNL     1      -9.319 -17.802  28.426  1.00  0.00     0.000 C 
BRANCH   2   3
ATOM      3  C   UNL     1     -10.281 -16.639  28.133  1.00  0.00     0.000 C 
BRANCH   3   4
ATOM      4  C   UNL     1      -9.683 -15.605  27.164  1.00  0.00     0.000 C 
BRANCH   4   5
ATOM      5  C   UNL     1     -10.769 -14.870  26.357  1.00  0.00     0.000 C 
BRANCH   5   6
ATOM      6  C   UNL     1     -10.631 -13.340  26.433  1.00  0.00     0.000 C 
BRANCH   6   7
ATOM      7  C   UNL     1     -11.619 -12.703  27.428  1.00  0.00     0.000 C 
BRANCH   7   8
ATOM      8  C   UNL     1     -11.109 -11.370  28.000  1.00  0.00     0.000 C 
BRANCH   8   9
ATOM      9  C   UNL     1     -10.396 -10.506  26.945  1.00  0.00     0.000 C 
BRANCH   9  10
ATOM     10  C   UNL     1     -10.007  -9.118  27.500  1.00  0.00     0.000 C 
BRANCH  10  11
ATOM     11  C   UNL     1      -8.503  -8.974  27.809  1.00  0.00     0.000 C 
BRANCH  11  12
ATOM     12  C   UNL     1      -7.561  -9.630  26.780  1.00  0.00     0.006 C 
BRANCH  12  13
ATOM     13  C   UNL     1      -6.209 -10.083  27.355  1.00  0.00     0.053 C 
BRANCH  13  14
ATOM     14  C   UNL     1      -5.457 -10.953  26.396  1.00  0.00     0.041 C 
ATOM     15  O   UNL     1      -5.118 -10.510  25.268  1.00  0.00    -0.550 OA
ATOM     16  O   UNL     1      -5.165 -12.270  26.735  1.00  0.00    -0.550 OA
ENDBRANCH  13  14
ENDBRANCH  12  13
ENDBRANCH  11  12
ENDBRANCH  10  11
ENDBRANCH   9  10
ENDBRANCH   8   9
ENDBRANCH   7   8
ENDBRANCH   6   7
ENDBRANCH   5   6
ENDBRANCH   4   5
ENDBRANCH   3   4
ENDBRANCH   2   3
ENDBRANCH   1   2
BRANCH   1  17
ATOM     17  C   UNL     1      -7.225 -17.144  27.104  1.00  0.00     0.000 C 
BRANCH  17  18
ATOM     18  C   UNL     1      -5.878 -17.886  27.012  1.00  0.00     0.000 C 
BRANCH  18  19
ATOM     19  C   UNL     1      -5.795 -18.751  25.745  1.00  0.00     0.000 C 
BRANCH  19  20
ATOM     20  C   UNL     1      -5.981 -17.912  24.468  1.00  0.00     0.000 C 
BRANCH  20  21
ATOM     21  C   UNL     1      -5.342 -18.570  23.230  1.00  0.00     0.000 C 
BRANCH  21  22
ATOM     22  C   UNL     1      -4.616 -19.904  23.519  1.00  0.00    -0.000 C 
BRANCH  22  23
ATOM     23  C   UNL     1      -4.089 -20.645  22.274  1.00  0.00    -0.000 C 
BRANCH  23  24
ATOM     24  C   UNL     1      -2.947 -21.626  22.596  1.00  0.00    -0.000 C 
BRANCH  24  25
ATOM     25  C   UNL     1      -1.564 -20.952  22.615  1.00  0.00    -0.000 C 
BRANCH  25  26
ATOM     26  C   UNL     1      -1.507 -19.581  23.324  1.00  0.00    -0.000 C 
BRANCH  26  27
ATOM     27  C   UNL     1      -0.584 -19.515  24.556  1.00  0.00    -0.000 C 
BRANCH  27  28
ATOM     28  C   UNL     1      -0.898 -18.319  25.470  1.00  0.00    -0.000 C 
BRANCH  28  29
ATOM     29  C   UNL     1      -0.886 -16.983  24.711  1.00  0.00    -0.003 C 
ATOM     30  C   UNL     1       0.168 -16.940  23.604  1.00  0.00     0.004 C 
ENDBRANCH  28  29
ENDBRANCH  27  28
ENDBRANCH  26  27
ENDBRANCH  25  26
ENDBRANCH  24  25
ENDBRANCH  23  24
ENDBRANCH  22  23
ENDBRANCH  21  22
ENDBRANCH  20  21
ENDBRANCH  19  20
ENDBRANCH  18  19
ENDBRANCH  17  18
ENDBRANCH   1  17
TORSDOF 26
ENDMDL
MODEL 2
REMARK VINA RESULT:    21.782      0.981      2.696
REMARK INTER + INTRA:          54.391
REMARK INTER:                  55.810
REMARK INTRA:                  -1.419
REMARK UNBOUND:                -0.500
REMARK SMILES CCCCCCCCCCCCCCCCCCCCCCCCCCCC(=O)[O-]
REMARK SMILES IDX 15 1 16 2 17 3 18 4 19 5 20 6 21 7 22 8 23 9 24 10 25 11
REMARK SMILES IDX 26 12 27 13 28 14 29 15 30 16 14 17 13 18 12 19 11 20 10 21
REMARK SMILES IDX 9 22 8 23 7 24 6 25 5 26 4 27 3 28 2 29 1 30
REMARK H PARENT
REMARK Flexibility Score: inf
ROOT
ATOM      1  C   UNL     1      -7.578 -17.189  27.382  1.00  0.00     0.000 C 
ENDROOT
BRANCH   1   2
ATOM      2  C   UNL     1      -8.863 -17.781  27.982  1.00  0.00     0.000 C 
BRANCH   2   3
ATOM      3  C   UNL     1     -10.017 -16.769  27.908  1.00  0.00     0.000 C 
BRANCH   3   4
ATOM      4  C   UNL     1      -9.630 -15.482  27.160  1.00  0.00     0.000 C 
BRANCH   4   5
ATOM      5  C   UNL     1     -10.788 -14.936  26.304  1.00  0.00     0.000 C 
BRANCH   5   6
ATOM      6  C   UNL     1     -10.828 -13.400  26.270  1.00  0.00     0.000 C 
BRANCH   6   7
ATOM      7  C   UNL     1     -11.206 -12.784  27.630  1.00  0.00     0.000 C 
BRANCH   7   8
ATOM      8  C   UNL     1     -11.232 -11.247  27.600  1.00  0.00     0.000 C 
BRANCH   8   9
ATOM      9  C   UNL     1      -9.897 -10.640  27.136  1.00  0.00     0.000 C 
BRANCH   9  10
ATOM     10  C   UNL     1      -9.874  -9.103  27.291  1.00  0.00     0.000 C 
BRANCH  10  11
ATOM     11  C   UNL     1      -8.575  -8.565  27.925  1.00  0.00     0.000 C 
BRANCH  11  12
ATOM     12  C   UNL     1      -7.387  -9.546  27.907  1.00  0.00     0.006 C 
BRANCH  12  13
ATOM     13  C   UNL     1      -6.929  -9.964  26.500  1.00  0.00     0.053 C 
BRANCH  13  14
ATOM     14  C   UNL     1      -5.632 -10.711  26.533  1.00  0.00     0.041 C 
ATOM     15  O   UNL     1      -5.324 -11.489  25.592  1.00  0.00    -0.550 OA
ATOM     16  O   UNL     1      -4.781 -10.579  27.625  1.00  0.00    -0.550 OA
ENDBRANCH  13  14
ENDBRANCH  12  13
ENDBRANCH  11  12
ENDBRANCH  10  11
ENDBRANCH   9  10
ENDBRANCH   8   9
ENDBRANCH   7   8
ENDBRANCH   6   7
ENDBRANCH   5   6
ENDBRANCH   4   5
ENDBRANCH   3   4
ENDBRANCH   2   3
ENDBRANCH   1   2
BRANCH   1  17
ATOM     17  C   UNL     1      -7.112 -17.926  26.117  1.00  0.00     0.000 C 
BRANCH  17  18
ATOM     18  C   UNL     1      -5.636 -18.364  26.184  1.00  0.00     0.000 C 
BRANCH  18  19
ATOM     19  C   UNL     1      -4.890 -17.660  27.328  1.00  0.00     0.000 C 
BRANCH  19  20
ATOM     20  C   UNL     1      -3.379 -17.959  27.293  1.00  0.00     0.000 C 
BRANCH  20  21
ATOM     21  C   UNL     1      -2.721 -17.517  25.971  1.00  0.00     0.000 C 
BRANCH  21  22
ATOM     22  C   UNL     1      -1.201 -17.790  25.893  1.00  0.00    -0.000 C 
BRANCH  22  23
ATOM     23  C   UNL     1      -0.514 -17.299  24.603  1.00  0.00    -0.000 C 
BRANCH  23  24
ATOM     24  C   UNL     1      -0.324 -18.413  23.560  1.00  0.00    -0.000 C 
BRANCH  24  25
ATOM     25  C   UNL     1      -0.738 -19.801  24.081  1.00  0.00    -0.000 C 
BRANCH  25  26
ATOM     26  C   UNL     1      -1.317 -20.760  23.017  1.00  0.00    -0.000 C 
BRANCH  26  27
ATOM     27  C   UNL     1      -2.526 -20.216  22.231  1.00  0.00    -0.000 C 
BRANCH  27  28
ATOM     28  C   UNL     1      -3.768 -21.115  22.354  1.00  0.00    -0.000 C 
BRANCH  28  29
ATOM     29  C   UNL     1      -4.809 -20.543  23.329  1.00  0.00    -0.003 C 
ATOM     30  C   UNL     1      -4.852 -19.014  23.320  1.00  0.00     0.004 C 
ENDBRANCH  28  29
ENDBRANCH  27  28
ENDBRANCH  26  27
ENDBRANCH  25  26
ENDBRANCH  24  25
ENDBRANCH  23  24
ENDBRANCH  22  23
ENDBRANCH  21  22
ENDBRANCH  20  21
ENDBRANCH  19  20
ENDBRANCH  18  19
ENDBRANCH  17  18
ENDBRANCH   1  17
TORSDOF 26
ENDMDL
MODEL 3
REMARK VINA RESULT:    21.961      2.049     10.008
REMARK INTER + INTRA:          54.842
REMARK INTER:                  56.285
REMARK INTRA:                  -1.443
REMARK UNBOUND:                -0.500
REMARK SMILES CCCCCCCCCCCCCCCCCCCCCCCCCCCC(=O)[O-]
REMARK SMILES IDX 15 1 16 2 17 3 18 4 19 5 20 6 21 7 22 8 23 9 24 10 25 11
REMARK SMILES IDX 26 12 27 13 28 14 29 15 30 16 14 17 13 18 12 19 11 20 10 21
REMARK SMILES IDX 9 22 8 23 7 24 6 25 5 26 4 27 3 28 2 29 1 30
REMARK H PARENT
REMARK Flexibility Score: inf
ROOT
ATOM      1  C   UNL     1      -7.319 -17.087  27.072  1.00  0.00     0.000 C 
ENDROOT
BRANCH   1   2
ATOM      2  C   UNL     1      -6.002 -17.874  27.156  1.00  0.00     0.000 C 
BRANCH   2   3
ATOM      3  C   UNL     1      -5.802 -18.741  25.902  1.00  0.00     0.000 C 
BRANCH   3   4
ATOM      4  C   UNL     1      -5.828 -17.918  24.603  1.00  0.00     0.000 C 
BRANCH   4   5
ATOM      5  C   UNL     1      -5.520 -18.779  23.364  1.00  0.00     0.000 C 
BRANCH   5   6
ATOM      6  C   UNL     1      -4.390 -19.792  23.612  1.00  0.00     0.000 C 
BRANCH   6   7
ATOM      7  C   UNL     1      -3.930 -20.498  22.322  1.00  0.00     0.000 C 
BRANCH   7   8
ATOM      8  C   UNL     1      -2.481 -21.004  22.407  1.00  0.00     0.000 C 
BRANCH   8   9
ATOM      9  C   UNL     1      -1.520 -19.956  22.995  1.00  0.00     0.000 C 
BRANCH   9  10
ATOM     10  C   UNL     1      -0.706 -20.517  24.181  1.00  0.00     0.000 C 
BRANCH  10  11
ATOM     11  C   UNL     1      -0.044 -19.426  25.048  1.00  0.00     0.000 C 
BRANCH  11  12
ATOM     12  C   UNL     1      -1.018 -18.398  25.657  1.00  0.00     0.006 C 
BRANCH  12  13
ATOM     13  C   UNL     1      -1.348 -17.213  24.736  1.00  0.00     0.053 C 
BRANCH  13  14
ATOM     14  C   UNL     1      -0.129 -16.686  24.045  1.00  0.00     0.041 C 
ATOM     15  O   UNL     1       0.525 -15.735  24.548  1.00  0.00    -0.550 OA
ATOM     16  O   UNL     1       0.263 -17.221  22.822  1.00  0.00    -0.550 OA
ENDBRANCH  13  14
ENDBRANCH  12  13
ENDBRANCH  11  12
ENDBRANCH  10  11
ENDBRANCH   9  10
ENDBRANCH   8   9
ENDBRANCH   7   8
ENDBRANCH   6   7
ENDBRANCH   5   6
ENDBRANCH   4   5
ENDBRANCH   3   4
ENDBRANCH   2   3
ENDBRANCH   1   2
BRANCH   1  17
ATOM     17  C   UNL     1      -8.472 -17.765  27.830  1.00  0.00     0.000 C 
BRANCH  17  18
ATOM     18  C   UNL     1      -9.797 -16.984  27.732  1.00  0.00     0.000 C 
BRANCH  18  19
ATOM     19  C   UNL     1      -9.636 -15.698  26.907  1.00  0.00     0.000 C 
BRANCH  19  20
ATOM     20  C   UNL     1     -10.935 -14.871  26.879  1.00  0.00     0.000 C 
BRANCH  20  21
ATOM     21  C   UNL     1     -10.689 -13.397  26.503  1.00  0.00     0.000 C 
BRANCH  21  22
ATOM     22  C   UNL     1     -11.572 -12.386  27.270  1.00  0.00    -0.000 C 
BRANCH  22  23
ATOM     23  C   UNL     1     -10.813 -11.207  27.909  1.00  0.00    -0.000 C 
BRANCH  23  24
ATOM     24  C   UNL     1     -10.256 -10.216  26.871  1.00  0.00    -0.000 C 
BRANCH  24  25
ATOM     25  C   UNL     1      -9.840  -8.869  27.489  1.00  0.00    -0.000 C 
BRANCH  25  26
ATOM     26  C   UNL     1      -8.389  -8.804  28.014  1.00  0.00    -0.000 C 
BRANCH  26  27
ATOM     27  C   UNL     1      -7.356  -9.598  27.192  1.00  0.00    -0.000 C 
BRANCH  27  28
ATOM     28  C   UNL     1      -6.080  -9.915  27.989  1.00  0.00    -0.000 C 
BRANCH  28  29
ATOM     29  C   UNL     1      -4.991 -10.561  27.118  1.00  0.00    -0.003 C 
ATOM     30  C   UNL     1      -5.532 -11.088  25.789  1.00  0.00     0.004 C 
ENDBRANCH  28  29
ENDBRANCH  27  28
ENDBRANCH  26  27
ENDBRANCH  25  26
ENDBRANCH  24  25
ENDBRANCH  23  24
ENDBRANCH  22  23
ENDBRANCH  21  22
ENDBRANCH  20  21
ENDBRANCH  19  20
ENDBRANCH  18  19
ENDBRANCH  17  18
ENDBRANCH   1  17
TORSDOF 26
ENDMDL
MODEL 4
REMARK VINA RESULT:    22.335      0.780      1.192
REMARK INTER + INTRA:          55.783
REMARK INTER:                  57.925
REMARK INTRA:                  -2.142
REMARK UNBOUND:                -0.500
REMARK SMILES CCCCCCCCCCCCCCCCCCCCCCCCCCCC(=O)[O-]
REMARK SMILES IDX 15 1 16 2 17 3 18 4 19 5 20 6 21 7 22 8 23 9 24 10 25 11
REMARK SMILES IDX 26 12 27 13 28 14 29 15 30 16 14 17 13 18 12 19 11 20 10 21
REMARK SMILES IDX 9 22 8 23 7 24 6 25 5 26 4 27 3 28 2 29 1 30
REMARK H PARENT
REMARK Flexibility Score: inf
ROOT
ATOM      1  C   UNL     1      -7.691 -17.289  27.078  1.00  0.00     0.000 C 
ENDROOT
BRANCH   1   2
ATOM      2  C   UNL     1      -8.725 -17.627  28.164  1.00  0.00     0.000 C 
BRANCH   2   3
ATOM      3  C   UNL     1      -9.968 -16.732  28.033  1.00  0.00     0.000 C 
BRANCH   3   4
ATOM      4  C   UNL     1      -9.982 -15.925  26.725  1.00  0.00     0.000 C 
BRANCH   4   5
ATOM      5  C   UNL     1     -10.022 -14.407  26.979  1.00  0.00     0.000 C 
BRANCH   5   6
ATOM      6  C   UNL     1     -11.110 -13.696  26.157  1.00  0.00     0.000 C 
BRANCH   6   7
ATOM      7  C   UNL     1     -11.911 -12.675  26.987  1.00  0.00     0.000 C 
BRANCH   7   8
ATOM      8  C   UNL     1     -11.009 -11.753  27.824  1.00  0.00     0.000 C 
BRANCH   8   9
ATOM      9  C   UNL     1     -10.356 -10.640  26.987  1.00  0.00     0.000 C 
BRANCH   9  10
ATOM     10  C   UNL     1     -10.034  -9.390  27.833  1.00  0.00     0.000 C 
BRANCH  10  11
ATOM     11  C   UNL     1      -8.650  -8.779  27.534  1.00  0.00     0.000 C 
BRANCH  11  12
ATOM     12  C   UNL     1      -7.691  -9.696  26.747  1.00  0.00     0.006 C 
BRANCH  12  13
ATOM     13  C   UNL     1      -6.322  -9.905  27.416  1.00  0.00     0.053 C 
BRANCH  13  14
ATOM     14  C   UNL     1      -5.473 -10.878  26.659  1.00  0.00     0.041 C 
ATOM     15  O   UNL     1      -5.374 -10.794  25.406  1.00  0.00    -0.550 OA
ATOM     16  O   UNL     1      -4.822 -11.905  27.334  1.00  0.00    -0.550 OA
ENDBRANCH  13  14
ENDBRANCH  12  13
ENDBRANCH  11  12
ENDBRANCH  10  11
ENDBRANCH   9  10
ENDBRANCH   8   9
ENDBRANCH   7   8
ENDBRANCH   6   7
ENDBRANCH   5   6
ENDBRANCH   4   5
ENDBRANCH   3   4
ENDBRANCH   2   3
ENDBRANCH   1   2
BRANCH   1  17
ATOM     17  C   UNL     1      -6.241 -17.452  27.559  1.00  0.00     0.000 C 
BRANCH  17  18
ATOM     18  C   UNL     1      -5.354 -18.208  26.551  1.00  0.00     0.000 C 
BRANCH  18  19
ATOM     19  C   UNL     1      -6.196 -18.912  25.475  1.00  0.00     0.000 C 
BRANCH  19  20
ATOM     20  C   UNL     1      -5.923 -18.340  24.071  1.00  0.00     0.000 C 
BRANCH  20  21
ATOM     21  C   UNL     1      -4.539 -18.744  23.528  1.00  0.00     0.000 C 
BRANCH  21  22
ATOM     22  C   UNL     1      -4.432 -20.222  23.088  1.00  0.00    -0.000 C 
BRANCH  22  23
ATOM     23  C   UNL     1      -3.004 -20.803  23.086  1.00  0.00    -0.000 C 
BRANCH  23  24
ATOM     24  C   UNL     1      -2.262 -20.573  21.758  1.00  0.00    -0.000 C 
BRANCH  24  25
ATOM     25  C   UNL     1      -1.273 -19.396  21.818  1.00  0.00    -0.000 C 
BRANCH  25  26
ATOM     26  C   UNL     1      -0.612 -19.160  23.195  1.00  0.00    -0.000 C 
BRANCH  26  27
ATOM     27  C   UNL     1      -0.136 -17.719  23.457  1.00  0.00    -0.000 C 
BRANCH  27  28
ATOM     28  C   UNL     1      -0.766 -17.106  24.720  1.00  0.00    -0.000 C 
BRANCH  28  29
ATOM     29  C   UNL     1      -1.444 -18.162  25.606  1.00  0.00    -0.003 C 
ATOM     30  C   UNL     1      -2.298 -17.545  26.714  1.00  0.00     0.004 C 
ENDBRANCH  28  29
ENDBRANCH  27  28
ENDBRANCH  26  27
ENDBRANCH  25  26
ENDBRANCH  24  25
ENDBRANCH  23  24
ENDBRANCH  22  23
ENDBRANCH  21  22
ENDBRANCH  20  21
ENDBRANCH  19  20
ENDBRANCH  18  19
ENDBRANCH  17  18
ENDBRANCH   1  17
TORSDOF 26
ENDMDL
MODEL 5
REMARK VINA RESULT:    22.493      2.639     10.179
REMARK INTER + INTRA:          56.181
REMARK INTER:                  57.109
REMARK INTRA:                  -0.927
REMARK UNBOUND:                -0.500
REMARK SMILES CCCCCCCCCCCCCCCCCCCCCCCCCCCC(=O)[O-]
REMARK SMILES IDX 15 1 16 2 17 3 18 4 19 5 20 6 21 7 22 8 23 9 24 10 25 11
REMARK SMILES IDX 26 12 27 13 28 14 29 15 30 16 14 17 13 18 12 19 11 20 10 21
REMARK SMILES IDX 9 22 8 23 7 24 6 25 5 26 4 27 3 28 2 29 1 30
REMARK H PARENT
REMARK Flexibility Score: inf
ROOT
ATOM      1  C   UNL     1      -7.576 -17.487  27.224  1.00  0.00     0.000 C 
ENDROOT
BRANCH   1   2
ATOM      2  C   UNL     1      -7.034 -18.267  26.017  1.00  0.00     0.000 C 
BRANCH   2   3
ATOM      3  C   UNL     1      -5.497 -18.254  26.002  1.00  0.00     0.000 C 
BRANCH   3   4
ATOM      4  C   UNL     1      -4.895 -17.786  27.338  1.00  0.00     0.000 C 
BRANCH   4   5
ATOM      5  C   UNL     1      -3.356 -17.787  27.314  1.00  0.00     0.000 C 
BRANCH   5   6
ATOM      6  C   UNL     1      -2.784 -17.636  25.894  1.00  0.00     0.000 C 
BRANCH   6   7
ATOM      7  C   UNL     1      -1.250 -17.765  25.853  1.00  0.00     0.000 C 
BRANCH   7   8
ATOM      8  C   UNL     1      -0.586 -16.680  24.991  1.00  0.00     0.000 C 
BRANCH   8   9
ATOM      9  C   UNL     1      -0.145 -17.204  23.613  1.00  0.00     0.000 C 
BRANCH   9  10
ATOM     10  C   UNL     1       0.197 -18.709  23.647  1.00  0.00     0.000 C 
BRANCH  10  11
ATOM     11  C   UNL     1      -1.043 -19.624  23.712  1.00  0.00     0.000 C 
BRANCH  11  12
ATOM     12  C   UNL     1      -1.675 -19.963  22.347  1.00  0.00     0.006 C 
BRANCH  12  13
ATOM     13  C   UNL     1      -2.563 -21.217  22.352  1.00  0.00     0.053 C 
BRANCH  13  14
ATOM     14  C   UNL     1      -4.018 -20.872  22.434  1.00  0.00     0.041 C 
ATOM     15  O   UNL     1      -4.383 -19.780  22.944  1.00  0.00    -0.550 OA
ATOM     16  O   UNL     1      -4.973 -21.776  21.982  1.00  0.00    -0.550 OA
ENDBRANCH  13  14
ENDBRANCH  12  13
ENDBRANCH  11  12
ENDBRANCH  10  11
ENDBRANCH   9  10
ENDBRANCH   8   9
ENDBRANCH   7   8
ENDBRANCH   6   7
ENDBRANCH   5   6
ENDBRANCH   4   5
ENDBRANCH   3   4
ENDBRANCH   2   3
ENDBRANCH   1   2
BRANCH   1  17
ATOM     17  C   UNL     1      -8.951 -17.987  27.694  1.00  0.00     0.000 C 
BRANCH  17  18
ATOM     18  C   UNL     1      -9.912 -16.842  28.067  1.00  0.00     0.000 C 
BRANCH  18  19
ATOM     19  C   UNL     1     -10.261 -15.977  26.847  1.00  0.00     0.000 C 
BRANCH  19  20
ATOM     20  C   UNL     1      -9.854 -14.506  27.055  1.00  0.00     0.000 C 
BRANCH  20  21
ATOM     21  C   UNL     1     -10.843 -13.521  26.402  1.00  0.00     0.000 C 
BRANCH  21  22
ATOM     22  C   UNL     1     -11.852 -12.883  27.384  1.00  0.00    -0.000 C 
BRANCH  22  23
ATOM     23  C   UNL     1     -11.587 -11.404  27.726  1.00  0.00    -0.000 C 
BRANCH  23  24
ATOM     24  C   UNL     1     -10.178 -10.936  27.321  1.00  0.00    -0.000 C 
BRANCH  24  25
ATOM     25  C   UNL     1      -9.961  -9.427  27.536  1.00  0.00    -0.000 C 
BRANCH  25  26
ATOM     26  C   UNL     1      -8.513  -8.932  27.322  1.00  0.00    -0.000 C 
BRANCH  26  27
ATOM     27  C   UNL     1      -7.519  -9.999  26.827  1.00  0.00    -0.000 C 
BRANCH  27  28
ATOM     28  C   UNL     1      -6.212 -10.016  27.637  1.00  0.00    -0.000 C 
BRANCH  28  29
ATOM     29  C   UNL     1      -5.133 -10.896  26.988  1.00  0.00    -0.003 C 
ATOM     30  C   UNL     1      -5.277 -10.987  25.469  1.00  0.00     0.004 C 
ENDBRANCH  28  29
ENDBRANCH  27  28
ENDBRANCH  26  27
ENDBRANCH  25  26
ENDBRANCH  24  25
ENDBRANCH  23  24
ENDBRANCH  22  23
ENDBRANCH  21  22
ENDBRANCH  20  21
ENDBRANCH  19  20
ENDBRANCH  18  19
ENDBRANCH  17  18
ENDBRANCH   1  17
TORSDOF 26
ENDMDL
MODEL 6
REMARK VINA RESULT:    22.558      1.908      9.860
REMARK INTER + INTRA:          56.346
REMARK INTER:                  57.551
REMARK INTRA:                  -1.205
REMARK UNBOUND:                -0.500
REMARK SMILES CCCCCCCCCCCCCCCCCCCCCCCCCCCC(=O)[O-]
REMARK SMILES IDX 15 1 16 2 17 3 18 4 19 5 20 6 21 7 22 8 23 9 24 10 25 11
REMARK SMILES IDX 26 12 27 13 28 14 29 15 30 16 14 17 13 18 12 19 11 20 10 21
REMARK SMILES IDX 9 22 8 23 7 24 6 25 5 26 4 27 3 28 2 29 1 30
REMARK H PARENT
REMARK Flexibility Score: inf
ROOT
ATOM      1  C   UNL     1      -8.088 -17.941  26.955  1.00  0.00     0.000 C 
ENDROOT
BRANCH   1   2
ATOM      2  C   UNL     1      -6.809 -17.227  27.420  1.00  0.00     0.000 C 
BRANCH   2   3
ATOM      3  C   UNL     1      -5.559 -18.010  26.990  1.00  0.00     0.000 C 
BRANCH   3   4
ATOM      4  C   UNL     1      -5.798 -18.865  25.735  1.00  0.00     0.000 C 
BRANCH   4   5
ATOM      5  C   UNL     1      -6.052 -18.004  24.484  1.00  0.00     0.000 C 
BRANCH   5   6
ATOM      6  C   UNL     1      -5.386 -18.579  23.222  1.00  0.00     0.000 C 
BRANCH   6   7
ATOM      7  C   UNL     1      -4.503 -19.805  23.522  1.00  0.00     0.000 C 
BRANCH   7   8
ATOM      8  C   UNL     1      -4.207 -20.644  22.268  1.00  0.00     0.000 C 
BRANCH   8   9
ATOM      9  C   UNL     1      -2.786 -21.232  22.269  1.00  0.00     0.000 C 
BRANCH   9  10
ATOM     10  C   UNL     1      -1.735 -20.211  22.757  1.00  0.00     0.000 C 
BRANCH  10  11
ATOM     11  C   UNL     1      -0.944 -20.681  23.995  1.00  0.00     0.000 C 
BRANCH  11  12
ATOM     12  C   UNL     1       0.091 -19.670  24.528  1.00  0.00     0.006 C 
BRANCH  12  13
ATOM     13  C   UNL     1       0.131 -18.339  23.759  1.00  0.00     0.053 C 
BRANCH  13  14
ATOM     14  C   UNL     1      -0.565 -17.243  24.505  1.00  0.00     0.041 C 
ATOM     15  O   UNL     1      -0.346 -16.038  24.213  1.00  0.00    -0.550 OA
ATOM     16  O   UNL     1      -1.429 -17.553  25.550  1.00  0.00    -0.550 OA
ENDBRANCH  13  14
ENDBRANCH  12  13
ENDBRANCH  11  12
ENDBRANCH  10  11
ENDBRANCH   9  10
ENDBRANCH   8   9
ENDBRANCH   7   8
ENDBRANCH   6   7
ENDBRANCH   5   6
ENDBRANCH   4   5
ENDBRANCH   3   4
ENDBRANCH   2   3
ENDBRANCH   1   2
BRANCH   1  17
ATOM     17  C   UNL     1      -9.180 -17.980  28.036  1.00  0.00     0.000 C 
BRANCH  17  18
ATOM     18  C   UNL     1     -10.042 -16.704  28.068  1.00  0.00     0.000 C 
BRANCH  18  19
ATOM     19  C   UNL     1      -9.595 -15.694  26.999  1.00  0.00     0.000 C 
BRANCH  19  20
ATOM     20  C   UNL     1     -10.796 -14.975  26.356  1.00  0.00     0.000 C 
BRANCH  20  21
ATOM     21  C   UNL     1     -10.703 -13.442  26.479  1.00  0.00     0.000 C 
BRANCH  21  22
ATOM     22  C   UNL     1     -11.862 -12.793  27.271  1.00  0.00    -0.000 C 
BRANCH  22  23
ATOM     23  C   UNL     1     -11.535 -11.429  27.909  1.00  0.00    -0.000 C 
BRANCH  23  24
ATOM     24  C   UNL     1     -10.098 -10.960  27.624  1.00  0.00    -0.000 C 
BRANCH  24  25
ATOM     25  C   UNL     1     -10.012  -9.463  27.276  1.00  0.00    -0.000 C 
BRANCH  25  26
ATOM     26  C   UNL     1      -8.665  -9.001  26.677  1.00  0.00    -0.000 C 
BRANCH  26  27
ATOM     27  C   UNL     1      -7.414  -9.676  27.272  1.00  0.00    -0.000 C 
BRANCH  27  28
ATOM     28  C   UNL     1      -6.368 -10.035  26.203  1.00  0.00    -0.000 C 
BRANCH  28  29
ATOM     29  C   UNL     1      -5.128 -10.715  26.805  1.00  0.00    -0.003 C 
ATOM     30  C   UNL     1      -5.245 -12.239  26.837  1.00  0.00     0.004 C 
ENDBRANCH  28  29
ENDBRANCH  27  28
ENDBRANCH  26  27
ENDBRANCH  25  26
ENDBRANCH  24  25
ENDBRANCH  23  24
ENDBRANCH  22  23
ENDBRANCH  21  22
ENDBRANCH  20  21
ENDBRANCH  19  20
ENDBRANCH  18  19
ENDBRANCH  17  18
ENDBRANCH   1  17
TORSDOF 26
ENDMDL
MODEL 7
REMARK VINA RESULT:    23.229      2.590      9.936
REMARK INTER + INTRA:          58.036
REMARK INTER:                  59.210
REMARK INTRA:                  -1.174
REMARK UNBOUND:                -0.500
REMARK SMILES CCCCCCCCCCCCCCCCCCCCCCCCCCCC(=O)[O-]
REMARK SMILES IDX 15 1 16 2 17 3 18 4 19 5 20 6 21 7 22 8 23 9 24 10 25 11
REMARK SMILES IDX 26 12 27 13 28 14 29 15 30 16 14 17 13 18 12 19 11 20 10 21
REMARK SMILES IDX 9 22 8 23 7 24 6 25 5 26 4 27 3 28 2 29 1 30
REMARK H PARENT
REMARK Flexibility Score: inf
ROOT
ATOM      1  C   UNL     1      -9.201 -17.976  28.353  1.00  0.00     0.000 C 
ENDROOT
BRANCH   1   2
ATOM      2  C   UNL     1      -8.482 -18.347  27.047  1.00  0.00     0.000 C 
BRANCH   2   3
ATOM      3  C   UNL     1      -7.393 -17.315  26.710  1.00  0.00     0.000 C 
BRANCH   3   4
ATOM      4  C   UNL     1      -6.025 -17.964  26.442  1.00  0.00     0.000 C 
BRANCH   4   5
ATOM      5  C   UNL     1      -4.996 -17.621  27.534  1.00  0.00     0.000 C 
BRANCH   5   6
ATOM      6  C   UNL     1      -3.603 -18.204  27.240  1.00  0.00     0.000 C 
BRANCH   6   7
ATOM      7  C   UNL     1      -2.822 -17.382  26.199  1.00  0.00     0.000 C 
BRANCH   7   8
ATOM      8  C   UNL     1      -1.426 -17.960  25.912  1.00  0.00     0.000 C 
BRANCH   8   9
ATOM      9  C   UNL     1      -0.655 -17.152  24.854  1.00  0.00     0.000 C 
BRANCH   9  10
ATOM     10  C   UNL     1      -0.402 -17.970  23.569  1.00  0.00     0.000 C 
BRANCH  10  11
ATOM     11  C   UNL     1      -0.867 -19.437  23.668  1.00  0.00     0.000 C 
BRANCH  11  12
ATOM     12  C   UNL     1      -1.641 -19.960  22.441  1.00  0.00     0.006 C 
BRANCH  12  13
ATOM     13  C   UNL     1      -2.644 -21.082  22.754  1.00  0.00     0.053 C 
BRANCH  13  14
ATOM     14  C   UNL     1      -4.060 -20.630  22.575  1.00  0.00     0.041 C 
ATOM     15  O   UNL     1      -4.482 -19.607  23.176  1.00  0.00    -0.550 OA
ATOM     16  O   UNL     1      -4.928 -21.365  21.774  1.00  0.00    -0.550 OA
ENDBRANCH  13  14
ENDBRANCH  12  13
ENDBRANCH  11  12
ENDBRANCH  10  11
ENDBRANCH   9  10
ENDBRANCH   8   9
ENDBRANCH   7   8
ENDBRANCH   6   7
ENDBRANCH   5   6
ENDBRANCH   4   5
ENDBRANCH   3   4
ENDBRANCH   2   3
ENDBRANCH   1   2
BRANCH   1  17
ATOM     17  C   UNL     1      -9.709 -16.525  28.367  1.00  0.00     0.000 C 
BRANCH  17  18
ATOM     18  C   UNL     1     -10.203 -16.046  26.989  1.00  0.00     0.000 C 
BRANCH  18  19
ATOM     19  C   UNL     1      -9.781 -14.595  26.710  1.00  0.00     0.000 C 
BRANCH  19  20
ATOM     20  C   UNL     1     -10.990 -13.704  26.370  1.00  0.00     0.000 C 
BRANCH  20  21
ATOM     21  C   UNL     1     -11.537 -12.955  27.600  1.00  0.00     0.000 C 
BRANCH  21  22
ATOM     22  C   UNL     1     -11.204 -11.446  27.629  1.00  0.00    -0.000 C 
BRANCH  22  23
ATOM     23  C   UNL     1      -9.907 -11.048  26.897  1.00  0.00    -0.000 C 
BRANCH  23  24
ATOM     24  C   UNL     1      -9.712  -9.524  26.802  1.00  0.00    -0.000 C 
BRANCH  24  25
ATOM     25  C   UNL     1      -9.021  -8.929  28.042  1.00  0.00    -0.000 C 
BRANCH  25  26
ATOM     26  C   UNL     1      -7.498  -9.174  28.129  1.00  0.00    -0.000 C 
BRANCH  26  27
ATOM     27  C   UNL     1      -6.868  -9.842  26.892  1.00  0.00    -0.000 C 
BRANCH  27  28
ATOM     28  C   UNL     1      -5.336  -9.942  26.987  1.00  0.00    -0.000 C 
BRANCH  28  29
ATOM     29  C   UNL     1      -4.864 -11.355  27.361  1.00  0.00    -0.003 C 
ATOM     30  C   UNL     1      -5.617 -12.451  26.606  1.00  0.00     0.004 C 
ENDBRANCH  28  29
ENDBRANCH  27  28
ENDBRANCH  26  27
ENDBRANCH  25  26
ENDBRANCH  24  25
ENDBRANCH  23  24
ENDBRANCH  22  23
ENDBRANCH  21  22
ENDBRANCH  20  21
ENDBRANCH  19  20
ENDBRANCH  18  19
ENDBRANCH  17  18
ENDBRANCH   1  17
TORSDOF 26
ENDMDL
MODEL 8
REMARK VINA RESULT:    23.699      2.042      9.802
REMARK INTER + INTRA:          59.221
REMARK INTER:                  60.607
REMARK INTRA:                  -1.387
REMARK UNBOUND:                -0.500
REMARK SMILES CCCCCCCCCCCCCCCCCCCCCCCCCCCC(=O)[O-]
REMARK SMILES IDX 15 1 16 2 17 3 18 4 19 5 20 6 21 7 22 8 23 9 24 10 25 11
REMARK SMILES IDX 26 12 27 13 28 14 29 15 30 16 14 17 13 18 12 19 11 20 10 21
REMARK SMILES IDX 9 22 8 23 7 24 6 25 5 26 4 27 3 28 2 29 1 30
REMARK H PARENT
REMARK Flexibility Score: inf
ROOT
ATOM      1  C   UNL     1      -9.933 -16.786  27.983  1.00  0.00     0.000 C 
ENDROOT
BRANCH   1   2
ATOM      2  C   UNL     1      -8.885 -17.890  27.779  1.00  0.00     0.000 C 
BRANCH   2   3
ATOM      3  C   UNL     1      -7.752 -17.406  26.859  1.00  0.00     0.000 C 
BRANCH   3   4
ATOM      4  C   UNL     1      -6.358 -17.781  27.389  1.00  0.00     0.000 C 
BRANCH   4   5
ATOM      5  C   UNL     1      -5.338 -17.978  26.252  1.00  0.00     0.000 C 
BRANCH   5   6
ATOM      6  C   UNL     1      -5.849 -18.929  25.156  1.00  0.00     0.000 C 
BRANCH   6   7
ATOM      7  C   UNL     1      -4.992 -18.877  23.877  1.00  0.00     0.000 C 
BRANCH   7   8
ATOM      8  C   UNL     1      -4.379 -20.240  23.518  1.00  0.00     0.000 C 
BRANCH   8   9
ATOM      9  C   UNL     1      -3.661 -20.228  22.157  1.00  0.00     0.000 C 
BRANCH   9  10
ATOM     10  C   UNL     1      -2.267 -20.889  22.230  1.00  0.00     0.000 C 
BRANCH  10  11
ATOM     11  C   UNL     1      -1.570 -20.712  23.595  1.00  0.00     0.000 C 
BRANCH  11  12
ATOM     12  C   UNL     1      -0.502 -19.601  23.640  1.00  0.00     0.006 C 
BRANCH  12  13
ATOM     13  C   UNL     1      -1.007 -18.258  24.194  1.00  0.00     0.053 C 
BRANCH  13  14
ATOM     14  C   UNL     1      -1.114 -18.275  25.687  1.00  0.00     0.041 C 
ATOM     15  O   UNL     1      -0.277 -18.913  26.377  1.00  0.00    -0.550 OA
ATOM     16  O   UNL     1      -2.166 -17.616  26.316  1.00  0.00    -0.550 OA
ENDBRANCH  13  14
ENDBRANCH  12  13
ENDBRANCH  11  12
ENDBRANCH  10  11
ENDBRANCH   9  10
ENDBRANCH   8   9
ENDBRANCH   7   8
ENDBRANCH   6   7
ENDBRANCH   5   6
ENDBRANCH   4   5
ENDBRANCH   3   4
ENDBRANCH   2   3
ENDBRANCH   1   2
BRANCH   1  17
ATOM     17  C   UNL     1      -9.599 -15.492  27.224  1.00  0.00     0.000 C 
BRANCH  17  18
ATOM     18  C   UNL     1     -10.791 -14.940  26.420  1.00  0.00     0.000 C 
BRANCH  18  19
ATOM     19  C   UNL     1     -10.798 -13.404  26.402  1.00  0.00     0.000 C 
BRANCH  19  20
ATOM     20  C   UNL     1     -11.567 -12.822  27.604  1.00  0.00     0.000 C 
BRANCH  20  21
ATOM     21  C   UNL     1     -11.223 -11.343  27.865  1.00  0.00     0.000 C 
BRANCH  21  22
ATOM     22  C   UNL     1     -10.111 -10.775  26.954  1.00  0.00    -0.000 C 
BRANCH  22  23
ATOM     23  C   UNL     1      -9.864  -9.259  27.090  1.00  0.00    -0.000 C 
BRANCH  23  24
ATOM     24  C   UNL     1      -8.816  -8.914  28.162  1.00  0.00    -0.000 C 
BRANCH  24  25
ATOM     25  C   UNL     1      -7.389  -9.337  27.765  1.00  0.00    -0.000 C 
BRANCH  25  26
ATOM     26  C   UNL     1      -7.203  -9.714  26.279  1.00  0.00    -0.000 C 
BRANCH  26  27
ATOM     27  C   UNL     1      -5.809 -10.255  25.908  1.00  0.00    -0.000 C 
BRANCH  27  28
ATOM     28  C   UNL     1      -5.609 -11.721  26.327  1.00  0.00    -0.000 C 
BRANCH  28  29
ATOM     29  C   UNL     1      -4.877 -11.849  27.672  1.00  0.00    -0.003 C 
ATOM     30  C   UNL     1      -4.303 -10.520  28.164  1.00  0.00     0.004 C 
ENDBRANCH  28  29
ENDBRANCH  27  28
ENDBRANCH  26  27
ENDBRANCH  25  26
ENDBRANCH  24  25
ENDBRANCH  23  24
ENDBRANCH  22  23
ENDBRANCH  21  22
ENDBRANCH  20  21
ENDBRANCH  19  20
ENDBRANCH  18  19
ENDBRANCH  17  18
ENDBRANCH   1  17
TORSDOF 26
ENDMDL
