MODEL 1
REMARK VINA RESULT:    -4.422      0.000      0.000
REMARK INTER + INTRA:          -5.326
REMARK INTER:                  -5.198
REMARK INTRA:                  -0.128
REMARK UNBOUND:                -0.128
REMARK SMILES O=C([O-])C=Cc1ccc(O)c(O)c1
REMARK SMILES IDX 6 1 13 2 7 3 11 4 8 5 9 6 5 7 4 8 2 9 1 10 3 11 12 12 10 14
REMARK H PARENT 12 13 10 15
REMARK Flexibility Score: inf
ROOT
ATOM      1  C   UNL     1      -5.012  16.334  22.012  1.00  0.00    -0.022 A 
ATOM      2  C   UNL     1      -5.669  17.562  21.835  1.00  0.00     0.058 A 
ATOM      3  C   UNL     1      -5.739  15.144  21.825  1.00  0.00     0.012 A 
ATOM      4  C   UNL     1      -7.016  17.616  21.455  1.00  0.00     0.157 A 
ATOM      5  C   UNL     1      -7.082  15.189  21.446  1.00  0.00     0.051 A 
ATOM      6  C   UNL     1      -7.731  16.412  21.254  1.00  0.00     0.157 A 
ENDROOT
BRANCH   1   7
ATOM      7  C   UNL     1      -3.587  16.344  22.427  1.00  0.00     0.010 C 
ATOM      8  C   UNL     1      -2.565  16.155  21.581  1.00  0.00     0.025 C 
BRANCH   8   9
ATOM      9  C   UNL     1      -1.165  16.185  22.034  1.00  0.00     0.064 C 
ATOM     10  O   UNL     1      -0.877  16.743  23.125  1.00  0.00    -0.545 OA
ATOM     11  O   UNL     1      -0.152  15.610  21.275  1.00  0.00    -0.545 OA
ENDBRANCH   8   9
ENDBRANCH   1   7
BRANCH   4  12
ATOM     12  O   UNL     1      -7.598  18.875  21.289  1.00  0.00    -0.504 OA
ATOM     13  H   UNL     1      -7.138  19.656  20.845  1.00  0.00     0.293 HD
ENDBRANCH   4  12
BRANCH   6  14
ATOM     14  O   UNL     1      -9.074  16.387  20.871  1.00  0.00    -0.504 OA
ATOM     15  H   UNL     1      -9.432  16.828  20.036  1.00  0.00     0.293 HD
ENDBRANCH   6  14
TORSDOF 4
ENDMDL
MODEL 2
REMARK VINA RESULT:    -4.110      1.254      6.050
REMARK INTER + INTRA:          -4.959
REMARK INTER:                  -4.827
REMARK INTRA:                  -0.133
REMARK UNBOUND:                -0.128
REMARK SMILES O=C([O-])C=Cc1ccc(O)c(O)c1
REMARK SMILES IDX 6 1 13 2 7 3 11 4 8 5 9 6 5 7 4 8 2 9 1 10 3 11 12 12 10 14
REMARK H PARENT 12 13 10 15
REMARK Flexibility Score: inf
ROOT
ATOM      1  C   UNL     1      -3.674  16.415  22.098  1.00  0.00    -0.022 A 
ATOM      2  C   UNL     1      -2.935  15.647  21.184  1.00  0.00     0.058 A 
ATOM      3  C   UNL     1      -2.984  17.148  23.080  1.00  0.00     0.012 A 
ATOM      4  C   UNL     1      -1.536  15.623  21.222  1.00  0.00     0.157 A 
ATOM      5  C   UNL     1      -1.589  17.130  23.125  1.00  0.00     0.051 A 
ATOM      6  C   UNL     1      -0.853  16.378  22.204  1.00  0.00     0.157 A 
ENDROOT
BRANCH   1   7
ATOM      7  C   UNL     1      -5.156  16.389  22.012  1.00  0.00     0.010 C 
ATOM      8  C   UNL     1      -5.844  15.497  21.288  1.00  0.00     0.025 C 
BRANCH   8   9
ATOM      9  C   UNL     1      -7.315  15.501  21.242  1.00  0.00     0.064 C 
ATOM     10  O   UNL     1      -7.952  14.490  21.639  1.00  0.00    -0.545 OA
ATOM     11  O   UNL     1      -8.015  16.602  20.762  1.00  0.00    -0.545 OA
ENDBRANCH   8   9
ENDBRANCH   1   7
BRANCH   4  12
ATOM     12  O   UNL     1      -0.870  14.844  20.273  1.00  0.00    -0.504 OA
ATOM     13  H   UNL     1      -0.282  15.220  19.545  1.00  0.00     0.293 HD
ENDBRANCH   4  12
BRANCH   6  14
ATOM     14  O   UNL     1       0.540  16.406  22.301  1.00  0.00    -0.504 OA
ATOM     15  H   UNL     1       1.053  16.166  23.137  1.00  0.00     0.293 HD
ENDBRANCH   6  14
TORSDOF 4
ENDMDL
MODEL 3
REMARK VINA RESULT:    -3.894      0.743      2.050
REMARK INTER + INTRA:          -4.705
REMARK INTER:                  -4.575
REMARK INTRA:                  -0.131
REMARK UNBOUND:                -0.128
REMARK SMILES O=C([O-])C=Cc1ccc(O)c(O)c1
REMARK SMILES IDX 6 1 13 2 7 3 11 4 8 5 9 6 5 7 4 8 2 9 1 10 3 11 12 12 10 14
REMARK H PARENT 12 13 10 15
REMARK Flexibility Score: inf
ROOT
ATOM      1  C   UNL     1      -5.041  16.442  22.059  1.00  0.00    -0.022 A 
ATOM      2  C   UNL     1      -5.934  15.393  21.791  1.00  0.00     0.058 A 
ATOM      3  C   UNL     1      -5.510  17.766  21.989  1.00  0.00     0.012 A 
ATOM      4  C   UNL     1      -7.277  15.645  21.483  1.00  0.00     0.157 A 
ATOM      5  C   UNL     1      -6.847  18.026  21.683  1.00  0.00     0.051 A 
ATOM      6  C   UNL     1      -7.741  16.981  21.432  1.00  0.00     0.157 A 
ENDROOT
BRANCH   1   7
ATOM      7  C   UNL     1      -3.628  16.110  22.368  1.00  0.00     0.010 C 
ATOM      8  C   UNL     1      -2.602  16.384  21.549  1.00  0.00     0.025 C 
BRANCH   8   9
ATOM      9  C   UNL     1      -1.214  16.047  21.901  1.00  0.00     0.064 C 
ATOM     10  O   UNL     1      -0.566  15.247  21.178  1.00  0.00    -0.545 OA
ATOM     11  O   UNL     1      -0.606  16.596  23.025  1.00  0.00    -0.545 OA
ENDBRANCH   8   9
ENDBRANCH   1   7
BRANCH   4  12
ATOM     12  O   UNL     1      -8.108  14.550  21.238  1.00  0.00    -0.504 OA
ATOM     13  H   UNL     1      -8.528  14.348  20.343  1.00  0.00     0.293 HD
ENDBRANCH   4  12
BRANCH   6  14
ATOM     14  O   UNL     1      -9.065  17.309  21.136  1.00  0.00    -0.504 OA
ATOM     15  H   UNL     1      -9.667  16.753  20.546  1.00  0.00     0.293 HD
ENDBRANCH   6  14
TORSDOF 4
ENDMDL
MODEL 4
REMARK VINA RESULT:    -3.784      1.406      5.696
REMARK INTER + INTRA:          -4.576
REMARK INTER:                  -4.448
REMARK INTRA:                  -0.127
REMARK UNBOUND:                -0.128
REMARK SMILES O=C([O-])C=Cc1ccc(O)c(O)c1
REMARK SMILES IDX 6 1 13 2 7 3 11 4 8 5 9 6 5 7 4 8 2 9 1 10 3 11 12 12 10 14
REMARK H PARENT 12 13 10 15
REMARK Flexibility Score: inf
ROOT
ATOM      1  C   UNL     1      -4.179  16.088  21.863  1.00  0.00    -0.022 A 
ATOM      2  C   UNL     1      -3.716  17.360  22.233  1.00  0.00     0.058 A 
ATOM      3  C   UNL     1      -3.279  15.187  21.265  1.00  0.00     0.012 A 
ATOM      4  C   UNL     1      -2.379  17.730  22.040  1.00  0.00     0.157 A 
ATOM      5  C   UNL     1      -1.944  15.547  21.070  1.00  0.00     0.051 A 
ATOM      6  C   UNL     1      -1.479  16.808  21.454  1.00  0.00     0.157 A 
ENDROOT
BRANCH   1   7
ATOM      7  C   UNL     1      -5.609  15.761  22.083  1.00  0.00     0.010 C 
ATOM      8  C   UNL     1      -6.570  15.975  21.174  1.00  0.00     0.025 C 
BRANCH   8   9
ATOM      9  C   UNL     1      -7.976  15.624  21.430  1.00  0.00     0.064 C 
ATOM     10  O   UNL     1      -8.302  14.414  21.551  1.00  0.00    -0.545 OA
ATOM     11  O   UNL     1      -8.954  16.607  21.536  1.00  0.00    -0.545 OA
ENDBRANCH   8   9
ENDBRANCH   1   7
BRANCH   4  12
ATOM     12  O   UNL     1      -1.990  19.010  22.443  1.00  0.00    -0.504 OA
ATOM     13  H   UNL     1      -1.037  19.340  22.433  1.00  0.00     0.293 HD
ENDBRANCH   4  12
BRANCH   6  14
ATOM     14  O   UNL     1      -0.133  17.104  21.234  1.00  0.00    -0.504 OA
ATOM     15  H   UNL     1       0.624  16.749  21.800  1.00  0.00     0.293 HD
ENDBRANCH   6  14
TORSDOF 4
ENDMDL
MODEL 5
REMARK VINA RESULT:    -3.694     14.533     16.404
REMARK INTER + INTRA:          -4.470
REMARK INTER:                  -4.339
REMARK INTRA:                  -0.130
REMARK UNBOUND:                -0.128
REMARK SMILES O=C([O-])C=Cc1ccc(O)c(O)c1
REMARK SMILES IDX 6 1 13 2 7 3 11 4 8 5 9 6 5 7 4 8 2 9 1 10 3 11 12 12 10 14
REMARK H PARENT 12 13 10 15
REMARK Flexibility Score: inf
ROOT
ATOM      1  C   UNL     1      10.590  13.233  19.498  1.00  0.00    -0.022 A 
ATOM      2  C   UNL     1      10.726  12.431  20.641  1.00  0.00     0.058 A 
ATOM      3  C   UNL     1      10.573  12.614  18.234  1.00  0.00     0.012 A 
ATOM      4  C   UNL     1      10.817  11.037  20.543  1.00  0.00     0.157 A 
ATOM      5  C   UNL     1      10.663  11.225  18.127  1.00  0.00     0.051 A 
ATOM      6  C   UNL     1      10.781  10.425  19.268  1.00  0.00     0.157 A 
ENDROOT
BRANCH   1   7
ATOM      7  C   UNL     1      10.510  14.705  19.668  1.00  0.00     0.010 C 
ATOM      8  C   UNL     1       9.674  15.311  20.522  1.00  0.00     0.025 C 
BRANCH   8   9
ATOM      9  C   UNL     1       9.636  16.775  20.667  1.00  0.00     0.064 C 
ATOM     10  O   UNL     1      10.623  17.462  20.294  1.00  0.00    -0.545 OA
ATOM     11  O   UNL     1       8.529  17.414  21.213  1.00  0.00    -0.545 OA
ENDBRANCH   8   9
ENDBRANCH   1   7
BRANCH   4  12
ATOM     12  O   UNL     1      10.941  10.305  21.726  1.00  0.00    -0.504 OA
ATOM     13  H   UNL     1      10.729   9.322  21.808  1.00  0.00     0.293 HD
ENDBRANCH   4  12
BRANCH   6  14
ATOM     14  O   UNL     1      10.864   9.042  19.092  1.00  0.00    -0.504 OA
ATOM     15  H   UNL     1      10.795   8.371  19.843  1.00  0.00     0.293 HD
ENDBRANCH   6  14
TORSDOF 4
ENDMDL
MODEL 6
REMARK VINA RESULT:    -3.558     16.383     16.980
REMARK INTER + INTRA:          -4.310
REMARK INTER:                  -4.179
REMARK INTRA:                  -0.131
REMARK UNBOUND:                -0.128
REMARK SMILES O=C([O-])C=Cc1ccc(O)c(O)c1
REMARK SMILES IDX 6 1 13 2 7 3 11 4 8 5 9 6 5 7 4 8 2 9 1 10 3 11 12 12 10 14
REMARK H PARENT 12 13 10 15
REMARK Flexibility Score: inf
ROOT
ATOM      1  C   UNL     1      10.756  11.069  20.231  1.00  0.00    -0.022 A 
ATOM      2  C   UNL     1      10.765  11.119  18.828  1.00  0.00     0.058 A 
ATOM      3  C   UNL     1      10.871  12.271  20.952  1.00  0.00     0.012 A 
ATOM      4  C   UNL     1      10.862  12.338  18.146  1.00  0.00     0.157 A 
ATOM      5  C   UNL     1      10.968  13.491  20.281  1.00  0.00     0.051 A 
ATOM      6  C   UNL     1      10.961  13.542  18.883  1.00  0.00     0.157 A 
ENDROOT
BRANCH   1   7
ATOM      7  C   UNL     1      10.662   9.745  20.894  1.00  0.00     0.010 C 
ATOM      8  C   UNL     1       9.750   9.443  21.828  1.00  0.00     0.025 C 
BRANCH   8   9
ATOM      9  C   UNL     1       9.686   8.111  22.452  1.00  0.00     0.064 C 
ATOM     10  O   UNL     1      10.722   7.397  22.498  1.00  0.00    -0.545 OA
ATOM     11  O   UNL     1       8.499   7.626  22.987  1.00  0.00    -0.545 OA
ENDBRANCH   8   9
ENDBRANCH   1   7
BRANCH   4  12
ATOM     12  O   UNL     1      10.856  12.308  16.750  1.00  0.00    -0.504 OA
ATOM     13  H   UNL     1      10.875  13.132  16.167  1.00  0.00     0.293 HD
ENDBRANCH   4  12
BRANCH   6  14
ATOM     14  O   UNL     1      11.057  14.794  18.274  1.00  0.00    -0.504 OA
ATOM     15  H   UNL     1      10.572  15.619  18.597  1.00  0.00     0.293 HD
ENDBRANCH   6  14
TORSDOF 4
ENDMDL
MODEL 7
REMARK VINA RESULT:    -3.533      8.563     13.374
REMARK INTER + INTRA:          -4.281
REMARK INTER:                  -4.146
REMARK INTRA:                  -0.135
REMARK UNBOUND:                -0.128
REMARK SMILES O=C([O-])C=Cc1ccc(O)c(O)c1
REMARK SMILES IDX 6 1 13 2 7 3 11 4 8 5 9 6 5 7 4 8 2 9 1 10 3 11 12 12 10 14
REMARK H PARENT 12 13 10 15
REMARK Flexibility Score: inf
ROOT
ATOM      1  C   UNL     1       7.230  15.868  21.608  1.00  0.00    -0.022 A 
ATOM      2  C   UNL     1       8.088  14.762  21.507  1.00  0.00     0.058 A 
ATOM      3  C   UNL     1       7.703  17.131  21.208  1.00  0.00     0.012 A 
ATOM      4  C   UNL     1       9.385  14.895  20.996  1.00  0.00     0.157 A 
ATOM      5  C   UNL     1       8.994  17.272  20.697  1.00  0.00     0.051 A 
ATOM      6  C   UNL     1       9.843  16.168  20.581  1.00  0.00     0.157 A 
ENDROOT
BRANCH   1   7
ATOM      7  C   UNL     1       5.871  15.664  22.169  1.00  0.00     0.010 C 
ATOM      8  C   UNL     1       4.763  16.218  21.657  1.00  0.00     0.025 C 
BRANCH   8   9
ATOM      9  C   UNL     1       3.433  15.978  22.239  1.00  0.00     0.064 C 
ATOM     10  O   UNL     1       3.293  15.094  23.125  1.00  0.00    -0.545 OA
ATOM     11  O   UNL     1       2.326  16.709  21.824  1.00  0.00    -0.545 OA
ENDBRANCH   8   9
ENDBRANCH   1   7
BRANCH   4  12
ATOM     12  O   UNL     1      10.177  13.747  20.917  1.00  0.00    -0.504 OA
ATOM     13  H   UNL     1      10.530  13.248  21.720  1.00  0.00     0.293 HD
ENDBRANCH   4  12
BRANCH   6  14
ATOM     14  O   UNL     1      11.121  16.377  20.059  1.00  0.00    -0.504 OA
ATOM     15  H   UNL     1      11.310  16.913  19.224  1.00  0.00     0.293 HD
ENDBRANCH   6  14
TORSDOF 4
ENDMDL
MODEL 8
REMARK VINA RESULT:    -3.376     13.125     15.785
REMARK INTER + INTRA:          -4.096
REMARK INTER:                  -3.969
REMARK INTRA:                  -0.127
REMARK UNBOUND:                -0.128
REMARK SMILES O=C([O-])C=Cc1ccc(O)c(O)c1
REMARK SMILES IDX 6 1 13 2 7 3 11 4 8 5 9 6 5 7 4 8 2 9 1 10 3 11 12 12 10 14
REMARK H PARENT 12 13 10 15
REMARK Flexibility Score: inf
ROOT
ATOM      1  C   UNL     1      10.072  13.364  20.419  1.00  0.00    -0.022 A 
ATOM      2  C   UNL     1      10.241  13.236  19.032  1.00  0.00     0.058 A 
ATOM      3  C   UNL     1      10.236  12.227  21.231  1.00  0.00     0.012 A 
ATOM      4  C   UNL     1      10.592  12.009  18.455  1.00  0.00     0.157 A 
ATOM      5  C   UNL     1      10.587  11.000  20.663  1.00  0.00     0.051 A 
ATOM      6  C   UNL     1      10.772  10.876  19.283  1.00  0.00     0.157 A 
ENDROOT
BRANCH   1   7
ATOM      7  C   UNL     1       9.688  14.689  20.968  1.00  0.00     0.010 C 
ATOM      8  C   UNL     1       8.445  15.000  21.362  1.00  0.00     0.025 C 
BRANCH   8   9
ATOM      9  C   UNL     1       8.111  16.323  21.913  1.00  0.00     0.064 C 
ATOM     10  O   UNL     1       7.323  16.408  22.890  1.00  0.00    -0.545 OA
ATOM     11  O   UNL     1       8.650  17.483  21.368  1.00  0.00    -0.545 OA
ENDBRANCH   8   9
ENDBRANCH   1   7
BRANCH   4  12
ATOM     12  O   UNL     1      10.752  11.961  17.068  1.00  0.00    -0.504 OA
ATOM     13  H   UNL     1      11.380  12.558  16.551  1.00  0.00     0.293 HD
ENDBRANCH   4  12
BRANCH   6  14
ATOM     14  O   UNL     1      11.125   9.622  18.780  1.00  0.00    -0.504 OA
ATOM     15  H   UNL     1      10.530   9.063  18.186  1.00  0.00     0.293 HD
ENDBRANCH   6  14
TORSDOF 4
ENDMDL
MODEL 9
REMARK VINA RESULT:    -3.045     13.321     15.293
REMARK INTER + INTRA:          -3.708
REMARK INTER:                  -3.568
REMARK INTRA:                  -0.140
REMARK UNBOUND:                -0.128
REMARK SMILES O=C([O-])C=Cc1ccc(O)c(O)c1
REMARK SMILES IDX 6 1 13 2 7 3 11 4 8 5 9 6 5 7 4 8 2 9 1 10 3 11 12 12 10 14
REMARK H PARENT 12 13 10 15
REMARK Flexibility Score: inf
ROOT
ATOM      1  C   UNL     1       9.871  14.148  20.843  1.00  0.00    -0.022 A 
ATOM      2  C   UNL     1       8.766  14.591  21.586  1.00  0.00     0.058 A 
ATOM      3  C   UNL     1      10.611  15.088  20.102  1.00  0.00     0.012 A 
ATOM      4  C   UNL     1       8.410  15.945  21.619  1.00  0.00     0.157 A 
ATOM      5  C   UNL     1      10.263  16.440  20.130  1.00  0.00     0.051 A 
ATOM      6  C   UNL     1       9.172  16.883  20.883  1.00  0.00     0.157 A 
ENDROOT
BRANCH   1   7
ATOM      7  C   UNL     1      10.190  12.698  20.840  1.00  0.00     0.010 C 
ATOM      8  C   UNL     1      10.578  12.024  19.749  1.00  0.00     0.025 C 
BRANCH   8   9
ATOM      9  C   UNL     1      10.896  10.588  19.794  1.00  0.00     0.064 C 
ATOM     10  O   UNL     1      10.965  10.002  20.905  1.00  0.00    -0.545 OA
ATOM     11  O   UNL     1      11.125   9.867  18.627  1.00  0.00    -0.545 OA
ENDBRANCH   8   9
ENDBRANCH   1   7
BRANCH   4  12
ATOM     12  O   UNL     1       7.304  16.311  22.388  1.00  0.00    -0.504 OA
ATOM     13  H   UNL     1       6.370  16.418  22.021  1.00  0.00     0.293 HD
ENDBRANCH   4  12
BRANCH   6  14
ATOM     14  O   UNL     1       8.880  18.249  20.870  1.00  0.00    -0.504 OA
ATOM     15  H   UNL     1       8.037  18.650  21.256  1.00  0.00     0.293 HD
ENDBRANCH   6  14
TORSDOF 4
ENDMDL
