MODEL 1
REMARK VINA RESULT:    -3.193      0.000      0.000
REMARK INTER + INTRA:          -9.128
REMARK INTER:                  -6.180
REMARK INTRA:                  -2.948
REMARK UNBOUND:                -2.948
REMARK SMILES CCCCCCCCCCCCCCCCCC(=O)[O-]
REMARK SMILES IDX 10 1 11 2 12 3 13 4 14 5 15 6 16 7 17 8 18 9 19 10 20 11
REMARK SMILES IDX 9 12 8 13 7 14 6 15 5 16 4 17 3 18 2 19 1 20
REMARK H PARENT
REMARK Flexibility Score: inf
ROOT
ATOM      1  C   UNL     1       8.096   9.123   1.074  1.00  0.00     0.000 C 
ENDROOT
BRANCH   1   2
ATOM      2  C   UNL     1       7.718  10.421   0.341  1.00  0.00     0.000 C 
BRANCH   2   3
ATOM      3  C   UNL     1       6.847  11.354   1.197  1.00  0.00     0.000 C 
BRANCH   3   4
ATOM      4  C   UNL     1       5.521  11.729   0.512  1.00  0.00     0.000 C 
BRANCH   4   5
ATOM      5  C   UNL     1       5.723  12.180  -0.945  1.00  0.00     0.000 C 
BRANCH   5   6
ATOM      6  C   UNL     1       4.905  11.339  -1.940  1.00  0.00     0.000 C 
BRANCH   6   7
ATOM      7  C   UNL     1       5.790  10.599  -2.956  1.00  0.00     0.006 C 
BRANCH   7   8
ATOM      8  C   UNL     1       6.674  11.548  -3.775  1.00  0.00     0.053 C 
BRANCH   8   9
ATOM      9  C   UNL     1       6.233  11.567  -5.205  1.00  0.00     0.041 C 
ATOM     10  O   UNL     1       5.009  11.503  -5.492  1.00  0.00    -0.550 OA
ATOM     11  O   UNL     1       7.172  11.712  -6.220  1.00  0.00    -0.550 OA
ENDBRANCH   8   9
ENDBRANCH   7   8
ENDBRANCH   6   7
ENDBRANCH   5   6
ENDBRANCH   4   5
ENDBRANCH   3   4
ENDBRANCH   2   3
ENDBRANCH   1   2
BRANCH   1  12
ATOM     12  C   UNL     1       7.619   7.859   0.334  1.00  0.00     0.000 C 
BRANCH  12  13
ATOM     13  C   UNL     1       6.316   8.027  -0.475  1.00  0.00    -0.000 C 
BRANCH  13  14
ATOM     14  C   UNL     1       5.050   7.449   0.190  1.00  0.00    -0.000 C 
BRANCH  14  15
ATOM     15  C   UNL     1       3.868   8.431   0.306  1.00  0.00    -0.000 C 
BRANCH  15  16
ATOM     16  C   UNL     1       3.338   8.557   1.744  1.00  0.00    -0.000 C 
BRANCH  16  17
ATOM     17  C   UNL     1       4.388   9.124   2.714  1.00  0.00    -0.000 C 
BRANCH  17  18
ATOM     18  C   UNL     1       4.731   8.147   3.852  1.00  0.00    -0.000 C 
BRANCH  18  19
ATOM     19  C   UNL     1       6.194   7.678   3.804  1.00  0.00    -0.003 C 
ATOM     20  C   UNL     1       6.331   6.157   3.848  1.00  0.00     0.004 C 
ENDBRANCH  18  19
ENDBRANCH  17  18
ENDBRANCH  16  17
ENDBRANCH  15  16
ENDBRANCH  14  15
ENDBRANCH  13  14
ENDBRANCH  12  13
ENDBRANCH   1  12
TORSDOF 16
ENDMDL
MODEL 2
REMARK VINA RESULT:    -3.152      3.480      6.407
REMARK INTER + INTRA:          -9.047
REMARK INTER:                  -6.114
REMARK INTRA:                  -2.933
REMARK UNBOUND:                -2.948
REMARK SMILES CCCCCCCCCCCCCCCCCC(=O)[O-]
REMARK SMILES IDX 10 1 11 2 12 3 13 4 14 5 15 6 16 7 17 8 18 9 19 10 20 11
REMARK SMILES IDX 9 12 8 13 7 14 6 15 5 16 4 17 3 18 2 19 1 20
REMARK H PARENT
REMARK Flexibility Score: inf
ROOT
ATOM      1  C   UNL     1       7.573   7.905   0.103  1.00  0.00     0.000 C 
ENDROOT
BRANCH   1   2
ATOM      2  C   UNL     1       6.153   7.546  -0.364  1.00  0.00     0.000 C 
BRANCH   2   3
ATOM      3  C   UNL     1       5.077   8.447   0.266  1.00  0.00     0.000 C 
BRANCH   3   4
ATOM      4  C   UNL     1       3.703   7.760   0.357  1.00  0.00     0.000 C 
BRANCH   4   5
ATOM      5  C   UNL     1       3.021   7.996   1.716  1.00  0.00     0.000 C 
BRANCH   5   6
ATOM      6  C   UNL     1       3.819   8.956   2.615  1.00  0.00     0.000 C 
BRANCH   6   7
ATOM      7  C   UNL     1       4.356   8.272   3.882  1.00  0.00     0.006 C 
BRANCH   7   8
ATOM      8  C   UNL     1       5.886   8.162   3.894  1.00  0.00     0.053 C 
BRANCH   8   9
ATOM      9  C   UNL     1       6.308   6.738   3.709  1.00  0.00     0.041 C 
ATOM     10  O   UNL     1       6.967   6.151   4.606  1.00  0.00    -0.550 OA
ATOM     11  O   UNL     1       5.923   6.041   2.569  1.00  0.00    -0.550 OA
ENDBRANCH   8   9
ENDBRANCH   7   8
ENDBRANCH   6   7
ENDBRANCH   5   6
ENDBRANCH   4   5
ENDBRANCH   3   4
ENDBRANCH   2   3
ENDBRANCH   1   2
BRANCH   1  12
ATOM     12  C   UNL     1       7.595   9.077   1.103  1.00  0.00     0.000 C 
BRANCH  12  13
ATOM     13  C   UNL     1       8.121  10.412   0.536  1.00  0.00    -0.000 C 
BRANCH  13  14
ATOM     14  C   UNL     1       7.544  11.681   1.198  1.00  0.00    -0.000 C 
BRANCH  14  15
ATOM     15  C   UNL     1       6.309  11.447   2.090  1.00  0.00    -0.000 C 
BRANCH  15  16
ATOM     16  C   UNL     1       5.167  12.434   1.796  1.00  0.00    -0.000 C 
BRANCH  16  17
ATOM     17  C   UNL     1       5.171  12.926   0.339  1.00  0.00    -0.000 C 
BRANCH  17  18
ATOM     18  C   UNL     1       4.415  11.977  -0.608  1.00  0.00    -0.000 C 
BRANCH  18  19
ATOM     19  C   UNL     1       4.994  11.982  -2.031  1.00  0.00    -0.003 C 
ATOM     20  C   UNL     1       5.725  10.685  -2.378  1.00  0.00     0.004 C 
ENDBRANCH  18  19
ENDBRANCH  17  18
ENDBRANCH  16  17
ENDBRANCH  15  16
ENDBRANCH  14  15
ENDBRANCH  13  14
ENDBRANCH  12  13
ENDBRANCH   1  12
TORSDOF 16
ENDMDL
MODEL 3
REMARK VINA RESULT:    -3.144      3.450      6.857
REMARK INTER + INTRA:          -9.034
REMARK INTER:                  -6.227
REMARK INTRA:                  -2.806
REMARK UNBOUND:                -2.948
REMARK SMILES CCCCCCCCCCCCCCCCCC(=O)[O-]
REMARK SMILES IDX 10 1 11 2 12 3 13 4 14 5 15 6 16 7 17 8 18 9 19 10 20 11
REMARK SMILES IDX 9 12 8 13 7 14 6 15 5 16 4 17 3 18 2 19 1 20
REMARK H PARENT
REMARK Flexibility Score: inf
ROOT
ATOM      1  C   UNL     1       7.951   8.890   1.237  1.00  0.00     0.000 C 
ENDROOT
BRANCH   1   2
ATOM      2  C   UNL     1       7.474   7.908   0.154  1.00  0.00     0.000 C 
BRANCH   2   3
ATOM      3  C   UNL     1       6.216   8.400  -0.579  1.00  0.00     0.000 C 
BRANCH   3   4
ATOM      4  C   UNL     1       4.913   7.993   0.132  1.00  0.00     0.000 C 
BRANCH   4   5
ATOM      5  C   UNL     1       4.090   9.211   0.585  1.00  0.00     0.000 C 
BRANCH   5   6
ATOM      6  C   UNL     1       3.998   9.322   2.117  1.00  0.00     0.000 C 
BRANCH   6   7
ATOM      7  C   UNL     1       4.219   7.973   2.822  1.00  0.00     0.006 C 
BRANCH   7   8
ATOM      8  C   UNL     1       5.426   7.989   3.767  1.00  0.00     0.053 C 
BRANCH   8   9
ATOM      9  C   UNL     1       6.198   6.713   3.648  1.00  0.00     0.041 C 
ATOM     10  O   UNL     1       6.951   6.337   4.585  1.00  0.00    -0.550 OA
ATOM     11  O   UNL     1       6.044   5.909   2.524  1.00  0.00    -0.550 OA
ENDBRANCH   8   9
ENDBRANCH   7   8
ENDBRANCH   6   7
ENDBRANCH   5   6
ENDBRANCH   4   5
ENDBRANCH   3   4
ENDBRANCH   2   3
ENDBRANCH   1   2
BRANCH   1  12
ATOM     12  C   UNL     1       7.971  10.352   0.750  1.00  0.00     0.000 C 
BRANCH  12  13
ATOM     13  C   UNL     1       7.019  11.305   1.503  1.00  0.00    -0.000 C 
BRANCH  13  14
ATOM     14  C   UNL     1       6.203  12.261   0.607  1.00  0.00    -0.000 C 
BRANCH  14  15
ATOM     15  C   UNL     1       6.392  12.056  -0.908  1.00  0.00    -0.000 C 
BRANCH  15  16
ATOM     16  C   UNL     1       5.070  12.144  -1.690  1.00  0.00    -0.000 C 
BRANCH  16  17
ATOM     17  C   UNL     1       4.962  11.074  -2.789  1.00  0.00    -0.000 C 
BRANCH  17  18
ATOM     18  C   UNL     1       6.259  10.928  -3.602  1.00  0.00    -0.000 C 
BRANCH  18  19
ATOM     19  C   UNL     1       6.496  12.114  -4.550  1.00  0.00    -0.003 C 
ATOM     20  C   UNL     1       6.566  11.695  -6.018  1.00  0.00     0.004 C 
ENDBRANCH  18  19
ENDBRANCH  17  18
ENDBRANCH  16  17
ENDBRANCH  15  16
ENDBRANCH  14  15
ENDBRANCH  13  14
ENDBRANCH  12  13
ENDBRANCH   1  12
TORSDOF 16
ENDMDL
MODEL 4
REMARK VINA RESULT:    -3.103      2.696      4.186
REMARK INTER + INTRA:          -8.953
REMARK INTER:                  -6.005
REMARK INTRA:                  -2.948
REMARK UNBOUND:                -2.948
REMARK SMILES CCCCCCCCCCCCCCCCCC(=O)[O-]
REMARK SMILES IDX 10 1 11 2 12 3 13 4 14 5 15 6 16 7 17 8 18 9 19 10 20 11
REMARK SMILES IDX 9 12 8 13 7 14 6 15 5 16 4 17 3 18 2 19 1 20
REMARK H PARENT
REMARK Flexibility Score: inf
ROOT
ATOM      1  C   UNL     1       5.772  10.891  -2.804  1.00  0.00     0.000 C 
ENDROOT
BRANCH   1   2
ATOM      2  C   UNL     1       6.535  12.216  -2.643  1.00  0.00     0.000 C 
BRANCH   2   3
ATOM      3  C   UNL     1       7.605  12.155  -1.541  1.00  0.00     0.000 C 
BRANCH   3   4
ATOM      4  C   UNL     1       7.012  12.277  -0.126  1.00  0.00     0.000 C 
BRANCH   4   5
ATOM      5  C   UNL     1       7.780  11.432   0.905  1.00  0.00     0.000 C 
BRANCH   5   6
ATOM      6  C   UNL     1       7.033  10.139   1.278  1.00  0.00     0.000 C 
BRANCH   6   7
ATOM      7  C   UNL     1       7.630   8.895   0.601  1.00  0.00     0.006 C 
BRANCH   7   8
ATOM      8  C   UNL     1       6.677   8.259  -0.419  1.00  0.00     0.053 C 
BRANCH   8   9
ATOM      9  C   UNL     1       6.950   6.793  -0.544  1.00  0.00     0.041 C 
ATOM     10  O   UNL     1       7.699   6.364  -1.462  1.00  0.00    -0.550 OA
ATOM     11  O   UNL     1       6.423   5.905   0.387  1.00  0.00    -0.550 OA
ENDBRANCH   8   9
ENDBRANCH   7   8
ENDBRANCH   6   7
ENDBRANCH   5   6
ENDBRANCH   4   5
ENDBRANCH   3   4
ENDBRANCH   2   3
ENDBRANCH   1   2
BRANCH   1  12
ATOM     12  C   UNL     1       4.276  11.019  -2.459  1.00  0.00     0.000 C 
BRANCH  12  13
ATOM     13  C   UNL     1       3.799  10.151  -1.276  1.00  0.00    -0.000 C 
BRANCH  13  14
ATOM     14  C   UNL     1       3.585  10.908   0.052  1.00  0.00    -0.000 C 
BRANCH  14  15
ATOM     15  C   UNL     1       3.317  10.013   1.276  1.00  0.00    -0.000 C 
BRANCH  15  16
ATOM     16  C   UNL     1       3.491   8.516   0.968  1.00  0.00    -0.000 C 
BRANCH  16  17
ATOM     17  C   UNL     1       3.880   7.698   2.211  1.00  0.00    -0.000 C 
BRANCH  17  18
ATOM     18  C   UNL     1       4.266   8.586   3.406  1.00  0.00    -0.000 C 
BRANCH  18  19
ATOM     19  C   UNL     1       5.678   8.283   3.932  1.00  0.00    -0.003 C 
ATOM     20  C   UNL     1       6.120   6.847   3.653  1.00  0.00     0.004 C 
ENDBRANCH  18  19
ENDBRANCH  17  18
ENDBRANCH  16  17
ENDBRANCH  15  16
ENDBRANCH  14  15
ENDBRANCH  13  14
ENDBRANCH  12  13
ENDBRANCH   1  12
TORSDOF 16
ENDMDL
MODEL 5
REMARK VINA RESULT:    -2.965      3.677      5.789
REMARK INTER + INTRA:          -8.687
REMARK INTER:                  -5.911
REMARK INTRA:                  -2.776
REMARK UNBOUND:                -2.948
REMARK SMILES CCCCCCCCCCCCCCCCCC(=O)[O-]
REMARK SMILES IDX 10 1 11 2 12 3 13 4 14 5 15 6 16 7 17 8 18 9 19 10 20 11
REMARK SMILES IDX 9 12 8 13 7 14 6 15 5 16 4 17 3 18 2 19 1 20
REMARK H PARENT
REMARK Flexibility Score: inf
ROOT
ATOM      1  C   UNL     1       7.596  11.277   1.185  1.00  0.00     0.000 C 
ENDROOT
BRANCH   1   2
ATOM      2  C   UNL     1       6.619  11.507   2.351  1.00  0.00     0.000 C 
BRANCH   2   3
ATOM      3  C   UNL     1       5.670  12.692   2.103  1.00  0.00     0.000 C 
BRANCH   3   4
ATOM      4  C   UNL     1       4.197  12.262   1.990  1.00  0.00     0.000 C 
BRANCH   4   5
ATOM      5  C   UNL     1       4.043  10.742   1.806  1.00  0.00     0.000 C 
BRANCH   5   6
ATOM      6  C   UNL     1       2.965  10.145   2.727  1.00  0.00     0.000 C 
BRANCH   6   7
ATOM      7  C   UNL     1       3.513   9.032   3.635  1.00  0.00     0.006 C 
BRANCH   7   8
ATOM      8  C   UNL     1       4.208   7.914   2.848  1.00  0.00     0.053 C 
BRANCH   8   9
ATOM      9  C   UNL     1       5.546   7.611   3.446  1.00  0.00     0.041 C 
ATOM     10  O   UNL     1       6.146   8.481   4.130  1.00  0.00    -0.550 OA
ATOM     11  O   UNL     1       6.105   6.347   3.295  1.00  0.00    -0.550 OA
ENDBRANCH   8   9
ENDBRANCH   7   8
ENDBRANCH   6   7
ENDBRANCH   5   6
ENDBRANCH   4   5
ENDBRANCH   3   4
ENDBRANCH   2   3
ENDBRANCH   1   2
BRANCH   1  12
ATOM     12  C   UNL     1       7.673  12.479   0.225  1.00  0.00     0.000 C 
BRANCH  12  13
ATOM     13  C   UNL     1       7.256  12.182  -1.231  1.00  0.00    -0.000 C 
BRANCH  13  14
ATOM     14  C   UNL     1       5.758  12.385  -1.541  1.00  0.00    -0.000 C 
BRANCH  14  15
ATOM     15  C   UNL     1       4.957  11.088  -1.763  1.00  0.00    -0.000 C 
BRANCH  15  16
ATOM     16  C   UNL     1       5.842   9.830  -1.734  1.00  0.00    -0.000 C 
BRANCH  16  17
ATOM     17  C   UNL     1       5.442   8.851  -0.618  1.00  0.00    -0.000 C 
BRANCH  17  18
ATOM     18  C   UNL     1       6.652   8.123  -0.008  1.00  0.00    -0.000 C 
BRANCH  18  19
ATOM     19  C   UNL     1       6.679   6.628  -0.364  1.00  0.00    -0.003 C 
ATOM     20  C   UNL     1       7.139   6.368  -1.798  1.00  0.00     0.004 C 
ENDBRANCH  18  19
ENDBRANCH  17  18
ENDBRANCH  16  17
ENDBRANCH  15  16
ENDBRANCH  14  15
ENDBRANCH  13  14
ENDBRANCH  12  13
ENDBRANCH   1  12
TORSDOF 16
ENDMDL
MODEL 6
REMARK VINA RESULT:    -2.937      2.751      6.080
REMARK INTER + INTRA:          -8.632
REMARK INTER:                  -5.968
REMARK INTRA:                  -2.664
REMARK UNBOUND:                -2.948
REMARK SMILES CCCCCCCCCCCCCCCCCC(=O)[O-]
REMARK SMILES IDX 10 1 11 2 12 3 13 4 14 5 15 6 16 7 17 8 18 9 19 10 20 11
REMARK SMILES IDX 9 12 8 13 7 14 6 15 5 16 4 17 3 18 2 19 1 20
REMARK H PARENT
REMARK Flexibility Score: inf
ROOT
ATOM      1  C   UNL     1       4.261  11.996   1.442  1.00  0.00     0.000 C 
ENDROOT
BRANCH   1   2
ATOM      2  C   UNL     1       4.080  10.477   1.290  1.00  0.00     0.000 C 
BRANCH   2   3
ATOM      3  C   UNL     1       3.254   9.861   2.431  1.00  0.00     0.000 C 
BRANCH   3   4
ATOM      4  C   UNL     1       3.608   8.387   2.697  1.00  0.00     0.000 C 
BRANCH   4   5
ATOM      5  C   UNL     1       4.699   8.232   3.770  1.00  0.00     0.000 C 
BRANCH   5   6
ATOM      6  C   UNL     1       6.021   7.700   3.192  1.00  0.00     0.000 C 
BRANCH   6   7
ATOM      7  C   UNL     1       5.860   7.130   1.773  1.00  0.00     0.006 C 
BRANCH   7   8
ATOM      8  C   UNL     1       6.825   7.767   0.765  1.00  0.00     0.053 C 
BRANCH   8   9
ATOM      9  C   UNL     1       7.132   6.807  -0.341  1.00  0.00     0.041 C 
ATOM     10  O   UNL     1       8.289   6.758  -0.835  1.00  0.00    -0.550 OA
ATOM     11  O   UNL     1       6.153   5.926  -0.789  1.00  0.00    -0.550 OA
ENDBRANCH   8   9
ENDBRANCH   7   8
ENDBRANCH   6   7
ENDBRANCH   5   6
ENDBRANCH   4   5
ENDBRANCH   3   4
ENDBRANCH   2   3
ENDBRANCH   1   2
BRANCH   1  12
ATOM     12  C   UNL     1       5.648  12.379   1.995  1.00  0.00     0.000 C 
BRANCH  12  13
ATOM     13  C   UNL     1       6.678  11.231   2.030  1.00  0.00    -0.000 C 
BRANCH  13  14
ATOM     14  C   UNL     1       7.738  11.263   0.909  1.00  0.00    -0.000 C 
BRANCH  14  15
ATOM     15  C   UNL     1       7.739  12.542   0.050  1.00  0.00    -0.000 C 
BRANCH  15  16
ATOM     16  C   UNL     1       7.574  12.251  -1.451  1.00  0.00    -0.000 C 
BRANCH  16  17
ATOM     17  C   UNL     1       6.102  12.248  -1.895  1.00  0.00    -0.000 C 
BRANCH  17  18
ATOM     18  C   UNL     1       5.542  10.827  -2.079  1.00  0.00    -0.000 C 
BRANCH  18  19
ATOM     19  C   UNL     1       4.182  10.819  -2.795  1.00  0.00    -0.003 C 
ATOM     20  C   UNL     1       3.145  11.707  -2.107  1.00  0.00     0.004 C 
ENDBRANCH  18  19
ENDBRANCH  17  18
ENDBRANCH  16  17
ENDBRANCH  15  16
ENDBRANCH  14  15
ENDBRANCH  13  14
ENDBRANCH  12  13
ENDBRANCH   1  12
TORSDOF 16
ENDMDL
MODEL 7
REMARK VINA RESULT:    -2.898      3.534      6.373
REMARK INTER + INTRA:          -8.557
REMARK INTER:                  -5.622
REMARK INTRA:                  -2.935
REMARK UNBOUND:                -2.948
REMARK SMILES CCCCCCCCCCCCCCCCCC(=O)[O-]
REMARK SMILES IDX 10 1 11 2 12 3 13 4 14 5 15 6 16 7 17 8 18 9 19 10 20 11
REMARK SMILES IDX 9 12 8 13 7 14 6 15 5 16 4 17 3 18 2 19 1 20
REMARK H PARENT
REMARK Flexibility Score: inf
ROOT
ATOM      1  C   UNL     1       6.586  12.245   2.342  1.00  0.00     0.000 C 
ENDROOT
BRANCH   1   2
ATOM      2  C   UNL     1       7.422  12.430   1.064  1.00  0.00     0.000 C 
BRANCH   2   3
ATOM      3  C   UNL     1       7.643  11.112   0.304  1.00  0.00     0.000 C 
BRANCH   3   4
ATOM      4  C   UNL     1       7.577   9.876   1.219  1.00  0.00     0.000 C 
BRANCH   4   5
ATOM      5  C   UNL     1       7.597   8.559   0.424  1.00  0.00     0.000 C 
BRANCH   5   6
ATOM      6  C   UNL     1       6.188   7.983   0.206  1.00  0.00     0.000 C 
BRANCH   6   7
ATOM      7  C   UNL     1       5.717   7.109   1.380  1.00  0.00     0.006 C 
BRANCH   7   8
ATOM      8  C   UNL     1       4.481   7.679   2.087  1.00  0.00     0.053 C 
BRANCH   8   9
ATOM      9  C   UNL     1       4.840   8.157   3.459  1.00  0.00     0.041 C 
ATOM     10  O   UNL     1       3.953   8.632   4.217  1.00  0.00    -0.550 OA
ATOM     11  O   UNL     1       6.144   8.024   3.924  1.00  0.00    -0.550 OA
ENDBRANCH   8   9
ENDBRANCH   7   8
ENDBRANCH   6   7
ENDBRANCH   5   6
ENDBRANCH   4   5
ENDBRANCH   3   4
ENDBRANCH   2   3
ENDBRANCH   1   2
BRANCH   1  12
ATOM     12  C   UNL     1       5.102  12.607   2.140  1.00  0.00     0.000 C 
BRANCH  12  13
ATOM     13  C   UNL     1       4.150  11.403   1.985  1.00  0.00    -0.000 C 
BRANCH  13  14
ATOM     14  C   UNL     1       3.703  11.099   0.539  1.00  0.00    -0.000 C 
BRANCH  14  15
ATOM     15  C   UNL     1       3.668  12.319  -0.401  1.00  0.00    -0.000 C 
BRANCH  15  16
ATOM     16  C   UNL     1       4.289  12.027  -1.778  1.00  0.00    -0.000 C 
BRANCH  16  17
ATOM     17  C   UNL     1       4.564  10.530  -1.997  1.00  0.00    -0.000 C 
BRANCH  17  18
ATOM     18  C   UNL     1       5.881  10.275  -2.750  1.00  0.00    -0.000 C 
BRANCH  18  19
ATOM     19  C   UNL     1       6.553  11.576  -3.217  1.00  0.00    -0.003 C 
ATOM     20  C   UNL     1       6.617  11.696  -4.740  1.00  0.00     0.004 C 
ENDBRANCH  18  19
ENDBRANCH  17  18
ENDBRANCH  16  17
ENDBRANCH  15  16
ENDBRANCH  14  15
ENDBRANCH  13  14
ENDBRANCH  12  13
ENDBRANCH   1  12
TORSDOF 16
ENDMDL
MODEL 8
REMARK VINA RESULT:    -2.855      1.768      4.023
REMARK INTER + INTRA:          -8.473
REMARK INTER:                  -5.348
REMARK INTRA:                  -3.124
REMARK UNBOUND:                -2.948
REMARK SMILES CCCCCCCCCCCCCCCCCC(=O)[O-]
REMARK SMILES IDX 10 1 11 2 12 3 13 4 14 5 15 6 16 7 17 8 18 9 19 10 20 11
REMARK SMILES IDX 9 12 8 13 7 14 6 15 5 16 4 17 3 18 2 19 1 20
REMARK H PARENT
REMARK Flexibility Score: inf
ROOT
ATOM      1  C   UNL     1       6.317   7.540   3.642  1.00  0.00     0.000 C 
ENDROOT
BRANCH   1   2
ATOM      2  C   UNL     1       5.507   8.833   3.447  1.00  0.00     0.000 C 
BRANCH   2   3
ATOM      3  C   UNL     1       3.990   8.604   3.552  1.00  0.00     0.000 C 
BRANCH   3   4
ATOM      4  C   UNL     1       3.249   8.902   2.237  1.00  0.00     0.000 C 
BRANCH   4   5
ATOM      5  C   UNL     1       3.658  10.254   1.629  1.00  0.00     0.000 C 
BRANCH   5   6
ATOM      6  C   UNL     1       3.522  10.275   0.097  1.00  0.00     0.000 C 
BRANCH   6   7
ATOM      7  C   UNL     1       3.241  11.683  -0.454  1.00  0.00     0.006 C 
BRANCH   7   8
ATOM      8  C   UNL     1       4.258  12.117  -1.517  1.00  0.00     0.053 C 
BRANCH   8   9
ATOM      9  C   UNL     1       4.318  11.110  -2.623  1.00  0.00     0.041 C 
ATOM     10  O   UNL     1       5.389  10.492  -2.860  1.00  0.00    -0.550 OA
ATOM     11  O   UNL     1       3.174  10.812  -3.355  1.00  0.00    -0.550 OA
ENDBRANCH   8   9
ENDBRANCH   7   8
ENDBRANCH   6   7
ENDBRANCH   5   6
ENDBRANCH   4   5
ENDBRANCH   3   4
ENDBRANCH   2   3
ENDBRANCH   1   2
BRANCH   1  12
ATOM     12  C   UNL     1       5.850   6.399   2.719  1.00  0.00     0.000 C 
BRANCH  12  13
ATOM     13  C   UNL     1       6.545   6.345   1.342  1.00  0.00    -0.000 C 
BRANCH  13  14
ATOM     14  C   UNL     1       5.847   7.145   0.222  1.00  0.00    -0.000 C 
BRANCH  14  15
ATOM     15  C   UNL     1       6.592   8.414  -0.233  1.00  0.00    -0.000 C 
BRANCH  15  16
ATOM     16  C   UNL     1       7.915   8.630   0.521  1.00  0.00    -0.000 C 
BRANCH  16  17
ATOM     17  C   UNL     1       8.087  10.076   1.013  1.00  0.00    -0.000 C 
BRANCH  17  18
ATOM     18  C   UNL     1       7.312  11.089   0.152  1.00  0.00    -0.000 C 
BRANCH  18  19
ATOM     19  C   UNL     1       7.104  12.433   0.869  1.00  0.00    -0.003 C 
ATOM     20  C   UNL     1       6.682  12.267   2.329  1.00  0.00     0.004 C 
ENDBRANCH  18  19
ENDBRANCH  17  18
ENDBRANCH  16  17
ENDBRANCH  15  16
ENDBRANCH  14  15
ENDBRANCH  13  14
ENDBRANCH  12  13
ENDBRANCH   1  12
TORSDOF 16
ENDMDL
MODEL 9
REMARK VINA RESULT:    -2.792      1.124      3.558
REMARK INTER + INTRA:          -8.351
REMARK INTER:                  -5.427
REMARK INTRA:                  -2.924
REMARK UNBOUND:                -2.948
REMARK SMILES CCCCCCCCCCCCCCCCCC(=O)[O-]
REMARK SMILES IDX 10 1 11 2 12 3 13 4 14 5 15 6 16 7 17 8 18 9 19 10 20 11
REMARK SMILES IDX 9 12 8 13 7 14 6 15 5 16 4 17 3 18 2 19 1 20
REMARK H PARENT
REMARK Flexibility Score: inf
ROOT
ATOM      1  C   UNL     1       4.013   9.079   2.679  1.00  0.00     0.000 C 
ENDROOT
BRANCH   1   2
ATOM      2  C   UNL     1       3.494   9.929   1.507  1.00  0.00     0.000 C 
BRANCH   2   3
ATOM      3  C   UNL     1       3.575   9.194   0.159  1.00  0.00     0.000 C 
BRANCH   3   4
ATOM      4  C   UNL     1       3.465  10.144  -1.047  1.00  0.00     0.000 C 
BRANCH   4   5
ATOM      5  C   UNL     1       4.043  11.537  -0.748  1.00  0.00     0.000 C 
BRANCH   5   6
ATOM      6  C   UNL     1       5.101  11.967  -1.778  1.00  0.00     0.000 C 
BRANCH   6   7
ATOM      7  C   UNL     1       5.446  10.849  -2.775  1.00  0.00     0.006 C 
BRANCH   7   8
ATOM      8  C   UNL     1       6.644  11.197  -3.667  1.00  0.00     0.053 C 
BRANCH   8   9
ATOM      9  C   UNL     1       6.186  11.507  -5.058  1.00  0.00     0.041 C 
ATOM     10  O   UNL     1       4.961  11.464  -5.346  1.00  0.00    -0.550 OA
ATOM     11  O   UNL     1       7.107  11.900  -6.022  1.00  0.00    -0.550 OA
ENDBRANCH   8   9
ENDBRANCH   7   8
ENDBRANCH   6   7
ENDBRANCH   5   6
ENDBRANCH   4   5
ENDBRANCH   3   4
ENDBRANCH   2   3
ENDBRANCH   1   2
BRANCH   1  12
ATOM     12  C   UNL     1       4.303   7.621   2.275  1.00  0.00     0.000 C 
BRANCH  12  13
ATOM     13  C   UNL     1       5.799   7.246   2.208  1.00  0.00    -0.000 C 
BRANCH  13  14
ATOM     14  C   UNL     1       6.280   6.702   0.846  1.00  0.00    -0.000 C 
BRANCH  14  15
ATOM     15  C   UNL     1       7.054   7.713  -0.022  1.00  0.00    -0.000 C 
BRANCH  15  16
ATOM     16  C   UNL     1       7.817   8.754   0.815  1.00  0.00    -0.000 C 
BRANCH  16  17
ATOM     17  C   UNL     1       7.480  10.199   0.410  1.00  0.00    -0.000 C 
BRANCH  17  18
ATOM     18  C   UNL     1       7.010  11.053   1.600  1.00  0.00    -0.000 C 
BRANCH  18  19
ATOM     19  C   UNL     1       7.047  12.559   1.295  1.00  0.00    -0.003 C 
ATOM     20  C   UNL     1       8.087  12.923   0.236  1.00  0.00     0.004 C 
ENDBRANCH  18  19
ENDBRANCH  17  18
ENDBRANCH  16  17
ENDBRANCH  15  16
ENDBRANCH  14  15
ENDBRANCH  13  14
ENDBRANCH  12  13
ENDBRANCH   1  12
TORSDOF 16
ENDMDL
