MODEL 1
REMARK VINA RESULT:    -6.493      0.000      0.000
REMARK INTER + INTRA:          -7.916
REMARK INTER:                  -7.631
REMARK INTRA:                  -0.285
REMARK UNBOUND:                -0.285
REMARK SMILES O=c1cc(-c2ccc(O)c(O)c2)oc2cc(O)cc(O)c12
REMARK SMILES IDX 4 1 3 2 2 3 1 4 21 5 19 6 18 7 16 8 15 9 14 10 13 11 5 12
REMARK SMILES IDX 6 13 7 14 8 15 12 16 10 17 9 18 11 20 20 22 17 24
REMARK H PARENT 9 19 11 21 20 23 17 25
REMARK Flexibility Score: inf
ROOT
ATOM      1  C   UNL     1      20.766   0.710 -17.310  1.00  0.00     0.138 A 
ATOM      2  C   UNL     1      19.546   0.664 -16.622  1.00  0.00     0.100 A 
ATOM      3  C   UNL     1      19.500   1.020 -15.273  1.00  0.00     0.197 A 
ATOM      4  O   UNL     1      18.381   1.029 -14.699  1.00  0.00    -0.289 OA
ATOM      5  C   UNL     1      20.690   1.394 -14.604  1.00  0.00     0.107 A 
ATOM      6  C   UNL     1      20.770   1.739 -13.221  1.00  0.00     0.134 A 
ATOM      7  C   UNL     1      21.981   2.205 -12.696  1.00  0.00     0.093 A 
ATOM      8  C   UNL     1      23.128   2.283 -13.486  1.00  0.00     0.123 A 
ATOM      9  C   UNL     1      23.073   1.898 -14.827  1.00  0.00     0.094 A 
ATOM     10  C   UNL     1      21.872   1.462 -15.389  1.00  0.00     0.146 A 
ATOM     11  O   UNL     1      21.859   1.117 -16.673  1.00  0.00    -0.456 OA
ENDROOT
BRANCH   1  12
ATOM     12  C   UNL     1      20.872   0.341 -18.745  1.00  0.00     0.021 A 
ATOM     13  C   UNL     1      20.435  -0.907 -19.220  1.00  0.00     0.016 A 
ATOM     14  C   UNL     1      20.556  -1.232 -20.573  1.00  0.00     0.051 A 
ATOM     15  C   UNL     1      21.120  -0.327 -21.477  1.00  0.00     0.157 A 
ATOM     16  C   UNL     1      21.452   1.244 -19.651  1.00  0.00     0.062 A 
ATOM     17  C   UNL     1      21.576   0.927 -21.010  1.00  0.00     0.158 A 
BRANCH  15  18
ATOM     18  O   UNL     1      21.210  -0.712 -22.816  1.00  0.00    -0.504 OA
ATOM     19  H   UNL     1      21.497  -0.097 -23.563  1.00  0.00     0.293 HD
ENDBRANCH  15  18
BRANCH  17  20
ATOM     20  O   UNL     1      22.155   1.880 -21.852  1.00  0.00    -0.504 OA
ATOM     21  H   UNL     1      21.960   2.869 -21.802  1.00  0.00     0.293 HD
ENDBRANCH  17  20
ENDBRANCH   1  12
BRANCH   6  22
ATOM     22  O   UNL     1      19.706   1.617 -12.323  1.00  0.00    -0.507 OA
ATOM     23  H   UNL     1      18.892   1.039 -12.468  1.00  0.00     0.293 HD
ENDBRANCH   6  22
BRANCH   8  24
ATOM     24  O   UNL     1      24.320   2.738 -12.925  1.00  0.00    -0.508 OA
ATOM     25  H   UNL     1      24.376   3.632 -12.454  1.00  0.00     0.293 HD
ENDBRANCH   8  24
TORSDOF 5
ENDMDL
MODEL 2
REMARK VINA RESULT:    -6.456      3.386      4.994
REMARK INTER + INTRA:          -7.873
REMARK INTER:                  -7.607
REMARK INTRA:                  -0.266
REMARK UNBOUND:                -0.285
REMARK SMILES O=c1cc(-c2ccc(O)c(O)c2)oc2cc(O)cc(O)c12
REMARK SMILES IDX 4 1 3 2 2 3 1 4 21 5 19 6 18 7 16 8 15 9 14 10 13 11 5 12
REMARK SMILES IDX 6 13 7 14 8 15 12 16 10 17 9 18 11 20 20 22 17 24
REMARK H PARENT 9 19 11 21 20 23 17 25
REMARK Flexibility Score: inf
ROOT
ATOM      1  C   UNL     1      18.923  -0.585 -17.084  1.00  0.00     0.138 A 
ATOM      2  C   UNL     1      18.403   0.258 -16.093  1.00  0.00     0.100 A 
ATOM      3  C   UNL     1      17.651  -0.285 -15.050  1.00  0.00     0.197 A 
ATOM      4  O   UNL     1      17.251   0.487 -14.141  1.00  0.00    -0.289 OA
ATOM      5  C   UNL     1      17.394  -1.677 -15.020  1.00  0.00     0.107 A 
ATOM      6  C   UNL     1      16.607  -2.335 -14.027  1.00  0.00     0.134 A 
ATOM      7  C   UNL     1      16.518  -3.733 -14.034  1.00  0.00     0.093 A 
ATOM      8  C   UNL     1      17.135  -4.490 -15.029  1.00  0.00     0.123 A 
ATOM      9  C   UNL     1      17.863  -3.852 -16.035  1.00  0.00     0.094 A 
ATOM     10  C   UNL     1      18.000  -2.463 -16.035  1.00  0.00     0.146 A 
ATOM     11  O   UNL     1      18.713  -1.894 -17.002  1.00  0.00    -0.456 OA
ENDROOT
BRANCH   1  12
ATOM     12  C   UNL     1      19.730  -0.060 -18.216  1.00  0.00     0.021 A 
ATOM     13  C   UNL     1      19.356  -0.280 -19.553  1.00  0.00     0.016 A 
ATOM     14  C   UNL     1      20.139   0.216 -20.598  1.00  0.00     0.051 A 
ATOM     15  C   UNL     1      21.310   0.933 -20.335  1.00  0.00     0.157 A 
ATOM     16  C   UNL     1      20.915   0.648 -17.953  1.00  0.00     0.062 A 
ATOM     17  C   UNL     1      21.705   1.150 -18.995  1.00  0.00     0.158 A 
BRANCH  15  18
ATOM     18  O   UNL     1      22.046   1.403 -21.424  1.00  0.00    -0.504 OA
ATOM     19  H   UNL     1      23.007   1.705 -21.369  1.00  0.00     0.293 HD
ENDBRANCH  15  18
BRANCH  17  20
ATOM     20  O   UNL     1      22.863   1.852 -18.655  1.00  0.00    -0.504 OA
ATOM     21  H   UNL     1      23.771   1.424 -18.544  1.00  0.00     0.293 HD
ENDBRANCH  17  20
ENDBRANCH   1  12
BRANCH   6  22
ATOM     22  O   UNL     1      15.878  -1.669 -13.038  1.00  0.00    -0.507 OA
ATOM     23  H   UNL     1      15.414  -2.117 -12.263  1.00  0.00     0.293 HD
ENDBRANCH   6  22
BRANCH   8  24
ATOM     24  O   UNL     1      17.012  -5.878 -15.013  1.00  0.00    -0.508 OA
ATOM     25  H   UNL     1      16.438  -6.367 -15.689  1.00  0.00     0.293 HD
ENDBRANCH   8  24
TORSDOF 5
ENDMDL
MODEL 3
REMARK VINA RESULT:    -6.384     13.248     15.363
REMARK INTER + INTRA:          -7.789
REMARK INTER:                  -7.473
REMARK INTRA:                  -0.315
REMARK UNBOUND:                -0.285
REMARK SMILES O=c1cc(-c2ccc(O)c(O)c2)oc2cc(O)cc(O)c12
REMARK SMILES IDX 4 1 3 2 2 3 1 4 21 5 19 6 18 7 16 8 15 9 14 10 13 11 5 12
REMARK SMILES IDX 6 13 7 14 8 15 12 16 10 17 9 18 11 20 20 22 17 24
REMARK H PARENT 9 19 11 21 20 23 17 25
REMARK Flexibility Score: inf
ROOT
ATOM      1  C   UNL     1      11.117  -6.912  -9.657  1.00  0.00     0.138 A 
ATOM      2  C   UNL     1      10.238  -7.972  -9.915  1.00  0.00     0.100 A 
ATOM      3  C   UNL     1       9.162  -8.201  -9.056  1.00  0.00     0.197 A 
ATOM      4  O   UNL     1       8.355  -9.121  -9.348  1.00  0.00    -0.289 OA
ATOM      5  C   UNL     1       8.986  -7.381  -7.916  1.00  0.00     0.107 A 
ATOM      6  C   UNL     1       7.948  -7.547  -6.950  1.00  0.00     0.134 A 
ATOM      7  C   UNL     1       7.803  -6.603  -5.925  1.00  0.00     0.093 A 
ATOM      8  C   UNL     1       8.693  -5.537  -5.796  1.00  0.00     0.123 A 
ATOM      9  C   UNL     1       9.743  -5.396  -6.705  1.00  0.00     0.094 A 
ATOM     10  C   UNL     1       9.892  -6.300  -7.758  1.00  0.00     0.146 A 
ATOM     11  O   UNL     1      10.897  -6.123  -8.610  1.00  0.00    -0.456 OA
ENDROOT
BRANCH   1  12
ATOM     12  C   UNL     1      12.278  -6.623 -10.538  1.00  0.00     0.021 A 
ATOM     13  C   UNL     1      12.755  -7.568 -11.462  1.00  0.00     0.016 A 
ATOM     14  C   UNL     1      13.856  -7.275 -12.270  1.00  0.00     0.051 A 
ATOM     15  C   UNL     1      14.506  -6.041 -12.171  1.00  0.00     0.157 A 
ATOM     16  C   UNL     1      12.941  -5.390 -10.427  1.00  0.00     0.062 A 
ATOM     17  C   UNL     1      14.045  -5.087 -11.235  1.00  0.00     0.158 A 
BRANCH  15  18
ATOM     18  O   UNL     1      15.599  -5.810 -13.009  1.00  0.00    -0.504 OA
ATOM     19  H   UNL     1      15.698  -6.206 -13.932  1.00  0.00     0.293 HD
ENDBRANCH  15  18
BRANCH  17  20
ATOM     20  O   UNL     1      14.646  -3.836 -11.075  1.00  0.00    -0.504 OA
ATOM     21  H   UNL     1      14.294  -3.115 -10.463  1.00  0.00     0.293 HD
ENDBRANCH  17  20
ENDBRANCH   1  12
BRANCH   6  22
ATOM     22  O   UNL     1       7.058  -8.624  -6.935  1.00  0.00    -0.507 OA
ATOM     23  H   UNL     1       6.645  -9.043  -7.755  1.00  0.00     0.293 HD
ENDBRANCH   6  22
BRANCH   8  24
ATOM     24  O   UNL     1       8.527  -4.625  -4.755  1.00  0.00    -0.508 OA
ATOM     25  H   UNL     1       8.600  -3.627  -4.908  1.00  0.00     0.293 HD
ENDBRANCH   8  24
TORSDOF 5
ENDMDL
MODEL 4
REMARK VINA RESULT:    -6.322      5.227      6.674
REMARK INTER + INTRA:          -7.716
REMARK INTER:                  -7.432
REMARK INTRA:                  -0.284
REMARK UNBOUND:                -0.285
REMARK SMILES O=c1cc(-c2ccc(O)c(O)c2)oc2cc(O)cc(O)c12
REMARK SMILES IDX 4 1 3 2 2 3 1 4 21 5 19 6 18 7 16 8 15 9 14 10 13 11 5 12
REMARK SMILES IDX 6 13 7 14 8 15 12 16 10 17 9 18 11 20 20 22 17 24
REMARK H PARENT 9 19 11 21 20 23 17 25
REMARK Flexibility Score: inf
ROOT
ATOM      1  C   UNL     1      24.272   6.234 -16.686  1.00  0.00     0.138 A 
ATOM      2  C   UNL     1      24.037   5.041 -15.988  1.00  0.00     0.100 A 
ATOM      3  C   UNL     1      24.015   5.052 -14.593  1.00  0.00     0.197 A 
ATOM      4  O   UNL     1      23.739   3.980 -13.996  1.00  0.00    -0.289 OA
ATOM      5  C   UNL     1      24.262   6.258 -13.895  1.00  0.00     0.107 A 
ATOM      6  C   UNL     1      24.304   6.379 -12.473  1.00  0.00     0.134 A 
ATOM      7  C   UNL     1      24.441   7.646 -11.893  1.00  0.00     0.093 A 
ATOM      8  C   UNL     1      24.598   8.787 -12.680  1.00  0.00     0.123 A 
ATOM      9  C   UNL     1      24.611   8.672 -14.071  1.00  0.00     0.094 A 
ATOM     10  C   UNL     1      24.442   7.428 -14.680  1.00  0.00     0.146 A 
ATOM     11  O   UNL     1      24.446   7.363 -16.008  1.00  0.00    -0.456 OA
ENDROOT
BRANCH   1  12
ATOM     12  C   UNL     1      24.306   6.280 -18.171  1.00  0.00     0.021 A 
ATOM     13  C   UNL     1      25.120   7.194 -18.862  1.00  0.00     0.016 A 
ATOM     14  C   UNL     1      25.125   7.223 -20.258  1.00  0.00     0.051 A 
ATOM     15  C   UNL     1      24.316   6.350 -20.993  1.00  0.00     0.157 A 
ATOM     16  C   UNL     1      23.483   5.414 -18.910  1.00  0.00     0.062 A 
ATOM     17  C   UNL     1      23.483   5.435 -20.311  1.00  0.00     0.158 A 
BRANCH  15  18
ATOM     18  O   UNL     1      24.369   6.429 -22.386  1.00  0.00    -0.504 OA
ATOM     19  H   UNL     1      23.643   6.090 -23.000  1.00  0.00     0.293 HD
ENDBRANCH  15  18
BRANCH  17  20
ATOM     20  O   UNL     1      22.645   4.537 -20.976  1.00  0.00    -0.504 OA
ATOM     21  H   UNL     1      22.723   4.312 -21.957  1.00  0.00     0.293 HD
ENDBRANCH  17  20
ENDBRANCH   1  12
BRANCH   6  22
ATOM     22  O   UNL     1      24.243   5.294 -11.594  1.00  0.00    -0.507 OA
ATOM     23  H   UNL     1      24.796   4.454 -11.675  1.00  0.00     0.293 HD
ENDBRANCH   6  22
BRANCH   8  24
ATOM     24  O   UNL     1      24.747  10.030 -12.068  1.00  0.00    -0.508 OA
ATOM     25  H   UNL     1      25.657  10.380 -11.797  1.00  0.00     0.293 HD
ENDBRANCH   8  24
TORSDOF 5
ENDMDL
MODEL 5
REMARK VINA RESULT:    -6.239      1.169      2.678
REMARK INTER + INTRA:          -7.618
REMARK INTER:                  -7.348
REMARK INTRA:                  -0.270
REMARK UNBOUND:                -0.285
REMARK SMILES O=c1cc(-c2ccc(O)c(O)c2)oc2cc(O)cc(O)c12
REMARK SMILES IDX 4 1 3 2 2 3 1 4 21 5 19 6 18 7 16 8 15 9 14 10 13 11 5 12
REMARK SMILES IDX 6 13 7 14 8 15 12 16 10 17 9 18 11 20 20 22 17 24
REMARK H PARENT 9 19 11 21 20 23 17 25
REMARK Flexibility Score: inf
ROOT
ATOM      1  C   UNL     1      21.207   0.948 -17.345  1.00  0.00     0.138 A 
ATOM      2  C   UNL     1      22.419   1.351 -16.770  1.00  0.00     0.100 A 
ATOM      3  C   UNL     1      22.442   1.788 -15.444  1.00  0.00     0.197 A 
ATOM      4  O   UNL     1      23.554   2.084 -14.936  1.00  0.00    -0.289 OA
ATOM      5  C   UNL     1      21.238   1.850 -14.703  1.00  0.00     0.107 A 
ATOM      6  C   UNL     1      21.135   2.317 -13.358  1.00  0.00     0.134 A 
ATOM      7  C   UNL     1      19.909   2.223 -12.688  1.00  0.00     0.093 A 
ATOM      8  C   UNL     1      18.771   1.737 -13.331  1.00  0.00     0.123 A 
ATOM      9  C   UNL     1      18.849   1.328 -14.663  1.00  0.00     0.094 A 
ATOM     10  C   UNL     1      20.064   1.376 -15.348  1.00  0.00     0.146 A 
ATOM     11  O   UNL     1      20.100   0.964 -16.611  1.00  0.00    -0.456 OA
ENDROOT
BRANCH   1  12
ATOM     12  C   UNL     1      21.125   0.475 -18.751  1.00  0.00     0.021 A 
ATOM     13  C   UNL     1      20.573  -0.776 -19.078  1.00  0.00     0.016 A 
ATOM     14  C   UNL     1      20.519  -1.200 -20.407  1.00  0.00     0.051 A 
ATOM     15  C   UNL     1      21.017  -0.394 -21.435  1.00  0.00     0.157 A 
ATOM     16  C   UNL     1      21.640   1.277 -19.783  1.00  0.00     0.062 A 
ATOM     17  C   UNL     1      21.588   0.860 -21.119  1.00  0.00     0.158 A 
BRANCH  15  18
ATOM     18  O   UNL     1      20.931  -0.876 -22.743  1.00  0.00    -0.504 OA
ATOM     19  H   UNL     1      20.176  -0.659 -23.377  1.00  0.00     0.293 HD
ENDBRANCH  15  18
BRANCH  17  20
ATOM     20  O   UNL     1      22.111   1.717 -22.090  1.00  0.00    -0.504 OA
ATOM     21  H   UNL     1      21.548   2.287 -22.703  1.00  0.00     0.293 HD
ENDBRANCH  17  20
ENDBRANCH   1  12
BRANCH   6  22
ATOM     22  O   UNL     1      22.190   2.899 -12.650  1.00  0.00    -0.507 OA
ATOM     23  H   UNL     1      22.157   3.160 -11.677  1.00  0.00     0.293 HD
ENDBRANCH   6  22
BRANCH   8  24
ATOM     24  O   UNL     1      17.564   1.672 -12.637  1.00  0.00    -0.508 OA
ATOM     25  H   UNL     1      17.523   1.797 -11.633  1.00  0.00     0.293 HD
ENDBRANCH   8  24
TORSDOF 5
ENDMDL
MODEL 6
REMARK VINA RESULT:    -6.188      1.650      6.651
REMARK INTER + INTRA:          -7.558
REMARK INTER:                  -7.245
REMARK INTRA:                  -0.313
REMARK UNBOUND:                -0.285
REMARK SMILES O=c1cc(-c2ccc(O)c(O)c2)oc2cc(O)cc(O)c12
REMARK SMILES IDX 4 1 3 2 2 3 1 4 21 5 19 6 18 7 16 8 15 9 14 10 13 11 5 12
REMARK SMILES IDX 6 13 7 14 8 15 12 16 10 17 9 18 11 20 20 22 17 24
REMARK H PARENT 9 19 11 21 20 23 17 25
REMARK Flexibility Score: inf
ROOT
ATOM      1  C   UNL     1      21.434   1.309 -16.264  1.00  0.00     0.138 A 
ATOM      2  C   UNL     1      20.272   0.550 -16.068  1.00  0.00     0.100 A 
ATOM      3  C   UNL     1      19.609   0.006 -17.170  1.00  0.00     0.197 A 
ATOM      4  O   UNL     1      18.606  -0.722 -16.958  1.00  0.00    -0.289 OA
ATOM      5  C   UNL     1      20.097   0.252 -18.475  1.00  0.00     0.107 A 
ATOM      6  C   UNL     1      19.480  -0.217 -19.674  1.00  0.00     0.134 A 
ATOM      7  C   UNL     1      20.117  -0.010 -20.904  1.00  0.00     0.093 A 
ATOM      8  C   UNL     1      21.315   0.700 -20.985  1.00  0.00     0.123 A 
ATOM      9  C   UNL     1      21.899   1.209 -19.824  1.00  0.00     0.094 A 
ATOM     10  C   UNL     1      21.306   0.989 -18.580  1.00  0.00     0.146 A 
ATOM     11  O   UNL     1      21.902   1.479 -17.496  1.00  0.00    -0.456 OA
ENDROOT
BRANCH   1  12
ATOM     12  C   UNL     1      22.179   1.910 -15.128  1.00  0.00     0.021 A 
ATOM     13  C   UNL     1      21.992   1.468 -13.807  1.00  0.00     0.016 A 
ATOM     14  C   UNL     1      22.698   2.059 -12.757  1.00  0.00     0.051 A 
ATOM     15  C   UNL     1      23.596   3.103 -12.997  1.00  0.00     0.157 A 
ATOM     16  C   UNL     1      23.070   2.970 -15.367  1.00  0.00     0.062 A 
ATOM     17  C   UNL     1      23.783   3.567 -14.320  1.00  0.00     0.158 A 
BRANCH  15  18
ATOM     18  O   UNL     1      24.271   3.649 -11.904  1.00  0.00    -0.504 OA
ATOM     19  H   UNL     1      23.867   4.319 -11.266  1.00  0.00     0.293 HD
ENDBRANCH  15  18
BRANCH  17  20
ATOM     20  O   UNL     1      24.658   4.608 -14.637  1.00  0.00    -0.504 OA
ATOM     21  H   UNL     1      25.271   5.054 -13.971  1.00  0.00     0.293 HD
ENDBRANCH  17  20
ENDBRANCH   1  12
BRANCH   6  22
ATOM     22  O   UNL     1      18.241  -0.863 -19.714  1.00  0.00    -0.507 OA
ATOM     23  H   UNL     1      17.769  -1.255 -18.914  1.00  0.00     0.293 HD
ENDBRANCH   6  22
BRANCH   8  24
ATOM     24  O   UNL     1      21.913   0.900 -22.228  1.00  0.00    -0.508 OA
ATOM     25  H   UNL     1      21.380   0.843 -23.087  1.00  0.00     0.293 HD
ENDBRANCH   8  24
TORSDOF 5
ENDMDL
MODEL 7
REMARK VINA RESULT:    -6.135      1.463      7.000
REMARK INTER + INTRA:          -7.496
REMARK INTER:                  -7.215
REMARK INTRA:                  -0.281
REMARK UNBOUND:                -0.285
REMARK SMILES O=c1cc(-c2ccc(O)c(O)c2)oc2cc(O)cc(O)c12
REMARK SMILES IDX 4 1 3 2 2 3 1 4 21 5 19 6 18 7 16 8 15 9 14 10 13 11 5 12
REMARK SMILES IDX 6 13 7 14 8 15 12 16 10 17 9 18 11 20 20 22 17 24
REMARK H PARENT 9 19 11 21 20 23 17 25
REMARK Flexibility Score: inf
ROOT
ATOM      1  C   UNL     1      21.222   0.770 -17.679  1.00  0.00     0.138 A 
ATOM      2  C   UNL     1      20.708  -0.484 -18.036  1.00  0.00     0.100 A 
ATOM      3  C   UNL     1      20.622  -0.836 -19.384  1.00  0.00     0.197 A 
ATOM      4  O   UNL     1      20.215  -1.991 -19.671  1.00  0.00    -0.289 OA
ATOM      5  C   UNL     1      21.023   0.087 -20.379  1.00  0.00     0.107 A 
ATOM      6  C   UNL     1      20.942  -0.148 -21.785  1.00  0.00     0.134 A 
ATOM      7  C   UNL     1      21.477   0.794 -22.673  1.00  0.00     0.093 A 
ATOM      8  C   UNL     1      22.035   1.985 -22.211  1.00  0.00     0.123 A 
ATOM      9  C   UNL     1      22.071   2.249 -20.840  1.00  0.00     0.094 A 
ATOM     10  C   UNL     1      21.577   1.315 -19.928  1.00  0.00     0.146 A 
ATOM     11  O   UNL     1      21.643   1.597 -18.631  1.00  0.00    -0.456 OA
ENDROOT
BRANCH   1  12
ATOM     12  C   UNL     1      21.336   1.196 -16.261  1.00  0.00     0.021 A 
ATOM     13  C   UNL     1      20.212   1.271 -15.420  1.00  0.00     0.016 A 
ATOM     14  C   UNL     1      20.347   1.685 -14.093  1.00  0.00     0.051 A 
ATOM     15  C   UNL     1      21.598   2.038 -13.579  1.00  0.00     0.157 A 
ATOM     16  C   UNL     1      22.590   1.566 -15.747  1.00  0.00     0.062 A 
ATOM     17  C   UNL     1      22.735   1.980 -14.417  1.00  0.00     0.158 A 
BRANCH  15  18
ATOM     18  O   UNL     1      21.664   2.442 -12.243  1.00  0.00    -0.504 OA
ATOM     19  H   UNL     1      21.019   2.140 -11.529  1.00  0.00     0.293 HD
ENDBRANCH  15  18
BRANCH  17  20
ATOM     20  O   UNL     1      24.015   2.323 -13.976  1.00  0.00    -0.504 OA
ATOM     21  H   UNL     1      24.201   3.003 -13.254  1.00  0.00     0.293 HD
ENDBRANCH  17  20
ENDBRANCH   1  12
BRANCH   6  22
ATOM     22  O   UNL     1      20.328  -1.266 -22.356  1.00  0.00    -0.507 OA
ATOM     23  H   UNL     1      20.659  -1.749 -23.178  1.00  0.00     0.293 HD
ENDBRANCH   6  22
BRANCH   8  24
ATOM     24  O   UNL     1      22.545   2.906 -23.125  1.00  0.00    -0.508 OA
ATOM     25  H   UNL     1      23.048   3.730 -22.821  1.00  0.00     0.293 HD
ENDBRANCH   8  24
TORSDOF 5
ENDMDL
MODEL 8
REMARK VINA RESULT:    -6.104      3.726      5.396
REMARK INTER + INTRA:          -7.460
REMARK INTER:                  -7.183
REMARK INTRA:                  -0.276
REMARK UNBOUND:                -0.285
REMARK SMILES O=c1cc(-c2ccc(O)c(O)c2)oc2cc(O)cc(O)c12
REMARK SMILES IDX 4 1 3 2 2 3 1 4 21 5 19 6 18 7 16 8 15 9 14 10 13 11 5 12
REMARK SMILES IDX 6 13 7 14 8 15 12 16 10 17 9 18 11 20 20 22 17 24
REMARK H PARENT 9 19 11 21 20 23 17 25
REMARK Flexibility Score: inf
ROOT
ATOM      1  C   UNL     1      18.511  -0.767 -16.440  1.00  0.00     0.138 A 
ATOM      2  C   UNL     1      17.797   0.095 -15.596  1.00  0.00     0.100 A 
ATOM      3  C   UNL     1      16.956  -0.437 -14.617  1.00  0.00     0.197 A 
ATOM      4  O   UNL     1      16.378   0.360 -13.835  1.00  0.00    -0.289 OA
ATOM      5  C   UNL     1      16.808  -1.840 -14.506  1.00  0.00     0.107 A 
ATOM      6  C   UNL     1      15.948  -2.493 -13.572  1.00  0.00     0.134 A 
ATOM      7  C   UNL     1      15.970  -3.890 -13.475  1.00  0.00     0.093 A 
ATOM      8  C   UNL     1      16.774  -4.659 -14.317  1.00  0.00     0.123 A 
ATOM      9  C   UNL     1      17.579  -4.032 -15.269  1.00  0.00     0.094 A 
ATOM     10  C   UNL     1      17.605  -2.640 -15.367  1.00  0.00     0.146 A 
ATOM     11  O   UNL     1      18.396  -2.080 -16.278  1.00  0.00    -0.456 OA
ENDROOT
BRANCH   1  12
ATOM     12  C   UNL     1      19.419  -0.254 -17.498  1.00  0.00     0.021 A 
ATOM     13  C   UNL     1      20.531   0.549 -17.190  1.00  0.00     0.016 A 
ATOM     14  C   UNL     1      21.362   1.026 -18.206  1.00  0.00     0.051 A 
ATOM     15  C   UNL     1      21.101   0.721 -19.545  1.00  0.00     0.157 A 
ATOM     16  C   UNL     1      19.149  -0.548 -18.845  1.00  0.00     0.062 A 
ATOM     17  C   UNL     1      19.979  -0.074 -19.870  1.00  0.00     0.158 A 
BRANCH  15  18
ATOM     18  O   UNL     1      21.972   1.227 -20.512  1.00  0.00    -0.504 OA
ATOM     19  H   UNL     1      22.400   0.669 -21.236  1.00  0.00     0.293 HD
ENDBRANCH  15  18
BRANCH  17  20
ATOM     20  O   UNL     1      19.651  -0.416 -21.183  1.00  0.00    -0.504 OA
ATOM     21  H   UNL     1      20.189  -1.053 -21.752  1.00  0.00     0.293 HD
ENDBRANCH  17  20
ENDBRANCH   1  12
BRANCH   6  22
ATOM     22  O   UNL     1      15.042  -1.825 -12.744  1.00  0.00    -0.507 OA
ATOM     23  H   UNL     1      14.089  -2.112 -12.581  1.00  0.00     0.293 HD
ENDBRANCH   6  22
BRANCH   8  24
ATOM     24  O   UNL     1      16.760  -6.048 -14.202  1.00  0.00    -0.508 OA
ATOM     25  H   UNL     1      16.123  -6.520 -13.573  1.00  0.00     0.293 HD
ENDBRANCH   8  24
TORSDOF 5
ENDMDL
MODEL 9
REMARK VINA RESULT:    -6.074      3.235      7.349
REMARK INTER + INTRA:          -7.424
REMARK INTER:                  -7.160
REMARK INTRA:                  -0.264
REMARK UNBOUND:                -0.285
REMARK SMILES O=c1cc(-c2ccc(O)c(O)c2)oc2cc(O)cc(O)c12
REMARK SMILES IDX 4 1 3 2 2 3 1 4 21 5 19 6 18 7 16 8 15 9 14 10 13 11 5 12
REMARK SMILES IDX 6 13 7 14 8 15 12 16 10 17 9 18 11 20 20 22 17 24
REMARK H PARENT 9 19 11 21 20 23 17 25
REMARK Flexibility Score: inf
ROOT
ATOM      1  C   UNL     1      18.054  -0.143 -15.566  1.00  0.00     0.138 A 
ATOM      2  C   UNL     1      19.127   0.593 -15.047  1.00  0.00     0.100 A 
ATOM      3  C   UNL     1      20.210   0.909 -15.870  1.00  0.00     0.197 A 
ATOM      4  O   UNL     1      21.129   1.623 -15.393  1.00  0.00    -0.289 OA
ATOM      5  C   UNL     1      20.228   0.457 -17.211  1.00  0.00     0.107 A 
ATOM      6  C   UNL     1      21.297   0.685 -18.130  1.00  0.00     0.134 A 
ATOM      7  C   UNL     1      21.153   0.291 -19.466  1.00  0.00     0.093 A 
ATOM      8  C   UNL     1      20.008  -0.374 -19.902  1.00  0.00     0.123 A 
ATOM      9  C   UNL     1      18.980  -0.650 -19.000  1.00  0.00     0.094 A 
ATOM     10  C   UNL     1      19.078  -0.239 -17.669  1.00  0.00     0.146 A 
ATOM     11  O   UNL     1      18.071  -0.507 -16.844  1.00  0.00    -0.456 OA
ENDROOT
BRANCH   1  12
ATOM     12  C   UNL     1      16.877  -0.507 -14.736  1.00  0.00     0.021 A 
ATOM     13  C   UNL     1      15.780   0.360 -14.590  1.00  0.00     0.016 A 
ATOM     14  C   UNL     1      14.692  -0.003 -13.794  1.00  0.00     0.051 A 
ATOM     15  C   UNL     1      14.676  -1.229 -13.122  1.00  0.00     0.157 A 
ATOM     16  C   UNL     1      16.867  -1.732 -14.048  1.00  0.00     0.062 A 
ATOM     17  C   UNL     1      15.778  -2.104 -13.249  1.00  0.00     0.158 A 
BRANCH  15  18
ATOM     18  O   UNL     1      13.557  -1.532 -12.344  1.00  0.00    -0.504 OA
ATOM     19  H   UNL     1      13.574  -2.148 -11.544  1.00  0.00     0.293 HD
ENDBRANCH  15  18
BRANCH  17  20
ATOM     20  O   UNL     1      15.836  -3.342 -12.605  1.00  0.00    -0.504 OA
ATOM     21  H   UNL     1      16.598  -3.997 -12.707  1.00  0.00     0.293 HD
ENDBRANCH  17  20
ENDBRANCH   1  12
BRANCH   6  22
ATOM     22  O   UNL     1      22.519   1.265 -17.778  1.00  0.00    -0.507 OA
ATOM     23  H   UNL     1      23.327   0.755 -17.455  1.00  0.00     0.293 HD
ENDBRANCH   6  22
BRANCH   8  24
ATOM     24  O   UNL     1      19.906  -0.765 -21.236  1.00  0.00    -0.508 OA
ATOM     25  H   UNL     1      20.673  -0.639 -21.885  1.00  0.00     0.293 HD
ENDBRANCH   8  24
TORSDOF 5
ENDMDL
