MODEL 1
REMARK VINA RESULT:    -5.919      0.000      0.000
REMARK INTER + INTRA:          -6.501
REMARK INTER:                  -6.438
REMARK INTRA:                  -0.063
REMARK UNBOUND:                -0.063
REMARK SMILES COc1cc2ccc(=O)oc2cc1O
REMARK SMILES IDX 3 1 13 2 12 3 11 4 5 5 4 6 6 7 7 8 8 9 9 10 10 11 2 12 1 13
REMARK SMILES IDX 14 14
REMARK H PARENT 14 15
REMARK Flexibility Score: inf
ROOT
ATOM      1  C   UNL     1      48.028  64.828   2.770  1.00  0.00     0.161 A 
ATOM      2  C   UNL     1      46.758  64.220   2.767  1.00  0.00     0.161 A 
ATOM      3  C   UNL     1      45.634  64.934   3.201  1.00  0.00     0.098 A 
ATOM      4  C   UNL     1      45.761  66.253   3.643  1.00  0.00     0.142 A 
ATOM      5  C   UNL     1      47.028  66.870   3.650  1.00  0.00     0.022 A 
ATOM      6  C   UNL     1      48.156  66.160   3.215  1.00  0.00     0.062 A 
ATOM      7  C   UNL     1      47.123  68.193   4.097  1.00  0.00     0.019 A 
ATOM      8  C   UNL     1      45.972  68.857   4.519  1.00  0.00     0.094 A 
ATOM      9  C   UNL     1      44.748  68.180   4.483  1.00  0.00     0.336 A 
ATOM     10  O   UNL     1      43.698  68.763   4.860  1.00  0.00    -0.246 OA
ATOM     11  O   UNL     1      44.686  66.923   4.053  1.00  0.00    -0.423 OA
ENDROOT
BRANCH   1  12
ATOM     12  O   UNL     1      49.134  64.085   2.328  1.00  0.00    -0.493 OA
ATOM     13  C   UNL     1      49.654  64.121   1.002  1.00  0.00     0.278 C 
ENDBRANCH   1  12
BRANCH   2  14
ATOM     14  O   UNL     1      46.590  62.906   2.334  1.00  0.00    -0.504 OA
ATOM     15  H   UNL     1      45.790  62.617   1.782  1.00  0.00     0.293 HD
ENDBRANCH   2  14
TORSDOF 2
ENDMDL
MODEL 2
REMARK VINA RESULT:    -5.791      7.848     10.237
REMARK INTER + INTRA:          -6.362
REMARK INTER:                  -6.308
REMARK INTRA:                  -0.054
REMARK UNBOUND:                -0.063
REMARK SMILES COc1cc2ccc(=O)oc2cc1O
REMARK SMILES IDX 3 1 13 2 12 3 11 4 5 5 4 6 6 7 7 8 8 9 9 10 10 11 2 12 1 13
REMARK SMILES IDX 14 14
REMARK H PARENT 14 15
REMARK Flexibility Score: inf
ROOT
ATOM      1  C   UNL     1      52.430  59.730   3.117  1.00  0.00     0.161 A 
ATOM      2  C   UNL     1      51.090  59.895   2.715  1.00  0.00     0.161 A 
ATOM      3  C   UNL     1      50.692  59.526   1.425  1.00  0.00     0.098 A 
ATOM      4  C   UNL     1      51.617  58.993   0.524  1.00  0.00     0.142 A 
ATOM      5  C   UNL     1      52.960  58.824   0.917  1.00  0.00     0.022 A 
ATOM      6  C   UNL     1      53.364  59.192   2.208  1.00  0.00     0.062 A 
ATOM      7  C   UNL     1      53.863  58.288  -0.008  1.00  0.00     0.019 A 
ATOM      8  C   UNL     1      53.413  57.937  -1.280  1.00  0.00     0.094 A 
ATOM      9  C   UNL     1      52.064  58.133  -1.599  1.00  0.00     0.336 A 
ATOM     10  O   UNL     1      51.639  57.823  -2.743  1.00  0.00    -0.246 OA
ATOM     11  O   UNL     1      51.227  58.644  -0.701  1.00  0.00    -0.423 OA
ENDROOT
BRANCH   1  12
ATOM     12  O   UNL     1      52.796  60.110   4.418  1.00  0.00    -0.493 OA
ATOM     13  C   UNL     1      53.448  59.258   5.356  1.00  0.00     0.278 C 
ENDBRANCH   1  12
BRANCH   2  14
ATOM     14  O   UNL     1      50.137  60.423   3.585  1.00  0.00    -0.504 OA
ATOM     15  H   UNL     1      49.764  61.358   3.473  1.00  0.00     0.293 HD
ENDBRANCH   2  14
TORSDOF 2
ENDMDL
MODEL 3
REMARK VINA RESULT:    -5.770      7.512      9.657
REMARK INTER + INTRA:          -6.339
REMARK INTER:                  -6.284
REMARK INTRA:                  -0.055
REMARK UNBOUND:                -0.063
REMARK SMILES COc1cc2ccc(=O)oc2cc1O
REMARK SMILES IDX 3 1 13 2 12 3 11 4 5 5 4 6 6 7 7 8 8 9 9 10 10 11 2 12 1 13
REMARK SMILES IDX 14 14
REMARK H PARENT 14 15
REMARK Flexibility Score: inf
ROOT
ATOM      1  C   UNL     1      52.576  59.944   4.101  1.00  0.00     0.161 A 
ATOM      2  C   UNL     1      51.958  61.133   4.534  1.00  0.00     0.161 A 
ATOM      3  C   UNL     1      52.184  61.615   5.828  1.00  0.00     0.098 A 
ATOM      4  C   UNL     1      53.023  60.922   6.705  1.00  0.00     0.142 A 
ATOM      5  C   UNL     1      53.646  59.731   6.282  1.00  0.00     0.022 A 
ATOM      6  C   UNL     1      53.423  59.245   4.986  1.00  0.00     0.062 A 
ATOM      7  C   UNL     1      54.482  59.060   7.182  1.00  0.00     0.019 A 
ATOM      8  C   UNL     1      54.672  59.583   8.460  1.00  0.00     0.094 A 
ATOM      9  C   UNL     1      54.020  60.771   8.809  1.00  0.00     0.336 A 
ATOM     10  O   UNL     1      54.179  61.260   9.959  1.00  0.00    -0.246 OA
ATOM     11  O   UNL     1      53.232  61.389   7.934  1.00  0.00    -0.423 OA
ENDROOT
BRANCH   1  12
ATOM     12  O   UNL     1      52.328  59.489   2.797  1.00  0.00    -0.493 OA
ATOM     13  C   UNL     1      53.338  59.221   1.828  1.00  0.00     0.278 C 
ENDBRANCH   1  12
BRANCH   2  14
ATOM     14  O   UNL     1      51.114  61.854   3.689  1.00  0.00    -0.504 OA
ATOM     15  H   UNL     1      51.463  62.365   2.887  1.00  0.00     0.293 HD
ENDBRANCH   2  14
TORSDOF 2
ENDMDL
MODEL 4
REMARK VINA RESULT:    -5.658      8.438      9.985
REMARK INTER + INTRA:          -6.217
REMARK INTER:                  -6.155
REMARK INTRA:                  -0.062
REMARK UNBOUND:                -0.063
REMARK SMILES COc1cc2ccc(=O)oc2cc1O
REMARK SMILES IDX 3 1 13 2 12 3 11 4 5 5 4 6 6 7 7 8 8 9 9 10 10 11 2 12 1 13
REMARK SMILES IDX 14 14
REMARK H PARENT 14 15
REMARK Flexibility Score: inf
ROOT
ATOM      1  C   UNL     1      53.480  58.852   8.162  1.00  0.00     0.161 A 
ATOM      2  C   UNL     1      53.356  60.033   7.405  1.00  0.00     0.161 A 
ATOM      3  C   UNL     1      52.090  60.503   7.035  1.00  0.00     0.098 A 
ATOM      4  C   UNL     1      50.939  59.805   7.410  1.00  0.00     0.142 A 
ATOM      5  C   UNL     1      51.053  58.622   8.167  1.00  0.00     0.022 A 
ATOM      6  C   UNL     1      52.319  58.148   8.541  1.00  0.00     0.062 A 
ATOM      7  C   UNL     1      49.882  57.946   8.527  1.00  0.00     0.019 A 
ATOM      8  C   UNL     1      48.647  58.457   8.132  1.00  0.00     0.094 A 
ATOM      9  C   UNL     1      48.612  59.637   7.381  1.00  0.00     0.336 A 
ATOM     10  O   UNL     1      47.506  60.115   7.014  1.00  0.00    -0.246 OA
ATOM     11  O   UNL     1      49.740  60.260   7.052  1.00  0.00    -0.423 OA
ENDROOT
BRANCH   1  12
ATOM     12  O   UNL     1      54.764  58.409   8.517  1.00  0.00    -0.493 OA
ATOM     13  C   UNL     1      55.526  57.460   7.777  1.00  0.00     0.278 C 
ENDBRANCH   1  12
BRANCH   2  14
ATOM     14  O   UNL     1      54.480  60.758   7.012  1.00  0.00    -0.504 OA
ATOM     15  H   UNL     1      54.508  61.282   6.145  1.00  0.00     0.293 HD
ENDBRANCH   2  14
TORSDOF 2
ENDMDL
MODEL 5
REMARK VINA RESULT:    -5.639      3.635      4.538
REMARK INTER + INTRA:          -6.197
REMARK INTER:                  -6.153
REMARK INTRA:                  -0.043
REMARK UNBOUND:                -0.063
REMARK SMILES COc1cc2ccc(=O)oc2cc1O
REMARK SMILES IDX 3 1 13 2 12 3 11 4 5 5 4 6 6 7 7 8 8 9 9 10 10 11 2 12 1 13
REMARK SMILES IDX 14 14
REMARK H PARENT 14 15
REMARK Flexibility Score: inf
ROOT
ATOM      1  C   UNL     1      48.369  61.408   5.921  1.00  0.00     0.161 A 
ATOM      2  C   UNL     1      47.148  60.729   5.735  1.00  0.00     0.161 A 
ATOM      3  C   UNL     1      46.116  61.324   5.001  1.00  0.00     0.098 A 
ATOM      4  C   UNL     1      46.283  62.596   4.447  1.00  0.00     0.142 A 
ATOM      5  C   UNL     1      47.501  63.284   4.629  1.00  0.00     0.022 A 
ATOM      6  C   UNL     1      48.538  62.691   5.363  1.00  0.00     0.062 A 
ATOM      7  C   UNL     1      47.639  64.556   4.062  1.00  0.00     0.019 A 
ATOM      8  C   UNL     1      46.578  65.102   3.341  1.00  0.00     0.094 A 
ATOM      9  C   UNL     1      45.400  64.361   3.202  1.00  0.00     0.336 A 
ATOM     10  O   UNL     1      44.431  64.837   2.555  1.00  0.00    -0.246 OA
ATOM     11  O   UNL     1      45.295  63.154   3.751  1.00  0.00    -0.423 OA
ENDROOT
BRANCH   1  12
ATOM     12  O   UNL     1      49.384  60.782   6.662  1.00  0.00    -0.493 OA
ATOM     13  C   UNL     1      50.618  61.395   7.021  1.00  0.00     0.278 C 
ENDBRANCH   1  12
BRANCH   2  14
ATOM     14  O   UNL     1      46.943  59.458   6.271  1.00  0.00    -0.504 OA
ATOM     15  H   UNL     1      47.711  58.862   6.555  1.00  0.00     0.293 HD
ENDBRANCH   2  14
TORSDOF 2
ENDMDL
MODEL 6
REMARK VINA RESULT:    -5.632      2.104      3.363
REMARK INTER + INTRA:          -6.189
REMARK INTER:                  -6.145
REMARK INTRA:                  -0.044
REMARK UNBOUND:                -0.063
REMARK SMILES COc1cc2ccc(=O)oc2cc1O
REMARK SMILES IDX 3 1 13 2 12 3 11 4 5 5 4 6 6 7 7 8 8 9 9 10 10 11 2 12 1 13
REMARK SMILES IDX 14 14
REMARK H PARENT 14 15
REMARK Flexibility Score: inf
ROOT
ATOM      1  C   UNL     1      45.415  63.558   3.282  1.00  0.00     0.161 A 
ATOM      2  C   UNL     1      46.772  63.351   2.966  1.00  0.00     0.161 A 
ATOM      3  C   UNL     1      47.675  64.420   3.003  1.00  0.00     0.098 A 
ATOM      4  C   UNL     1      47.241  65.701   3.352  1.00  0.00     0.142 A 
ATOM      5  C   UNL     1      45.885  65.919   3.670  1.00  0.00     0.022 A 
ATOM      6  C   UNL     1      44.977  64.851   3.635  1.00  0.00     0.062 A 
ATOM      7  C   UNL     1      45.481  67.213   4.016  1.00  0.00     0.019 A 
ATOM      8  C   UNL     1      46.421  68.241   4.037  1.00  0.00     0.094 A 
ATOM      9  C   UNL     1      47.751  67.951   3.710  1.00  0.00     0.336 A 
ATOM     10  O   UNL     1      48.615  68.866   3.722  1.00  0.00    -0.246 OA
ATOM     11  O   UNL     1      48.108  66.712   3.384  1.00  0.00    -0.423 OA
ENDROOT
BRANCH   1  12
ATOM     12  O   UNL     1      44.537  62.464   3.236  1.00  0.00    -0.493 OA
ATOM     13  C   UNL     1      43.116  62.569   3.195  1.00  0.00     0.278 C 
ENDBRANCH   1  12
BRANCH   2  14
ATOM     14  O   UNL     1      47.244  62.088   2.613  1.00  0.00    -0.504 OA
ATOM     15  H   UNL     1      46.684  61.431   2.083  1.00  0.00     0.293 HD
ENDBRANCH   2  14
TORSDOF 2
ENDMDL
MODEL 7
REMARK VINA RESULT:    -5.563      1.225      2.479
REMARK INTER + INTRA:          -6.114
REMARK INTER:                  -6.052
REMARK INTRA:                  -0.062
REMARK UNBOUND:                -0.063
REMARK SMILES COc1cc2ccc(=O)oc2cc1O
REMARK SMILES IDX 3 1 13 2 12 3 11 4 5 5 4 6 6 7 7 8 8 9 9 10 10 11 2 12 1 13
REMARK SMILES IDX 14 14
REMARK H PARENT 14 15
REMARK Flexibility Score: inf
ROOT
ATOM      1  C   UNL     1      46.855  63.945   2.633  1.00  0.00     0.161 A 
ATOM      2  C   UNL     1      47.786  64.977   2.864  1.00  0.00     0.161 A 
ATOM      3  C   UNL     1      47.357  66.217   3.351  1.00  0.00     0.098 A 
ATOM      4  C   UNL     1      46.004  66.446   3.611  1.00  0.00     0.142 A 
ATOM      5  C   UNL     1      45.064  65.420   3.384  1.00  0.00     0.022 A 
ATOM      6  C   UNL     1      45.489  64.176   2.896  1.00  0.00     0.062 A 
ATOM      7  C   UNL     1      43.716  65.679   3.654  1.00  0.00     0.019 A 
ATOM      8  C   UNL     1      43.343  66.932   4.138  1.00  0.00     0.094 A 
ATOM      9  C   UNL     1      44.332  67.902   4.340  1.00  0.00     0.336 A 
ATOM     10  O   UNL     1      44.015  69.040   4.776  1.00  0.00    -0.246 OA
ATOM     11  O   UNL     1      45.606  67.629   4.075  1.00  0.00    -0.423 OA
ENDROOT
BRANCH   1  12
ATOM     12  O   UNL     1      47.318  62.714   2.145  1.00  0.00    -0.493 OA
ATOM     13  C   UNL     1      47.652  61.594   2.961  1.00  0.00     0.278 C 
ENDBRANCH   1  12
BRANCH   2  14
ATOM     14  O   UNL     1      49.145  64.788   2.616  1.00  0.00    -0.504 OA
ATOM     15  H   UNL     1      49.823  65.531   2.736  1.00  0.00     0.293 HD
ENDBRANCH   2  14
TORSDOF 2
ENDMDL
MODEL 8
REMARK VINA RESULT:    -5.549      9.012     10.587
REMARK INTER + INTRA:          -6.099
REMARK INTER:                  -6.050
REMARK INTRA:                  -0.049
REMARK UNBOUND:                -0.063
REMARK SMILES COc1cc2ccc(=O)oc2cc1O
REMARK SMILES IDX 3 1 13 2 12 3 11 4 5 5 4 6 6 7 7 8 8 9 9 10 10 11 2 12 1 13
REMARK SMILES IDX 14 14
REMARK H PARENT 14 15
REMARK Flexibility Score: inf
ROOT
ATOM      1  C   UNL     1      52.492  59.605   0.445  1.00  0.00     0.161 A 
ATOM      2  C   UNL     1      52.737  58.651  -0.562  1.00  0.00     0.161 A 
ATOM      3  C   UNL     1      53.349  59.034  -1.761  1.00  0.00     0.098 A 
ATOM      4  C   UNL     1      53.721  60.363  -1.973  1.00  0.00     0.142 A 
ATOM      5  C   UNL     1      53.480  61.326  -0.972  1.00  0.00     0.022 A 
ATOM      6  C   UNL     1      52.868  60.947   0.232  1.00  0.00     0.062 A 
ATOM      7  C   UNL     1      53.865  62.649  -1.213  1.00  0.00     0.019 A 
ATOM      8  C   UNL     1      54.470  62.976  -2.425  1.00  0.00     0.094 A 
ATOM      9  C   UNL     1      54.677  61.967  -3.373  1.00  0.00     0.336 A 
ATOM     10  O   UNL     1      55.222  62.243  -4.474  1.00  0.00    -0.246 OA
ATOM     11  O   UNL     1      54.302  60.717  -3.118  1.00  0.00    -0.423 OA
ENDROOT
BRANCH   1  12
ATOM     12  O   UNL     1      51.878  59.188   1.636  1.00  0.00    -0.493 OA
ATOM     13  C   UNL     1      52.269  59.611   2.939  1.00  0.00     0.278 C 
ENDBRANCH   1  12
BRANCH   2  14
ATOM     14  O   UNL     1      52.381  57.314  -0.388  1.00  0.00    -0.504 OA
ATOM     15  H   UNL     1      52.070  56.734  -1.159  1.00  0.00     0.293 HD
ENDBRANCH   2  14
TORSDOF 2
ENDMDL
MODEL 9
REMARK VINA RESULT:    -5.418      6.221     10.501
REMARK INTER + INTRA:          -5.956
REMARK INTER:                  -5.892
REMARK INTRA:                  -0.065
REMARK UNBOUND:                -0.063
REMARK SMILES COc1cc2ccc(=O)oc2cc1O
REMARK SMILES IDX 3 1 13 2 12 3 11 4 5 5 4 6 6 7 7 8 8 9 9 10 10 11 2 12 1 13
REMARK SMILES IDX 14 14
REMARK H PARENT 14 15
REMARK Flexibility Score: inf
ROOT
ATOM      1  C   UNL     1      50.653  59.889   1.741  1.00  0.00     0.161 A 
ATOM      2  C   UNL     1      51.548  59.727   2.817  1.00  0.00     0.161 A 
ATOM      3  C   UNL     1      52.857  59.288   2.585  1.00  0.00     0.098 A 
ATOM      4  C   UNL     1      53.288  59.003   1.288  1.00  0.00     0.142 A 
ATOM      5  C   UNL     1      52.401  59.162   0.204  1.00  0.00     0.022 A 
ATOM      6  C   UNL     1      51.089  59.603   0.431  1.00  0.00     0.062 A 
ATOM      7  C   UNL     1      52.862  58.870  -1.084  1.00  0.00     0.019 A 
ATOM      8  C   UNL     1      54.175  58.435  -1.259  1.00  0.00     0.094 A 
ATOM      9  C   UNL     1      54.999  58.302  -0.136  1.00  0.00     0.336 A 
ATOM     10  O   UNL     1      56.188  57.910  -0.273  1.00  0.00    -0.246 OA
ATOM     11  O   UNL     1      54.535  58.586   1.078  1.00  0.00    -0.423 OA
ENDROOT
BRANCH   1  12
ATOM     12  O   UNL     1      49.349  60.332   2.009  1.00  0.00    -0.493 OA
ATOM     13  C   UNL     1      48.917  61.686   1.903  1.00  0.00     0.278 C 
ENDBRANCH   1  12
BRANCH   2  14
ATOM     14  O   UNL     1      51.156  60.000   4.127  1.00  0.00    -0.504 OA
ATOM     15  H   UNL     1      50.863  59.270   4.766  1.00  0.00     0.293 HD
ENDBRANCH   2  14
TORSDOF 2
ENDMDL
