MODEL 1
REMARK VINA RESULT:    -7.444      0.000      0.000
REMARK INTER + INTRA:          -8.902
REMARK INTER:                  -8.967
REMARK INTRA:                   0.065
REMARK UNBOUND:                 0.065
REMARK SMILES O=c1c(O)c(-c2ccc(O)c(O)c2)oc2cc(O)cc(O)c12
REMARK SMILES IDX 5 1 3 2 2 3 1 4 22 5 20 6 19 7 17 8 16 9 15 10 14 11 6 12
REMARK SMILES IDX 7 13 8 14 9 15 13 16 11 17 10 18 12 20 4 22 21 24 18 26
REMARK H PARENT 10 19 12 21 4 23 21 25 18 27
REMARK Flexibility Score: inf
ROOT
ATOM      1  C   UNL     1     133.440 129.084 140.129  1.00  0.00     0.180 A 
ATOM      2  C   UNL     1     133.652 130.468 140.252  1.00  0.00     0.208 A 
ATOM      3  C   UNL     1     134.382 131.138 139.258  1.00  0.00     0.238 A 
ATOM      4  O   UNL     1     134.614 132.367 139.402  1.00  0.00    -0.285 OA
ATOM      5  C   UNL     1     134.879 130.418 138.144  1.00  0.00     0.111 A 
ATOM      6  C   UNL     1     135.597 131.002 137.057  1.00  0.00     0.134 A 
ATOM      7  C   UNL     1     136.155 130.175 136.075  1.00  0.00     0.093 A 
ATOM      8  C   UNL     1     135.962 128.791 136.105  1.00  0.00     0.123 A 
ATOM      9  C   UNL     1     135.212 128.219 137.129  1.00  0.00     0.094 A 
ATOM     10  C   UNL     1     134.675 129.015 138.144  1.00  0.00     0.146 A 
ATOM     11  O   UNL     1     133.975 128.427 139.107  1.00  0.00    -0.452 OA
ENDROOT
BRANCH   1  12
ATOM     12  C   UNL     1     132.658 128.314 141.123  1.00  0.00     0.025 A 
ATOM     13  C   UNL     1     132.875 128.469 142.503  1.00  0.00     0.016 A 
ATOM     14  C   UNL     1     132.108 127.749 143.423  1.00  0.00     0.051 A 
ATOM     15  C   UNL     1     131.107 126.875 142.980  1.00  0.00     0.157 A 
ATOM     16  C   UNL     1     131.639 127.454 140.684  1.00  0.00     0.062 A 
ATOM     17  C   UNL     1     130.870 126.730 141.603  1.00  0.00     0.158 A 
BRANCH  15  18
ATOM     18  O   UNL     1     130.345 126.158 143.901  1.00  0.00    -0.504 OA
ATOM     19  H   UNL     1     130.673 125.284 144.295  1.00  0.00     0.293 HD
ENDBRANCH  15  18
BRANCH  17  20
ATOM     20  O   UNL     1     129.876 125.875 141.129  1.00  0.00    -0.504 OA
ATOM     21  H   UNL     1     130.062 125.176 140.420  1.00  0.00     0.293 HD
ENDBRANCH  17  20
ENDBRANCH   1  12
BRANCH   2  22
ATOM     22  O   UNL     1     133.171 131.156 141.371  1.00  0.00    -0.502 OA
ATOM     23  H   UNL     1     133.767 131.730 141.955  1.00  0.00     0.293 HD
ENDBRANCH   2  22
BRANCH   6  24
ATOM     24  O   UNL     1     135.768 132.379 136.884  1.00  0.00    -0.507 OA
ATOM     25  H   UNL     1     135.983 132.825 136.005  1.00  0.00     0.293 HD
ENDBRANCH   6  24
BRANCH   8  26
ATOM     26  O   UNL     1     136.507 127.976 135.114  1.00  0.00    -0.508 OA
ATOM     27  H   UNL     1     136.080 127.898 134.198  1.00  0.00     0.293 HD
ENDBRANCH   8  26
TORSDOF 6
ENDMDL
MODEL 2
REMARK VINA RESULT:    -7.104      0.737      1.482
REMARK INTER + INTRA:          -8.493
REMARK INTER:                  -8.748
REMARK INTRA:                   0.255
REMARK UNBOUND:                 0.065
REMARK SMILES O=c1c(O)c(-c2ccc(O)c(O)c2)oc2cc(O)cc(O)c12
REMARK SMILES IDX 5 1 3 2 2 3 1 4 22 5 20 6 19 7 17 8 16 9 15 10 14 11 6 12
REMARK SMILES IDX 7 13 8 14 9 15 13 16 11 17 10 18 12 20 4 22 21 24 18 26
REMARK H PARENT 10 19 12 21 4 23 21 25 18 27
REMARK Flexibility Score: inf
ROOT
ATOM      1  C   UNL     1     133.617 129.071 139.785  1.00  0.00     0.180 A 
ATOM      2  C   UNL     1     133.764 130.460 139.947  1.00  0.00     0.208 A 
ATOM      3  C   UNL     1     134.483 131.187 138.986  1.00  0.00     0.238 A 
ATOM      4  O   UNL     1     134.656 132.420 139.165  1.00  0.00    -0.285 OA
ATOM      5  C   UNL     1     135.033 130.519 137.865  1.00  0.00     0.111 A 
ATOM      6  C   UNL     1     135.745 131.162 136.808  1.00  0.00     0.134 A 
ATOM      7  C   UNL     1     136.359 130.385 135.816  1.00  0.00     0.093 A 
ATOM      8  C   UNL     1     136.228 128.994 135.808  1.00  0.00     0.123 A 
ATOM      9  C   UNL     1     135.484 128.363 136.802  1.00  0.00     0.094 A 
ATOM     10  C   UNL     1     134.892 129.108 137.825  1.00  0.00     0.146 A 
ATOM     11  O   UNL     1     134.201 128.465 138.758  1.00  0.00    -0.452 OA
ENDROOT
BRANCH   1  12
ATOM     12  C   UNL     1     132.851 128.242 140.744  1.00  0.00     0.025 A 
ATOM     13  C   UNL     1     132.118 127.122 140.318  1.00  0.00     0.016 A 
ATOM     14  C   UNL     1     131.422 126.340 141.245  1.00  0.00     0.051 A 
ATOM     15  C   UNL     1     131.460 126.658 142.609  1.00  0.00     0.157 A 
ATOM     16  C   UNL     1     132.904 128.544 142.114  1.00  0.00     0.062 A 
ATOM     17  C   UNL     1     132.208 127.763 143.045  1.00  0.00     0.158 A 
BRANCH  15  18
ATOM     18  O   UNL     1     130.763 125.876 143.530  1.00  0.00    -0.504 OA
ATOM     19  H   UNL     1     131.244 125.351 144.251  1.00  0.00     0.293 HD
ENDBRANCH  15  18
BRANCH  17  20
ATOM     20  O   UNL     1     132.273 128.102 144.396  1.00  0.00    -0.504 OA
ATOM     21  H   UNL     1     131.492 128.529 144.881  1.00  0.00     0.293 HD
ENDBRANCH  17  20
ENDBRANCH   1  12
BRANCH   2  22
ATOM     22  O   UNL     1     133.231 131.096 141.073  1.00  0.00    -0.502 OA
ATOM     23  H   UNL     1     133.322 132.093 141.229  1.00  0.00     0.293 HD
ENDBRANCH   2  22
BRANCH   6  24
ATOM     24  O   UNL     1     135.858 132.549 136.673  1.00  0.00    -0.507 OA
ATOM     25  H   UNL     1     136.356 133.015 135.929  1.00  0.00     0.293 HD
ENDBRANCH   6  24
BRANCH   8  26
ATOM     26  O   UNL     1     136.827 128.231 134.808  1.00  0.00    -0.508 OA
ATOM     27  H   UNL     1     137.493 127.498 135.027  1.00  0.00     0.293 HD
ENDBRANCH   8  26
TORSDOF 6
ENDMDL
MODEL 3
REMARK VINA RESULT:    -6.904      1.472      3.059
REMARK INTER + INTRA:          -8.252
REMARK INTER:                  -8.288
REMARK INTRA:                   0.036
REMARK UNBOUND:                 0.065
REMARK SMILES O=c1c(O)c(-c2ccc(O)c(O)c2)oc2cc(O)cc(O)c12
REMARK SMILES IDX 5 1 3 2 2 3 1 4 22 5 20 6 19 7 17 8 16 9 15 10 14 11 6 12
REMARK SMILES IDX 7 13 8 14 9 15 13 16 11 17 10 18 12 20 4 22 21 24 18 26
REMARK H PARENT 10 19 12 21 4 23 21 25 18 27
REMARK Flexibility Score: inf
ROOT
ATOM      1  C   UNL     1     133.872 128.244 138.845  1.00  0.00     0.180 A 
ATOM      2  C   UNL     1     134.519 127.211 138.146  1.00  0.00     0.208 A 
ATOM      3  C   UNL     1     135.388 127.538 137.093  1.00  0.00     0.238 A 
ATOM      4  O   UNL     1     135.922 126.607 136.437  1.00  0.00    -0.285 OA
ATOM      5  C   UNL     1     135.611 128.897 136.762  1.00  0.00     0.111 A 
ATOM      6  C   UNL     1     136.502 129.346 135.741  1.00  0.00     0.134 A 
ATOM      7  C   UNL     1     136.545 130.707 135.411  1.00  0.00     0.093 A 
ATOM      8  C   UNL     1     135.779 131.641 136.113  1.00  0.00     0.123 A 
ATOM      9  C   UNL     1     134.953 131.220 137.152  1.00  0.00     0.094 A 
ATOM     10  C   UNL     1     134.861 129.864 137.478  1.00  0.00     0.146 A 
ATOM     11  O   UNL     1     134.052 129.505 138.467  1.00  0.00    -0.452 OA
ENDROOT
BRANCH   1  12
ATOM     12  C   UNL     1     132.962 127.978 139.982  1.00  0.00     0.025 A 
ATOM     13  C   UNL     1     133.091 128.669 141.199  1.00  0.00     0.016 A 
ATOM     14  C   UNL     1     132.206 128.417 142.251  1.00  0.00     0.051 A 
ATOM     15  C   UNL     1     131.173 127.484 142.098  1.00  0.00     0.157 A 
ATOM     16  C   UNL     1     131.912 127.059 139.826  1.00  0.00     0.062 A 
ATOM     17  C   UNL     1     131.023 126.805 140.878  1.00  0.00     0.158 A 
BRANCH  15  18
ATOM     18  O   UNL     1     130.291 127.235 143.150  1.00  0.00    -0.504 OA
ATOM     19  H   UNL     1     130.273 127.820 143.976  1.00  0.00     0.293 HD
ENDBRANCH  15  18
BRANCH  17  20
ATOM     20  O   UNL     1     130.001 125.875 140.690  1.00  0.00    -0.504 OA
ATOM     21  H   UNL     1     129.986 125.246 139.896  1.00  0.00     0.293 HD
ENDBRANCH  17  20
ENDBRANCH   1  12
BRANCH   2  22
ATOM     22  O   UNL     1     134.267 125.875 138.475  1.00  0.00    -0.502 OA
ATOM     23  H   UNL     1     133.406 125.405 138.223  1.00  0.00     0.293 HD
ENDBRANCH   2  22
BRANCH   6  24
ATOM     24  O   UNL     1     137.376 128.507 135.043  1.00  0.00    -0.507 OA
ATOM     25  H   UNL     1     137.348 128.350 134.046  1.00  0.00     0.293 HD
ENDBRANCH   6  24
BRANCH   8  26
ATOM     26  O   UNL     1     135.841 132.996 135.790  1.00  0.00    -0.508 OA
ATOM     27  H   UNL     1     136.637 133.389 135.302  1.00  0.00     0.293 HD
ENDBRANCH   8  26
TORSDOF 6
ENDMDL
MODEL 4
REMARK VINA RESULT:    -6.640      1.464      3.252
REMARK INTER + INTRA:          -7.934
REMARK INTER:                  -7.815
REMARK INTRA:                  -0.119
REMARK UNBOUND:                 0.065
REMARK SMILES O=c1c(O)c(-c2ccc(O)c(O)c2)oc2cc(O)cc(O)c12
REMARK SMILES IDX 5 1 3 2 2 3 1 4 22 5 20 6 19 7 17 8 16 9 15 10 14 11 6 12
REMARK SMILES IDX 7 13 8 14 9 15 13 16 11 17 10 18 12 20 4 22 21 24 18 26
REMARK H PARENT 10 19 12 21 4 23 21 25 18 27
REMARK Flexibility Score: inf
ROOT
ATOM      1  C   UNL     1     133.629 128.159 139.144  1.00  0.00     0.180 A 
ATOM      2  C   UNL     1     134.374 127.251 138.371  1.00  0.00     0.208 A 
ATOM      3  C   UNL     1     135.219 127.745 137.365  1.00  0.00     0.238 A 
ATOM      4  O   UNL     1     135.842 126.925 136.641  1.00  0.00    -0.285 OA
ATOM      5  C   UNL     1     135.320 129.142 137.153  1.00  0.00     0.111 A 
ATOM      6  C   UNL     1     136.176 129.755 136.190  1.00  0.00     0.134 A 
ATOM      7  C   UNL     1     136.097 131.138 135.977  1.00  0.00     0.093 A 
ATOM      8  C   UNL     1     135.243 131.936 136.742  1.00  0.00     0.123 A 
ATOM      9  C   UNL     1     134.449 131.354 137.727  1.00  0.00     0.094 A 
ATOM     10  C   UNL     1     134.478 129.973 137.936  1.00  0.00     0.146 A 
ATOM     11  O   UNL     1     133.696 129.458 138.877  1.00  0.00    -0.452 OA
ENDROOT
BRANCH   1  12
ATOM     12  C   UNL     1     132.737 127.715 140.239  1.00  0.00     0.025 A 
ATOM     13  C   UNL     1     131.644 126.867 139.994  1.00  0.00     0.016 A 
ATOM     14  C   UNL     1     130.829 126.442 141.047  1.00  0.00     0.051 A 
ATOM     15  C   UNL     1     131.103 126.847 142.360  1.00  0.00     0.157 A 
ATOM     16  C   UNL     1     133.019 128.101 141.559  1.00  0.00     0.062 A 
ATOM     17  C   UNL     1     132.205 127.677 142.617  1.00  0.00     0.158 A 
BRANCH  15  18
ATOM     18  O   UNL     1     130.287 126.422 143.409  1.00  0.00    -0.504 OA
ATOM     19  H   UNL     1     130.331 126.855 144.324  1.00  0.00     0.293 HD
ENDBRANCH  15  18
BRANCH  17  20
ATOM     20  O   UNL     1     132.510 128.093 143.913  1.00  0.00    -0.504 OA
ATOM     21  H   UNL     1     132.089 127.662 144.728  1.00  0.00     0.293 HD
ENDBRANCH  17  20
ENDBRANCH   1  12
BRANCH   2  22
ATOM     22  O   UNL     1     134.242 125.875 138.581  1.00  0.00    -0.502 OA
ATOM     23  H   UNL     1     134.916 125.339 139.115  1.00  0.00     0.293 HD
ENDBRANCH   2  22
BRANCH   6  24
ATOM     24  O   UNL     1     137.129 129.062 135.438  1.00  0.00    -0.507 OA
ATOM     25  H   UNL     1     138.124 129.226 135.479  1.00  0.00     0.293 HD
ENDBRANCH   6  24
BRANCH   8  26
ATOM     26  O   UNL     1     135.184 133.313 136.536  1.00  0.00    -0.508 OA
ATOM     27  H   UNL     1     134.342 133.762 136.195  1.00  0.00     0.293 HD
ENDBRANCH   8  26
TORSDOF 6
ENDMDL
MODEL 5
REMARK VINA RESULT:    -6.612      1.679      7.017
REMARK INTER + INTRA:          -7.900
REMARK INTER:                  -7.610
REMARK INTRA:                  -0.290
REMARK UNBOUND:                 0.065
REMARK SMILES O=c1c(O)c(-c2ccc(O)c(O)c2)oc2cc(O)cc(O)c12
REMARK SMILES IDX 5 1 3 2 2 3 1 4 22 5 20 6 19 7 17 8 16 9 15 10 14 11 6 12
REMARK SMILES IDX 7 13 8 14 9 15 13 16 11 17 10 18 12 20 4 22 21 24 18 26
REMARK H PARENT 10 19 12 21 4 23 21 25 18 27
REMARK Flexibility Score: inf
ROOT
ATOM      1  C   UNL     1     135.058 130.136 137.848  1.00  0.00     0.180 A 
ATOM      2  C   UNL     1     134.892 131.194 138.759  1.00  0.00     0.208 A 
ATOM      3  C   UNL     1     134.164 130.972 139.937  1.00  0.00     0.238 A 
ATOM      4  O   UNL     1     133.974 131.937 140.722  1.00  0.00    -0.285 OA
ATOM      5  C   UNL     1     133.622 129.690 140.199  1.00  0.00     0.111 A 
ATOM      6  C   UNL     1     132.902 129.340 141.381  1.00  0.00     0.134 A 
ATOM      7  C   UNL     1     132.298 128.080 141.474  1.00  0.00     0.093 A 
ATOM      8  C   UNL     1     132.448 127.133 140.457  1.00  0.00     0.123 A 
ATOM      9  C   UNL     1     133.201 127.444 139.328  1.00  0.00     0.094 A 
ATOM     10  C   UNL     1     133.783 128.707 139.189  1.00  0.00     0.146 A 
ATOM     11  O   UNL     1     134.482 128.965 138.091  1.00  0.00    -0.452 OA
ENDROOT
BRANCH   1  12
ATOM     12  C   UNL     1     135.834 130.287 136.596  1.00  0.00     0.025 A 
ATOM     13  C   UNL     1     135.280 130.903 135.461  1.00  0.00     0.016 A 
ATOM     14  C   UNL     1     136.041 131.056 134.298  1.00  0.00     0.051 A 
ATOM     15  C   UNL     1     137.368 130.608 134.258  1.00  0.00     0.157 A 
ATOM     16  C   UNL     1     137.171 129.860 136.557  1.00  0.00     0.062 A 
ATOM     17  C   UNL     1     137.936 130.011 135.394  1.00  0.00     0.158 A 
BRANCH  15  18
ATOM     18  O   UNL     1     138.123 130.761 133.095  1.00  0.00    -0.504 OA
ATOM     19  H   UNL     1     138.694 130.008 132.731  1.00  0.00     0.293 HD
ENDBRANCH  15  18
BRANCH  17  20
ATOM     20  O   UNL     1     139.256 129.562 135.389  1.00  0.00    -0.504 OA
ATOM     21  H   UNL     1     139.596 128.885 136.061  1.00  0.00     0.293 HD
ENDBRANCH  17  20
ENDBRANCH   1  12
BRANCH   2  22
ATOM     22  O   UNL     1     135.416 132.458 138.470  1.00  0.00    -0.502 OA
ATOM     23  H   UNL     1     134.891 133.165 137.970  1.00  0.00     0.293 HD
ENDBRANCH   2  22
BRANCH   6  24
ATOM     24  O   UNL     1     132.770 130.179 142.491  1.00  0.00    -0.507 OA
ATOM     25  H   UNL     1     133.240 131.065 142.601  1.00  0.00     0.293 HD
ENDBRANCH   6  24
BRANCH   8  26
ATOM     26  O   UNL     1     131.859 125.875 140.566  1.00  0.00    -0.508 OA
ATOM     27  H   UNL     1     132.215 125.176 141.208  1.00  0.00     0.293 HD
ENDBRANCH   8  26
TORSDOF 6
ENDMDL
MODEL 6
REMARK VINA RESULT:    -6.355      1.862      7.515
REMARK INTER + INTRA:          -7.590
REMARK INTER:                  -7.343
REMARK INTRA:                  -0.247
REMARK UNBOUND:                 0.065
REMARK SMILES O=c1c(O)c(-c2ccc(O)c(O)c2)oc2cc(O)cc(O)c12
REMARK SMILES IDX 5 1 3 2 2 3 1 4 22 5 20 6 19 7 17 8 16 9 15 10 14 11 6 12
REMARK SMILES IDX 7 13 8 14 9 15 13 16 11 17 10 18 12 20 4 22 21 24 18 26
REMARK H PARENT 10 19 12 21 4 23 21 25 18 27
REMARK Flexibility Score: inf
ROOT
ATOM      1  C   UNL     1     135.080 129.243 137.603  1.00  0.00     0.180 A 
ATOM      2  C   UNL     1     134.759 127.890 137.812  1.00  0.00     0.208 A 
ATOM      3  C   UNL     1     133.977 127.538 138.923  1.00  0.00     0.238 A 
ATOM      4  O   UNL     1     133.739 126.320 139.134  1.00  0.00    -0.285 OA
ATOM      5  C   UNL     1     133.513 128.545 139.804  1.00  0.00     0.111 A 
ATOM      6  C   UNL     1     132.680 128.307 140.939  1.00  0.00     0.134 A 
ATOM      7  C   UNL     1     132.389 129.360 141.815  1.00  0.00     0.093 A 
ATOM      8  C   UNL     1     132.846 130.656 141.559  1.00  0.00     0.123 A 
ATOM      9  C   UNL     1     133.608 130.909 140.422  1.00  0.00     0.094 A 
ATOM     10  C   UNL     1     133.946 129.871 139.550  1.00  0.00     0.146 A 
ATOM     11  O   UNL     1     134.684 130.155 138.483  1.00  0.00    -0.452 OA
ENDROOT
BRANCH   1  12
ATOM     12  C   UNL     1     135.878 129.694 136.440  1.00  0.00     0.025 A 
ATOM     13  C   UNL     1     135.288 130.396 135.376  1.00  0.00     0.016 A 
ATOM     14  C   UNL     1     136.065 130.832 134.300  1.00  0.00     0.051 A 
ATOM     15  C   UNL     1     137.444 130.585 134.278  1.00  0.00     0.157 A 
ATOM     16  C   UNL     1     137.264 129.467 136.424  1.00  0.00     0.062 A 
ATOM     17  C   UNL     1     138.046 129.902 135.347  1.00  0.00     0.158 A 
BRANCH  15  18
ATOM     18  O   UNL     1     138.217 131.021 133.202  1.00  0.00    -0.504 OA
ATOM     19  H   UNL     1     137.827 131.115 132.272  1.00  0.00     0.293 HD
ENDBRANCH  15  18
BRANCH  17  20
ATOM     20  O   UNL     1     139.417 129.647 135.360  1.00  0.00    -0.504 OA
ATOM     21  H   UNL     1     139.839 129.014 136.029  1.00  0.00     0.293 HD
ENDBRANCH  17  20
ENDBRANCH   1  12
BRANCH   2  22
ATOM     22  O   UNL     1     135.247 126.910 136.942  1.00  0.00    -0.502 OA
ATOM     23  H   UNL     1     135.744 126.091 137.269  1.00  0.00     0.293 HD
ENDBRANCH   2  22
BRANCH   6  24
ATOM     24  O   UNL     1     132.098 127.071 141.235  1.00  0.00    -0.507 OA
ATOM     25  H   UNL     1     132.278 126.536 142.072  1.00  0.00     0.293 HD
ENDBRANCH   6  24
BRANCH   8  26
ATOM     26  O   UNL     1     132.537 131.701 142.427  1.00  0.00    -0.508 OA
ATOM     27  H   UNL     1     132.499 131.564 143.431  1.00  0.00     0.293 HD
ENDBRANCH   8  26
TORSDOF 6
ENDMDL
MODEL 7
REMARK VINA RESULT:    -5.937     14.931     17.196
REMARK INTER + INTRA:          -7.087
REMARK INTER:                  -7.051
REMARK INTRA:                  -0.037
REMARK UNBOUND:                 0.065
REMARK SMILES O=c1c(O)c(-c2ccc(O)c(O)c2)oc2cc(O)cc(O)c12
REMARK SMILES IDX 5 1 3 2 2 3 1 4 22 5 20 6 19 7 17 8 16 9 15 10 14 11 6 12
REMARK SMILES IDX 7 13 8 14 9 15 13 16 11 17 10 18 12 20 4 22 21 24 18 26
REMARK H PARENT 10 19 12 21 4 23 21 25 18 27
REMARK Flexibility Score: inf
ROOT
ATOM      1  C   UNL     1     148.251 133.551 133.211  1.00  0.00     0.180 A 
ATOM      2  C   UNL     1     148.721 133.848 134.502  1.00  0.00     0.208 A 
ATOM      3  C   UNL     1     148.916 135.190 134.864  1.00  0.00     0.238 A 
ATOM      4  O   UNL     1     149.388 135.447 136.002  1.00  0.00    -0.285 OA
ATOM      5  C   UNL     1     148.624 136.220 133.936  1.00  0.00     0.111 A 
ATOM      6  C   UNL     1     148.745 137.615 134.209  1.00  0.00     0.134 A 
ATOM      7  C   UNL     1     148.555 138.541 133.175  1.00  0.00     0.093 A 
ATOM      8  C   UNL     1     148.182 138.123 131.895  1.00  0.00     0.123 A 
ATOM      9  C   UNL     1     148.002 136.766 131.635  1.00  0.00     0.094 A 
ATOM     10  C   UNL     1     148.221 135.817 132.636  1.00  0.00     0.146 A 
ATOM     11  O   UNL     1     148.049 134.534 132.342  1.00  0.00    -0.452 OA
ENDROOT
BRANCH   1  12
ATOM     12  C   UNL     1     147.996 132.161 132.765  1.00  0.00     0.025 A 
ATOM     13  C   UNL     1     148.626 131.632 131.626  1.00  0.00     0.016 A 
ATOM     14  C   UNL     1     148.388 130.310 131.238  1.00  0.00     0.051 A 
ATOM     15  C   UNL     1     147.530 129.496 131.990  1.00  0.00     0.157 A 
ATOM     16  C   UNL     1     147.154 131.335 133.527  1.00  0.00     0.062 A 
ATOM     17  C   UNL     1     146.914 130.011 133.141  1.00  0.00     0.158 A 
BRANCH  15  18
ATOM     18  O   UNL     1     147.295 128.178 131.599  1.00  0.00    -0.504 OA
ATOM     19  H   UNL     1     147.371 127.409 132.254  1.00  0.00     0.293 HD
ENDBRANCH  15  18
BRANCH  17  20
ATOM     20  O   UNL     1     146.061 129.225 133.915  1.00  0.00    -0.504 OA
ATOM     21  H   UNL     1     145.092 129.073 133.661  1.00  0.00     0.293 HD
ENDBRANCH  17  20
ENDBRANCH   1  12
BRANCH   2  22
ATOM     22  O   UNL     1     149.024 132.816 135.395  1.00  0.00    -0.502 OA
ATOM     23  H   UNL     1     148.481 132.643 136.232  1.00  0.00     0.293 HD
ENDBRANCH   2  22
BRANCH   6  24
ATOM     24  O   UNL     1     149.024 138.142 135.474  1.00  0.00    -0.507 OA
ATOM     25  H   UNL     1     149.163 139.122 135.670  1.00  0.00     0.293 HD
ENDBRANCH   6  24
BRANCH   8  26
ATOM     26  O   UNL     1     147.978 139.051 130.876  1.00  0.00    -0.508 OA
ATOM     27  H   UNL     1     147.065 139.189 130.458  1.00  0.00     0.293 HD
ENDBRANCH   8  26
TORSDOF 6
ENDMDL
MODEL 8
REMARK VINA RESULT:    -4.769     16.507     18.620
REMARK INTER + INTRA:          -5.680
REMARK INTER:                  -5.854
REMARK INTRA:                   0.173
REMARK UNBOUND:                 0.065
REMARK SMILES O=c1c(O)c(-c2ccc(O)c(O)c2)oc2cc(O)cc(O)c12
REMARK SMILES IDX 5 1 3 2 2 3 1 4 22 5 20 6 19 7 17 8 16 9 15 10 14 11 6 12
REMARK SMILES IDX 7 13 8 14 9 15 13 16 11 17 10 18 12 20 4 22 21 24 18 26
REMARK H PARENT 10 19 12 21 4 23 21 25 18 27
REMARK Flexibility Score: inf
ROOT
ATOM      1  C   UNL     1     148.573 137.231 133.856  1.00  0.00     0.180 A 
ATOM      2  C   UNL     1     149.354 137.685 134.933  1.00  0.00     0.208 A 
ATOM      3  C   UNL     1     149.382 139.058 135.223  1.00  0.00     0.238 A 
ATOM      4  O   UNL     1     150.125 139.465 136.154  1.00  0.00    -0.285 OA
ATOM      5  C   UNL     1     148.617 139.959 134.443  1.00  0.00     0.111 A 
ATOM      6  C   UNL     1     148.538 141.365 134.672  1.00  0.00     0.134 A 
ATOM      7  C   UNL     1     147.856 142.177 133.758  1.00  0.00     0.093 A 
ATOM      8  C   UNL     1     147.192 141.624 132.660  1.00  0.00     0.123 A 
ATOM      9  C   UNL     1     147.212 140.246 132.462  1.00  0.00     0.094 A 
ATOM     10  C   UNL     1     147.916 139.414 133.336  1.00  0.00     0.146 A 
ATOM     11  O   UNL     1     147.919 138.107 133.103  1.00  0.00    -0.452 OA
ENDROOT
BRANCH   1  12
ATOM     12  C   UNL     1     148.473 135.795 133.506  1.00  0.00     0.025 A 
ATOM     13  C   UNL     1     148.510 135.365 132.169  1.00  0.00     0.016 A 
ATOM     14  C   UNL     1     148.438 134.003 131.863  1.00  0.00     0.051 A 
ATOM     15  C   UNL     1     148.341 133.052 132.888  1.00  0.00     0.157 A 
ATOM     16  C   UNL     1     148.397 134.838 134.530  1.00  0.00     0.062 A 
ATOM     17  C   UNL     1     148.324 133.473 134.228  1.00  0.00     0.158 A 
BRANCH  15  18
ATOM     18  O   UNL     1     148.268 131.694 132.580  1.00  0.00    -0.504 OA
ATOM     19  H   UNL     1     148.201 130.989 133.303  1.00  0.00     0.293 HD
ENDBRANCH  15  18
BRANCH  17  20
ATOM     20  O   UNL     1     148.236 132.552 135.271  1.00  0.00    -0.504 OA
ATOM     21  H   UNL     1     148.814 131.721 135.305  1.00  0.00     0.293 HD
ENDBRANCH  17  20
ENDBRANCH   1  12
BRANCH   2  22
ATOM     22  O   UNL     1     150.119 136.782 135.678  1.00  0.00    -0.502 OA
ATOM     23  H   UNL     1     151.111 136.651 135.522  1.00  0.00     0.293 HD
ENDBRANCH   2  22
BRANCH   6  24
ATOM     24  O   UNL     1     149.088 142.006 135.786  1.00  0.00    -0.507 OA
ATOM     25  H   UNL     1     148.847 141.800 136.745  1.00  0.00     0.293 HD
ENDBRANCH   6  24
BRANCH   8  26
ATOM     26  O   UNL     1     146.500 142.437 131.764  1.00  0.00    -0.508 OA
ATOM     27  H   UNL     1     146.630 142.353 130.762  1.00  0.00     0.293 HD
ENDBRANCH   8  26
TORSDOF 6
ENDMDL
MODEL 9
REMARK VINA RESULT:    -4.748     16.541     19.079
REMARK INTER + INTRA:          -5.655
REMARK INTER:                  -5.433
REMARK INTRA:                  -0.222
REMARK UNBOUND:                 0.065
REMARK SMILES O=c1c(O)c(-c2ccc(O)c(O)c2)oc2cc(O)cc(O)c12
REMARK SMILES IDX 5 1 3 2 2 3 1 4 22 5 20 6 19 7 17 8 16 9 15 10 14 11 6 12
REMARK SMILES IDX 7 13 8 14 9 15 13 16 11 17 10 18 12 20 4 22 21 24 18 26
REMARK H PARENT 10 19 12 21 4 23 21 25 18 27
REMARK Flexibility Score: inf
ROOT
ATOM      1  C   UNL     1     148.398 137.739 133.245  1.00  0.00     0.180 A 
ATOM      2  C   UNL     1     148.246 136.817 132.194  1.00  0.00     0.208 A 
ATOM      3  C   UNL     1     148.258 135.444 132.485  1.00  0.00     0.238 A 
ATOM      4  O   UNL     1     148.176 134.624 131.534  1.00  0.00    -0.285 OA
ATOM      5  C   UNL     1     148.406 135.009 133.824  1.00  0.00     0.111 A 
ATOM      6  C   UNL     1     148.391 133.643 134.239  1.00  0.00     0.134 A 
ATOM      7  C   UNL     1     148.678 133.323 135.572  1.00  0.00     0.093 A 
ATOM      8  C   UNL     1     148.912 134.324 136.518  1.00  0.00     0.123 A 
ATOM      9  C   UNL     1     148.868 135.662 136.135  1.00  0.00     0.094 A 
ATOM     10  C   UNL     1     148.622 136.011 134.805  1.00  0.00     0.146 A 
ATOM     11  O   UNL     1     148.600 137.298 134.481  1.00  0.00    -0.452 OA
ENDROOT
BRANCH   1  12
ATOM     12  C   UNL     1     148.370 139.202 133.020  1.00  0.00     0.025 A 
ATOM     13  C   UNL     1     149.538 139.978 133.105  1.00  0.00     0.016 A 
ATOM     14  C   UNL     1     149.491 141.354 132.866  1.00  0.00     0.051 A 
ATOM     15  C   UNL     1     148.281 141.972 132.525  1.00  0.00     0.157 A 
ATOM     16  C   UNL     1     147.163 139.822 132.657  1.00  0.00     0.062 A 
ATOM     17  C   UNL     1     147.113 141.201 132.416  1.00  0.00     0.158 A 
BRANCH  15  18
ATOM     18  O   UNL     1     148.238 143.345 132.287  1.00  0.00    -0.504 OA
ATOM     19  H   UNL     1     148.623 144.010 132.947  1.00  0.00     0.293 HD
ENDBRANCH  15  18
BRANCH  17  20
ATOM     20  O   UNL     1     145.893 141.783 132.072  1.00  0.00    -0.504 OA
ATOM     21  H   UNL     1     145.629 142.707 132.392  1.00  0.00     0.293 HD
ENDBRANCH  17  20
ENDBRANCH   1  12
BRANCH   2  22
ATOM     22  O   UNL     1     148.123 137.267 130.876  1.00  0.00    -0.502 OA
ATOM     23  H   UNL     1     148.231 138.241 130.621  1.00  0.00     0.293 HD
ENDBRANCH   2  22
BRANCH   6  24
ATOM     24  O   UNL     1     148.079 132.574 133.394  1.00  0.00    -0.507 OA
ATOM     25  H   UNL     1     147.691 132.669 132.467  1.00  0.00     0.293 HD
ENDBRANCH   6  24
BRANCH   8  26
ATOM     26  O   UNL     1     149.180 133.998 137.846  1.00  0.00    -0.508 OA
ATOM     27  H   UNL     1     148.493 134.143 138.577  1.00  0.00     0.293 HD
ENDBRANCH   8  26
TORSDOF 6
ENDMDL
