MODEL 1
REMARK VINA RESULT:    -4.373      0.000      0.000
REMARK INTER + INTRA:          -8.144
REMARK INTER:                  -7.440
REMARK INTRA:                  -0.704
REMARK UNBOUND:                -0.704
REMARK SMILES CCCCCCCCCCCCCC(=O)[O-]
REMARK SMILES IDX 8 1 9 2 10 3 11 4 12 5 13 6 14 7 15 8 16 9 7 10 6 11 5 12
REMARK SMILES IDX 4 13 3 14 2 15 1 16
REMARK H PARENT
REMARK Flexibility Score: inf
ROOT
ATOM      1  C   UNL     1       5.880  -7.518  -8.405  1.00  0.00     0.000 C 
ENDROOT
BRANCH   1   2
ATOM      2  C   UNL     1       4.977  -6.491  -7.700  1.00  0.00     0.000 C 
BRANCH   2   3
ATOM      3  C   UNL     1       5.772  -5.357  -7.032  1.00  0.00     0.000 C 
BRANCH   3   4
ATOM      4  C   UNL     1       6.040  -5.621  -5.541  1.00  0.00     0.000 C 
BRANCH   4   5
ATOM      5  C   UNL     1       7.538  -5.707  -5.214  1.00  0.00     0.006 C 
BRANCH   5   6
ATOM      6  C   UNL     1       8.384  -5.523  -6.478  1.00  0.00     0.053 C 
BRANCH   6   7
ATOM      7  C   UNL     1       9.718  -6.182  -6.318  1.00  0.00     0.041 C 
ATOM      8  O   UNL     1      10.010  -6.763  -5.240  1.00  0.00    -0.550 OA
ATOM      9  O   UNL     1      10.655  -6.113  -7.340  1.00  0.00    -0.550 OA
ENDBRANCH   6   7
ENDBRANCH   5   6
ENDBRANCH   4   5
ENDBRANCH   3   4
ENDBRANCH   2   3
ENDBRANCH   1   2
BRANCH   1  10
ATOM     10  C   UNL     1       5.544  -7.713  -9.899  1.00  0.00     0.000 C 
BRANCH  10  11
ATOM     11  C   UNL     1       6.063  -9.057 -10.440  1.00  0.00    -0.000 C 
BRANCH  11  12
ATOM     12  C   UNL     1       5.830  -9.224 -11.952  1.00  0.00    -0.000 C 
BRANCH  12  13
ATOM     13  C   UNL     1       5.217  -7.998 -12.652  1.00  0.00    -0.000 C 
BRANCH  13  14
ATOM     14  C   UNL     1       5.632  -7.880 -14.126  1.00  0.00    -0.000 C 
BRANCH  14  15
ATOM     15  C   UNL     1       5.140  -6.559 -14.730  1.00  0.00    -0.003 C 
ATOM     16  C   UNL     1       4.876  -5.520 -13.644  1.00  0.00     0.004 C 
ENDBRANCH  14  15
ENDBRANCH  13  14
ENDBRANCH  12  13
ENDBRANCH  11  12
ENDBRANCH  10  11
ENDBRANCH   1  10
TORSDOF 12
ENDMDL
MODEL 2
REMARK VINA RESULT:    -4.021     13.261     14.464
REMARK INTER + INTRA:          -7.547
REMARK INTER:                  -7.106
REMARK INTRA:                  -0.441
REMARK UNBOUND:                -0.704
REMARK SMILES CCCCCCCCCCCCCC(=O)[O-]
REMARK SMILES IDX 8 1 9 2 10 3 11 4 12 5 13 6 14 7 15 8 16 9 7 10 6 11 5 12
REMARK SMILES IDX 4 13 3 14 2 15 1 16
REMARK H PARENT
REMARK Flexibility Score: inf
ROOT
ATOM      1  C   UNL     1       6.677 -19.220 -15.079  1.00  0.00     0.000 C 
ENDROOT
BRANCH   1   2
ATOM      2  C   UNL     1       6.466 -20.631 -14.502  1.00  0.00     0.000 C 
BRANCH   2   3
ATOM      3  C   UNL     1       5.522 -20.643 -13.288  1.00  0.00     0.000 C 
BRANCH   3   4
ATOM      4  C   UNL     1       5.596 -21.958 -12.495  1.00  0.00     0.000 C 
BRANCH   4   5
ATOM      5  C   UNL     1       5.213 -21.782 -11.017  1.00  0.00     0.006 C 
BRANCH   5   6
ATOM      6  C   UNL     1       5.602 -23.020 -10.202  1.00  0.00     0.053 C 
BRANCH   6   7
ATOM      7  C   UNL     1       5.980 -22.632  -8.807  1.00  0.00     0.041 C 
ATOM      8  O   UNL     1       6.358 -21.457  -8.558  1.00  0.00    -0.550 OA
ATOM      9  O   UNL     1       5.959 -23.579  -7.792  1.00  0.00    -0.550 OA
ENDBRANCH   6   7
ENDBRANCH   5   6
ENDBRANCH   4   5
ENDBRANCH   3   4
ENDBRANCH   2   3
ENDBRANCH   1   2
BRANCH   1  10
ATOM     10  C   UNL     1       5.369 -18.415 -15.236  1.00  0.00     0.000 C 
BRANCH  10  11
ATOM     11  C   UNL     1       5.071 -18.073 -16.706  1.00  0.00    -0.000 C 
BRANCH  11  12
ATOM     12  C   UNL     1       5.600 -16.687 -17.119  1.00  0.00    -0.000 C 
BRANCH  12  13
ATOM     13  C   UNL     1       5.238 -16.257 -18.551  1.00  0.00    -0.000 C 
BRANCH  13  14
ATOM     14  C   UNL     1       6.290 -15.335 -19.183  1.00  0.00    -0.000 C 
BRANCH  14  15
ATOM     15  C   UNL     1       6.613 -15.772 -20.617  1.00  0.00    -0.003 C 
ATOM     16  C   UNL     1       6.326 -17.257 -20.819  1.00  0.00     0.004 C 
ENDBRANCH  14  15
ENDBRANCH  13  14
ENDBRANCH  12  13
ENDBRANCH  11  12
ENDBRANCH  10  11
ENDBRANCH   1  10
TORSDOF 12
ENDMDL
MODEL 3
REMARK VINA RESULT:    -4.018     19.618     21.307
REMARK INTER + INTRA:          -7.542
REMARK INTER:                  -6.389
REMARK INTRA:                  -1.153
REMARK UNBOUND:                -0.704
REMARK SMILES CCCCCCCCCCCCCC(=O)[O-]
REMARK SMILES IDX 8 1 9 2 10 3 11 4 12 5 13 6 14 7 15 8 16 9 7 10 6 11 5 12
REMARK SMILES IDX 4 13 3 14 2 15 1 16
REMARK H PARENT
REMARK Flexibility Score: inf
ROOT
ATOM      1  C   UNL     1      17.403 -24.331 -19.220  1.00  0.00     0.000 C 
ENDROOT
BRANCH   1   2
ATOM      2  C   UNL     1      18.765 -23.790 -19.688  1.00  0.00     0.000 C 
BRANCH   2   3
ATOM      3  C   UNL     1      19.009 -22.335 -19.255  1.00  0.00     0.000 C 
BRANCH   3   4
ATOM      4  C   UNL     1      20.474 -22.071 -18.868  1.00  0.00     0.000 C 
BRANCH   4   5
ATOM      5  C   UNL     1      20.848 -20.583 -18.945  1.00  0.00     0.006 C 
BRANCH   5   6
ATOM      6  C   UNL     1      21.319 -20.069 -17.581  1.00  0.00     0.053 C 
BRANCH   6   7
ATOM      7  C   UNL     1      21.325 -18.572 -17.558  1.00  0.00     0.041 C 
ATOM      8  O   UNL     1      22.091 -17.931 -18.325  1.00  0.00    -0.550 OA
ATOM      9  O   UNL     1      20.519 -17.887 -16.659  1.00  0.00    -0.550 OA
ENDBRANCH   6   7
ENDBRANCH   5   6
ENDBRANCH   4   5
ENDBRANCH   3   4
ENDBRANCH   2   3
ENDBRANCH   1   2
BRANCH   1  10
ATOM     10  C   UNL     1      16.891 -23.676 -17.919  1.00  0.00     0.000 C 
BRANCH  10  11
ATOM     11  C   UNL     1      15.381 -23.890 -17.717  1.00  0.00    -0.000 C 
BRANCH  11  12
ATOM     12  C   UNL     1      14.687 -24.473 -18.961  1.00  0.00    -0.000 C 
BRANCH  12  13
ATOM     13  C   UNL     1      13.681 -23.529 -19.642  1.00  0.00    -0.000 C 
BRANCH  13  14
ATOM     14  C   UNL     1      13.791 -22.079 -19.147  1.00  0.00    -0.000 C 
BRANCH  14  15
ATOM     15  C   UNL     1      14.211 -21.142 -20.285  1.00  0.00    -0.003 C 
ATOM     16  C   UNL     1      15.715 -21.217 -20.535  1.00  0.00     0.004 C 
ENDBRANCH  14  15
ENDBRANCH  13  14
ENDBRANCH  12  13
ENDBRANCH  11  12
ENDBRANCH  10  11
ENDBRANCH   1  10
TORSDOF 12
ENDMDL
MODEL 4
REMARK VINA RESULT:    -3.982     13.056     15.827
REMARK INTER + INTRA:          -7.480
REMARK INTER:                  -7.126
REMARK INTRA:                  -0.354
REMARK UNBOUND:                -0.704
REMARK SMILES CCCCCCCCCCCCCC(=O)[O-]
REMARK SMILES IDX 8 1 9 2 10 3 11 4 12 5 13 6 14 7 15 8 16 9 7 10 6 11 5 12
REMARK SMILES IDX 4 13 3 14 2 15 1 16
REMARK H PARENT
REMARK Flexibility Score: inf
ROOT
ATOM      1  C   UNL     1       6.631 -20.352 -14.609  1.00  0.00     0.000 C 
ENDROOT
BRANCH   1   2
ATOM      2  C   UNL     1       5.999 -19.652 -15.824  1.00  0.00     0.000 C 
BRANCH   2   3
ATOM      3  C   UNL     1       5.948 -18.123 -15.671  1.00  0.00     0.000 C 
BRANCH   3   4
ATOM      4  C   UNL     1       5.260 -17.433 -16.861  1.00  0.00     0.000 C 
BRANCH   4   5
ATOM      5  C   UNL     1       5.924 -16.101 -17.238  1.00  0.00     0.006 C 
BRANCH   5   6
ATOM      6  C   UNL     1       5.321 -15.538 -18.530  1.00  0.00     0.053 C 
BRANCH   6   7
ATOM      7  C   UNL     1       6.318 -15.597 -19.644  1.00  0.00     0.041 C 
ATOM      8  O   UNL     1       6.463 -16.658 -20.308  1.00  0.00    -0.550 OA
ATOM      9  O   UNL     1       7.121 -14.497 -19.919  1.00  0.00    -0.550 OA
ENDBRANCH   6   7
ENDBRANCH   5   6
ENDBRANCH   4   5
ENDBRANCH   3   4
ENDBRANCH   2   3
ENDBRANCH   1   2
BRANCH   1  10
ATOM     10  C   UNL     1       5.683 -20.463 -13.396  1.00  0.00     0.000 C 
BRANCH  10  11
ATOM     11  C   UNL     1       5.592 -21.902 -12.860  1.00  0.00    -0.000 C 
BRANCH  11  12
ATOM     12  C   UNL     1       5.110 -21.969 -11.399  1.00  0.00    -0.000 C 
BRANCH  12  13
ATOM     13  C   UNL     1       5.003 -23.389 -10.817  1.00  0.00    -0.000 C 
BRANCH  13  14
ATOM     14  C   UNL     1       6.166 -23.741  -9.878  1.00  0.00    -0.000 C 
BRANCH  14  15
ATOM     15  C   UNL     1       6.154 -22.849  -8.632  1.00  0.00    -0.003 C 
ATOM     16  C   UNL     1       5.763 -23.642  -7.389  1.00  0.00     0.004 C 
ENDBRANCH  14  15
ENDBRANCH  13  14
ENDBRANCH  12  13
ENDBRANCH  11  12
ENDBRANCH  10  11
ENDBRANCH   1  10
TORSDOF 12
ENDMDL
MODEL 5
REMARK VINA RESULT:    -3.911     19.478     21.147
REMARK INTER + INTRA:          -7.358
REMARK INTER:                  -6.398
REMARK INTRA:                  -0.960
REMARK UNBOUND:                -0.704
REMARK SMILES CCCCCCCCCCCCCC(=O)[O-]
REMARK SMILES IDX 8 1 9 2 10 3 11 4 12 5 13 6 14 7 15 8 16 9 7 10 6 11 5 12
REMARK SMILES IDX 4 13 3 14 2 15 1 16
REMARK H PARENT
REMARK Flexibility Score: inf
ROOT
ATOM      1  C   UNL     1      18.098 -22.708 -19.666  1.00  0.00     0.000 C 
ENDROOT
BRANCH   1   2
ATOM      2  C   UNL     1      19.614 -22.506 -19.495  1.00  0.00     0.000 C 
BRANCH   2   3
ATOM      3  C   UNL     1      20.128 -21.233 -20.189  1.00  0.00     0.000 C 
BRANCH   3   4
ATOM      4  C   UNL     1      20.327 -20.065 -19.210  1.00  0.00     0.000 C 
BRANCH   4   5
ATOM      5  C   UNL     1      21.571 -20.237 -18.327  1.00  0.00     0.006 C 
BRANCH   5   6
ATOM      6  C   UNL     1      21.397 -19.505 -16.992  1.00  0.00     0.053 C 
BRANCH   6   7
ATOM      7  C   UNL     1      21.314 -18.027 -17.211  1.00  0.00     0.041 C 
ATOM      8  O   UNL     1      20.329 -17.377 -16.770  1.00  0.00    -0.550 OA
ATOM      9  O   UNL     1      22.298 -17.375 -17.941  1.00  0.00    -0.550 OA
ENDBRANCH   6   7
ENDBRANCH   5   6
ENDBRANCH   4   5
ENDBRANCH   3   4
ENDBRANCH   2   3
ENDBRANCH   1   2
BRANCH   1  10
ATOM     10  C   UNL     1      17.424 -23.382 -18.452  1.00  0.00     0.000 C 
BRANCH  10  11
ATOM     11  C   UNL     1      16.329 -24.377 -18.876  1.00  0.00    -0.000 C 
BRANCH  11  12
ATOM     12  C   UNL     1      14.946 -24.027 -18.298  1.00  0.00    -0.000 C 
BRANCH  12  13
ATOM     13  C   UNL     1      13.778 -24.156 -19.292  1.00  0.00    -0.000 C 
BRANCH  13  14
ATOM     14  C   UNL     1      13.712 -22.994 -20.293  1.00  0.00    -0.000 C 
BRANCH  14  15
ATOM     15  C   UNL     1      13.922 -21.649 -19.587  1.00  0.00    -0.003 C 
ATOM     16  C   UNL     1      14.965 -20.802 -20.311  1.00  0.00     0.004 C 
ENDBRANCH  14  15
ENDBRANCH  13  14
ENDBRANCH  12  13
ENDBRANCH  11  12
ENDBRANCH  10  11
ENDBRANCH   1  10
TORSDOF 12
ENDMDL
MODEL 6
REMARK VINA RESULT:    -3.906     19.862     21.085
REMARK INTER + INTRA:          -7.350
REMARK INTER:                  -6.711
REMARK INTRA:                  -0.639
REMARK UNBOUND:                -0.704
REMARK SMILES CCCCCCCCCCCCCC(=O)[O-]
REMARK SMILES IDX 8 1 9 2 10 3 11 4 12 5 13 6 14 7 15 8 16 9 7 10 6 11 5 12
REMARK SMILES IDX 4 13 3 14 2 15 1 16
REMARK H PARENT
REMARK Flexibility Score: inf
ROOT
ATOM      1  C   UNL     1      19.845 -20.596 -19.847  1.00  0.00     0.000 C 
ENDROOT
BRANCH   1   2
ATOM      2  C   UNL     1      20.964 -21.135 -18.940  1.00  0.00     0.000 C 
BRANCH   2   3
ATOM      3  C   UNL     1      21.838 -20.020 -18.343  1.00  0.00     0.000 C 
BRANCH   3   4
ATOM      4  C   UNL     1      21.279 -19.475 -17.018  1.00  0.00     0.000 C 
BRANCH   4   5
ATOM      5  C   UNL     1      21.117 -17.948 -17.027  1.00  0.00     0.006 C 
BRANCH   5   6
ATOM      6  C   UNL     1      22.429 -17.263 -17.424  1.00  0.00     0.053 C 
BRANCH   6   7
ATOM      7  C   UNL     1      22.417 -15.825 -17.009  1.00  0.00     0.041 C 
ATOM      8  O   UNL     1      21.430 -15.355 -16.384  1.00  0.00    -0.550 OA
ATOM      9  O   UNL     1      23.473 -14.992 -17.354  1.00  0.00    -0.550 OA
ENDBRANCH   6   7
ENDBRANCH   5   6
ENDBRANCH   4   5
ENDBRANCH   3   4
ENDBRANCH   2   3
ENDBRANCH   1   2
BRANCH   1  10
ATOM     10  C   UNL     1      18.792 -21.658 -20.229  1.00  0.00     0.000 C 
BRANCH  10  11
ATOM     11  C   UNL     1      18.707 -22.790 -19.190  1.00  0.00    -0.000 C 
BRANCH  11  12
ATOM     12  C   UNL     1      17.318 -23.452 -19.138  1.00  0.00    -0.000 C 
BRANCH  12  13
ATOM     13  C   UNL     1      16.805 -23.766 -17.721  1.00  0.00    -0.000 C 
BRANCH  13  14
ATOM     14  C   UNL     1      15.289 -23.571 -17.577  1.00  0.00    -0.000 C 
BRANCH  14  15
ATOM     15  C   UNL     1      14.656 -23.181 -18.918  1.00  0.00    -0.003 C 
ATOM     16  C   UNL     1      13.682 -24.251 -19.401  1.00  0.00     0.004 C 
ENDBRANCH  14  15
ENDBRANCH  13  14
ENDBRANCH  12  13
ENDBRANCH  11  12
ENDBRANCH  10  11
ENDBRANCH   1  10
TORSDOF 12
ENDMDL
MODEL 7
REMARK VINA RESULT:    -3.903     18.508     20.509
REMARK INTER + INTRA:          -7.345
REMARK INTER:                  -6.865
REMARK INTRA:                  -0.480
REMARK UNBOUND:                -0.704
REMARK SMILES CCCCCCCCCCCCCC(=O)[O-]
REMARK SMILES IDX 8 1 9 2 10 3 11 4 12 5 13 6 14 7 15 8 16 9 7 10 6 11 5 12
REMARK SMILES IDX 4 13 3 14 2 15 1 16
REMARK H PARENT
REMARK Flexibility Score: inf
ROOT
ATOM      1  C   UNL     1      21.395 -20.585 -18.982  1.00  0.00     0.000 C 
ENDROOT
BRANCH   1   2
ATOM      2  C   UNL     1      21.378 -20.229 -17.485  1.00  0.00     0.000 C 
BRANCH   2   3
ATOM      3  C   UNL     1      22.460 -19.205 -17.103  1.00  0.00     0.000 C 
BRANCH   3   4
ATOM      4  C   UNL     1      21.973 -17.753 -17.234  1.00  0.00     0.000 C 
BRANCH   4   5
ATOM      5  C   UNL     1      20.535 -17.563 -16.727  1.00  0.00     0.006 C 
BRANCH   5   6
ATOM      6  C   UNL     1      20.279 -16.100 -16.350  1.00  0.00     0.053 C 
BRANCH   6   7
ATOM      7  C   UNL     1      18.902 -15.936 -15.788  1.00  0.00     0.041 C 
ATOM      8  O   UNL     1      18.511 -16.673 -14.844  1.00  0.00    -0.550 OA
ATOM      9  O   UNL     1      18.032 -15.003 -16.338  1.00  0.00    -0.550 OA
ENDBRANCH   6   7
ENDBRANCH   5   6
ENDBRANCH   4   5
ENDBRANCH   3   4
ENDBRANCH   2   3
ENDBRANCH   1   2
BRANCH   1  10
ATOM     10  C   UNL     1      20.856 -21.999 -19.287  1.00  0.00     0.000 C 
BRANCH  10  11
ATOM     11  C   UNL     1      19.372 -21.980 -19.693  1.00  0.00    -0.000 C 
BRANCH  11  12
ATOM     12  C   UNL     1      18.557 -23.111 -19.039  1.00  0.00    -0.000 C 
BRANCH  12  13
ATOM     13  C   UNL     1      17.030 -22.932 -19.111  1.00  0.00    -0.000 C 
BRANCH  13  14
ATOM     14  C   UNL     1      16.263 -24.242 -18.877  1.00  0.00    -0.000 C 
BRANCH  14  15
ATOM     15  C   UNL     1      14.873 -23.966 -18.292  1.00  0.00    -0.003 C 
ATOM     16  C   UNL     1      14.969 -23.185 -16.985  1.00  0.00     0.004 C 
ENDBRANCH  14  15
ENDBRANCH  13  14
ENDBRANCH  12  13
ENDBRANCH  11  12
ENDBRANCH  10  11
ENDBRANCH   1  10
TORSDOF 12
ENDMDL
MODEL 8
REMARK VINA RESULT:    -3.822     19.224     21.629
REMARK INTER + INTRA:          -7.207
REMARK INTER:                  -5.905
REMARK INTRA:                  -1.302
REMARK UNBOUND:                -0.704
REMARK SMILES CCCCCCCCCCCCCC(=O)[O-]
REMARK SMILES IDX 8 1 9 2 10 3 11 4 12 5 13 6 14 7 15 8 16 9 7 10 6 11 5 12
REMARK SMILES IDX 4 13 3 14 2 15 1 16
REMARK H PARENT
REMARK Flexibility Score: inf
ROOT
ATOM      1  C   UNL     1      17.155 -23.634 -18.119  1.00  0.00     0.000 C 
ENDROOT
BRANCH   1   2
ATOM      2  C   UNL     1      15.723 -23.782 -17.578  1.00  0.00     0.000 C 
BRANCH   2   3
ATOM      3  C   UNL     1      14.770 -22.698 -18.109  1.00  0.00     0.000 C 
BRANCH   3   4
ATOM      4  C   UNL     1      13.916 -23.187 -19.290  1.00  0.00     0.000 C 
BRANCH   4   5
ATOM      5  C   UNL     1      14.115 -22.341 -20.556  1.00  0.00     0.006 C 
BRANCH   5   6
ATOM      6  C   UNL     1      15.062 -21.168 -20.284  1.00  0.00     0.053 C 
BRANCH   6   7
ATOM      7  C   UNL     1      14.358 -19.865 -20.499  1.00  0.00     0.041 C 
ATOM      8  O   UNL     1      13.112 -19.842 -20.685  1.00  0.00    -0.550 OA
ATOM      9  O   UNL     1      15.082 -18.680 -20.542  1.00  0.00    -0.550 OA
ENDBRANCH   6   7
ENDBRANCH   5   6
ENDBRANCH   4   5
ENDBRANCH   3   4
ENDBRANCH   2   3
ENDBRANCH   1   2
BRANCH   1  10
ATOM     10  C   UNL     1      17.393 -24.376 -19.451  1.00  0.00     0.000 C 
BRANCH  10  11
ATOM     11  C   UNL     1      18.237 -23.546 -20.434  1.00  0.00    -0.000 C 
BRANCH  11  12
ATOM     12  C   UNL     1      18.556 -22.135 -19.909  1.00  0.00    -0.000 C 
BRANCH  12  13
ATOM     13  C   UNL     1      20.038 -21.730 -19.998  1.00  0.00    -0.000 C 
BRANCH  13  14
ATOM     14  C   UNL     1      20.697 -21.565 -18.622  1.00  0.00    -0.000 C 
BRANCH  14  15
ATOM     15  C   UNL     1      21.035 -20.094 -18.348  1.00  0.00    -0.003 C 
ATOM     16  C   UNL     1      21.812 -19.939 -17.045  1.00  0.00     0.004 C 
ENDBRANCH  14  15
ENDBRANCH  13  14
ENDBRANCH  12  13
ENDBRANCH  11  12
ENDBRANCH  10  11
ENDBRANCH   1  10
TORSDOF 12
ENDMDL
MODEL 9
REMARK VINA RESULT:    -3.789     20.435     22.107
REMARK INTER + INTRA:          -7.152
REMARK INTER:                  -6.466
REMARK INTRA:                  -0.686
REMARK UNBOUND:                -0.704
REMARK SMILES CCCCCCCCCCCCCC(=O)[O-]
REMARK SMILES IDX 8 1 9 2 10 3 11 4 12 5 13 6 14 7 15 8 16 9 7 10 6 11 5 12
REMARK SMILES IDX 4 13 3 14 2 15 1 16
REMARK H PARENT
REMARK Flexibility Score: inf
ROOT
ATOM      1  C   UNL     1      19.546 -21.217 -20.035  1.00  0.00     0.000 C 
ENDROOT
BRANCH   1   2
ATOM      2  C   UNL     1      19.204 -22.495 -19.250  1.00  0.00     0.000 C 
BRANCH   2   3
ATOM      3  C   UNL     1      17.733 -22.913 -19.403  1.00  0.00     0.000 C 
BRANCH   3   4
ATOM      4  C   UNL     1      17.203 -23.672 -18.175  1.00  0.00     0.000 C 
BRANCH   4   5
ATOM      5  C   UNL     1      15.767 -23.270 -17.804  1.00  0.00     0.006 C 
BRANCH   5   6
ATOM      6  C   UNL     1      14.749 -24.156 -18.530  1.00  0.00     0.053 C 
BRANCH   6   7
ATOM      7  C   UNL     1      13.848 -23.324 -19.389  1.00  0.00     0.041 C 
ATOM      8  O   UNL     1      13.119 -23.872 -20.257  1.00  0.00    -0.550 OA
ATOM      9  O   UNL     1      13.849 -21.941 -19.263  1.00  0.00    -0.550 OA
ENDBRANCH   6   7
ENDBRANCH   5   6
ENDBRANCH   4   5
ENDBRANCH   3   4
ENDBRANCH   2   3
ENDBRANCH   1   2
BRANCH   1  10
ATOM     10  C   UNL     1      20.575 -20.311 -19.325  1.00  0.00     0.000 C 
BRANCH  10  11
ATOM     11  C   UNL     1      21.124 -20.954 -18.039  1.00  0.00    -0.000 C 
BRANCH  11  12
ATOM     12  C   UNL     1      21.765 -19.931 -17.084  1.00  0.00    -0.000 C 
BRANCH  12  13
ATOM     13  C   UNL     1      21.043 -18.575 -17.009  1.00  0.00    -0.000 C 
BRANCH  13  14
ATOM     14  C   UNL     1      21.970 -17.386 -17.300  1.00  0.00    -0.000 C 
BRANCH  14  15
ATOM     15  C   UNL     1      23.423 -17.725 -16.950  1.00  0.00    -0.003 C 
ATOM     16  C   UNL     1      24.367 -16.598 -17.360  1.00  0.00     0.004 C 
ENDBRANCH  14  15
ENDBRANCH  13  14
ENDBRANCH  12  13
ENDBRANCH  11  12
ENDBRANCH  10  11
ENDBRANCH   1  10
TORSDOF 12
ENDMDL
