MODEL 1
REMARK VINA RESULT:    -2.468      0.000      0.000
REMARK INTER + INTRA:          -5.975
REMARK INTER:                  -4.487
REMARK INTRA:                  -1.488
REMARK UNBOUND:                -1.488
REMARK SMILES CCCCCCCCCCCCCCCC(=O)[O-]
REMARK SMILES IDX 9 1 10 2 11 3 12 4 13 5 14 6 15 7 16 8 17 9 18 10 8 11 7 12
REMARK SMILES IDX 6 13 5 14 4 15 3 16 2 17 1 18
REMARK H PARENT
REMARK Flexibility Score: inf
ROOT
ATOM      1  C   UNL     1      -5.266  -6.538  -7.018  1.00  0.00     0.000 C 
ENDROOT
BRANCH   1   2
ATOM      2  C   UNL     1      -5.773  -7.794  -6.285  1.00  0.00     0.000 C 
BRANCH   2   3
ATOM      3  C   UNL     1      -7.307  -7.922  -6.230  1.00  0.00     0.000 C 
BRANCH   3   4
ATOM      4  C   UNL     1      -7.981  -6.684  -5.612  1.00  0.00     0.000 C 
BRANCH   4   5
ATOM      5  C   UNL     1      -9.516  -6.763  -5.657  1.00  0.00     0.000 C 
BRANCH   5   6
ATOM      6  C   UNL     1     -10.125  -5.879  -6.760  1.00  0.00     0.006 C 
BRANCH   6   7
ATOM      7  C   UNL     1      -9.051  -5.109  -7.541  1.00  0.00     0.053 C 
BRANCH   7   8
ATOM      8  C   UNL     1      -9.589  -4.560  -8.826  1.00  0.00     0.041 C 
ATOM      9  O   UNL     1      -9.849  -3.332  -8.931  1.00  0.00    -0.550 OA
ATOM     10  O   UNL     1      -9.771  -5.397  -9.919  1.00  0.00    -0.550 OA
ENDBRANCH   7   8
ENDBRANCH   6   7
ENDBRANCH   5   6
ENDBRANCH   4   5
ENDBRANCH   3   4
ENDBRANCH   2   3
ENDBRANCH   1   2
BRANCH   1  11
ATOM     11  C   UNL     1      -4.043  -6.828  -7.908  1.00  0.00     0.000 C 
BRANCH  11  12
ATOM     12  C   UNL     1      -4.413  -7.597  -9.187  1.00  0.00    -0.000 C 
BRANCH  12  13
ATOM     13  C   UNL     1      -4.460  -9.118  -8.975  1.00  0.00    -0.000 C 
BRANCH  13  14
ATOM     14  C   UNL     1      -5.274  -9.802 -10.080  1.00  0.00    -0.000 C 
BRANCH  14  15
ATOM     15  C   UNL     1      -6.751  -9.932  -9.678  1.00  0.00    -0.000 C 
BRANCH  15  16
ATOM     16  C   UNL     1      -7.529  -8.615  -9.881  1.00  0.00    -0.000 C 
BRANCH  16  17
ATOM     17  C   UNL     1      -8.992  -8.686  -9.411  1.00  0.00    -0.003 C 
ATOM     18  C   UNL     1      -9.464 -10.112  -9.139  1.00  0.00     0.004 C 
ENDBRANCH  16  17
ENDBRANCH  15  16
ENDBRANCH  14  15
ENDBRANCH  13  14
ENDBRANCH  12  13
ENDBRANCH  11  12
ENDBRANCH   1  11
TORSDOF 14
ENDMDL
MODEL 2
REMARK VINA RESULT:    -2.304      2.596      3.654
REMARK INTER + INTRA:          -5.676
REMARK INTER:                  -4.553
REMARK INTRA:                  -1.124
REMARK UNBOUND:                -1.488
REMARK SMILES CCCCCCCCCCCCCCCC(=O)[O-]
REMARK SMILES IDX 9 1 10 2 11 3 12 4 13 5 14 6 15 7 16 8 17 9 18 10 8 11 7 12
REMARK SMILES IDX 6 13 5 14 4 15 3 16 2 17 1 18
REMARK H PARENT
REMARK Flexibility Score: inf
ROOT
ATOM      1  C   UNL     1      -5.179  -6.171  -7.247  1.00  0.00     0.000 C 
ENDROOT
BRANCH   1   2
ATOM      2  C   UNL     1      -5.925  -6.643  -5.985  1.00  0.00     0.000 C 
BRANCH   2   3
ATOM      3  C   UNL     1      -7.419  -6.948  -6.207  1.00  0.00     0.000 C 
BRANCH   3   4
ATOM      4  C   UNL     1      -8.156  -5.800  -6.920  1.00  0.00     0.000 C 
BRANCH   4   5
ATOM      5  C   UNL     1      -9.683  -5.970  -6.890  1.00  0.00     0.000 C 
BRANCH   5   6
ATOM      6  C   UNL     1     -10.118  -7.444  -6.974  1.00  0.00     0.006 C 
BRANCH   6   7
ATOM      7  C   UNL     1     -10.119  -8.125  -5.599  1.00  0.00     0.053 C 
BRANCH   7   8
ATOM      8  C   UNL     1      -9.522  -9.497  -5.660  1.00  0.00     0.041 C 
ATOM      9  O   UNL     1      -9.382 -10.079  -6.768  1.00  0.00    -0.550 OA
ATOM     10  O   UNL     1      -9.089 -10.120  -4.497  1.00  0.00    -0.550 OA
ENDBRANCH   7   8
ENDBRANCH   6   7
ENDBRANCH   5   6
ENDBRANCH   4   5
ENDBRANCH   3   4
ENDBRANCH   2   3
ENDBRANCH   1   2
BRANCH   1  11
ATOM     11  C   UNL     1      -4.004  -7.096  -7.617  1.00  0.00     0.000 C 
BRANCH  11  12
ATOM     12  C   UNL     1      -4.015  -7.497  -9.102  1.00  0.00    -0.000 C 
BRANCH  12  13
ATOM     13  C   UNL     1      -5.430  -7.531  -9.699  1.00  0.00    -0.000 C 
BRANCH  13  14
ATOM     14  C   UNL     1      -5.916  -8.975  -9.875  1.00  0.00    -0.000 C 
BRANCH  14  15
ATOM     15  C   UNL     1      -6.526  -9.514  -8.573  1.00  0.00    -0.000 C 
BRANCH  15  16
ATOM     16  C   UNL     1      -5.460 -10.125  -7.639  1.00  0.00    -0.000 C 
BRANCH  16  17
ATOM     17  C   UNL     1      -5.852 -10.089  -6.152  1.00  0.00    -0.003 C 
ATOM     18  C   UNL     1      -4.646 -10.026  -5.217  1.00  0.00     0.004 C 
ENDBRANCH  16  17
ENDBRANCH  15  16
ENDBRANCH  14  15
ENDBRANCH  13  14
ENDBRANCH  12  13
ENDBRANCH  11  12
ENDBRANCH   1  11
TORSDOF 14
ENDMDL
MODEL 3
REMARK VINA RESULT:    -1.446      2.042      3.738
REMARK INTER + INTRA:          -4.117
REMARK INTER:                  -3.268
REMARK INTRA:                  -0.850
REMARK UNBOUND:                -1.488
REMARK SMILES CCCCCCCCCCCCCCCC(=O)[O-]
REMARK SMILES IDX 9 1 10 2 11 3 12 4 13 5 14 6 15 7 16 8 17 9 18 10 8 11 7 12
REMARK SMILES IDX 6 13 5 14 4 15 3 16 2 17 1 18
REMARK H PARENT
REMARK Flexibility Score: inf
ROOT
ATOM      1  C   UNL     1      -5.589  -6.414  -7.274  1.00  0.00     0.000 C 
ENDROOT
BRANCH   1   2
ATOM      2  C   UNL     1      -6.285  -6.648  -5.920  1.00  0.00     0.000 C 
BRANCH   2   3
ATOM      3  C   UNL     1      -7.508  -7.581  -5.987  1.00  0.00     0.000 C 
BRANCH   3   4
ATOM      4  C   UNL     1      -8.841  -6.810  -5.985  1.00  0.00     0.000 C 
BRANCH   4   5
ATOM      5  C   UNL     1     -10.056  -7.731  -6.178  1.00  0.00     0.000 C 
BRANCH   5   6
ATOM      6  C   UNL     1     -10.111  -8.354  -7.585  1.00  0.00     0.006 C 
BRANCH   6   7
ATOM      7  C   UNL     1      -8.792  -9.042  -7.964  1.00  0.00     0.053 C 
BRANCH   7   8
ATOM      8  C   UNL     1      -8.260  -8.537  -9.269  1.00  0.00     0.041 C 
ATOM      9  O   UNL     1      -7.790  -9.342 -10.116  1.00  0.00    -0.550 OA
ATOM     10  O   UNL     1      -8.315  -7.181  -9.566  1.00  0.00    -0.550 OA
ENDBRANCH   7   8
ENDBRANCH   6   7
ENDBRANCH   5   6
ENDBRANCH   4   5
ENDBRANCH   3   4
ENDBRANCH   2   3
ENDBRANCH   1   2
BRANCH   1  11
ATOM     11  C   UNL     1      -4.057  -6.528  -7.176  1.00  0.00     0.000 C 
BRANCH  11  12
ATOM     12  C   UNL     1      -3.429  -7.139  -8.440  1.00  0.00    -0.000 C 
BRANCH  12  13
ATOM     13  C   UNL     1      -4.425  -7.982  -9.251  1.00  0.00    -0.000 C 
BRANCH  13  14
ATOM     14  C   UNL     1      -4.132  -9.480  -9.095  1.00  0.00    -0.000 C 
BRANCH  14  15
ATOM     15  C   UNL     1      -4.568  -9.986  -7.712  1.00  0.00    -0.000 C 
BRANCH  15  16
ATOM     16  C   UNL     1      -3.379 -10.125  -6.739  1.00  0.00    -0.000 C 
BRANCH  16  17
ATOM     17  C   UNL     1      -3.652  -9.536  -5.345  1.00  0.00    -0.003 C 
ATOM     18  C   UNL     1      -2.678 -10.040  -4.281  1.00  0.00     0.004 C 
ENDBRANCH  16  17
ENDBRANCH  15  16
ENDBRANCH  14  15
ENDBRANCH  13  14
ENDBRANCH  12  13
ENDBRANCH  11  12
ENDBRANCH   1  11
TORSDOF 14
ENDMDL
