MODEL 1
REMARK VINA RESULT:    -2.841      0.000      0.000
REMARK INTER + INTRA:         -11.072
REMARK INTER:                  -7.492
REMARK INTRA:                  -3.579
REMARK UNBOUND:                -3.579
REMARK SMILES CCCCCCCCCCCCCCCCCCCCCCCCCCCCCC(=O)[O-]
REMARK SMILES IDX 16 1 17 2 18 3 19 4 20 5 21 6 22 7 23 8 24 9 25 10 26 11
REMARK SMILES IDX 27 12 28 13 29 14 30 15 31 16 32 17 15 18 14 19 13 20 12 21
REMARK SMILES IDX 11 22 10 23 9 24 8 25 7 26 6 27 5 28 4 29 3 30 2 31 1 32
REMARK H PARENT
REMARK Flexibility Score: inf
ROOT
ATOM      1  C   UNL     1      13.361  22.016  28.131  1.00  0.00     0.000 C 
ENDROOT
BRANCH   1   2
ATOM      2  C   UNL     1      13.649  22.501  29.561  1.00  0.00     0.000 C 
BRANCH   2   3
ATOM      3  C   UNL     1      14.636  23.681  29.602  1.00  0.00     0.000 C 
BRANCH   3   4
ATOM      4  C   UNL     1      14.026  24.987  29.061  1.00  0.00     0.000 C 
BRANCH   4   5
ATOM      5  C   UNL     1      13.118  25.741  30.053  1.00  0.00     0.000 C 
BRANCH   5   6
ATOM      6  C   UNL     1      12.990  25.090  31.444  1.00  0.00     0.000 C 
BRANCH   6   7
ATOM      7  C   UNL     1      11.741  24.205  31.629  1.00  0.00     0.000 C 
BRANCH   7   8
ATOM      8  C   UNL     1      10.446  24.773  31.013  1.00  0.00     0.000 C 
BRANCH   8   9
ATOM      9  C   UNL     1       9.141  24.225  31.618  1.00  0.00     0.000 C 
BRANCH   9  10
ATOM     10  C   UNL     1       9.276  22.781  32.125  1.00  0.00     0.000 C 
BRANCH  10  11
ATOM     11  C   UNL     1       8.610  21.789  31.160  1.00  0.00     0.000 C 
BRANCH  11  12
ATOM     12  C   UNL     1       9.085  21.987  29.705  1.00  0.00     0.000 C 
BRANCH  12  13
ATOM     13  C   UNL     1      10.269  21.088  29.312  1.00  0.00     0.006 C 
BRANCH  13  14
ATOM     14  C   UNL     1      10.266  19.740  30.044  1.00  0.00     0.053 C 
BRANCH  14  15
ATOM     15  C   UNL     1      11.152  19.792  31.248  1.00  0.00     0.041 C 
ATOM     16  O   UNL     1      11.100  18.875  32.112  1.00  0.00    -0.550 OA
ATOM     17  O   UNL     1      12.073  20.822  31.390  1.00  0.00    -0.550 OA
ENDBRANCH  14  15
ENDBRANCH  13  14
ENDBRANCH  12  13
ENDBRANCH  11  12
ENDBRANCH  10  11
ENDBRANCH   9  10
ENDBRANCH   8   9
ENDBRANCH   7   8
ENDBRANCH   6   7
ENDBRANCH   5   6
ENDBRANCH   4   5
ENDBRANCH   3   4
ENDBRANCH   2   3
ENDBRANCH   1   2
BRANCH   1  18
ATOM     18  C   UNL     1      14.163  20.753  27.767  1.00  0.00     0.000 C 
BRANCH  18  19
ATOM     19  C   UNL     1      13.524  19.465  28.311  1.00  0.00     0.000 C 
BRANCH  19  20
ATOM     20  C   UNL     1      14.284  18.889  29.520  1.00  0.00     0.000 C 
BRANCH  20  21
ATOM     21  C   UNL     1      15.801  19.132  29.428  1.00  0.00     0.000 C 
BRANCH  21  22
ATOM     22  C   UNL     1      16.466  19.202  30.813  1.00  0.00     0.000 C 
BRANCH  22  23
ATOM     23  C   UNL     1      15.915  20.344  31.684  1.00  0.00     0.000 C 
BRANCH  23  24
ATOM     24  C   UNL     1      16.828  21.581  31.793  1.00  0.00    -0.000 C 
BRANCH  24  25
ATOM     25  C   UNL     1      18.089  21.548  30.906  1.00  0.00    -0.000 C 
BRANCH  25  26
ATOM     26  C   UNL     1      18.024  22.440  29.653  1.00  0.00    -0.000 C 
BRANCH  26  27
ATOM     27  C   UNL     1      17.321  21.757  28.470  1.00  0.00    -0.000 C 
BRANCH  27  28
ATOM     28  C   UNL     1      17.542  22.541  27.173  1.00  0.00    -0.000 C 
BRANCH  28  29
ATOM     29  C   UNL     1      16.402  23.542  26.930  1.00  0.00    -0.000 C 
BRANCH  29  30
ATOM     30  C   UNL     1      16.010  23.629  25.441  1.00  0.00    -0.000 C 
BRANCH  30  31
ATOM     31  C   UNL     1      16.324  22.349  24.648  1.00  0.00    -0.003 C 
ATOM     32  C   UNL     1      15.099  21.768  23.943  1.00  0.00     0.004 C 
ENDBRANCH  30  31
ENDBRANCH  29  30
ENDBRANCH  28  29
ENDBRANCH  27  28
ENDBRANCH  26  27
ENDBRANCH  25  26
ENDBRANCH  24  25
ENDBRANCH  23  24
ENDBRANCH  22  23
ENDBRANCH  21  22
ENDBRANCH  20  21
ENDBRANCH  19  20
ENDBRANCH  18  19
ENDBRANCH   1  18
TORSDOF 28
ENDMDL
MODEL 2
REMARK VINA RESULT:    -2.416      1.886      6.786
REMARK INTER + INTRA:          -9.950
REMARK INTER:                  -7.511
REMARK INTRA:                  -2.439
REMARK UNBOUND:                -3.579
REMARK SMILES CCCCCCCCCCCCCCCCCCCCCCCCCCCCCC(=O)[O-]
REMARK SMILES IDX 16 1 17 2 18 3 19 4 20 5 21 6 22 7 23 8 24 9 25 10 26 11
REMARK SMILES IDX 27 12 28 13 29 14 30 15 31 16 32 17 15 18 14 19 13 20 12 21
REMARK SMILES IDX 11 22 10 23 9 24 8 25 7 26 6 27 5 28 4 29 3 30 2 31 1 32
REMARK H PARENT
REMARK Flexibility Score: inf
ROOT
ATOM      1  C   UNL     1      11.353  21.866  27.897  1.00  0.00     0.000 C 
ENDROOT
BRANCH   1   2
ATOM      2  C   UNL     1      12.557  20.928  27.715  1.00  0.00     0.000 C 
BRANCH   2   3
ATOM      3  C   UNL     1      13.896  21.605  28.055  1.00  0.00     0.000 C 
BRANCH   3   4
ATOM      4  C   UNL     1      15.102  20.665  27.877  1.00  0.00     0.000 C 
BRANCH   4   5
ATOM      5  C   UNL     1      16.343  21.313  27.231  1.00  0.00     0.000 C 
BRANCH   5   6
ATOM      6  C   UNL     1      16.038  22.421  26.203  1.00  0.00     0.000 C 
BRANCH   6   7
ATOM      7  C   UNL     1      16.238  23.858  26.724  1.00  0.00     0.000 C 
BRANCH   7   8
ATOM      8  C   UNL     1      17.677  24.195  27.163  1.00  0.00     0.000 C 
BRANCH   8   9
ATOM      9  C   UNL     1      17.886  24.309  28.684  1.00  0.00     0.000 C 
BRANCH   9  10
ATOM     10  C   UNL     1      17.755  22.962  29.409  1.00  0.00     0.000 C 
BRANCH  10  11
ATOM     11  C   UNL     1      16.430  22.872  30.181  1.00  0.00     0.000 C 
BRANCH  11  12
ATOM     12  C   UNL     1      16.604  22.192  31.555  1.00  0.00     0.000 C 
BRANCH  12  13
ATOM     13  C   UNL     1      18.021  21.647  31.802  1.00  0.00     0.006 C 
BRANCH  13  14
ATOM     14  C   UNL     1      18.046  20.135  32.054  1.00  0.00     0.053 C 
BRANCH  14  15
ATOM     15  C   UNL     1      17.217  19.418  31.037  1.00  0.00     0.041 C 
ATOM     16  O   UNL     1      16.069  18.993  31.340  1.00  0.00    -0.550 OA
ATOM     17  O   UNL     1      17.687  19.265  29.738  1.00  0.00    -0.550 OA
ENDBRANCH  14  15
ENDBRANCH  13  14
ENDBRANCH  12  13
ENDBRANCH  11  12
ENDBRANCH  10  11
ENDBRANCH   9  10
ENDBRANCH   8   9
ENDBRANCH   7   8
ENDBRANCH   6   7
ENDBRANCH   5   6
ENDBRANCH   4   5
ENDBRANCH   3   4
ENDBRANCH   2   3
ENDBRANCH   1   2
BRANCH   1  18
ATOM     18  C   UNL     1      10.208  21.203  28.684  1.00  0.00     0.000 C 
BRANCH  18  19
ATOM     19  C   UNL     1      10.646  19.918  29.405  1.00  0.00     0.000 C 
BRANCH  19  20
ATOM     20  C   UNL     1      10.513  20.020  30.936  1.00  0.00     0.000 C 
BRANCH  20  21
ATOM     21  C   UNL     1      11.238  18.875  31.664  1.00  0.00     0.000 C 
BRANCH  21  22
ATOM     22  C   UNL     1      12.764  18.951  31.498  1.00  0.00     0.000 C 
BRANCH  22  23
ATOM     23  C   UNL     1      13.372  20.220  32.124  1.00  0.00     0.000 C 
BRANCH  23  24
ATOM     24  C   UNL     1      12.501  21.487  32.005  1.00  0.00    -0.000 C 
BRANCH  24  25
ATOM     25  C   UNL     1      13.035  22.563  31.039  1.00  0.00    -0.000 C 
BRANCH  25  26
ATOM     26  C   UNL     1      12.043  23.695  30.716  1.00  0.00    -0.000 C 
BRANCH  26  27
ATOM     27  C   UNL     1      11.449  24.346  31.974  1.00  0.00    -0.000 C 
BRANCH  27  28
ATOM     28  C   UNL     1       9.960  24.652  31.783  1.00  0.00    -0.000 C 
BRANCH  28  29
ATOM     29  C   UNL     1       9.236  23.478  31.107  1.00  0.00    -0.000 C 
BRANCH  29  30
ATOM     30  C   UNL     1       8.432  22.630  32.114  1.00  0.00    -0.000 C 
BRANCH  30  31
ATOM     31  C   UNL     1       7.908  21.310  31.523  1.00  0.00    -0.003 C 
ATOM     32  C   UNL     1       6.568  21.467  30.806  1.00  0.00     0.004 C 
ENDBRANCH  30  31
ENDBRANCH  29  30
ENDBRANCH  28  29
ENDBRANCH  27  28
ENDBRANCH  26  27
ENDBRANCH  25  26
ENDBRANCH  24  25
ENDBRANCH  23  24
ENDBRANCH  22  23
ENDBRANCH  21  22
ENDBRANCH  20  21
ENDBRANCH  19  20
ENDBRANCH  18  19
ENDBRANCH   1  18
TORSDOF 28
ENDMDL
MODEL 3
REMARK VINA RESULT:    -2.184      2.825      5.720
REMARK INTER + INTRA:          -9.340
REMARK INTER:                  -5.905
REMARK INTRA:                  -3.434
REMARK UNBOUND:                -3.579
REMARK SMILES CCCCCCCCCCCCCCCCCCCCCCCCCCCCCC(=O)[O-]
REMARK SMILES IDX 16 1 17 2 18 3 19 4 20 5 21 6 22 7 23 8 24 9 25 10 26 11
REMARK SMILES IDX 27 12 28 13 29 14 30 15 31 16 32 17 15 18 14 19 13 20 12 21
REMARK SMILES IDX 11 22 10 23 9 24 8 25 7 26 6 27 5 28 4 29 3 30 2 31 1 32
REMARK H PARENT
REMARK Flexibility Score: inf
ROOT
ATOM      1  C   UNL     1      10.663  21.338  31.221  1.00  0.00     0.000 C 
ENDROOT
BRANCH   1   2
ATOM      2  C   UNL     1       9.314  21.698  31.864  1.00  0.00     0.000 C 
BRANCH   2   3
ATOM      3  C   UNL     1       9.161  23.207  32.122  1.00  0.00     0.000 C 
BRANCH   3   4
ATOM      4  C   UNL     1       9.917  24.067  31.094  1.00  0.00     0.000 C 
BRANCH   4   5
ATOM      5  C   UNL     1      11.207  24.728  31.621  1.00  0.00     0.000 C 
BRANCH   5   6
ATOM      6  C   UNL     1      12.370  24.783  30.610  1.00  0.00     0.000 C 
BRANCH   6   7
ATOM      7  C   UNL     1      13.647  24.045  31.056  1.00  0.00     0.000 C 
BRANCH   7   8
ATOM      8  C   UNL     1      14.389  23.295  29.932  1.00  0.00     0.000 C 
BRANCH   8   9
ATOM      9  C   UNL     1      14.829  24.169  28.743  1.00  0.00     0.000 C 
BRANCH   9  10
ATOM     10  C   UNL     1      16.329  24.499  28.766  1.00  0.00     0.000 C 
BRANCH  10  11
ATOM     11  C   UNL     1      16.970  24.267  27.389  1.00  0.00     0.000 C 
BRANCH  11  12
ATOM     12  C   UNL     1      15.912  24.037  26.288  1.00  0.00     0.000 C 
BRANCH  12  13
ATOM     13  C   UNL     1      16.484  23.429  24.997  1.00  0.00     0.006 C 
BRANCH  13  14
ATOM     14  C   UNL     1      15.846  22.082  24.635  1.00  0.00     0.053 C 
BRANCH  14  15
ATOM     15  C   UNL     1      15.828  21.888  23.153  1.00  0.00     0.041 C 
ATOM     16  O   UNL     1      14.893  22.375  22.461  1.00  0.00    -0.550 OA
ATOM     17  O   UNL     1      16.871  21.219  22.526  1.00  0.00    -0.550 OA
ENDBRANCH  14  15
ENDBRANCH  13  14
ENDBRANCH  12  13
ENDBRANCH  11  12
ENDBRANCH  10  11
ENDBRANCH   9  10
ENDBRANCH   8   9
ENDBRANCH   7   8
ENDBRANCH   6   7
ENDBRANCH   5   6
ENDBRANCH   4   5
ENDBRANCH   3   4
ENDBRANCH   2   3
ENDBRANCH   1   2
BRANCH   1  18
ATOM     18  C   UNL     1      11.438  20.286  32.033  1.00  0.00     0.000 C 
BRANCH  18  19
ATOM     19  C   UNL     1      12.953  20.544  32.049  1.00  0.00     0.000 C 
BRANCH  19  20
ATOM     20  C   UNL     1      13.778  19.255  31.871  1.00  0.00     0.000 C 
BRANCH  20  21
ATOM     21  C   UNL     1      15.285  19.493  32.064  1.00  0.00     0.000 C 
BRANCH  21  22
ATOM     22  C   UNL     1      15.685  20.953  31.796  1.00  0.00     0.000 C 
BRANCH  22  23
ATOM     23  C   UNL     1      17.162  21.239  32.124  1.00  0.00     0.000 C 
BRANCH  23  24
ATOM     24  C   UNL     1      18.124  21.156  30.922  1.00  0.00    -0.000 C 
BRANCH  24  25
ATOM     25  C   UNL     1      17.530  21.598  29.571  1.00  0.00    -0.000 C 
BRANCH  25  26
ATOM     26  C   UNL     1      17.059  20.449  28.660  1.00  0.00    -0.000 C 
BRANCH  26  27
ATOM     27  C   UNL     1      15.998  20.891  27.643  1.00  0.00    -0.000 C 
BRANCH  27  28
ATOM     28  C   UNL     1      14.653  20.211  27.922  1.00  0.00    -0.000 C 
BRANCH  28  29
ATOM     29  C   UNL     1      13.482  21.172  27.666  1.00  0.00    -0.000 C 
BRANCH  29  30
ATOM     30  C   UNL     1      12.358  21.013  28.709  1.00  0.00    -0.000 C 
BRANCH  30  31
ATOM     31  C   UNL     1      10.963  20.833  28.086  1.00  0.00    -0.003 C 
ATOM     32  C   UNL     1      10.281  22.160  27.759  1.00  0.00     0.004 C 
ENDBRANCH  30  31
ENDBRANCH  29  30
ENDBRANCH  28  29
ENDBRANCH  27  28
ENDBRANCH  26  27
ENDBRANCH  25  26
ENDBRANCH  24  25
ENDBRANCH  23  24
ENDBRANCH  22  23
ENDBRANCH  21  22
ENDBRANCH  20  21
ENDBRANCH  19  20
ENDBRANCH  18  19
ENDBRANCH   1  18
TORSDOF 28
ENDMDL
MODEL 4
REMARK VINA RESULT:    -2.110      2.494      6.758
REMARK INTER + INTRA:          -9.143
REMARK INTER:                  -7.745
REMARK INTRA:                  -1.398
REMARK UNBOUND:                -3.579
REMARK SMILES CCCCCCCCCCCCCCCCCCCCCCCCCCCCCC(=O)[O-]
REMARK SMILES IDX 16 1 17 2 18 3 19 4 20 5 21 6 22 7 23 8 24 9 25 10 26 11
REMARK SMILES IDX 27 12 28 13 29 14 30 15 31 16 32 17 15 18 14 19 13 20 12 21
REMARK SMILES IDX 11 22 10 23 9 24 8 25 7 26 6 27 5 28 4 29 3 30 2 31 1 32
REMARK H PARENT
REMARK Flexibility Score: inf
ROOT
ATOM      1  C   UNL     1      15.296  23.882  29.006  1.00  0.00     0.000 C 
ENDROOT
BRANCH   1   2
ATOM      2  C   UNL     1      16.239  23.231  30.030  1.00  0.00     0.000 C 
BRANCH   2   3
ATOM      3  C   UNL     1      17.597  22.840  29.424  1.00  0.00     0.000 C 
BRANCH   3   4
ATOM      4  C   UNL     1      17.971  21.372  29.695  1.00  0.00     0.000 C 
BRANCH   4   5
ATOM      5  C   UNL     1      17.894  20.942  31.174  1.00  0.00     0.000 C 
BRANCH   5   6
ATOM      6  C   UNL     1      16.601  20.202  31.571  1.00  0.00     0.000 C 
BRANCH   6   7
ATOM      7  C   UNL     1      16.362  18.876  30.823  1.00  0.00     0.000 C 
BRANCH   7   8
ATOM      8  C   UNL     1      15.299  18.942  29.708  1.00  0.00     0.000 C 
BRANCH   8   9
ATOM      9  C   UNL     1      15.203  20.294  28.977  1.00  0.00     0.000 C 
BRANCH   9  10
ATOM     10  C   UNL     1      13.867  20.484  28.242  1.00  0.00     0.000 C 
BRANCH  10  11
ATOM     11  C   UNL     1      13.944  21.648  27.243  1.00  0.00     0.000 C 
BRANCH  11  12
ATOM     12  C   UNL     1      14.200  21.160  25.802  1.00  0.00     0.000 C 
BRANCH  12  13
ATOM     13  C   UNL     1      15.344  21.903  25.090  1.00  0.00     0.006 C 
BRANCH  13  14
ATOM     14  C   UNL     1      16.475  22.312  26.041  1.00  0.00     0.053 C 
BRANCH  14  15
ATOM     15  C   UNL     1      16.594  23.801  26.109  1.00  0.00     0.041 C 
ATOM     16  O   UNL     1      17.555  24.333  26.729  1.00  0.00    -0.550 OA
ATOM     17  O   UNL     1      15.676  24.604  25.444  1.00  0.00    -0.550 OA
ENDBRANCH  14  15
ENDBRANCH  13  14
ENDBRANCH  12  13
ENDBRANCH  11  12
ENDBRANCH  10  11
ENDBRANCH   9  10
ENDBRANCH   8   9
ENDBRANCH   7   8
ENDBRANCH   6   7
ENDBRANCH   5   6
ENDBRANCH   4   5
ENDBRANCH   3   4
ENDBRANCH   2   3
ENDBRANCH   1   2
BRANCH   1  18
ATOM     18  C   UNL     1      13.869  24.063  29.555  1.00  0.00     0.000 C 
BRANCH  18  19
ATOM     19  C   UNL     1      13.768  23.769  31.060  1.00  0.00     0.000 C 
BRANCH  19  20
ATOM     20  C   UNL     1      13.980  22.280  31.390  1.00  0.00     0.000 C 
BRANCH  20  21
ATOM     21  C   UNL     1      12.651  21.520  31.544  1.00  0.00     0.000 C 
BRANCH  21  22
ATOM     22  C   UNL     1      12.861  20.056  31.965  1.00  0.00     0.000 C 
BRANCH  22  23
ATOM     23  C   UNL     1      11.826  19.100  31.344  1.00  0.00     0.000 C 
BRANCH  23  24
ATOM     24  C   UNL     1      10.490  19.757  30.943  1.00  0.00    -0.000 C 
BRANCH  24  25
ATOM     25  C   UNL     1       9.711  20.421  32.096  1.00  0.00    -0.000 C 
BRANCH  25  26
ATOM     26  C   UNL     1       8.402  21.115  31.680  1.00  0.00    -0.000 C 
BRANCH  26  27
ATOM     27  C   UNL     1       8.619  22.556  31.196  1.00  0.00    -0.000 C 
BRANCH  27  28
ATOM     28  C   UNL     1       9.690  23.261  32.034  1.00  0.00    -0.000 C 
BRANCH  28  29
ATOM     29  C   UNL     1      10.421  24.334  31.212  1.00  0.00    -0.000 C 
BRANCH  29  30
ATOM     30  C   UNL     1      10.422  24.011  29.703  1.00  0.00    -0.000 C 
BRANCH  30  31
ATOM     31  C   UNL     1      10.834  22.564  29.386  1.00  0.00    -0.003 C 
ATOM     32  C   UNL     1      10.669  22.206  27.910  1.00  0.00     0.004 C 
ENDBRANCH  30  31
ENDBRANCH  29  30
ENDBRANCH  28  29
ENDBRANCH  27  28
ENDBRANCH  26  27
ENDBRANCH  25  26
ENDBRANCH  24  25
ENDBRANCH  23  24
ENDBRANCH  22  23
ENDBRANCH  21  22
ENDBRANCH  20  21
ENDBRANCH  19  20
ENDBRANCH  18  19
ENDBRANCH   1  18
TORSDOF 28
ENDMDL
MODEL 5
REMARK VINA RESULT:    -2.091      1.044      2.934
REMARK INTER + INTRA:          -9.093
REMARK INTER:                  -9.238
REMARK INTRA:                   0.144
REMARK UNBOUND:                -3.579
REMARK SMILES CCCCCCCCCCCCCCCCCCCCCCCCCCCCCC(=O)[O-]
REMARK SMILES IDX 16 1 17 2 18 3 19 4 20 5 21 6 22 7 23 8 24 9 25 10 26 11
REMARK SMILES IDX 27 12 28 13 29 14 30 15 31 16 32 17 15 18 14 19 13 20 12 21
REMARK SMILES IDX 11 22 10 23 9 24 8 25 7 26 6 27 5 28 4 29 3 30 2 31 1 32
REMARK H PARENT
REMARK Flexibility Score: inf
ROOT
ATOM      1  C   UNL     1      16.705  22.792  29.142  1.00  0.00     0.000 C 
ENDROOT
BRANCH   1   2
ATOM      2  C   UNL     1      15.285  22.679  29.717  1.00  0.00     0.000 C 
BRANCH   2   3
ATOM      3  C   UNL     1      14.283  23.614  29.017  1.00  0.00     0.000 C 
BRANCH   3   4
ATOM      4  C   UNL     1      14.306  25.045  29.584  1.00  0.00     0.000 C 
BRANCH   4   5
ATOM      5  C   UNL     1      13.605  25.216  30.947  1.00  0.00     0.000 C 
BRANCH   5   6
ATOM      6  C   UNL     1      12.457  24.223  31.218  1.00  0.00     0.000 C 
BRANCH   6   7
ATOM      7  C   UNL     1      11.160  24.506  30.436  1.00  0.00     0.000 C 
BRANCH   7   8
ATOM      8  C   UNL     1       9.860  24.314  31.243  1.00  0.00     0.000 C 
BRANCH   8   9
ATOM      9  C   UNL     1       9.592  22.873  31.714  1.00  0.00     0.000 C 
BRANCH   9  10
ATOM     10  C   UNL     1       8.797  22.047  30.692  1.00  0.00     0.000 C 
BRANCH  10  11
ATOM     11  C   UNL     1       9.649  21.723  29.456  1.00  0.00     0.000 C 
BRANCH  11  12
ATOM     12  C   UNL     1      10.569  20.506  29.689  1.00  0.00     0.000 C 
BRANCH  12  13
ATOM     13  C   UNL     1      10.132  19.614  30.864  1.00  0.00     0.006 C 
BRANCH  13  14
ATOM     14  C   UNL     1      11.310  18.934  31.570  1.00  0.00     0.053 C 
BRANCH  14  15
ATOM     15  C   UNL     1      12.341  19.942  31.966  1.00  0.00     0.041 C 
ATOM     16  O   UNL     1      13.544  19.594  32.116  1.00  0.00    -0.550 OA
ATOM     17  O   UNL     1      11.987  21.277  32.116  1.00  0.00    -0.550 OA
ENDBRANCH  14  15
ENDBRANCH  13  14
ENDBRANCH  12  13
ENDBRANCH  11  12
ENDBRANCH  10  11
ENDBRANCH   9  10
ENDBRANCH   8   9
ENDBRANCH   7   8
ENDBRANCH   6   7
ENDBRANCH   5   6
ENDBRANCH   4   5
ENDBRANCH   3   4
ENDBRANCH   2   3
ENDBRANCH   1   2
BRANCH   1  18
ATOM     18  C   UNL     1      17.786  22.762  30.239  1.00  0.00     0.000 C 
BRANCH  18  19
ATOM     19  C   UNL     1      17.217  22.424  31.626  1.00  0.00     0.000 C 
BRANCH  19  20
ATOM     20  C   UNL     1      17.505  20.971  32.049  1.00  0.00     0.000 C 
BRANCH  20  21
ATOM     21  C   UNL     1      17.893  20.080  30.856  1.00  0.00     0.000 C 
BRANCH  21  22
ATOM     22  C   UNL     1      16.792  19.068  30.500  1.00  0.00     0.000 C 
BRANCH  22  23
ATOM     23  C   UNL     1      16.011  19.455  29.231  1.00  0.00     0.000 C 
BRANCH  23  24
ATOM     24  C   UNL     1      14.476  19.416  29.372  1.00  0.00    -0.000 C 
BRANCH  24  25
ATOM     25  C   UNL     1      13.700  20.280  28.359  1.00  0.00    -0.000 C 
BRANCH  25  26
ATOM     26  C   UNL     1      14.297  20.311  26.940  1.00  0.00    -0.000 C 
BRANCH  26  27
ATOM     27  C   UNL     1      13.929  21.585  26.166  1.00  0.00    -0.000 C 
BRANCH  27  28
ATOM     28  C   UNL     1      14.459  21.526  24.729  1.00  0.00    -0.000 C 
BRANCH  28  29
ATOM     29  C   UNL     1      15.931  21.962  24.663  1.00  0.00    -0.000 C 
BRANCH  29  30
ATOM     30  C   UNL     1      16.598  21.974  26.054  1.00  0.00    -0.000 C 
BRANCH  30  31
ATOM     31  C   UNL     1      16.662  23.372  26.692  1.00  0.00    -0.003 C 
ATOM     32  C   UNL     1      16.153  24.474  25.764  1.00  0.00     0.004 C 
ENDBRANCH  30  31
ENDBRANCH  29  30
ENDBRANCH  28  29
ENDBRANCH  27  28
ENDBRANCH  26  27
ENDBRANCH  25  26
ENDBRANCH  24  25
ENDBRANCH  23  24
ENDBRANCH  22  23
ENDBRANCH  21  22
ENDBRANCH  20  21
ENDBRANCH  19  20
ENDBRANCH  18  19
ENDBRANCH   1  18
TORSDOF 28
ENDMDL
MODEL 6
REMARK VINA RESULT:    -1.625      1.797      4.215
REMARK INTER + INTRA:          -7.864
REMARK INTER:                  -6.556
REMARK INTRA:                  -1.308
REMARK UNBOUND:                -3.579
REMARK SMILES CCCCCCCCCCCCCCCCCCCCCCCCCCCCCC(=O)[O-]
REMARK SMILES IDX 16 1 17 2 18 3 19 4 20 5 21 6 22 7 23 8 24 9 25 10 26 11
REMARK SMILES IDX 27 12 28 13 29 14 30 15 31 16 32 17 15 18 14 19 13 20 12 21
REMARK SMILES IDX 11 22 10 23 9 24 8 25 7 26 6 27 5 28 4 29 3 30 2 31 1 32
REMARK H PARENT
REMARK Flexibility Score: inf
ROOT
ATOM      1  C   UNL     1      13.592  21.786  31.463  1.00  0.00     0.000 C 
ENDROOT
BRANCH   1   2
ATOM      2  C   UNL     1      13.966  20.450  32.125  1.00  0.00     0.000 C 
BRANCH   2   3
ATOM      3  C   UNL     1      13.881  19.260  31.154  1.00  0.00     0.000 C 
BRANCH   3   4
ATOM      4  C   UNL     1      14.699  19.480  29.868  1.00  0.00     0.000 C 
BRANCH   4   5
ATOM      5  C   UNL     1      13.969  19.111  28.561  1.00  0.00     0.000 C 
BRANCH   5   6
ATOM      6  C   UNL     1      13.395  20.307  27.776  1.00  0.00     0.000 C 
BRANCH   6   7
ATOM      7  C   UNL     1      12.746  21.399  28.647  1.00  0.00     0.000 C 
BRANCH   7   8
ATOM      8  C   UNL     1      11.225  21.566  28.453  1.00  0.00     0.000 C 
BRANCH   8   9
ATOM      9  C   UNL     1      10.397  20.282  28.647  1.00  0.00     0.000 C 
BRANCH   9  10
ATOM     10  C   UNL     1      10.881  19.432  29.831  1.00  0.00     0.000 C 
BRANCH  10  11
ATOM     11  C   UNL     1       9.755  19.205  30.850  1.00  0.00     0.000 C 
BRANCH  11  12
ATOM     12  C   UNL     1       9.945  20.055  32.125  1.00  0.00     0.000 C 
BRANCH  12  13
ATOM     13  C   UNL     1       9.587  21.539  31.939  1.00  0.00     0.006 C 
BRANCH  13  14
ATOM     14  C   UNL     1       8.076  21.798  31.965  1.00  0.00     0.053 C 
BRANCH  14  15
ATOM     15  C   UNL     1       7.524  21.834  30.575  1.00  0.00     0.041 C 
ATOM     16  O   UNL     1       8.028  22.603  29.713  1.00  0.00    -0.550 OA
ATOM     17  O   UNL     1       6.488  20.981  30.216  1.00  0.00    -0.550 OA
ENDBRANCH  14  15
ENDBRANCH  13  14
ENDBRANCH  12  13
ENDBRANCH  11  12
ENDBRANCH  10  11
ENDBRANCH   9  10
ENDBRANCH   8   9
ENDBRANCH   7   8
ENDBRANCH   6   7
ENDBRANCH   5   6
ENDBRANCH   4   5
ENDBRANCH   3   4
ENDBRANCH   2   3
ENDBRANCH   1   2
BRANCH   1  18
ATOM     18  C   UNL     1      12.127  22.180  31.724  1.00  0.00     0.000 C 
BRANCH  18  19
ATOM     19  C   UNL     1      11.834  23.648  31.374  1.00  0.00     0.000 C 
BRANCH  19  20
ATOM     20  C   UNL     1      13.112  24.500  31.267  1.00  0.00     0.000 C 
BRANCH  20  21
ATOM     21  C   UNL     1      13.366  24.998  29.833  1.00  0.00     0.000 C 
BRANCH  21  22
ATOM     22  C   UNL     1      14.768  24.625  29.325  1.00  0.00     0.000 C 
BRANCH  22  23
ATOM     23  C   UNL     1      15.078  23.124  29.473  1.00  0.00     0.000 C 
BRANCH  23  24
ATOM     24  C   UNL     1      16.561  22.787  29.729  1.00  0.00    -0.000 C 
BRANCH  24  25
ATOM     25  C   UNL     1      17.106  21.579  28.942  1.00  0.00    -0.000 C 
BRANCH  25  26
ATOM     26  C   UNL     1      16.794  21.592  27.435  1.00  0.00    -0.000 C 
BRANCH  26  27
ATOM     27  C   UNL     1      17.579  22.668  26.671  1.00  0.00    -0.000 C 
BRANCH  27  28
ATOM     28  C   UNL     1      16.735  23.933  26.482  1.00  0.00    -0.000 C 
BRANCH  28  29
ATOM     29  C   UNL     1      15.895  23.851  25.199  1.00  0.00    -0.000 C 
BRANCH  29  30
ATOM     30  C   UNL     1      16.283  22.642  24.323  1.00  0.00    -0.000 C 
BRANCH  30  31
ATOM     31  C   UNL     1      15.084  21.985  23.619  1.00  0.00    -0.003 C 
ATOM     32  C   UNL     1      14.162  21.238  24.580  1.00  0.00     0.004 C 
ENDBRANCH  30  31
ENDBRANCH  29  30
ENDBRANCH  28  29
ENDBRANCH  27  28
ENDBRANCH  26  27
ENDBRANCH  25  26
ENDBRANCH  24  25
ENDBRANCH  23  24
ENDBRANCH  22  23
ENDBRANCH  21  22
ENDBRANCH  20  21
ENDBRANCH  19  20
ENDBRANCH  18  19
ENDBRANCH   1  18
TORSDOF 28
ENDMDL
