MODEL 1
REMARK VINA RESULT:    -5.005      0.000      0.000
REMARK INTER + INTRA:          -8.518
REMARK INTER:                  -7.931
REMARK INTRA:                  -0.586
REMARK UNBOUND:                -0.586
REMARK SMILES CCCCCCCCCCCC(=O)[O-]
REMARK SMILES IDX 7 1 8 2 9 3 10 4 11 5 12 6 13 7 14 8 6 9 5 10 4 11 3 12 2 13
REMARK SMILES IDX 1 14
REMARK H PARENT
REMARK Flexibility Score: inf
ROOT
ATOM      1  C   UNL     1      20.743  29.237  36.730  1.00  0.00     0.000 C 
ENDROOT
BRANCH   1   2
ATOM      2  C   UNL     1      19.894  30.490  37.011  1.00  0.00     0.000 C 
BRANCH   2   3
ATOM      3  C   UNL     1      20.660  31.791  36.697  1.00  0.00     0.000 C 
BRANCH   3   4
ATOM      4  C   UNL     1      21.734  31.623  35.608  1.00  0.00     0.006 C 
BRANCH   4   5
ATOM      5  C   UNL     1      22.315  32.959  35.129  1.00  0.00     0.053 C 
BRANCH   5   6
ATOM      6  C   UNL     1      21.348  33.656  34.225  1.00  0.00     0.041 C 
ATOM      7  O   UNL     1      20.632  34.592  34.665  1.00  0.00    -0.550 OA
ATOM      8  O   UNL     1      21.273  33.304  32.883  1.00  0.00    -0.550 OA
ENDBRANCH   5   6
ENDBRANCH   4   5
ENDBRANCH   3   4
ENDBRANCH   2   3
ENDBRANCH   1   2
BRANCH   1   9
ATOM      9  C   UNL     1      19.910  27.946  36.741  1.00  0.00     0.000 C 
BRANCH   9  10
ATOM     10  C   UNL     1      18.404  28.224  36.869  1.00  0.00    -0.000 C 
BRANCH  10  11
ATOM     11  C   UNL     1      17.580  26.997  36.459  1.00  0.00    -0.000 C 
BRANCH  11  12
ATOM     12  C   UNL     1      18.371  25.683  36.566  1.00  0.00    -0.000 C 
BRANCH  12  13
ATOM     13  C   UNL     1      18.450  24.897  35.240  1.00  0.00    -0.003 C 
ATOM     14  C   UNL     1      19.801  24.206  35.050  1.00  0.00     0.004 C 
ENDBRANCH  12  13
ENDBRANCH  11  12
ENDBRANCH  10  11
ENDBRANCH   9  10
ENDBRANCH   1   9
TORSDOF 10
ENDMDL
MODEL 2
REMARK VINA RESULT:    -4.837      3.733      7.357
REMARK INTER + INTRA:          -8.252
REMARK INTER:                  -7.754
REMARK INTRA:                  -0.497
REMARK UNBOUND:                -0.586
REMARK SMILES CCCCCCCCCCCC(=O)[O-]
REMARK SMILES IDX 7 1 8 2 9 3 10 4 11 5 12 6 13 7 14 8 6 9 5 10 4 11 3 12 2 13
REMARK SMILES IDX 1 14
REMARK H PARENT
REMARK Flexibility Score: inf
ROOT
ATOM      1  C   UNL     1      20.184  29.893  37.092  1.00  0.00     0.000 C 
ENDROOT
BRANCH   1   2
ATOM      2  C   UNL     1      19.921  28.377  37.125  1.00  0.00     0.000 C 
BRANCH   2   3
ATOM      3  C   UNL     1      18.436  28.041  36.879  1.00  0.00     0.000 C 
BRANCH   3   4
ATOM      4  C   UNL     1      18.220  26.679  36.197  1.00  0.00     0.006 C 
BRANCH   4   5
ATOM      5  C   UNL     1      19.371  25.696  36.446  1.00  0.00     0.053 C 
BRANCH   5   6
ATOM      6  C   UNL     1      19.430  24.673  35.355  1.00  0.00     0.041 C 
ATOM      7  O   UNL     1      20.416  24.638  34.573  1.00  0.00    -0.550 OA
ATOM      8  O   UNL     1      18.421  23.726  35.234  1.00  0.00    -0.550 OA
ENDBRANCH   5   6
ENDBRANCH   4   5
ENDBRANCH   3   4
ENDBRANCH   2   3
ENDBRANCH   1   2
BRANCH   1   9
ATOM      9  C   UNL     1      21.294  30.277  36.101  1.00  0.00     0.000 C 
BRANCH   9  10
ATOM     10  C   UNL     1      21.688  31.759  36.211  1.00  0.00    -0.000 C 
BRANCH  10  11
ATOM     11  C   UNL     1      20.471  32.629  36.549  1.00  0.00    -0.000 C 
BRANCH  11  12
ATOM     12  C   UNL     1      20.480  33.981  35.817  1.00  0.00    -0.000 C 
BRANCH  12  13
ATOM     13  C   UNL     1      21.492  34.048  34.653  1.00  0.00    -0.003 C 
ATOM     14  C   UNL     1      20.808  34.205  33.294  1.00  0.00     0.004 C 
ENDBRANCH  12  13
ENDBRANCH  11  12
ENDBRANCH  10  11
ENDBRANCH   9  10
ENDBRANCH   1   9
TORSDOF 10
ENDMDL
MODEL 3
REMARK VINA RESULT:    -4.401     17.009     19.072
REMARK INTER + INTRA:          -7.561
REMARK INTER:                  -6.965
REMARK INTRA:                  -0.596
REMARK UNBOUND:                -0.586
REMARK SMILES CCCCCCCCCCCC(=O)[O-]
REMARK SMILES IDX 7 1 8 2 9 3 10 4 11 5 12 6 13 7 14 8 6 9 5 10 4 11 3 12 2 13
REMARK SMILES IDX 1 14
REMARK H PARENT
REMARK Flexibility Score: inf
ROOT
ATOM      1  C   UNL     1      21.736  21.297  20.907  1.00  0.00     0.000 C 
ENDROOT
BRANCH   1   2
ATOM      2  C   UNL     1      22.858  20.531  21.630  1.00  0.00     0.000 C 
BRANCH   2   3
ATOM      3  C   UNL     1      22.754  19.008  21.413  1.00  0.00     0.000 C 
BRANCH   3   4
ATOM      4  C   UNL     1      24.119  18.314  21.266  1.00  0.00     0.006 C 
BRANCH   4   5
ATOM      5  C   UNL     1      24.835  18.672  19.959  1.00  0.00     0.053 C 
BRANCH   5   6
ATOM      6  C   UNL     1      25.955  17.715  19.696  1.00  0.00     0.041 C 
ATOM      7  O   UNL     1      25.801  16.769  18.880  1.00  0.00    -0.550 OA
ATOM      8  O   UNL     1      27.185  17.898  20.316  1.00  0.00    -0.550 OA
ENDBRANCH   5   6
ENDBRANCH   4   5
ENDBRANCH   3   4
ENDBRANCH   2   3
ENDBRANCH   1   2
BRANCH   1   9
ATOM      9  C   UNL     1      21.603  22.747  21.395  1.00  0.00     0.000 C 
BRANCH   9  10
ATOM     10  C   UNL     1      20.144  23.232  21.393  1.00  0.00    -0.000 C 
BRANCH  10  11
ATOM     11  C   UNL     1      20.024  24.615  20.741  1.00  0.00    -0.000 C 
BRANCH  11  12
ATOM     12  C   UNL     1      19.699  24.542  19.239  1.00  0.00    -0.000 C 
BRANCH  12  13
ATOM     13  C   UNL     1      20.937  24.680  18.329  1.00  0.00    -0.003 C 
ATOM     14  C   UNL     1      21.320  23.359  17.661  1.00  0.00     0.004 C 
ENDBRANCH  12  13
ENDBRANCH  11  12
ENDBRANCH  10  11
ENDBRANCH   9  10
ENDBRANCH   1   9
TORSDOF 10
ENDMDL
MODEL 4
REMARK VINA RESULT:    -4.378     15.577     17.606
REMARK INTER + INTRA:          -7.524
REMARK INTER:                  -6.637
REMARK INTRA:                  -0.888
REMARK UNBOUND:                -0.586
REMARK SMILES CCCCCCCCCCCC(=O)[O-]
REMARK SMILES IDX 7 1 8 2 9 3 10 4 11 5 12 6 13 7 14 8 6 9 5 10 4 11 3 12 2 13
REMARK SMILES IDX 1 14
REMARK H PARENT
REMARK Flexibility Score: inf
ROOT
ATOM      1  C   UNL     1      22.016  22.428  18.755  1.00  0.00     0.000 C 
ENDROOT
BRANCH   1   2
ATOM      2  C   UNL     1      21.341  23.773  18.430  1.00  0.00     0.000 C 
BRANCH   2   3
ATOM      3  C   UNL     1      19.815  23.629  18.256  1.00  0.00     0.000 C 
BRANCH   3   4
ATOM      4  C   UNL     1      19.010  24.138  19.465  1.00  0.00     0.006 C 
BRANCH   4   5
ATOM      5  C   UNL     1      18.701  23.035  20.485  1.00  0.00     0.053 C 
BRANCH   5   6
ATOM      6  C   UNL     1      19.119  23.460  21.857  1.00  0.00     0.041 C 
ATOM      7  O   UNL     1      18.443  23.114  22.860  1.00  0.00    -0.550 OA
ATOM      8  O   UNL     1      20.284  24.197  22.032  1.00  0.00    -0.550 OA
ENDBRANCH   5   6
ENDBRANCH   4   5
ENDBRANCH   3   4
ENDBRANCH   2   3
ENDBRANCH   1   2
BRANCH   1   9
ATOM      9  C   UNL     1      22.491  22.345  20.214  1.00  0.00     0.000 C 
BRANCH   9  10
ATOM     10  C   UNL     1      21.867  21.158  20.965  1.00  0.00    -0.000 C 
BRANCH  10  11
ATOM     11  C   UNL     1      22.942  20.331  21.680  1.00  0.00    -0.000 C 
BRANCH  11  12
ATOM     12  C   UNL     1      22.853  18.830  21.361  1.00  0.00    -0.000 C 
BRANCH  12  13
ATOM     13  C   UNL     1      24.227  18.154  21.168  1.00  0.00    -0.003 C 
ATOM     14  C   UNL     1      24.953  18.656  19.919  1.00  0.00     0.004 C 
ENDBRANCH  12  13
ENDBRANCH  11  12
ENDBRANCH  10  11
ENDBRANCH   9  10
ENDBRANCH   1   9
TORSDOF 10
ENDMDL
MODEL 5
REMARK VINA RESULT:    -4.285     15.779     18.167
REMARK INTER + INTRA:          -7.376
REMARK INTER:                  -5.823
REMARK INTRA:                  -1.553
REMARK UNBOUND:                -0.586
REMARK SMILES CCCCCCCCCCCC(=O)[O-]
REMARK SMILES IDX 7 1 8 2 9 3 10 4 11 5 12 6 13 7 14 8 6 9 5 10 4 11 3 12 2 13
REMARK SMILES IDX 1 14
REMARK H PARENT
REMARK Flexibility Score: inf
ROOT
ATOM      1  C   UNL     1      18.776  22.041  16.875  1.00  0.00     0.000 C 
ENDROOT
BRANCH   1   2
ATOM      2  C   UNL     1      18.100  21.985  18.257  1.00  0.00     0.000 C 
BRANCH   2   3
ATOM      3  C   UNL     1      18.741  20.923  19.173  1.00  0.00     0.000 C 
BRANCH   3   4
ATOM      4  C   UNL     1      18.646  21.268  20.670  1.00  0.00     0.006 C 
BRANCH   4   5
ATOM      5  C   UNL     1      18.252  22.727  20.925  1.00  0.00     0.053 C 
BRANCH   5   6
ATOM      6  C   UNL     1      18.646  23.142  22.307  1.00  0.00     0.041 C 
ATOM      7  O   UNL     1      17.967  22.768  23.298  1.00  0.00    -0.550 OA
ATOM      8  O   UNL     1      19.793  23.902  22.504  1.00  0.00    -0.550 OA
ENDBRANCH   5   6
ENDBRANCH   4   5
ENDBRANCH   3   4
ENDBRANCH   2   3
ENDBRANCH   1   2
BRANCH   1   9
ATOM      9  C   UNL     1      20.085  22.845  16.891  1.00  0.00     0.000 C 
BRANCH   9  10
ATOM     10  C   UNL     1      19.947  24.171  17.655  1.00  0.00    -0.000 C 
BRANCH  10  11
ATOM     11  C   UNL     1      20.976  24.265  18.788  1.00  0.00    -0.000 C 
BRANCH  11  12
ATOM     12  C   UNL     1      21.714  22.939  19.037  1.00  0.00    -0.000 C 
BRANCH  12  13
ATOM     13  C   UNL     1      22.163  22.745  20.501  1.00  0.00    -0.003 C 
ATOM     14  C   UNL     1      22.359  21.272  20.860  1.00  0.00     0.004 C 
ENDBRANCH  12  13
ENDBRANCH  11  12
ENDBRANCH  10  11
ENDBRANCH   9  10
ENDBRANCH   1   9
TORSDOF 10
ENDMDL
MODEL 6
REMARK VINA RESULT:    -4.263     16.852     18.563
REMARK INTER + INTRA:          -7.342
REMARK INTER:                  -5.901
REMARK INTRA:                  -1.441
REMARK UNBOUND:                -0.586
REMARK SMILES CCCCCCCCCCCC(=O)[O-]
REMARK SMILES IDX 7 1 8 2 9 3 10 4 11 5 12 6 13 7 14 8 6 9 5 10 4 11 3 12 2 13
REMARK SMILES IDX 1 14
REMARK H PARENT
REMARK Flexibility Score: inf
ROOT
ATOM      1  C   UNL     1      19.312  24.309  19.502  1.00  0.00     0.000 C 
ENDROOT
BRANCH   1   2
ATOM      2  C   UNL     1      19.184  24.118  21.024  1.00  0.00     0.000 C 
BRANCH   2   3
ATOM      3  C   UNL     1      18.714  22.696  21.391  1.00  0.00     0.000 C 
BRANCH   3   4
ATOM      4  C   UNL     1      18.023  21.959  20.231  1.00  0.00     0.006 C 
BRANCH   4   5
ATOM      5  C   UNL     1      18.729  20.654  19.845  1.00  0.00     0.053 C 
BRANCH   5   6
ATOM      6  C   UNL     1      18.529  20.360  18.392  1.00  0.00     0.041 C 
ATOM      7  O   UNL     1      18.544  21.294  17.549  1.00  0.00    -0.550 OA
ATOM      8  O   UNL     1      18.374  19.047  17.963  1.00  0.00    -0.550 OA
ENDBRANCH   5   6
ENDBRANCH   4   5
ENDBRANCH   3   4
ENDBRANCH   2   3
ENDBRANCH   1   2
BRANCH   1   9
ATOM      9  C   UNL     1      20.722  24.752  19.080  1.00  0.00     0.000 C 
BRANCH   9  10
ATOM     10  C   UNL     1      21.341  23.811  18.033  1.00  0.00    -0.000 C 
BRANCH  10  11
ATOM     11  C   UNL     1      21.689  22.451  18.652  1.00  0.00    -0.000 C 
BRANCH  11  12
ATOM     12  C   UNL     1      22.590  22.572  19.892  1.00  0.00    -0.000 C 
BRANCH  12  13
ATOM     13  C   UNL     1      22.056  21.808  21.123  1.00  0.00    -0.003 C 
ATOM     14  C   UNL     1      22.779  20.479  21.343  1.00  0.00     0.004 C 
ENDBRANCH  12  13
ENDBRANCH  11  12
ENDBRANCH  10  11
ENDBRANCH   9  10
ENDBRANCH   1   9
TORSDOF 10
ENDMDL
MODEL 7
REMARK VINA RESULT:    -4.214     15.927     18.027
REMARK INTER + INTRA:          -7.264
REMARK INTER:                  -5.891
REMARK INTRA:                  -1.373
REMARK UNBOUND:                -0.586
REMARK SMILES CCCCCCCCCCCC(=O)[O-]
REMARK SMILES IDX 7 1 8 2 9 3 10 4 11 5 12 6 13 7 14 8 6 9 5 10 4 11 3 12 2 13
REMARK SMILES IDX 1 14
REMARK H PARENT
REMARK Flexibility Score: inf
ROOT
ATOM      1  C   UNL     1      18.749  23.390  18.128  1.00  0.00     0.000 C 
ENDROOT
BRANCH   1   2
ATOM      2  C   UNL     1      19.719  24.344  17.409  1.00  0.00     0.000 C 
BRANCH   2   3
ATOM      3  C   UNL     1      21.019  24.562  18.210  1.00  0.00     0.000 C 
BRANCH   3   4
ATOM      4  C   UNL     1      21.036  23.827  19.562  1.00  0.00     0.006 C 
BRANCH   4   5
ATOM      5  C   UNL     1      22.090  22.716  19.625  1.00  0.00     0.053 C 
BRANCH   5   6
ATOM      6  C   UNL     1      22.149  22.128  20.999  1.00  0.00     0.041 C 
ATOM      7  O   UNL     1      22.094  22.875  22.011  1.00  0.00    -0.550 OA
ATOM      8  O   UNL     1      22.214  20.750  21.164  1.00  0.00    -0.550 OA
ENDBRANCH   5   6
ENDBRANCH   4   5
ENDBRANCH   3   4
ENDBRANCH   2   3
ENDBRANCH   1   2
BRANCH   1   9
ATOM      9  C   UNL     1      18.649  22.021  17.439  1.00  0.00     0.000 C 
BRANCH   9  10
ATOM     10  C   UNL     1      18.075  20.940  18.369  1.00  0.00    -0.000 C 
BRANCH  10  11
ATOM     11  C   UNL     1      19.023  20.662  19.542  1.00  0.00    -0.000 C 
BRANCH  11  12
ATOM     12  C   UNL     1      18.289  20.548  20.890  1.00  0.00    -0.000 C 
BRANCH  12  13
ATOM     13  C   UNL     1      17.581  21.850  21.321  1.00  0.00    -0.003 C 
ATOM     14  C   UNL     1      18.516  22.803  22.066  1.00  0.00     0.004 C 
ENDBRANCH  12  13
ENDBRANCH  11  12
ENDBRANCH  10  11
ENDBRANCH   9  10
ENDBRANCH   1   9
TORSDOF 10
ENDMDL
MODEL 8
REMARK VINA RESULT:    -4.136     16.287     18.261
REMARK INTER + INTRA:          -7.140
REMARK INTER:                  -5.754
REMARK INTRA:                  -1.386
REMARK UNBOUND:                -0.586
REMARK SMILES CCCCCCCCCCCC(=O)[O-]
REMARK SMILES IDX 7 1 8 2 9 3 10 4 11 5 12 6 13 7 14 8 6 9 5 10 4 11 3 12 2 13
REMARK SMILES IDX 1 14
REMARK H PARENT
REMARK Flexibility Score: inf
ROOT
ATOM      1  C   UNL     1      19.876  24.632  21.045  1.00  0.00     0.000 C 
ENDROOT
BRANCH   1   2
ATOM      2  C   UNL     1      19.218  23.441  21.765  1.00  0.00     0.000 C 
BRANCH   2   3
ATOM      3  C   UNL     1      18.352  22.593  20.812  1.00  0.00     0.000 C 
BRANCH   3   4
ATOM      4  C   UNL     1      18.172  21.138  21.276  1.00  0.00     0.006 C 
BRANCH   4   5
ATOM      5  C   UNL     1      18.888  20.128  20.371  1.00  0.00     0.053 C 
BRANCH   5   6
ATOM      6  C   UNL     1      18.997  18.801  21.052  1.00  0.00     0.041 C 
ATOM      7  O   UNL     1      19.870  17.971  20.685  1.00  0.00    -0.550 OA
ATOM      8  O   UNL     1      18.168  18.499  22.125  1.00  0.00    -0.550 OA
ENDBRANCH   5   6
ENDBRANCH   4   5
ENDBRANCH   3   4
ENDBRANCH   2   3
ENDBRANCH   1   2
BRANCH   1   9
ATOM      9  C   UNL     1      19.631  24.612  19.528  1.00  0.00     0.000 C 
BRANCH   9  10
ATOM     10  C   UNL     1      20.909  24.904  18.726  1.00  0.00    -0.000 C 
BRANCH  10  11
ATOM     11  C   UNL     1      21.323  23.689  17.887  1.00  0.00    -0.000 C 
BRANCH  11  12
ATOM     12  C   UNL     1      21.415  22.395  18.714  1.00  0.00    -0.000 C 
BRANCH  12  13
ATOM     13  C   UNL     1      22.543  22.410  19.766  1.00  0.00    -0.003 C 
ATOM     14  C   UNL     1      22.243  21.499  20.957  1.00  0.00     0.004 C 
ENDBRANCH  12  13
ENDBRANCH  11  12
ENDBRANCH  10  11
ENDBRANCH   9  10
ENDBRANCH   1   9
TORSDOF 10
ENDMDL
MODEL 9
REMARK VINA RESULT:    -4.091     17.076     19.044
REMARK INTER + INTRA:          -7.069
REMARK INTER:                  -6.165
REMARK INTRA:                  -0.905
REMARK UNBOUND:                -0.586
REMARK SMILES CCCCCCCCCCCC(=O)[O-]
REMARK SMILES IDX 7 1 8 2 9 3 10 4 11 5 12 6 13 7 14 8 6 9 5 10 4 11 3 12 2 13
REMARK SMILES IDX 1 14
REMARK H PARENT
REMARK Flexibility Score: inf
ROOT
ATOM      1  C   UNL     1      21.649  22.720  21.372  1.00  0.00     0.000 C 
ENDROOT
BRANCH   1   2
ATOM      2  C   UNL     1      21.759  21.243  20.951  1.00  0.00     0.000 C 
BRANCH   2   3
ATOM      3  C   UNL     1      22.885  20.507  21.706  1.00  0.00     0.000 C 
BRANCH   3   4
ATOM      4  C   UNL     1      23.003  19.019  21.332  1.00  0.00     0.006 C 
BRANCH   4   5
ATOM      5  C   UNL     1      24.417  18.623  20.894  1.00  0.00     0.053 C 
BRANCH   5   6
ATOM      6  C   UNL     1      24.368  17.448  19.969  1.00  0.00     0.041 C 
ATOM      7  O   UNL     1      23.367  16.685  19.967  1.00  0.00    -0.550 OA
ATOM      8  O   UNL     1      25.407  17.223  19.074  1.00  0.00    -0.550 OA
ENDBRANCH   5   6
ENDBRANCH   4   5
ENDBRANCH   3   4
ENDBRANCH   2   3
ENDBRANCH   1   2
BRANCH   1   9
ATOM      9  C   UNL     1      20.193  23.199  21.465  1.00  0.00     0.000 C 
BRANCH   9  10
ATOM     10  C   UNL     1      19.248  22.373  20.578  1.00  0.00    -0.000 C 
BRANCH  10  11
ATOM     11  C   UNL     1      18.956  23.097  19.258  1.00  0.00    -0.000 C 
BRANCH  11  12
ATOM     12  C   UNL     1      19.678  22.464  18.056  1.00  0.00    -0.000 C 
BRANCH  12  13
ATOM     13  C   UNL     1      20.960  23.215  17.637  1.00  0.00    -0.003 C 
ATOM     14  C   UNL     1      20.962  24.671  18.104  1.00  0.00     0.004 C 
ENDBRANCH  12  13
ENDBRANCH  11  12
ENDBRANCH  10  11
ENDBRANCH   9  10
ENDBRANCH   1   9
TORSDOF 10
ENDMDL
