MODEL 1
REMARK VINA RESULT:    -4.604      0.000      0.000
REMARK INTER + INTRA:         -11.658
REMARK INTER:                  -8.910
REMARK INTRA:                  -2.749
REMARK UNBOUND:                -2.749
REMARK SMILES CCCCCCCCCCCCCCCCCC(=O)[O-]
REMARK SMILES IDX 10 1 11 2 12 3 13 4 14 5 15 6 16 7 17 8 18 9 19 10 20 11
REMARK SMILES IDX 9 12 8 13 7 14 6 15 5 16 4 17 3 18 2 19 1 20
REMARK H PARENT
REMARK Flexibility Score: inf
ROOT
ATOM      1  C   UNL     1      14.008 -29.724  23.353  1.00  0.00     0.000 C 
ENDROOT
BRANCH   1   2
ATOM      2  C   UNL     1      13.284 -31.042  23.032  1.00  0.00     0.000 C 
BRANCH   2   3
ATOM      3  C   UNL     1      12.578 -31.016  21.666  1.00  0.00     0.000 C 
BRANCH   3   4
ATOM      4  C   UNL     1      13.378 -31.749  20.577  1.00  0.00     0.000 C 
BRANCH   4   5
ATOM      5  C   UNL     1      14.315 -32.826  21.154  1.00  0.00     0.000 C 
BRANCH   5   6
ATOM      6  C   UNL     1      15.072 -33.597  20.061  1.00  0.00     0.000 C 
BRANCH   6   7
ATOM      7  C   UNL     1      15.253 -35.084  20.408  1.00  0.00     0.006 C 
BRANCH   7   8
ATOM      8  C   UNL     1      16.272 -35.774  19.492  1.00  0.00     0.053 C 
BRANCH   8   9
ATOM      9  C   UNL     1      17.514 -36.164  20.233  1.00  0.00     0.041 C 
ATOM     10  O   UNL     1      17.628 -37.321  20.715  1.00  0.00    -0.550 OA
ATOM     11  O   UNL     1      18.556 -35.257  20.369  1.00  0.00    -0.550 OA
ENDBRANCH   8   9
ENDBRANCH   7   8
ENDBRANCH   6   7
ENDBRANCH   5   6
ENDBRANCH   4   5
ENDBRANCH   3   4
ENDBRANCH   2   3
ENDBRANCH   1   2
BRANCH   1  12
ATOM     12  C   UNL     1      15.545 -29.813  23.220  1.00  0.00     0.000 C 
BRANCH  12  13
ATOM     13  C   UNL     1      16.028 -29.398  21.818  1.00  0.00    -0.000 C 
BRANCH  13  14
ATOM     14  C   UNL     1      17.498 -29.796  21.563  1.00  0.00    -0.000 C 
BRANCH  14  15
ATOM     15  C   UNL     1      17.656 -31.064  20.706  1.00  0.00    -0.000 C 
BRANCH  15  16
ATOM     16  C   UNL     1      18.632 -32.080  21.314  1.00  0.00    -0.000 C 
BRANCH  16  17
ATOM     17  C   UNL     1      18.509 -32.120  22.845  1.00  0.00    -0.000 C 
BRANCH  17  18
ATOM     18  C   UNL     1      18.449 -33.564  23.388  1.00  0.00    -0.000 C 
BRANCH  18  19
ATOM     19  C   UNL     1      17.023 -34.132  23.472  1.00  0.00    -0.003 C 
ATOM     20  C   UNL     1      16.084 -33.274  24.318  1.00  0.00     0.004 C 
ENDBRANCH  18  19
ENDBRANCH  17  18
ENDBRANCH  16  17
ENDBRANCH  15  16
ENDBRANCH  14  15
ENDBRANCH  13  14
ENDBRANCH  12  13
ENDBRANCH   1  12
TORSDOF 16
ENDMDL
MODEL 2
REMARK VINA RESULT:    -4.537      3.359      5.961
REMARK INTER + INTRA:         -11.529
REMARK INTER:                  -9.114
REMARK INTRA:                  -2.414
REMARK UNBOUND:                -2.749
REMARK SMILES CCCCCCCCCCCCCCCCCC(=O)[O-]
REMARK SMILES IDX 10 1 11 2 12 3 13 4 14 5 15 6 16 7 17 8 18 9 19 10 20 11
REMARK SMILES IDX 9 12 8 13 7 14 6 15 5 16 4 17 3 18 2 19 1 20
REMARK H PARENT
REMARK Flexibility Score: inf
ROOT
ATOM      1  C   UNL     1      16.742 -34.792  19.388  1.00  0.00     0.000 C 
ENDROOT
BRANCH   1   2
ATOM      2  C   UNL     1      15.396 -34.847  20.130  1.00  0.00     0.000 C 
BRANCH   2   3
ATOM      3  C   UNL     1      14.499 -33.635  19.829  1.00  0.00     0.000 C 
BRANCH   3   4
ATOM      4  C   UNL     1      14.271 -32.751  21.066  1.00  0.00     0.000 C 
BRANCH   4   5
ATOM      5  C   UNL     1      14.900 -33.342  22.340  1.00  0.00     0.000 C 
BRANCH   5   6
ATOM      6  C   UNL     1      14.720 -32.431  23.564  1.00  0.00     0.000 C 
BRANCH   6   7
ATOM      7  C   UNL     1      13.504 -31.498  23.430  1.00  0.00     0.006 C 
BRANCH   7   8
ATOM      8  C   UNL     1      13.864 -30.032  23.702  1.00  0.00     0.053 C 
BRANCH   8   9
ATOM      9  C   UNL     1      12.647 -29.165  23.789  1.00  0.00     0.041 C 
ATOM     10  O   UNL     1      11.688 -29.334  22.990  1.00  0.00    -0.550 OA
ATOM     11  O   UNL     1      12.560 -28.185  24.769  1.00  0.00    -0.550 OA
ENDBRANCH   8   9
ENDBRANCH   7   8
ENDBRANCH   6   7
ENDBRANCH   5   6
ENDBRANCH   4   5
ENDBRANCH   3   4
ENDBRANCH   2   3
ENDBRANCH   1   2
BRANCH   1  12
ATOM     12  C   UNL     1      17.496 -36.140  19.373  1.00  0.00     0.000 C 
BRANCH  12  13
ATOM     13  C   UNL     1      17.581 -36.771  20.775  1.00  0.00    -0.000 C 
BRANCH  13  14
ATOM     14  C   UNL     1      18.523 -35.989  21.714  1.00  0.00    -0.000 C 
BRANCH  14  15
ATOM     15  C   UNL     1      17.821 -35.412  22.956  1.00  0.00    -0.000 C 
BRANCH  15  16
ATOM     16  C   UNL     1      18.457 -34.106  23.452  1.00  0.00    -0.000 C 
BRANCH  16  17
ATOM     17  C   UNL     1      19.471 -33.562  22.433  1.00  0.00    -0.000 C 
BRANCH  17  18
ATOM     18  C   UNL     1      19.507 -32.018  22.416  1.00  0.00    -0.000 C 
BRANCH  18  19
ATOM     19  C   UNL     1      18.144 -31.373  22.119  1.00  0.00    -0.003 C 
ATOM     20  C   UNL     1      17.732 -31.486  20.653  1.00  0.00     0.004 C 
ENDBRANCH  18  19
ENDBRANCH  17  18
ENDBRANCH  16  17
ENDBRANCH  15  16
ENDBRANCH  14  15
ENDBRANCH  13  14
ENDBRANCH  12  13
ENDBRANCH   1  12
TORSDOF 16
ENDMDL
MODEL 3
REMARK VINA RESULT:    -4.515      3.693      5.416
REMARK INTER + INTRA:         -11.486
REMARK INTER:                  -8.935
REMARK INTRA:                  -2.551
REMARK UNBOUND:                -2.749
REMARK SMILES CCCCCCCCCCCCCCCCCC(=O)[O-]
REMARK SMILES IDX 10 1 11 2 12 3 13 4 14 5 15 6 16 7 17 8 18 9 19 10 20 11
REMARK SMILES IDX 9 12 8 13 7 14 6 15 5 16 4 17 3 18 2 19 1 20
REMARK H PARENT
REMARK Flexibility Score: inf
ROOT
ATOM      1  C   UNL     1      17.242 -32.829  24.347  1.00  0.00     0.000 C 
ENDROOT
BRANCH   1   2
ATOM      2  C   UNL     1      16.107 -33.727  23.830  1.00  0.00     0.000 C 
BRANCH   2   3
ATOM      3  C   UNL     1      14.945 -32.927  23.220  1.00  0.00     0.000 C 
BRANCH   3   4
ATOM      4  C   UNL     1      14.668 -33.314  21.758  1.00  0.00     0.000 C 
BRANCH   4   5
ATOM      5  C   UNL     1      13.949 -32.198  20.977  1.00  0.00     0.000 C 
BRANCH   5   6
ATOM      6  C   UNL     1      14.094 -30.822  21.648  1.00  0.00     0.000 C 
BRANCH   6   7
ATOM      7  C   UNL     1      12.786 -30.347  22.305  1.00  0.00     0.006 C 
BRANCH   7   8
ATOM      8  C   UNL     1      12.995 -29.898  23.756  1.00  0.00     0.053 C 
BRANCH   8   9
ATOM      9  C   UNL     1      12.236 -28.645  24.068  1.00  0.00     0.041 C 
ATOM     10  O   UNL     1      11.054 -28.501  23.659  1.00  0.00    -0.550 OA
ATOM     11  O   UNL     1      12.826 -27.647  24.831  1.00  0.00    -0.550 OA
ENDBRANCH   8   9
ENDBRANCH   7   8
ENDBRANCH   6   7
ENDBRANCH   5   6
ENDBRANCH   4   5
ENDBRANCH   3   4
ENDBRANCH   2   3
ENDBRANCH   1   2
BRANCH   1  12
ATOM     12  C   UNL     1      17.097 -31.347  23.933  1.00  0.00     0.000 C 
BRANCH  12  13
ATOM     13  C   UNL     1      18.421 -30.758  23.415  1.00  0.00    -0.000 C 
BRANCH  13  14
ATOM     14  C   UNL     1      18.307 -30.243  21.964  1.00  0.00    -0.000 C 
BRANCH  14  15
ATOM     15  C   UNL     1      17.631 -31.239  21.006  1.00  0.00    -0.000 C 
BRANCH  15  16
ATOM     16  C   UNL     1      18.603 -32.285  20.445  1.00  0.00    -0.000 C 
BRANCH  16  17
ATOM     17  C   UNL     1      18.047 -33.707  20.616  1.00  0.00    -0.000 C 
BRANCH  17  18
ATOM     18  C   UNL     1      17.272 -34.184  19.369  1.00  0.00    -0.000 C 
BRANCH  18  19
ATOM     19  C   UNL     1      16.931 -35.682  19.390  1.00  0.00    -0.003 C 
ATOM     20  C   UNL     1      17.254 -36.352  20.724  1.00  0.00     0.004 C 
ENDBRANCH  18  19
ENDBRANCH  17  18
ENDBRANCH  16  17
ENDBRANCH  15  16
ENDBRANCH  14  15
ENDBRANCH  13  14
ENDBRANCH  12  13
ENDBRANCH   1  12
TORSDOF 16
ENDMDL
MODEL 4
REMARK VINA RESULT:    -4.503      2.252      5.133
REMARK INTER + INTRA:         -11.464
REMARK INTER:                  -8.970
REMARK INTRA:                  -2.494
REMARK UNBOUND:                -2.749
REMARK SMILES CCCCCCCCCCCCCCCCCC(=O)[O-]
REMARK SMILES IDX 10 1 11 2 12 3 13 4 14 5 15 6 16 7 17 8 18 9 19 10 20 11
REMARK SMILES IDX 9 12 8 13 7 14 6 15 5 16 4 17 3 18 2 19 1 20
REMARK H PARENT
REMARK Flexibility Score: inf
ROOT
ATOM      1  C   UNL     1      18.455 -31.874  20.544  1.00  0.00     0.000 C 
ENDROOT
BRANCH   1   2
ATOM      2  C   UNL     1      17.269 -31.039  21.057  1.00  0.00     0.000 C 
BRANCH   2   3
ATOM      3  C   UNL     1      17.551 -30.375  22.415  1.00  0.00     0.000 C 
BRANCH   3   4
ATOM      4  C   UNL     1      16.704 -30.974  23.549  1.00  0.00     0.000 C 
BRANCH   4   5
ATOM      5  C   UNL     1      17.331 -32.246  24.148  1.00  0.00     0.000 C 
BRANCH   5   6
ATOM      6  C   UNL     1      16.347 -33.425  24.191  1.00  0.00     0.000 C 
BRANCH   6   7
ATOM      7  C   UNL     1      17.061 -34.787  24.240  1.00  0.00     0.006 C 
BRANCH   7   8
ATOM      8  C   UNL     1      17.723 -35.046  25.600  1.00  0.00     0.053 C 
BRANCH   8   9
ATOM      9  C   UNL     1      17.593 -36.477  26.020  1.00  0.00     0.041 C 
ATOM     10  O   UNL     1      18.309 -37.363  25.484  1.00  0.00    -0.550 OA
ATOM     11  O   UNL     1      16.699 -36.829  27.022  1.00  0.00    -0.550 OA
ENDBRANCH   8   9
ENDBRANCH   7   8
ENDBRANCH   6   7
ENDBRANCH   5   6
ENDBRANCH   4   5
ENDBRANCH   3   4
ENDBRANCH   2   3
ENDBRANCH   1   2
BRANCH   1  12
ATOM     12  C   UNL     1      18.218 -33.398  20.624  1.00  0.00     0.000 C 
BRANCH  12  13
ATOM     13  C   UNL     1      17.872 -34.003  19.251  1.00  0.00    -0.000 C 
BRANCH  13  14
ATOM     14  C   UNL     1      16.742 -35.051  19.339  1.00  0.00    -0.000 C 
BRANCH  14  15
ATOM     15  C   UNL     1      15.771 -34.817  20.510  1.00  0.00    -0.000 C 
BRANCH  15  16
ATOM     16  C   UNL     1      14.630 -33.854  20.158  1.00  0.00    -0.000 C 
BRANCH  16  17
ATOM     17  C   UNL     1      14.371 -32.860  21.301  1.00  0.00    -0.000 C 
BRANCH  17  18
ATOM     18  C   UNL     1      13.503 -31.665  20.850  1.00  0.00    -0.000 C 
BRANCH  18  19
ATOM     19  C   UNL     1      13.302 -30.602  21.941  1.00  0.00    -0.003 C 
ATOM     20  C   UNL     1      13.113 -31.200  23.334  1.00  0.00     0.004 C 
ENDBRANCH  18  19
ENDBRANCH  17  18
ENDBRANCH  16  17
ENDBRANCH  15  16
ENDBRANCH  14  15
ENDBRANCH  13  14
ENDBRANCH  12  13
ENDBRANCH   1  12
TORSDOF 16
ENDMDL
MODEL 5
REMARK VINA RESULT:    -4.474      1.300      2.581
REMARK INTER + INTRA:         -11.408
REMARK INTER:                  -8.715
REMARK INTRA:                  -2.693
REMARK UNBOUND:                -2.749
REMARK SMILES CCCCCCCCCCCCCCCCCC(=O)[O-]
REMARK SMILES IDX 10 1 11 2 12 3 13 4 14 5 15 6 16 7 17 8 18 9 19 10 20 11
REMARK SMILES IDX 9 12 8 13 7 14 6 15 5 16 4 17 3 18 2 19 1 20
REMARK H PARENT
REMARK Flexibility Score: inf
ROOT
ATOM      1  C   UNL     1      14.755 -32.294  23.585  1.00  0.00     0.000 C 
ENDROOT
BRANCH   1   2
ATOM      2  C   UNL     1      14.852 -33.247  22.382  1.00  0.00     0.000 C 
BRANCH   2   3
ATOM      3  C   UNL     1      14.301 -32.628  21.087  1.00  0.00     0.000 C 
BRANCH   3   4
ATOM      4  C   UNL     1      14.397 -33.589  19.890  1.00  0.00     0.000 C 
BRANCH   4   5
ATOM      5  C   UNL     1      15.509 -34.639  20.061  1.00  0.00     0.000 C 
BRANCH   5   6
ATOM      6  C   UNL     1      16.771 -34.297  19.252  1.00  0.00     0.000 C 
BRANCH   6   7
ATOM      7  C   UNL     1      17.990 -35.131  19.682  1.00  0.00     0.006 C 
BRANCH   7   8
ATOM      8  C   UNL     1      17.593 -36.335  20.546  1.00  0.00     0.053 C 
BRANCH   8   9
ATOM      9  C   UNL     1      18.171 -36.247  21.924  1.00  0.00     0.041 C 
ATOM     10  O   UNL     1      19.211 -36.894  22.219  1.00  0.00    -0.550 OA
ATOM     11  O   UNL     1      17.576 -35.432  22.877  1.00  0.00    -0.550 OA
ENDBRANCH   8   9
ENDBRANCH   7   8
ENDBRANCH   6   7
ENDBRANCH   5   6
ENDBRANCH   4   5
ENDBRANCH   3   4
ENDBRANCH   2   3
ENDBRANCH   1   2
BRANCH   1  12
ATOM     12  C   UNL     1      13.525 -31.361  23.538  1.00  0.00     0.000 C 
BRANCH  12  13
ATOM     13  C   UNL     1      13.928 -29.877  23.447  1.00  0.00    -0.000 C 
BRANCH  13  14
ATOM     14  C   UNL     1      15.452 -29.692  23.286  1.00  0.00    -0.000 C 
BRANCH  14  15
ATOM     15  C   UNL     1      15.881 -29.307  21.859  1.00  0.00    -0.000 C 
BRANCH  15  16
ATOM     16  C   UNL     1      17.358 -29.613  21.575  1.00  0.00    -0.000 C 
BRANCH  16  17
ATOM     17  C   UNL     1      17.514 -30.942  20.821  1.00  0.00    -0.000 C 
BRANCH  17  18
ATOM     18  C   UNL     1      18.593 -31.848  21.452  1.00  0.00    -0.000 C 
BRANCH  18  19
ATOM     19  C   UNL     1      18.393 -32.090  22.956  1.00  0.00    -0.003 C 
ATOM     20  C   UNL     1      19.386 -31.322  23.826  1.00  0.00     0.004 C 
ENDBRANCH  18  19
ENDBRANCH  17  18
ENDBRANCH  16  17
ENDBRANCH  15  16
ENDBRANCH  14  15
ENDBRANCH  13  14
ENDBRANCH  12  13
ENDBRANCH   1  12
TORSDOF 16
ENDMDL
MODEL 6
REMARK VINA RESULT:    -4.443      1.504      3.609
REMARK INTER + INTRA:         -11.347
REMARK INTER:                  -8.793
REMARK INTRA:                  -2.554
REMARK UNBOUND:                -2.749
REMARK SMILES CCCCCCCCCCCCCCCCCC(=O)[O-]
REMARK SMILES IDX 10 1 11 2 12 3 13 4 14 5 15 6 16 7 17 8 18 9 19 10 20 11
REMARK SMILES IDX 9 12 8 13 7 14 6 15 5 16 4 17 3 18 2 19 1 20
REMARK H PARENT
REMARK Flexibility Score: inf
ROOT
ATOM      1  C   UNL     1      16.265 -29.470  22.338  1.00  0.00     0.000 C 
ENDROOT
BRANCH   1   2
ATOM      2  C   UNL     1      16.882 -30.249  23.512  1.00  0.00     0.000 C 
BRANCH   2   3
ATOM      3  C   UNL     1      18.273 -30.816  23.184  1.00  0.00     0.000 C 
BRANCH   3   4
ATOM      4  C   UNL     1      18.788 -30.354  21.811  1.00  0.00     0.000 C 
BRANCH   4   5
ATOM      5  C   UNL     1      19.090 -31.532  20.866  1.00  0.00     0.000 C 
BRANCH   5   6
ATOM      6  C   UNL     1      17.824 -32.307  20.468  1.00  0.00     0.000 C 
BRANCH   6   7
ATOM      7  C   UNL     1      18.120 -33.773  20.108  1.00  0.00     0.006 C 
BRANCH   7   8
ATOM      8  C   UNL     1      17.120 -34.334  19.090  1.00  0.00     0.053 C 
BRANCH   8   9
ATOM      9  C   UNL     1      16.144 -35.275  19.726  1.00  0.00     0.041 C 
ATOM     10  O   UNL     1      16.326 -36.519  19.662  1.00  0.00    -0.550 OA
ATOM     11  O   UNL     1      15.045 -34.776  20.413  1.00  0.00    -0.550 OA
ENDBRANCH   8   9
ENDBRANCH   7   8
ENDBRANCH   6   7
ENDBRANCH   5   6
ENDBRANCH   4   5
ENDBRANCH   3   4
ENDBRANCH   2   3
ENDBRANCH   1   2
BRANCH   1  12
ATOM     12  C   UNL     1      14.902 -30.029  21.873  1.00  0.00     0.000 C 
BRANCH  12  13
ATOM     13  C   UNL     1      13.829 -29.928  22.972  1.00  0.00    -0.000 C 
BRANCH  13  14
ATOM     14  C   UNL     1      13.136 -31.280  23.242  1.00  0.00    -0.000 C 
BRANCH  14  15
ATOM     15  C   UNL     1      13.896 -32.178  24.234  1.00  0.00    -0.000 C 
BRANCH  15  16
ATOM     16  C   UNL     1      14.679 -33.303  23.544  1.00  0.00    -0.000 C 
BRANCH  16  17
ATOM     17  C   UNL     1      15.974 -33.625  24.305  1.00  0.00    -0.000 C 
BRANCH  17  18
ATOM     18  C   UNL     1      16.920 -34.532  23.489  1.00  0.00    -0.000 C 
BRANCH  18  19
ATOM     19  C   UNL     1      18.405 -34.357  23.848  1.00  0.00    -0.003 C 
ATOM     20  C   UNL     1      18.635 -34.084  25.333  1.00  0.00     0.004 C 
ENDBRANCH  18  19
ENDBRANCH  17  18
ENDBRANCH  16  17
ENDBRANCH  15  16
ENDBRANCH  14  15
ENDBRANCH  13  14
ENDBRANCH  12  13
ENDBRANCH   1  12
TORSDOF 16
ENDMDL
MODEL 7
REMARK VINA RESULT:    -4.401      2.727      5.474
REMARK INTER + INTRA:         -11.266
REMARK INTER:                  -8.564
REMARK INTRA:                  -2.703
REMARK UNBOUND:                -2.749
REMARK SMILES CCCCCCCCCCCCCCCCCC(=O)[O-]
REMARK SMILES IDX 10 1 11 2 12 3 13 4 14 5 15 6 16 7 17 8 18 9 19 10 20 11
REMARK SMILES IDX 9 12 8 13 7 14 6 15 5 16 4 17 3 18 2 19 1 20
REMARK H PARENT
REMARK Flexibility Score: inf
ROOT
ATOM      1  C   UNL     1      18.722 -36.179  22.122  1.00  0.00     0.000 C 
ENDROOT
BRANCH   1   2
ATOM      2  C   UNL     1      17.649 -36.585  21.098  1.00  0.00     0.000 C 
BRANCH   2   3
ATOM      3  C   UNL     1      17.772 -35.819  19.770  1.00  0.00     0.000 C 
BRANCH   3   4
ATOM      4  C   UNL     1      16.439 -35.197  19.324  1.00  0.00     0.000 C 
BRANCH   4   5
ATOM      5  C   UNL     1      15.495 -34.910  20.506  1.00  0.00     0.000 C 
BRANCH   5   6
ATOM      6  C   UNL     1      14.620 -33.668  20.273  1.00  0.00     0.000 C 
BRANCH   6   7
ATOM      7  C   UNL     1      14.427 -32.835  21.552  1.00  0.00     0.006 C 
BRANCH   7   8
ATOM      8  C   UNL     1      13.623 -31.555  21.295  1.00  0.00     0.053 C 
BRANCH   8   9
ATOM      9  C   UNL     1      13.127 -30.942  22.569  1.00  0.00     0.041 C 
ATOM     10  O   UNL     1      12.361 -29.943  22.536  1.00  0.00    -0.550 OA
ATOM     11  O   UNL     1      13.489 -31.491  23.791  1.00  0.00    -0.550 OA
ENDBRANCH   8   9
ENDBRANCH   7   8
ENDBRANCH   6   7
ENDBRANCH   5   6
ENDBRANCH   4   5
ENDBRANCH   3   4
ENDBRANCH   2   3
ENDBRANCH   1   2
BRANCH   1  12
ATOM     12  C   UNL     1      18.429 -34.837  22.828  1.00  0.00     0.000 C 
BRANCH  12  13
ATOM     13  C   UNL     1      17.233 -34.940  23.792  1.00  0.00    -0.000 C 
BRANCH  13  14
ATOM     14  C   UNL     1      16.743 -33.556  24.270  1.00  0.00    -0.000 C 
BRANCH  14  15
ATOM     15  C   UNL     1      17.879 -32.614  24.704  1.00  0.00    -0.000 C 
BRANCH  15  16
ATOM     16  C   UNL     1      17.541 -31.132  24.491  1.00  0.00    -0.000 C 
BRANCH  16  17
ATOM     17  C   UNL     1      17.229 -30.841  23.015  1.00  0.00    -0.000 C 
BRANCH  17  18
ATOM     18  C   UNL     1      18.479 -30.376  22.236  1.00  0.00    -0.000 C 
BRANCH  18  19
ATOM     19  C   UNL     1      19.039 -31.440  21.278  1.00  0.00    -0.003 C 
ATOM     20  C   UNL     1      17.961 -32.108  20.426  1.00  0.00     0.004 C 
ENDBRANCH  18  19
ENDBRANCH  17  18
ENDBRANCH  16  17
ENDBRANCH  15  16
ENDBRANCH  14  15
ENDBRANCH  13  14
ENDBRANCH  12  13
ENDBRANCH   1  12
TORSDOF 16
ENDMDL
MODEL 8
REMARK VINA RESULT:    -4.386      2.927      4.893
REMARK INTER + INTRA:         -11.238
REMARK INTER:                  -8.505
REMARK INTRA:                  -2.733
REMARK UNBOUND:                -2.749
REMARK SMILES CCCCCCCCCCCCCCCCCC(=O)[O-]
REMARK SMILES IDX 10 1 11 2 12 3 13 4 14 5 15 6 16 7 17 8 18 9 19 10 20 11
REMARK SMILES IDX 9 12 8 13 7 14 6 15 5 16 4 17 3 18 2 19 1 20
REMARK H PARENT
REMARK Flexibility Score: inf
ROOT
ATOM      1  C   UNL     1      17.949 -33.932  20.563  1.00  0.00     0.000 C 
ENDROOT
BRANCH   1   2
ATOM      2  C   UNL     1      17.048 -34.550  19.480  1.00  0.00     0.000 C 
BRANCH   2   3
ATOM      3  C   UNL     1      15.775 -35.190  20.059  1.00  0.00     0.000 C 
BRANCH   3   4
ATOM      4  C   UNL     1      14.979 -34.218  20.946  1.00  0.00     0.000 C 
BRANCH   4   5
ATOM      5  C   UNL     1      14.237 -33.144  20.130  1.00  0.00     0.000 C 
BRANCH   5   6
ATOM      6  C   UNL     1      13.781 -31.957  20.994  1.00  0.00     0.000 C 
BRANCH   6   7
ATOM      7  C   UNL     1      14.276 -32.063  22.447  1.00  0.00     0.006 C 
BRANCH   7   8
ATOM      8  C   UNL     1      13.297 -31.426  23.441  1.00  0.00     0.053 C 
BRANCH   8   9
ATOM      9  C   UNL     1      13.541 -29.958  23.604  1.00  0.00     0.041 C 
ATOM     10  O   UNL     1      12.647 -29.215  24.087  1.00  0.00    -0.550 OA
ATOM     11  O   UNL     1      14.767 -29.414  23.244  1.00  0.00    -0.550 OA
ENDBRANCH   8   9
ENDBRANCH   7   8
ENDBRANCH   6   7
ENDBRANCH   5   6
ENDBRANCH   4   5
ENDBRANCH   3   4
ENDBRANCH   2   3
ENDBRANCH   1   2
BRANCH   1  12
ATOM     12  C   UNL     1      18.354 -32.471  20.270  1.00  0.00     0.000 C 
BRANCH  12  13
ATOM     13  C   UNL     1      17.542 -31.466  21.108  1.00  0.00    -0.000 C 
BRANCH  13  14
ATOM     14  C   UNL     1      18.444 -30.463  21.859  1.00  0.00    -0.000 C 
BRANCH  14  15
ATOM     15  C   UNL     1      18.787 -30.894  23.295  1.00  0.00    -0.000 C 
BRANCH  15  16
ATOM     16  C   UNL     1      17.558 -31.347  24.094  1.00  0.00    -0.000 C 
BRANCH  16  17
ATOM     17  C   UNL     1      17.787 -32.729  24.727  1.00  0.00    -0.000 C 
BRANCH  17  18
ATOM     18  C   UNL     1      16.834 -33.799  24.151  1.00  0.00    -0.000 C 
BRANCH  18  19
ATOM     19  C   UNL     1      17.369 -35.234  24.280  1.00  0.00    -0.003 C 
ATOM     20  C   UNL     1      18.846 -35.359  23.911  1.00  0.00     0.004 C 
ENDBRANCH  18  19
ENDBRANCH  17  18
ENDBRANCH  16  17
ENDBRANCH  15  16
ENDBRANCH  14  15
ENDBRANCH  13  14
ENDBRANCH  12  13
ENDBRANCH   1  12
TORSDOF 16
ENDMDL
MODEL 9
REMARK VINA RESULT:    -4.381      3.052      5.760
REMARK INTER + INTRA:         -11.228
REMARK INTER:                  -8.384
REMARK INTRA:                  -2.844
REMARK UNBOUND:                -2.749
REMARK SMILES CCCCCCCCCCCCCCCCCC(=O)[O-]
REMARK SMILES IDX 10 1 11 2 12 3 13 4 14 5 15 6 16 7 17 8 18 9 19 10 20 11
REMARK SMILES IDX 9 12 8 13 7 14 6 15 5 16 4 17 3 18 2 19 1 20
REMARK H PARENT
REMARK Flexibility Score: inf
ROOT
ATOM      1  C   UNL     1      17.975 -35.492  23.025  1.00  0.00     0.000 C 
ENDROOT
BRANCH   1   2
ATOM      2  C   UNL     1      18.644 -34.232  23.599  1.00  0.00     0.000 C 
BRANCH   2   3
ATOM      3  C   UNL     1      17.626 -33.198  24.110  1.00  0.00     0.000 C 
BRANCH   3   4
ATOM      4  C   UNL     1      16.186 -33.736  24.102  1.00  0.00     0.000 C 
BRANCH   4   5
ATOM      5  C   UNL     1      15.157 -32.665  23.699  1.00  0.00     0.000 C 
BRANCH   5   6
ATOM      6  C   UNL     1      14.620 -32.870  22.273  1.00  0.00     0.000 C 
BRANCH   6   7
ATOM      7  C   UNL     1      14.409 -31.542  21.526  1.00  0.00     0.006 C 
BRANCH   7   8
ATOM      8  C   UNL     1      12.962 -31.368  21.049  1.00  0.00     0.053 C 
BRANCH   8   9
ATOM      9  C   UNL     1      12.160 -30.526  21.993  1.00  0.00     0.041 C 
ATOM     10  O   UNL     1      12.652 -30.165  23.095  1.00  0.00    -0.550 OA
ATOM     11  O   UNL     1      10.879 -30.120  21.646  1.00  0.00    -0.550 OA
ENDBRANCH   8   9
ENDBRANCH   7   8
ENDBRANCH   6   7
ENDBRANCH   5   6
ENDBRANCH   4   5
ENDBRANCH   3   4
ENDBRANCH   2   3
ENDBRANCH   1   2
BRANCH   1  12
ATOM     12  C   UNL     1      18.760 -36.131  21.858  1.00  0.00     0.000 C 
BRANCH  12  13
ATOM     13  C   UNL     1      17.861 -36.404  20.638  1.00  0.00    -0.000 C 
BRANCH  13  14
ATOM     14  C   UNL     1      16.591 -35.527  20.636  1.00  0.00    -0.000 C 
BRANCH  14  15
ATOM     15  C   UNL     1      16.536 -34.519  19.475  1.00  0.00    -0.000 C 
BRANCH  15  16
ATOM     16  C   UNL     1      17.780 -33.623  19.400  1.00  0.00    -0.000 C 
BRANCH  16  17
ATOM     17  C   UNL     1      17.683 -32.455  20.394  1.00  0.00    -0.000 C 
BRANCH  17  18
ATOM     18  C   UNL     1      19.071 -31.983  20.876  1.00  0.00    -0.000 C 
BRANCH  18  19
ATOM     19  C   UNL     1      19.083 -30.537  21.398  1.00  0.00    -0.003 C 
ATOM     20  C   UNL     1      17.711 -29.868  21.345  1.00  0.00     0.004 C 
ENDBRANCH  18  19
ENDBRANCH  17  18
ENDBRANCH  16  17
ENDBRANCH  15  16
ENDBRANCH  14  15
ENDBRANCH  13  14
ENDBRANCH  12  13
ENDBRANCH   1  12
TORSDOF 16
ENDMDL
