MODEL 1
REMARK VINA RESULT:    -4.089      0.000      0.000
REMARK INTER + INTRA:          -5.280
REMARK INTER:                  -4.926
REMARK INTRA:                  -0.354
REMARK UNBOUND:                -0.354
REMARK SMILES O=c1c(O)c(-c2ccc(O)cc2O)oc2cc(O)cc(O)c12
REMARK SMILES IDX 5 1 3 2 2 3 1 4 22 5 20 6 19 7 17 8 16 9 15 10 14 11 6 12
REMARK SMILES IDX 8 13 7 14 9 15 11 16 12 17 10 18 13 20 4 22 21 24 18 26
REMARK H PARENT 10 19 13 21 4 23 21 25 18 27
REMARK Flexibility Score: inf
ROOT
ATOM      1  C   UNL     1      79.645  15.699   5.591  1.00  0.00     0.184 A 
ATOM      2  C   UNL     1      78.647  14.933   4.968  1.00  0.00     0.208 A 
ATOM      3  C   UNL     1      78.257  15.256   3.658  1.00  0.00     0.238 A 
ATOM      4  O   UNL     1      77.415  14.522   3.081  1.00  0.00    -0.285 OA
ATOM      5  C   UNL     1      78.834  16.375   3.009  1.00  0.00     0.111 A 
ATOM      6  C   UNL     1      78.482  16.823   1.699  1.00  0.00     0.134 A 
ATOM      7  C   UNL     1      79.197  17.876   1.115  1.00  0.00     0.093 A 
ATOM      8  C   UNL     1      80.207  18.539   1.817  1.00  0.00     0.123 A 
ATOM      9  C   UNL     1      80.519  18.145   3.116  1.00  0.00     0.094 A 
ATOM     10  C   UNL     1      79.851  17.074   3.711  1.00  0.00     0.146 A 
ATOM     11  O   UNL     1      80.195  16.719   4.944  1.00  0.00    -0.451 OA
ENDROOT
BRANCH   1  12
ATOM     12  C   UNL     1      80.114  15.404   6.965  1.00  0.00     0.063 A 
ATOM     13  C   UNL     1      81.122  13.875   8.569  1.00  0.00     0.047 A 
ATOM     14  C   UNL     1      80.654  14.144   7.280  1.00  0.00     0.020 A 
ATOM     15  C   UNL     1      81.066  14.863   9.558  1.00  0.00     0.119 A 
ATOM     16  C   UNL     1      80.544  16.124   9.252  1.00  0.00     0.093 A 
ATOM     17  C   UNL     1      80.071  16.401   7.961  1.00  0.00     0.130 A 
BRANCH  15  18
ATOM     18  O   UNL     1      81.530  14.606  10.846  1.00  0.00    -0.508 OA
ATOM     19  H   UNL     1      82.142  13.823  11.041  1.00  0.00     0.293 HD
ENDBRANCH  15  18
BRANCH  17  20
ATOM     20  O   UNL     1      79.547  17.661   7.670  1.00  0.00    -0.507 OA
ATOM     21  H   UNL     1      78.550  17.813   7.575  1.00  0.00     0.293 HD
ENDBRANCH  17  20
ENDBRANCH   1  12
BRANCH   2  22
ATOM     22  O   UNL     1      78.043  13.875   5.654  1.00  0.00    -0.502 OA
ATOM     23  H   UNL     1      78.322  13.607   6.591  1.00  0.00     0.293 HD
ENDBRANCH   2  22
BRANCH   6  24
ATOM     24  O   UNL     1      77.433  16.290   0.944  1.00  0.00    -0.507 OA
ATOM     25  H   UNL     1      76.804  16.828   0.369  1.00  0.00     0.293 HD
ENDBRANCH   6  24
BRANCH   8  26
ATOM     26  O   UNL     1      80.901  19.598   1.234  1.00  0.00    -0.508 OA
ATOM     27  H   UNL     1      81.853  19.490   0.904  1.00  0.00     0.293 HD
ENDBRANCH   8  26
TORSDOF 6
ENDMDL
MODEL 2
REMARK VINA RESULT:    -2.809      1.898      2.115
REMARK INTER + INTRA:          -3.738
REMARK INTER:                  -3.770
REMARK INTRA:                   0.032
REMARK UNBOUND:                -0.354
REMARK SMILES O=c1c(O)c(-c2ccc(O)cc2O)oc2cc(O)cc(O)c12
REMARK SMILES IDX 5 1 3 2 2 3 1 4 22 5 20 6 19 7 17 8 16 9 15 10 14 11 6 12
REMARK SMILES IDX 8 13 7 14 9 15 11 16 12 17 10 18 13 20 4 22 21 24 18 26
REMARK H PARENT 10 19 13 21 4 23 21 25 18 27
REMARK Flexibility Score: inf
ROOT
ATOM      1  C   UNL     1      79.720  15.782   4.962  1.00  0.00     0.184 A 
ATOM      2  C   UNL     1      80.401  14.814   4.207  1.00  0.00     0.208 A 
ATOM      3  C   UNL     1      80.237  14.796   2.812  1.00  0.00     0.238 A 
ATOM      4  O   UNL     1      80.907  13.973   2.137  1.00  0.00    -0.285 OA
ATOM      5  C   UNL     1      79.352  15.714   2.197  1.00  0.00     0.111 A 
ATOM      6  C   UNL     1      79.073  15.757   0.797  1.00  0.00     0.134 A 
ATOM      7  C   UNL     1      78.263  16.779   0.285  1.00  0.00     0.093 A 
ATOM      8  C   UNL     1      77.669  17.720   1.131  1.00  0.00     0.123 A 
ATOM      9  C   UNL     1      77.891  17.652   2.504  1.00  0.00     0.094 A 
ATOM     10  C   UNL     1      78.725  16.668   3.040  1.00  0.00     0.146 A 
ATOM     11  O   UNL     1      78.924  16.654   4.353  1.00  0.00    -0.451 OA
ENDROOT
BRANCH   1  12
ATOM     12  C   UNL     1      79.858  15.867   6.434  1.00  0.00     0.063 A 
ATOM     13  C   UNL     1      80.167  14.783   8.591  1.00  0.00     0.047 A 
ATOM     14  C   UNL     1      80.009  14.701   7.205  1.00  0.00     0.020 A 
ATOM     15  C   UNL     1      80.188  16.030   9.224  1.00  0.00     0.119 A 
ATOM     16  C   UNL     1      80.053  17.196   8.466  1.00  0.00     0.093 A 
ATOM     17  C   UNL     1      79.891  17.122   7.074  1.00  0.00     0.130 A 
BRANCH  15  18
ATOM     18  O   UNL     1      80.345  16.123  10.606  1.00  0.00    -0.508 OA
ATOM     19  H   UNL     1      80.478  17.018  11.063  1.00  0.00     0.293 HD
ENDBRANCH  15  18
BRANCH  17  20
ATOM     20  O   UNL     1      79.752  18.294   6.329  1.00  0.00    -0.507 OA
ATOM     21  H   UNL     1      80.083  18.360   5.374  1.00  0.00     0.293 HD
ENDBRANCH  17  20
ENDBRANCH   1  12
BRANCH   2  22
ATOM     22  O   UNL     1      81.217  13.875   4.845  1.00  0.00    -0.502 OA
ATOM     23  H   UNL     1      80.881  12.959   5.116  1.00  0.00     0.293 HD
ENDBRANCH   2  22
BRANCH   6  24
ATOM     24  O   UNL     1      79.541  14.815  -0.125  1.00  0.00    -0.507 OA
ATOM     25  H   UNL     1      80.319  14.958  -0.750  1.00  0.00     0.293 HD
ENDBRANCH   6  24
BRANCH   8  26
ATOM     26  O   UNL     1      76.850  18.722   0.615  1.00  0.00    -0.508 OA
ATOM     27  H   UNL     1      77.230  19.491   0.075  1.00  0.00     0.293 HD
ENDBRANCH   8  26
TORSDOF 6
ENDMDL
