MODEL 1
REMARK VINA RESULT:    -4.160      0.000      0.000
REMARK INTER + INTRA:          -8.828
REMARK INTER:                  -7.565
REMARK INTRA:                  -1.264
REMARK UNBOUND:                -1.264
REMARK SMILES CCCCCCCCCCCCCCCC(=O)[O-]
REMARK SMILES IDX 9 1 10 2 11 3 12 4 13 5 14 6 15 7 16 8 17 9 18 10 8 11 7 12
REMARK SMILES IDX 6 13 5 14 4 15 3 16 2 17 1 18
REMARK H PARENT
REMARK Flexibility Score: inf
ROOT
ATOM      1  C   UNL     1      10.436 -26.005  31.221  1.00  0.00     0.000 C 
ENDROOT
BRANCH   1   2
ATOM      2  C   UNL     1      11.779 -25.829  30.492  1.00  0.00     0.000 C 
BRANCH   2   3
ATOM      3  C   UNL     1      11.725 -24.726  29.420  1.00  0.00     0.000 C 
BRANCH   3   4
ATOM      4  C   UNL     1      10.295 -24.229  29.156  1.00  0.00     0.000 C 
BRANCH   4   5
ATOM      5  C   UNL     1       9.967 -24.131  27.658  1.00  0.00     0.000 C 
BRANCH   5   6
ATOM      6  C   UNL     1      10.094 -25.499  26.979  1.00  0.00     0.006 C 
BRANCH   6   7
ATOM      7  C   UNL     1       9.111 -26.506  27.582  1.00  0.00     0.053 C 
BRANCH   7   8
ATOM      8  C   UNL     1       8.393 -27.252  26.502  1.00  0.00     0.041 C 
ATOM      9  O   UNL     1       8.978 -28.171  25.869  1.00  0.00    -0.550 OA
ATOM     10  O   UNL     1       7.093 -26.900  26.159  1.00  0.00    -0.550 OA
ENDBRANCH   7   8
ENDBRANCH   6   7
ENDBRANCH   5   6
ENDBRANCH   4   5
ENDBRANCH   3   4
ENDBRANCH   2   3
ENDBRANCH   1   2
BRANCH   1  11
ATOM     11  C   UNL     1       9.907 -27.445  31.142  1.00  0.00     0.000 C 
BRANCH  11  12
ATOM     12  C   UNL     1       8.505 -27.551  31.762  1.00  0.00    -0.000 C 
BRANCH  12  13
ATOM     13  C   UNL     1       8.544 -27.491  33.304  1.00  0.00    -0.000 C 
BRANCH  13  14
ATOM     14  C   UNL     1       7.928 -28.725  33.985  1.00  0.00    -0.000 C 
BRANCH  14  15
ATOM     15  C   UNL     1       7.765 -29.918  33.028  1.00  0.00    -0.000 C 
BRANCH  15  16
ATOM     16  C   UNL     1       8.774 -31.049  33.324  1.00  0.00    -0.000 C 
BRANCH  16  17
ATOM     17  C   UNL     1       8.429 -32.380  32.635  1.00  0.00    -0.003 C 
ATOM     18  C   UNL     1       7.070 -32.359  31.939  1.00  0.00     0.004 C 
ENDBRANCH  16  17
ENDBRANCH  15  16
ENDBRANCH  14  15
ENDBRANCH  13  14
ENDBRANCH  12  13
ENDBRANCH  11  12
ENDBRANCH   1  11
TORSDOF 14
ENDMDL
MODEL 2
REMARK VINA RESULT:    -4.159      2.577      6.728
REMARK INTER + INTRA:          -8.826
REMARK INTER:                  -7.478
REMARK INTRA:                  -1.348
REMARK UNBOUND:                -1.264
REMARK SMILES CCCCCCCCCCCCCCCC(=O)[O-]
REMARK SMILES IDX 9 1 10 2 11 3 12 4 13 5 14 6 15 7 16 8 17 9 18 10 8 11 7 12
REMARK SMILES IDX 6 13 5 14 4 15 3 16 2 17 1 18
REMARK H PARENT
REMARK Flexibility Score: inf
ROOT
ATOM      1  C   UNL     1       8.785 -26.848  32.417  1.00  0.00     0.000 C 
ENDROOT
BRANCH   1   2
ATOM      2  C   UNL     1       8.099 -27.946  33.248  1.00  0.00     0.000 C 
BRANCH   2   3
ATOM      3  C   UNL     1       9.108 -28.810  34.024  1.00  0.00     0.000 C 
BRANCH   3   4
ATOM      4  C   UNL     1       8.916 -30.314  33.773  1.00  0.00     0.000 C 
BRANCH   4   5
ATOM      5  C   UNL     1       7.707 -30.617  32.874  1.00  0.00     0.000 C 
BRANCH   5   6
ATOM      6  C   UNL     1       7.930 -31.904  32.072  1.00  0.00     0.006 C 
BRANCH   6   7
ATOM      7  C   UNL     1       6.598 -32.576  31.729  1.00  0.00     0.053 C 
BRANCH   7   8
ATOM      8  C   UNL     1       6.696 -33.301  30.423  1.00  0.00     0.041 C 
ATOM      9  O   UNL     1       6.043 -32.900  29.424  1.00  0.00    -0.550 OA
ATOM     10  O   UNL     1       7.471 -34.450  30.323  1.00  0.00    -0.550 OA
ENDBRANCH   7   8
ENDBRANCH   6   7
ENDBRANCH   5   6
ENDBRANCH   4   5
ENDBRANCH   3   4
ENDBRANCH   2   3
ENDBRANCH   1   2
BRANCH   1  11
ATOM     11  C   UNL     1       9.787 -27.416  31.402  1.00  0.00     0.000 C 
BRANCH  11  12
ATOM     12  C   UNL     1      10.869 -26.381  31.060  1.00  0.00    -0.000 C 
BRANCH  12  13
ATOM     13  C   UNL     1      10.311 -24.942  31.029  1.00  0.00    -0.000 C 
BRANCH  13  14
ATOM     14  C   UNL     1      10.373 -24.285  29.640  1.00  0.00    -0.000 C 
BRANCH  14  15
ATOM     15  C   UNL     1      11.347 -24.995  28.685  1.00  0.00    -0.000 C 
BRANCH  15  16
ATOM     16  C   UNL     1      10.650 -25.497  27.403  1.00  0.00    -0.000 C 
BRANCH  16  17
ATOM     17  C   UNL     1       9.485 -26.465  27.673  1.00  0.00    -0.003 C 
ATOM     18  C   UNL     1       9.880 -27.933  27.525  1.00  0.00     0.004 C 
ENDBRANCH  16  17
ENDBRANCH  15  16
ENDBRANCH  14  15
ENDBRANCH  13  14
ENDBRANCH  12  13
ENDBRANCH  11  12
ENDBRANCH   1  11
TORSDOF 14
ENDMDL
MODEL 3
REMARK VINA RESULT:    -4.122      1.678      2.762
REMARK INTER + INTRA:          -8.759
REMARK INTER:                  -7.621
REMARK INTRA:                  -1.138
REMARK UNBOUND:                -1.264
REMARK SMILES CCCCCCCCCCCCCCCC(=O)[O-]
REMARK SMILES IDX 9 1 10 2 11 3 12 4 13 5 14 6 15 7 16 8 17 9 18 10 8 11 7 12
REMARK SMILES IDX 6 13 5 14 4 15 3 16 2 17 1 18
REMARK H PARENT
REMARK Flexibility Score: inf
ROOT
ATOM      1  C   UNL     1       8.663 -27.236  32.037  1.00  0.00     0.000 C 
ENDROOT
BRANCH   1   2
ATOM      2  C   UNL     1       9.952 -26.420  31.846  1.00  0.00     0.000 C 
BRANCH   2   3
ATOM      3  C   UNL     1       9.670 -24.948  31.498  1.00  0.00     0.000 C 
BRANCH   3   4
ATOM      4  C   UNL     1      10.707 -24.360  30.529  1.00  0.00     0.000 C 
BRANCH   4   5
ATOM      5  C   UNL     1      10.189 -24.267  29.086  1.00  0.00     0.000 C 
BRANCH   5   6
ATOM      6  C   UNL     1      10.651 -25.472  28.259  1.00  0.00     0.006 C 
BRANCH   6   7
ATOM      7  C   UNL     1       9.517 -26.487  28.085  1.00  0.00     0.053 C 
BRANCH   7   8
ATOM      8  C   UNL     1      10.066 -27.875  27.975  1.00  0.00     0.041 C 
ATOM      9  O   UNL     1       9.870 -28.554  26.932  1.00  0.00    -0.550 OA
ATOM     10  O   UNL     1      10.754 -28.437  29.043  1.00  0.00    -0.550 OA
ENDBRANCH   7   8
ENDBRANCH   6   7
ENDBRANCH   5   6
ENDBRANCH   4   5
ENDBRANCH   3   4
ENDBRANCH   2   3
ENDBRANCH   1   2
BRANCH   1  11
ATOM     11  C   UNL     1       8.423 -27.626  33.503  1.00  0.00     0.000 C 
BRANCH  11  12
ATOM     12  C   UNL     1       7.723 -28.990  33.601  1.00  0.00    -0.000 C 
BRANCH  12  13
ATOM     13  C   UNL     1       8.175 -29.960  32.488  1.00  0.00    -0.000 C 
BRANCH  13  14
ATOM     14  C   UNL     1       8.014 -31.443  32.859  1.00  0.00    -0.000 C 
BRANCH  14  15
ATOM     15  C   UNL     1       9.361 -32.164  33.040  1.00  0.00    -0.000 C 
BRANCH  15  16
ATOM     16  C   UNL     1       9.331 -33.176  34.205  1.00  0.00    -0.000 C 
BRANCH  16  17
ATOM     17  C   UNL     1      10.338 -32.860  35.324  1.00  0.00    -0.003 C 
ATOM     18  C   UNL     1      10.202 -31.439  35.867  1.00  0.00     0.004 C 
ENDBRANCH  16  17
ENDBRANCH  15  16
ENDBRANCH  14  15
ENDBRANCH  13  14
ENDBRANCH  12  13
ENDBRANCH  11  12
ENDBRANCH   1  11
TORSDOF 14
ENDMDL
MODEL 4
REMARK VINA RESULT:    -4.094      3.336      7.150
REMARK INTER + INTRA:          -8.708
REMARK INTER:                  -7.112
REMARK INTRA:                  -1.596
REMARK UNBOUND:                -1.264
REMARK SMILES CCCCCCCCCCCCCCCC(=O)[O-]
REMARK SMILES IDX 9 1 10 2 11 3 12 4 13 5 14 6 15 7 16 8 17 9 18 10 8 11 7 12
REMARK SMILES IDX 6 13 5 14 4 15 3 16 2 17 1 18
REMARK H PARENT
REMARK Flexibility Score: inf
ROOT
ATOM      1  C   UNL     1       9.794 -27.574  31.058  1.00  0.00     0.000 C 
ENDROOT
BRANCH   1   2
ATOM      2  C   UNL     1       8.529 -27.467  31.926  1.00  0.00     0.000 C 
BRANCH   2   3
ATOM      3  C   UNL     1       8.834 -27.603  33.428  1.00  0.00     0.000 C 
BRANCH   3   4
ATOM      4  C   UNL     1       8.463 -28.987  33.984  1.00  0.00     0.000 C 
BRANCH   4   5
ATOM      5  C   UNL     1       7.813 -29.897  32.930  1.00  0.00     0.000 C 
BRANCH   5   6
ATOM      6  C   UNL     1       8.343 -31.331  33.043  1.00  0.00     0.006 C 
BRANCH   6   7
ATOM      7  C   UNL     1       9.285 -31.477  34.241  1.00  0.00     0.053 C 
BRANCH   7   8
ATOM      8  C   UNL     1      10.312 -32.532  33.976  1.00  0.00     0.041 C 
ATOM      9  O   UNL     1      11.255 -32.719  34.791  1.00  0.00    -0.550 OA
ATOM     10  O   UNL     1      10.257 -33.277  32.805  1.00  0.00    -0.550 OA
ENDBRANCH   7   8
ENDBRANCH   6   7
ENDBRANCH   5   6
ENDBRANCH   4   5
ENDBRANCH   3   4
ENDBRANCH   2   3
ENDBRANCH   1   2
BRANCH   1  11
ATOM     11  C   UNL     1      10.818 -26.473  31.370  1.00  0.00     0.000 C 
BRANCH  11  12
ATOM     12  C   UNL     1      10.277 -25.091  30.976  1.00  0.00    -0.000 C 
BRANCH  12  13
ATOM     13  C   UNL     1      10.999 -24.513  29.740  1.00  0.00    -0.000 C 
BRANCH  13  14
ATOM     14  C   UNL     1      10.052 -24.163  28.580  1.00  0.00    -0.000 C 
BRANCH  14  15
ATOM     15  C   UNL     1      10.188 -25.122  27.385  1.00  0.00    -0.000 C 
BRANCH  15  16
ATOM     16  C   UNL     1       9.294 -26.371  27.531  1.00  0.00    -0.000 C 
BRANCH  16  17
ATOM     17  C   UNL     1      10.063 -27.698  27.422  1.00  0.00    -0.003 C 
ATOM     18  C   UNL     1      11.563 -27.542  27.667  1.00  0.00     0.004 C 
ENDBRANCH  16  17
ENDBRANCH  15  16
ENDBRANCH  14  15
ENDBRANCH  13  14
ENDBRANCH  12  13
ENDBRANCH  11  12
ENDBRANCH   1  11
TORSDOF 14
ENDMDL
MODEL 5
REMARK VINA RESULT:    -4.078      3.898      7.940
REMARK INTER + INTRA:          -8.679
REMARK INTER:                  -7.800
REMARK INTRA:                  -0.879
REMARK UNBOUND:                -1.264
REMARK SMILES CCCCCCCCCCCCCCCC(=O)[O-]
REMARK SMILES IDX 9 1 10 2 11 3 12 4 13 5 14 6 15 7 16 8 17 9 18 10 8 11 7 12
REMARK SMILES IDX 6 13 5 14 4 15 3 16 2 17 1 18
REMARK H PARENT
REMARK Flexibility Score: inf
ROOT
ATOM      1  C   UNL     1       9.423 -27.694  33.561  1.00  0.00     0.000 C 
ENDROOT
BRANCH   1   2
ATOM      2  C   UNL     1       8.645 -28.889  34.138  1.00  0.00     0.000 C 
BRANCH   2   3
ATOM      3  C   UNL     1       7.661 -29.494  33.121  1.00  0.00     0.000 C 
BRANCH   3   4
ATOM      4  C   UNL     1       8.312 -30.567  32.235  1.00  0.00     0.000 C 
BRANCH   4   5
ATOM      5  C   UNL     1       8.255 -31.970  32.859  1.00  0.00     0.000 C 
BRANCH   5   6
ATOM      6  C   UNL     1       9.662 -32.478  33.194  1.00  0.00     0.006 C 
BRANCH   6   7
ATOM      7  C   UNL     1       9.695 -33.137  34.575  1.00  0.00     0.053 C 
BRANCH   7   8
ATOM      8  C   UNL     1      10.558 -32.351  35.512  1.00  0.00     0.041 C 
ATOM      9  O   UNL     1      11.788 -32.606  35.606  1.00  0.00    -0.550 OA
ATOM     10  O   UNL     1       9.995 -31.370  36.318  1.00  0.00    -0.550 OA
ENDBRANCH   7   8
ENDBRANCH   6   7
ENDBRANCH   5   6
ENDBRANCH   4   5
ENDBRANCH   3   4
ENDBRANCH   2   3
ENDBRANCH   1   2
BRANCH   1  11
ATOM     11  C   UNL     1       8.631 -26.939  32.484  1.00  0.00     0.000 C 
BRANCH  11  12
ATOM     12  C   UNL     1       9.291 -25.591  32.158  1.00  0.00    -0.000 C 
BRANCH  12  13
ATOM     13  C   UNL     1      10.299 -25.702  30.994  1.00  0.00    -0.000 C 
BRANCH  13  14
ATOM     14  C   UNL     1      10.556 -24.369  30.271  1.00  0.00    -0.000 C 
BRANCH  14  15
ATOM     15  C   UNL     1       9.975 -24.339  28.847  1.00  0.00    -0.000 C 
BRANCH  15  16
ATOM     16  C   UNL     1       9.915 -25.743  28.209  1.00  0.00    -0.000 C 
BRANCH  16  17
ATOM     17  C   UNL     1       9.208 -25.770  26.843  1.00  0.00    -0.003 C 
ATOM     18  C   UNL     1       9.348 -24.461  26.070  1.00  0.00     0.004 C 
ENDBRANCH  16  17
ENDBRANCH  15  16
ENDBRANCH  14  15
ENDBRANCH  13  14
ENDBRANCH  12  13
ENDBRANCH  11  12
ENDBRANCH   1  11
TORSDOF 14
ENDMDL
MODEL 6
REMARK VINA RESULT:    -4.069      2.459      5.289
REMARK INTER + INTRA:          -8.663
REMARK INTER:                  -7.168
REMARK INTRA:                  -1.495
REMARK UNBOUND:                -1.264
REMARK SMILES CCCCCCCCCCCCCCCC(=O)[O-]
REMARK SMILES IDX 9 1 10 2 11 3 12 4 13 5 14 6 15 7 16 8 17 9 18 10 8 11 7 12
REMARK SMILES IDX 6 13 5 14 4 15 3 16 2 17 1 18
REMARK H PARENT
REMARK Flexibility Score: inf
ROOT
ATOM      1  C   UNL     1       8.808 -30.826  33.197  1.00  0.00     0.000 C 
ENDROOT
BRANCH   1   2
ATOM      2  C   UNL     1       7.659 -29.812  33.069  1.00  0.00     0.000 C 
BRANCH   2   3
ATOM      3  C   UNL     1       7.889 -28.555  33.926  1.00  0.00     0.000 C 
BRANCH   3   4
ATOM      4  C   UNL     1       9.144 -27.774  33.507  1.00  0.00     0.000 C 
BRANCH   4   5
ATOM      5  C   UNL     1       8.859 -26.729  32.417  1.00  0.00     0.000 C 
BRANCH   5   6
ATOM      6  C   UNL     1      10.086 -26.522  31.522  1.00  0.00     0.006 C 
BRANCH   6   7
ATOM      7  C   UNL     1      10.190 -25.066  31.060  1.00  0.00     0.053 C 
BRANCH   7   8
ATOM      8  C   UNL     1      10.422 -24.998  29.584  1.00  0.00     0.041 C 
ATOM      9  O   UNL     1      10.979 -25.957  28.984  1.00  0.00    -0.550 OA
ATOM     10  O   UNL     1      10.067 -23.857  28.876  1.00  0.00    -0.550 OA
ENDBRANCH   7   8
ENDBRANCH   6   7
ENDBRANCH   5   6
ENDBRANCH   4   5
ENDBRANCH   3   4
ENDBRANCH   2   3
ENDBRANCH   1   2
BRANCH   1  11
ATOM     11  C   UNL     1       8.402 -32.237  32.744  1.00  0.00     0.000 C 
BRANCH  11  12
ATOM     12  C   UNL     1       7.096 -32.200  31.937  1.00  0.00    -0.000 C 
BRANCH  12  13
ATOM     13  C   UNL     1       6.952 -33.423  31.005  1.00  0.00    -0.000 C 
BRANCH  13  14
ATOM     14  C   UNL     1       8.225 -33.740  30.202  1.00  0.00    -0.000 C 
BRANCH  14  15
ATOM     15  C   UNL     1       8.138 -33.284  28.736  1.00  0.00    -0.000 C 
BRANCH  15  16
ATOM     16  C   UNL     1       9.167 -32.184  28.402  1.00  0.00    -0.000 C 
BRANCH  16  17
ATOM     17  C   UNL     1      10.130 -31.868  29.559  1.00  0.00    -0.003 C 
ATOM     18  C   UNL     1      10.314 -30.370  29.793  1.00  0.00     0.004 C 
ENDBRANCH  16  17
ENDBRANCH  15  16
ENDBRANCH  14  15
ENDBRANCH  13  14
ENDBRANCH  12  13
ENDBRANCH  11  12
ENDBRANCH   1  11
TORSDOF 14
ENDMDL
MODEL 7
REMARK VINA RESULT:    -4.068      2.155      4.812
REMARK INTER + INTRA:          -8.661
REMARK INTER:                  -7.255
REMARK INTRA:                  -1.406
REMARK UNBOUND:                -1.264
REMARK SMILES CCCCCCCCCCCCCCCC(=O)[O-]
REMARK SMILES IDX 9 1 10 2 11 3 12 4 13 5 14 6 15 7 16 8 17 9 18 10 8 11 7 12
REMARK SMILES IDX 6 13 5 14 4 15 3 16 2 17 1 18
REMARK H PARENT
REMARK Flexibility Score: inf
ROOT
ATOM      1  C   UNL     1       8.200 -30.073  32.433  1.00  0.00     0.000 C 
ENDROOT
BRANCH   1   2
ATOM      2  C   UNL     1       8.602 -29.512  33.808  1.00  0.00     0.000 C 
BRANCH   2   3
ATOM      3  C   UNL     1       9.161 -28.081  33.717  1.00  0.00     0.000 C 
BRANCH   3   4
ATOM      4  C   UNL     1       8.441 -27.231  32.659  1.00  0.00     0.000 C 
BRANCH   4   5
ATOM      5  C   UNL     1       9.336 -26.128  32.074  1.00  0.00     0.000 C 
BRANCH   5   6
ATOM      6  C   UNL     1      10.571 -26.728  31.392  1.00  0.00     0.006 C 
BRANCH   6   7
ATOM      7  C   UNL     1      11.224 -25.716  30.446  1.00  0.00     0.053 C 
BRANCH   7   8
ATOM      8  C   UNL     1      10.310 -25.397  29.305  1.00  0.00     0.041 C 
ATOM      9  O   UNL     1       9.903 -26.314  28.543  1.00  0.00    -0.550 OA
ATOM     10  O   UNL     1       9.947 -24.080  29.053  1.00  0.00    -0.550 OA
ENDBRANCH   7   8
ENDBRANCH   6   7
ENDBRANCH   5   6
ENDBRANCH   4   5
ENDBRANCH   3   4
ENDBRANCH   2   3
ENDBRANCH   1   2
BRANCH   1  11
ATOM     11  C   UNL     1       7.438 -31.402  32.538  1.00  0.00     0.000 C 
BRANCH  11  12
ATOM     12  C   UNL     1       7.536 -32.198  31.228  1.00  0.00    -0.000 C 
BRANCH  12  13
ATOM     13  C   UNL     1       8.655 -33.261  31.274  1.00  0.00    -0.000 C 
BRANCH  13  14
ATOM     14  C   UNL     1       8.531 -34.238  32.455  1.00  0.00    -0.000 C 
BRANCH  14  15
ATOM     15  C   UNL     1       9.765 -34.230  33.372  1.00  0.00    -0.000 C 
BRANCH  15  16
ATOM     16  C   UNL     1       9.527 -33.427  34.668  1.00  0.00    -0.000 C 
BRANCH  16  17
ATOM     17  C   UNL     1      10.621 -32.386  34.961  1.00  0.00    -0.003 C 
ATOM     18  C   UNL     1      10.428 -31.676  36.299  1.00  0.00     0.004 C 
ENDBRANCH  16  17
ENDBRANCH  15  16
ENDBRANCH  14  15
ENDBRANCH  13  14
ENDBRANCH  12  13
ENDBRANCH  11  12
ENDBRANCH   1  11
TORSDOF 14
ENDMDL
MODEL 8
REMARK VINA RESULT:    -4.064      2.874      6.925
REMARK INTER + INTRA:          -8.654
REMARK INTER:                  -7.284
REMARK INTRA:                  -1.370
REMARK UNBOUND:                -1.264
REMARK SMILES CCCCCCCCCCCCCCCC(=O)[O-]
REMARK SMILES IDX 9 1 10 2 11 3 12 4 13 5 14 6 15 7 16 8 17 9 18 10 8 11 7 12
REMARK SMILES IDX 6 13 5 14 4 15 3 16 2 17 1 18
REMARK H PARENT
REMARK Flexibility Score: inf
ROOT
ATOM      1  C   UNL     1       9.229 -25.633  32.130  1.00  0.00     0.000 C 
ENDROOT
BRANCH   1   2
ATOM      2  C   UNL     1       8.557 -27.016  32.166  1.00  0.00     0.000 C 
BRANCH   2   3
ATOM      3  C   UNL     1       8.546 -27.628  33.578  1.00  0.00     0.000 C 
BRANCH   3   4
ATOM      4  C   UNL     1       7.792 -28.965  33.638  1.00  0.00     0.000 C 
BRANCH   4   5
ATOM      5  C   UNL     1       8.168 -29.913  32.488  1.00  0.00     0.000 C 
BRANCH   5   6
ATOM      6  C   UNL     1       7.991 -31.377  32.904  1.00  0.00     0.006 C 
BRANCH   6   7
ATOM      7  C   UNL     1       7.249 -32.170  31.826  1.00  0.00     0.053 C 
BRANCH   7   8
ATOM      8  C   UNL     1       8.120 -33.257  31.279  1.00  0.00     0.041 C 
ATOM      9  O   UNL     1       7.651 -34.097  30.466  1.00  0.00    -0.550 OA
ATOM     10  O   UNL     1       9.437 -33.371  31.704  1.00  0.00    -0.550 OA
ENDBRANCH   7   8
ENDBRANCH   6   7
ENDBRANCH   5   6
ENDBRANCH   4   5
ENDBRANCH   3   4
ENDBRANCH   2   3
ENDBRANCH   1   2
BRANCH   1  11
ATOM     11  C   UNL     1      10.230 -25.494  30.974  1.00  0.00     0.000 C 
BRANCH  11  12
ATOM     12  C   UNL     1      11.337 -26.554  31.074  1.00  0.00    -0.000 C 
BRANCH  12  13
ATOM     13  C   UNL     1      11.482 -27.369  29.770  1.00  0.00    -0.000 C 
BRANCH  13  14
ATOM     14  C   UNL     1      10.207 -27.393  28.911  1.00  0.00    -0.000 C 
BRANCH  14  15
ATOM     15  C   UNL     1      10.404 -26.749  27.528  1.00  0.00    -0.000 C 
BRANCH  15  16
ATOM     16  C   UNL     1       9.301 -25.722  27.197  1.00  0.00    -0.000 C 
BRANCH  16  17
ATOM     17  C   UNL     1       9.699 -24.268  27.501  1.00  0.00    -0.003 C 
ATOM     18  C   UNL     1      11.209 -24.072  27.613  1.00  0.00     0.004 C 
ENDBRANCH  16  17
ENDBRANCH  15  16
ENDBRANCH  14  15
ENDBRANCH  13  14
ENDBRANCH  12  13
ENDBRANCH  11  12
ENDBRANCH   1  11
TORSDOF 14
ENDMDL
MODEL 9
REMARK VINA RESULT:    -3.985      3.734      7.738
REMARK INTER + INTRA:          -8.510
REMARK INTER:                  -7.184
REMARK INTRA:                  -1.326
REMARK UNBOUND:                -1.264
REMARK SMILES CCCCCCCCCCCCCCCC(=O)[O-]
REMARK SMILES IDX 9 1 10 2 11 3 12 4 13 5 14 6 15 7 16 8 17 9 18 10 8 11 7 12
REMARK SMILES IDX 6 13 5 14 4 15 3 16 2 17 1 18
REMARK H PARENT
REMARK Flexibility Score: inf
ROOT
ATOM      1  C   UNL     1      10.042 -27.243  31.492  1.00  0.00     0.000 C 
ENDROOT
BRANCH   1   2
ATOM      2  C   UNL     1       8.660 -27.254  32.166  1.00  0.00     0.000 C 
BRANCH   2   3
ATOM      3  C   UNL     1       8.686 -27.930  33.548  1.00  0.00     0.000 C 
BRANCH   3   4
ATOM      4  C   UNL     1       7.746 -29.143  33.631  1.00  0.00     0.000 C 
BRANCH   4   5
ATOM      5  C   UNL     1       7.937 -30.125  32.466  1.00  0.00     0.000 C 
BRANCH   5   6
ATOM      6  C   UNL     1       8.095 -31.561  32.979  1.00  0.00     0.006 C 
BRANCH   6   7
ATOM      7  C   UNL     1       9.562 -31.879  33.282  1.00  0.00     0.053 C 
BRANCH   7   8
ATOM      8  C   UNL     1       9.761 -32.096  34.749  1.00  0.00     0.041 C 
ATOM      9  O   UNL     1       9.597 -33.241  35.249  1.00  0.00    -0.550 OA
ATOM     10  O   UNL     1      10.079 -31.025  35.574  1.00  0.00    -0.550 OA
ENDBRANCH   7   8
ENDBRANCH   6   7
ENDBRANCH   5   6
ENDBRANCH   4   5
ENDBRANCH   3   4
ENDBRANCH   2   3
ENDBRANCH   1   2
BRANCH   1  11
ATOM     11  C   UNL     1      10.082 -26.347  30.246  1.00  0.00     0.000 C 
BRANCH  11  12
ATOM     12  C   UNL     1      10.648 -24.960  30.584  1.00  0.00    -0.000 C 
BRANCH  12  13
ATOM     13  C   UNL     1      10.311 -23.913  29.500  1.00  0.00    -0.000 C 
BRANCH  13  14
ATOM     14  C   UNL     1      10.131 -24.514  28.096  1.00  0.00    -0.000 C 
BRANCH  14  15
ATOM     15  C   UNL     1      11.122 -23.943  27.068  1.00  0.00    -0.000 C 
BRANCH  15  16
ATOM     16  C   UNL     1      12.554 -24.479  27.274  1.00  0.00    -0.000 C 
BRANCH  16  17
ATOM     17  C   UNL     1      12.630 -26.011  27.390  1.00  0.00    -0.003 C 
ATOM     18  C   UNL     1      13.436 -26.480  28.600  1.00  0.00     0.004 C 
ENDBRANCH  16  17
ENDBRANCH  15  16
ENDBRANCH  14  15
ENDBRANCH  13  14
ENDBRANCH  12  13
ENDBRANCH  11  12
ENDBRANCH   1  11
TORSDOF 14
ENDMDL
