MODEL 1
REMARK VINA RESULT:    -6.174      0.000      0.000
REMARK INTER + INTRA:          -7.702
REMARK INTER:                  -7.437
REMARK INTRA:                  -0.266
REMARK UNBOUND:                -0.266
REMARK SMILES O=c1c(O)c(-c2ccc(O)c(O)c2)oc2cc(O)cc(O)c12
REMARK SMILES IDX 5 1 3 2 2 3 1 4 22 5 20 6 19 7 17 8 16 9 15 10 14 11 6 12
REMARK SMILES IDX 7 13 8 14 9 15 13 16 11 17 10 18 12 20 4 22 21 24 18 26
REMARK H PARENT 10 19 12 21 4 23 21 25 18 27
REMARK Flexibility Score: inf
ROOT
ATOM      1  C   UNL     1     107.184 103.254  96.949  1.00  0.00     0.180 A 
ATOM      2  C   UNL     1     106.761 102.658  98.150  1.00  0.00     0.208 A 
ATOM      3  C   UNL     1     105.992 103.413  99.050  1.00  0.00     0.238 A 
ATOM      4  O   UNL     1     105.571 102.857 100.099  1.00  0.00    -0.285 OA
ATOM      5  C   UNL     1     105.670 104.757  98.747  1.00  0.00     0.111 A 
ATOM      6  C   UNL     1     104.931 105.627  99.604  1.00  0.00     0.134 A 
ATOM      7  C   UNL     1     104.559 106.897  99.146  1.00  0.00     0.093 A 
ATOM      8  C   UNL     1     104.955 107.352  97.886  1.00  0.00     0.123 A 
ATOM      9  C   UNL     1     105.727 106.533  97.065  1.00  0.00     0.094 A 
ATOM     10  C   UNL     1     106.083 105.248  97.481  1.00  0.00     0.146 A 
ATOM     11  O   UNL     1     106.811 104.496  96.664  1.00  0.00    -0.452 OA
ENDROOT
BRANCH   1  12
ATOM     12  C   UNL     1     108.019 102.530  95.962  1.00  0.00     0.025 A 
ATOM     13  C   UNL     1     109.380 102.318  96.233  1.00  0.00     0.016 A 
ATOM     14  C   UNL     1     110.182 101.620  95.327  1.00  0.00     0.051 A 
ATOM     15  C   UNL     1     109.630 101.111  94.143  1.00  0.00     0.157 A 
ATOM     16  C   UNL     1     107.465 102.000  94.783  1.00  0.00     0.062 A 
ATOM     17  C   UNL     1     108.269 101.297  93.873  1.00  0.00     0.158 A 
BRANCH  15  18
ATOM     18  O   UNL     1     110.427 100.416  93.235  1.00  0.00    -0.504 OA
ATOM     19  H   UNL     1     111.420 100.288  93.391  1.00  0.00     0.293 HD
ENDBRANCH  15  18
BRANCH  17  20
ATOM     20  O   UNL     1     107.721 100.778  92.702  1.00  0.00    -0.504 OA
ATOM     21  H   UNL     1     106.946 100.124  92.724  1.00  0.00     0.293 HD
ENDBRANCH  17  20
ENDBRANCH   1  12
BRANCH   2  22
ATOM     22  O   UNL     1     107.071 101.322  98.420  1.00  0.00    -0.502 OA
ATOM     23  H   UNL     1     108.016 101.011  98.611  1.00  0.00     0.293 HD
ENDBRANCH   2  22
BRANCH   6  24
ATOM     24  O   UNL     1     104.566 105.305 100.915  1.00  0.00    -0.507 OA
ATOM     25  H   UNL     1     103.695 104.870 101.178  1.00  0.00     0.293 HD
ENDBRANCH   6  24
BRANCH   8  26
ATOM     26  O   UNL     1     104.594 108.623  97.443  1.00  0.00    -0.508 OA
ATOM     27  H   UNL     1     104.007 108.753  96.627  1.00  0.00     0.293 HD
ENDBRANCH   8  26
TORSDOF 6
ENDMDL
MODEL 2
REMARK VINA RESULT:    -6.085      4.913      8.411
REMARK INTER + INTRA:          -7.595
REMARK INTER:                  -7.772
REMARK INTRA:                   0.177
REMARK UNBOUND:                -0.266
REMARK SMILES O=c1c(O)c(-c2ccc(O)c(O)c2)oc2cc(O)cc(O)c12
REMARK SMILES IDX 5 1 3 2 2 3 1 4 22 5 20 6 19 7 17 8 16 9 15 10 14 11 6 12
REMARK SMILES IDX 7 13 8 14 9 15 13 16 11 17 10 18 12 20 4 22 21 24 18 26
REMARK H PARENT 10 19 12 21 4 23 21 25 18 27
REMARK Flexibility Score: inf
ROOT
ATOM      1  C   UNL     1     105.518 110.036  95.797  1.00  0.00     0.180 A 
ATOM      2  C   UNL     1     106.480 110.386  94.833  1.00  0.00     0.208 A 
ATOM      3  C   UNL     1     106.413 111.655  94.234  1.00  0.00     0.238 A 
ATOM      4  O   UNL     1     107.309 111.983  93.412  1.00  0.00    -0.285 OA
ATOM      5  C   UNL     1     105.379 112.551  94.594  1.00  0.00     0.111 A 
ATOM      6  C   UNL     1     105.191 113.845  94.023  1.00  0.00     0.134 A 
ATOM      7  C   UNL     1     104.212 114.697  94.547  1.00  0.00     0.093 A 
ATOM      8  C   UNL     1     103.370 114.276  95.580  1.00  0.00     0.123 A 
ATOM      9  C   UNL     1     103.506 112.993  96.104  1.00  0.00     0.094 A 
ATOM     10  C   UNL     1     104.497 112.133  95.625  1.00  0.00     0.146 A 
ATOM     11  O   UNL     1     104.599 110.923  96.160  1.00  0.00    -0.452 OA
ENDROOT
BRANCH   1  12
ATOM     12  C   UNL     1     105.508 108.708  96.452  1.00  0.00     0.025 A 
ATOM     13  C   UNL     1     105.815 107.565  95.699  1.00  0.00     0.016 A 
ATOM     14  C   UNL     1     105.831 106.304  96.301  1.00  0.00     0.051 A 
ATOM     15  C   UNL     1     105.556 106.172  97.669  1.00  0.00     0.157 A 
ATOM     16  C   UNL     1     105.252 108.573  97.829  1.00  0.00     0.062 A 
ATOM     17  C   UNL     1     105.270 107.308  98.435  1.00  0.00     0.158 A 
BRANCH  15  18
ATOM     18  O   UNL     1     105.569 104.915  98.273  1.00  0.00    -0.504 OA
ATOM     19  H   UNL     1     104.859 104.641  98.942  1.00  0.00     0.293 HD
ENDBRANCH  15  18
BRANCH  17  20
ATOM     20  O   UNL     1     105.010 107.174  99.797  1.00  0.00    -0.504 OA
ATOM     21  H   UNL     1     104.777 107.975 100.373  1.00  0.00     0.293 HD
ENDBRANCH  17  20
ENDBRANCH   1  12
BRANCH   2  22
ATOM     22  O   UNL     1     107.507 109.495  94.507  1.00  0.00    -0.502 OA
ATOM     23  H   UNL     1     108.314 109.771  93.960  1.00  0.00     0.293 HD
ENDBRANCH   2  22
BRANCH   6  24
ATOM     24  O   UNL     1     105.917 114.327  92.929  1.00  0.00    -0.507 OA
ATOM     25  H   UNL     1     106.530 113.769  92.354  1.00  0.00     0.293 HD
ENDBRANCH   6  24
BRANCH   8  26
ATOM     26  O   UNL     1     102.388 115.124  96.086  1.00  0.00    -0.508 OA
ATOM     27  H   UNL     1     102.540 115.670  96.927  1.00  0.00     0.293 HD
ENDBRANCH   8  26
TORSDOF 6
ENDMDL
MODEL 3
REMARK VINA RESULT:    -6.063      2.001      7.260
REMARK INTER + INTRA:          -7.569
REMARK INTER:                  -7.254
REMARK INTRA:                  -0.315
REMARK UNBOUND:                -0.266
REMARK SMILES O=c1c(O)c(-c2ccc(O)c(O)c2)oc2cc(O)cc(O)c12
REMARK SMILES IDX 5 1 3 2 2 3 1 4 22 5 20 6 19 7 17 8 16 9 15 10 14 11 6 12
REMARK SMILES IDX 7 13 8 14 9 15 13 16 11 17 10 18 12 20 4 22 21 24 18 26
REMARK H PARENT 10 19 12 21 4 23 21 25 18 27
REMARK Flexibility Score: inf
ROOT
ATOM      1  C   UNL     1     106.191 103.313  97.088  1.00  0.00     0.180 A 
ATOM      2  C   UNL     1     106.477 103.366  95.712  1.00  0.00     0.208 A 
ATOM      3  C   UNL     1     107.378 102.436  95.169  1.00  0.00     0.238 A 
ATOM      4  O   UNL     1     107.589 102.453  93.928  1.00  0.00    -0.285 OA
ATOM      5  C   UNL     1     107.992 101.476  96.008  1.00  0.00     0.111 A 
ATOM      6  C   UNL     1     108.950 100.512  95.573  1.00  0.00     0.134 A 
ATOM      7  C   UNL     1     109.394  99.528  96.464  1.00  0.00     0.093 A 
ATOM      8  C   UNL     1     108.964  99.512  97.793  1.00  0.00     0.123 A 
ATOM      9  C   UNL     1     108.075 100.485  98.244  1.00  0.00     0.094 A 
ATOM     10  C   UNL     1     107.587 101.459  97.369  1.00  0.00     0.146 A 
ATOM     11  O   UNL     1     106.733 102.361  97.837  1.00  0.00    -0.452 OA
ENDROOT
BRANCH   1  12
ATOM     12  C   UNL     1     105.272 104.276  97.738  1.00  0.00     0.025 A 
ATOM     13  C   UNL     1     103.892 104.016  97.746  1.00  0.00     0.016 A 
ATOM     14  C   UNL     1     103.009 104.900  98.371  1.00  0.00     0.051 A 
ATOM     15  C   UNL     1     103.495 106.048  99.010  1.00  0.00     0.157 A 
ATOM     16  C   UNL     1     105.756 105.420  98.398  1.00  0.00     0.062 A 
ATOM     17  C   UNL     1     104.871 106.306  99.028  1.00  0.00     0.158 A 
BRANCH  15  18
ATOM     18  O   UNL     1     102.616 106.934  99.634  1.00  0.00    -0.504 OA
ATOM     19  H   UNL     1     101.668 107.062  99.301  1.00  0.00     0.293 HD
ENDBRANCH  15  18
BRANCH  17  20
ATOM     20  O   UNL     1     105.351 107.442  99.677  1.00  0.00    -0.504 OA
ATOM     21  H   UNL     1     104.724 108.159 100.023  1.00  0.00     0.293 HD
ENDBRANCH  17  20
ENDBRANCH   1  12
BRANCH   2  22
ATOM     22  O   UNL     1     105.843 104.307  94.897  1.00  0.00    -0.502 OA
ATOM     23  H   UNL     1     106.287 104.705  94.077  1.00  0.00     0.293 HD
ENDBRANCH   2  22
BRANCH   6  24
ATOM     24  O   UNL     1     109.513 100.495  94.293  1.00  0.00    -0.507 OA
ATOM     25  H   UNL     1     110.423 100.864  94.060  1.00  0.00     0.293 HD
ENDBRANCH   6  24
BRANCH   8  26
ATOM     26  O   UNL     1     109.423  98.539  98.678  1.00  0.00    -0.508 OA
ATOM     27  H   UNL     1     108.849  98.206  99.444  1.00  0.00     0.293 HD
ENDBRANCH   8  26
TORSDOF 6
ENDMDL
MODEL 4
REMARK VINA RESULT:    -6.061     10.300     12.802
REMARK INTER + INTRA:          -7.566
REMARK INTER:                  -7.285
REMARK INTRA:                  -0.281
REMARK UNBOUND:                -0.266
REMARK SMILES O=c1c(O)c(-c2ccc(O)c(O)c2)oc2cc(O)cc(O)c12
REMARK SMILES IDX 5 1 3 2 2 3 1 4 22 5 20 6 19 7 17 8 16 9 15 10 14 11 6 12
REMARK SMILES IDX 7 13 8 14 9 15 13 16 11 17 10 18 12 20 4 22 21 24 18 26
REMARK H PARENT 10 19 12 21 4 23 21 25 18 27
REMARK Flexibility Score: inf
ROOT
ATOM      1  C   UNL     1     110.770 113.208  93.022  1.00  0.00     0.180 A 
ATOM      2  C   UNL     1     111.569 113.024  94.164  1.00  0.00     0.208 A 
ATOM      3  C   UNL     1     112.930 112.721  94.000  1.00  0.00     0.238 A 
ATOM      4  O   UNL     1     113.652 112.611  95.026  1.00  0.00    -0.285 OA
ATOM      5  C   UNL     1     113.471 112.588  92.699  1.00  0.00     0.111 A 
ATOM      6  C   UNL     1     114.827 112.243  92.416  1.00  0.00     0.134 A 
ATOM      7  C   UNL     1     115.284 112.268  91.093  1.00  0.00     0.093 A 
ATOM      8  C   UNL     1     114.418 112.562  90.037  1.00  0.00     0.123 A 
ATOM      9  C   UNL     1     113.078 112.842  90.298  1.00  0.00     0.094 A 
ATOM     10  C   UNL     1     112.601 112.860  91.611  1.00  0.00     0.146 A 
ATOM     11  O   UNL     1     111.321 113.141  91.816  1.00  0.00    -0.452 OA
ENDROOT
BRANCH   1  12
ATOM     12  C   UNL     1     109.322 113.505  93.114  1.00  0.00     0.025 A 
ATOM     13  C   UNL     1     108.902 114.816  93.391  1.00  0.00     0.016 A 
ATOM     14  C   UNL     1     107.541 115.123  93.462  1.00  0.00     0.051 A 
ATOM     15  C   UNL     1     106.580 114.127  93.242  1.00  0.00     0.157 A 
ATOM     16  C   UNL     1     108.354 112.513  92.874  1.00  0.00     0.062 A 
ATOM     17  C   UNL     1     106.987 112.821  92.943  1.00  0.00     0.158 A 
BRANCH  15  18
ATOM     18  O   UNL     1     105.221 114.430  93.314  1.00  0.00    -0.504 OA
ATOM     19  H   UNL     1     104.814 115.175  92.762  1.00  0.00     0.293 HD
ENDBRANCH  15  18
BRANCH  17  20
ATOM     20  O   UNL     1     106.029 111.837  92.711  1.00  0.00    -0.504 OA
ATOM     21  H   UNL     1     105.983 110.999  93.279  1.00  0.00     0.293 HD
ENDBRANCH  17  20
ENDBRANCH   1  12
BRANCH   2  22
ATOM     22  O   UNL     1     111.020 113.181  95.440  1.00  0.00    -0.502 OA
ATOM     23  H   UNL     1     110.069 113.497  95.588  1.00  0.00     0.293 HD
ENDBRANCH   2  22
BRANCH   6  24
ATOM     24  O   UNL     1     115.750 111.845  93.388  1.00  0.00    -0.507 OA
ATOM     25  H   UNL     1     116.378 111.061  93.297  1.00  0.00     0.293 HD
ENDBRANCH   6  24
BRANCH   8  26
ATOM     26  O   UNL     1     114.877 112.570  88.721  1.00  0.00    -0.508 OA
ATOM     27  H   UNL     1     114.414 113.112  88.001  1.00  0.00     0.293 HD
ENDBRANCH   8  26
TORSDOF 6
ENDMDL
MODEL 5
REMARK VINA RESULT:    -5.999      4.225      5.582
REMARK INTER + INTRA:          -7.492
REMARK INTER:                  -7.679
REMARK INTRA:                   0.187
REMARK UNBOUND:                -0.266
REMARK SMILES O=c1c(O)c(-c2ccc(O)c(O)c2)oc2cc(O)cc(O)c12
REMARK SMILES IDX 5 1 3 2 2 3 1 4 22 5 20 6 19 7 17 8 16 9 15 10 14 11 6 12
REMARK SMILES IDX 7 13 8 14 9 15 13 16 11 17 10 18 12 20 4 22 21 24 18 26
REMARK H PARENT 10 19 12 21 4 23 21 25 18 27
REMARK Flexibility Score: inf
ROOT
ATOM      1  C   UNL     1     110.354 103.198  97.398  1.00  0.00     0.180 A 
ATOM      2  C   UNL     1     109.818 103.283  98.695  1.00  0.00     0.208 A 
ATOM      3  C   UNL     1     110.540 103.965  99.686  1.00  0.00     0.238 A 
ATOM      4  O   UNL     1     110.029 104.084 100.831  1.00  0.00    -0.285 OA
ATOM      5  C   UNL     1     111.795 104.541  99.375  1.00  0.00     0.111 A 
ATOM      6  C   UNL     1     112.630 105.220 100.311  1.00  0.00     0.134 A 
ATOM      7  C   UNL     1     113.790 105.863  99.863  1.00  0.00     0.093 A 
ATOM      8  C   UNL     1     114.179 105.795  98.523  1.00  0.00     0.123 A 
ATOM      9  C   UNL     1     113.402 105.084  97.612  1.00  0.00     0.094 A 
ATOM     10  C   UNL     1     112.220 104.462  98.023  1.00  0.00     0.146 A 
ATOM     11  O   UNL     1     111.503 103.804  97.120  1.00  0.00    -0.452 OA
ENDROOT
BRANCH   1  12
ATOM     12  C   UNL     1     109.665 102.473  96.306  1.00  0.00     0.025 A 
ATOM     13  C   UNL     1     108.273 102.593  96.170  1.00  0.00     0.016 A 
ATOM     14  C   UNL     1     107.603 101.935  95.135  1.00  0.00     0.051 A 
ATOM     15  C   UNL     1     108.319 101.160  94.212  1.00  0.00     0.157 A 
ATOM     16  C   UNL     1     110.381 101.711  95.366  1.00  0.00     0.062 A 
ATOM     17  C   UNL     1     109.710 101.052  94.325  1.00  0.00     0.158 A 
BRANCH  15  18
ATOM     18  O   UNL     1     107.655 100.500  93.179  1.00  0.00    -0.504 OA
ATOM     19  H   UNL     1     108.067  99.704  92.707  1.00  0.00     0.293 HD
ENDBRANCH  15  18
BRANCH  17  20
ATOM     20  O   UNL     1     110.420 100.292  93.397  1.00  0.00    -0.504 OA
ATOM     21  H   UNL     1     110.243 100.370  92.402  1.00  0.00     0.293 HD
ENDBRANCH  17  20
ENDBRANCH   1  12
BRANCH   2  22
ATOM     22  O   UNL     1     108.567 102.727  98.976  1.00  0.00    -0.502 OA
ATOM     23  H   UNL     1     107.701 103.146  98.658  1.00  0.00     0.293 HD
ENDBRANCH   2  22
BRANCH   6  24
ATOM     24  O   UNL     1     112.382 105.269 101.686  1.00  0.00    -0.507 OA
ATOM     25  H   UNL     1     112.245 106.116 102.217  1.00  0.00     0.293 HD
ENDBRANCH   6  24
BRANCH   8  26
ATOM     26  O   UNL     1     115.344 106.424  98.088  1.00  0.00    -0.508 OA
ATOM     27  H   UNL     1     115.671 106.332  97.133  1.00  0.00     0.293 HD
ENDBRANCH   8  26
TORSDOF 6
ENDMDL
MODEL 6
REMARK VINA RESULT:    -5.963      4.886      7.748
REMARK INTER + INTRA:          -7.449
REMARK INTER:                  -7.130
REMARK INTRA:                  -0.319
REMARK UNBOUND:                -0.266
REMARK SMILES O=c1c(O)c(-c2ccc(O)c(O)c2)oc2cc(O)cc(O)c12
REMARK SMILES IDX 5 1 3 2 2 3 1 4 22 5 20 6 19 7 17 8 16 9 15 10 14 11 6 12
REMARK SMILES IDX 7 13 8 14 9 15 13 16 11 17 10 18 12 20 4 22 21 24 18 26
REMARK H PARENT 10 19 12 21 4 23 21 25 18 27
REMARK Flexibility Score: inf
ROOT
ATOM      1  C   UNL     1     110.424 104.385 100.194  1.00  0.00     0.180 A 
ATOM      2  C   UNL     1     111.317 103.306 100.076  1.00  0.00     0.208 A 
ATOM      3  C   UNL     1     112.238 103.298  99.017  1.00  0.00     0.238 A 
ATOM      4  O   UNL     1     113.071 102.356  98.948  1.00  0.00    -0.285 OA
ATOM      5  C   UNL     1     112.246 104.358  98.080  1.00  0.00     0.111 A 
ATOM      6  C   UNL     1     113.109 104.433  96.946  1.00  0.00     0.134 A 
ATOM      7  C   UNL     1     113.118 105.592  96.161  1.00  0.00     0.093 A 
ATOM      8  C   UNL     1     112.249 106.652  96.430  1.00  0.00     0.123 A 
ATOM      9  C   UNL     1     111.361 106.564  97.500  1.00  0.00     0.094 A 
ATOM     10  C   UNL     1     111.353 105.436  98.323  1.00  0.00     0.146 A 
ATOM     11  O   UNL     1     110.498 105.397  99.337  1.00  0.00    -0.452 OA
ENDROOT
BRANCH   1  12
ATOM     12  C   UNL     1     109.406 104.452 101.268  1.00  0.00     0.025 A 
ATOM     13  C   UNL     1     109.747 105.019 102.507  1.00  0.00     0.016 A 
ATOM     14  C   UNL     1     108.798 105.111 103.528  1.00  0.00     0.051 A 
ATOM     15  C   UNL     1     107.490 104.652 103.319  1.00  0.00     0.157 A 
ATOM     16  C   UNL     1     108.088 104.011 101.057  1.00  0.00     0.062 A 
ATOM     17  C   UNL     1     107.133 104.106 102.081  1.00  0.00     0.158 A 
BRANCH  15  18
ATOM     18  O   UNL     1     106.541 104.740 104.337  1.00  0.00    -0.504 OA
ATOM     19  H   UNL     1     106.476 104.038 105.064  1.00  0.00     0.293 HD
ENDBRANCH  15  18
BRANCH  17  20
ATOM     20  O   UNL     1     105.829 103.664 101.873  1.00  0.00    -0.504 OA
ATOM     21  H   UNL     1     105.606 102.676 101.823  1.00  0.00     0.293 HD
ENDBRANCH  17  20
ENDBRANCH   1  12
BRANCH   2  22
ATOM     22  O   UNL     1     111.308 102.279 101.024  1.00  0.00    -0.502 OA
ATOM     23  H   UNL     1     111.635 101.343 100.816  1.00  0.00     0.293 HD
ENDBRANCH   2  22
BRANCH   6  24
ATOM     24  O   UNL     1     113.948 103.394  96.535  1.00  0.00    -0.507 OA
ATOM     25  H   UNL     1     114.505 103.402  95.694  1.00  0.00     0.293 HD
ENDBRANCH   6  24
BRANCH   8  26
ATOM     26  O   UNL     1     112.254 107.796  95.634  1.00  0.00    -0.508 OA
ATOM     27  H   UNL     1     112.733 108.641  95.923  1.00  0.00     0.293 HD
ENDBRANCH   8  26
TORSDOF 6
ENDMDL
MODEL 7
REMARK VINA RESULT:    -5.920      4.529      7.261
REMARK INTER + INTRA:          -7.396
REMARK INTER:                  -7.171
REMARK INTRA:                  -0.226
REMARK UNBOUND:                -0.266
REMARK SMILES O=c1c(O)c(-c2ccc(O)c(O)c2)oc2cc(O)cc(O)c12
REMARK SMILES IDX 5 1 3 2 2 3 1 4 22 5 20 6 19 7 17 8 16 9 15 10 14 11 6 12
REMARK SMILES IDX 7 13 8 14 9 15 13 16 11 17 10 18 12 20 4 22 21 24 18 26
REMARK H PARENT 10 19 12 21 4 23 21 25 18 27
REMARK Flexibility Score: inf
ROOT
ATOM      1  C   UNL     1     105.833 109.240  95.651  1.00  0.00     0.180 A 
ATOM      2  C   UNL     1     104.706 109.863  96.217  1.00  0.00     0.208 A 
ATOM      3  C   UNL     1     104.448 111.208  95.909  1.00  0.00     0.238 A 
ATOM      4  O   UNL     1     103.408 111.745  96.376  1.00  0.00    -0.285 OA
ATOM      5  C   UNL     1     105.324 111.918  95.055  1.00  0.00     0.111 A 
ATOM      6  C   UNL     1     105.181 113.295  94.707  1.00  0.00     0.134 A 
ATOM      7  C   UNL     1     106.033 113.858  93.750  1.00  0.00     0.093 A 
ATOM      8  C   UNL     1     107.065 113.112  93.176  1.00  0.00     0.123 A 
ATOM      9  C   UNL     1     107.251 111.783  93.552  1.00  0.00     0.094 A 
ATOM     10  C   UNL     1     106.394 111.183  94.478  1.00  0.00     0.146 A 
ATOM     11  O   UNL     1     106.600 109.913  94.801  1.00  0.00    -0.452 OA
ENDROOT
BRANCH   1  12
ATOM     12  C   UNL     1     106.186 107.832  95.948  1.00  0.00     0.025 A 
ATOM     13  C   UNL     1     106.659 107.495  97.226  1.00  0.00     0.016 A 
ATOM     14  C   UNL     1     106.979 106.170  97.535  1.00  0.00     0.051 A 
ATOM     15  C   UNL     1     106.815 105.162  96.575  1.00  0.00     0.157 A 
ATOM     16  C   UNL     1     106.004 106.814  94.995  1.00  0.00     0.062 A 
ATOM     17  C   UNL     1     106.322 105.484  95.305  1.00  0.00     0.158 A 
BRANCH  15  18
ATOM     18  O   UNL     1     107.135 103.839  96.879  1.00  0.00    -0.504 OA
ATOM     19  H   UNL     1     107.718 103.281  96.267  1.00  0.00     0.293 HD
ENDBRANCH  15  18
BRANCH  17  20
ATOM     20  O   UNL     1     106.148 104.477  94.358  1.00  0.00    -0.504 OA
ATOM     21  H   UNL     1     106.625 103.587  94.437  1.00  0.00     0.293 HD
ENDBRANCH  17  20
ENDBRANCH   1  12
BRANCH   2  22
ATOM     22  O   UNL     1     103.841 109.139  97.041  1.00  0.00    -0.502 OA
ATOM     23  H   UNL     1     103.663 108.150  96.909  1.00  0.00     0.293 HD
ENDBRANCH   2  22
BRANCH   6  24
ATOM     24  O   UNL     1     104.243 114.152  95.290  1.00  0.00    -0.507 OA
ATOM     25  H   UNL     1     103.854 114.037  96.214  1.00  0.00     0.293 HD
ENDBRANCH   6  24
BRANCH   8  26
ATOM     26  O   UNL     1     107.919 113.684  92.236  1.00  0.00    -0.508 OA
ATOM     27  H   UNL     1     108.709 114.255  92.515  1.00  0.00     0.293 HD
ENDBRANCH   8  26
TORSDOF 6
ENDMDL
MODEL 8
REMARK VINA RESULT:    -5.863      4.179      7.220
REMARK INTER + INTRA:          -7.328
REMARK INTER:                  -7.040
REMARK INTRA:                  -0.288
REMARK UNBOUND:                -0.266
REMARK SMILES O=c1c(O)c(-c2ccc(O)c(O)c2)oc2cc(O)cc(O)c12
REMARK SMILES IDX 5 1 3 2 2 3 1 4 22 5 20 6 19 7 17 8 16 9 15 10 14 11 6 12
REMARK SMILES IDX 7 13 8 14 9 15 13 16 11 17 10 18 12 20 4 22 21 24 18 26
REMARK H PARENT 10 19 12 21 4 23 21 25 18 27
REMARK Flexibility Score: inf
ROOT
ATOM      1  C   UNL     1     106.691 106.961  97.098  1.00  0.00     0.180 A 
ATOM      2  C   UNL     1     106.712 107.942  96.091  1.00  0.00     0.208 A 
ATOM      3  C   UNL     1     107.946 108.481  95.693  1.00  0.00     0.238 A 
ATOM      4  O   UNL     1     107.964 109.320  94.753  1.00  0.00    -0.285 OA
ATOM      5  C   UNL     1     109.140 108.046  96.315  1.00  0.00     0.111 A 
ATOM      6  C   UNL     1     110.441 108.552  96.019  1.00  0.00     0.134 A 
ATOM      7  C   UNL     1     111.564 107.956  96.604  1.00  0.00     0.093 A 
ATOM      8  C   UNL     1     111.430 106.914  97.524  1.00  0.00     0.123 A 
ATOM      9  C   UNL     1     110.161 106.452  97.865  1.00  0.00     0.094 A 
ATOM     10  C   UNL     1     109.023 107.003  97.272  1.00  0.00     0.146 A 
ATOM     11  O   UNL     1     107.833 106.526  97.617  1.00  0.00    -0.452 OA
ENDROOT
BRANCH   1  12
ATOM     12  C   UNL     1     105.428 106.364  97.589  1.00  0.00     0.025 A 
ATOM     13  C   UNL     1     105.097 105.050  97.222  1.00  0.00     0.016 A 
ATOM     14  C   UNL     1     103.920 104.459  97.690  1.00  0.00     0.051 A 
ATOM     15  C   UNL     1     103.066 105.169  98.544  1.00  0.00     0.157 A 
ATOM     16  C   UNL     1     104.577 107.065  98.462  1.00  0.00     0.062 A 
ATOM     17  C   UNL     1     103.397 106.472  98.935  1.00  0.00     0.158 A 
BRANCH  15  18
ATOM     18  O   UNL     1     101.890 104.584  99.012  1.00  0.00    -0.504 OA
ATOM     19  H   UNL     1     101.838 103.594  99.223  1.00  0.00     0.293 HD
ENDBRANCH  15  18
BRANCH  17  20
ATOM     20  O   UNL     1     102.552 107.170  99.795  1.00  0.00    -0.504 OA
ATOM     21  H   UNL     1     102.279 108.128  99.608  1.00  0.00     0.293 HD
ENDBRANCH  17  20
ENDBRANCH   1  12
BRANCH   2  22
ATOM     22  O   UNL     1     105.524 108.342  95.473  1.00  0.00    -0.502 OA
ATOM     23  H   UNL     1     105.380 109.284  95.130  1.00  0.00     0.293 HD
ENDBRANCH   2  22
BRANCH   6  24
ATOM     24  O   UNL     1     110.679 109.649  95.186  1.00  0.00    -0.507 OA
ATOM     25  H   UNL     1     111.513 109.781  94.633  1.00  0.00     0.293 HD
ENDBRANCH   6  24
BRANCH   8  26
ATOM     26  O   UNL     1     112.552 106.336  98.114  1.00  0.00    -0.508 OA
ATOM     27  H   UNL     1     113.209 105.784  97.575  1.00  0.00     0.293 HD
ENDBRANCH   8  26
TORSDOF 6
ENDMDL
MODEL 9
REMARK VINA RESULT:    -5.853      1.676      3.077
REMARK INTER + INTRA:          -7.316
REMARK INTER:                  -6.982
REMARK INTRA:                  -0.335
REMARK UNBOUND:                -0.266
REMARK SMILES O=c1c(O)c(-c2ccc(O)c(O)c2)oc2cc(O)cc(O)c12
REMARK SMILES IDX 5 1 3 2 2 3 1 4 22 5 20 6 19 7 17 8 16 9 15 10 14 11 6 12
REMARK SMILES IDX 7 13 8 14 9 15 13 16 11 17 10 18 12 20 4 22 21 24 18 26
REMARK H PARENT 10 19 12 21 4 23 21 25 18 27
REMARK Flexibility Score: inf
ROOT
ATOM      1  C   UNL     1     106.282 103.765  96.987  1.00  0.00     0.180 A 
ATOM      2  C   UNL     1     106.154 105.151  96.786  1.00  0.00     0.208 A 
ATOM      3  C   UNL     1     105.192 105.859  97.525  1.00  0.00     0.238 A 
ATOM      4  O   UNL     1     105.119 107.108  97.381  1.00  0.00    -0.285 OA
ATOM      5  C   UNL     1     104.361 105.172  98.442  1.00  0.00     0.111 A 
ATOM      6  C   UNL     1     103.327 105.782  99.214  1.00  0.00     0.134 A 
ATOM      7  C   UNL     1     102.655 105.031 100.185  1.00  0.00     0.093 A 
ATOM      8  C   UNL     1     102.934 103.674 100.367  1.00  0.00     0.123 A 
ATOM      9  C   UNL     1     103.901 103.054  99.577  1.00  0.00     0.094 A 
ATOM     10  C   UNL     1     104.613 103.787  98.625  1.00  0.00     0.146 A 
ATOM     11  O   UNL     1     105.532 103.160  97.901  1.00  0.00    -0.452 OA
ENDROOT
BRANCH   1  12
ATOM     12  C   UNL     1     107.255 102.946  96.227  1.00  0.00     0.025 A 
ATOM     13  C   UNL     1     108.524 102.700  96.773  1.00  0.00     0.016 A 
ATOM     14  C   UNL     1     109.451 101.913  96.083  1.00  0.00     0.051 A 
ATOM     15  C   UNL     1     109.114 101.349  94.845  1.00  0.00     0.157 A 
ATOM     16  C   UNL     1     106.915 102.362  94.994  1.00  0.00     0.062 A 
ATOM     17  C   UNL     1     107.843 101.570  94.302  1.00  0.00     0.158 A 
BRANCH  15  18
ATOM     18  O   UNL     1     110.036 100.565  94.152  1.00  0.00    -0.504 OA
ATOM     19  H   UNL     1     110.817 100.979  93.657  1.00  0.00     0.293 HD
ENDBRANCH  15  18
BRANCH  17  20
ATOM     20  O   UNL     1     107.507 100.996  93.077  1.00  0.00    -0.504 OA
ATOM     21  H   UNL     1     107.832 101.389  92.201  1.00  0.00     0.293 HD
ENDBRANCH  17  20
ENDBRANCH   1  12
BRANCH   2  22
ATOM     22  O   UNL     1     106.999 105.814  95.892  1.00  0.00    -0.502 OA
ATOM     23  H   UNL     1     108.008 105.782  95.972  1.00  0.00     0.293 HD
ENDBRANCH   2  22
BRANCH   6  24
ATOM     24  O   UNL     1     102.907 107.105  99.047  1.00  0.00    -0.507 OA
ATOM     25  H   UNL     1     101.980 107.382  98.761  1.00  0.00     0.293 HD
ENDBRANCH   6  24
BRANCH   8  26
ATOM     26  O   UNL     1     102.250 102.929 101.325  1.00  0.00    -0.508 OA
ATOM     27  H   UNL     1     101.852 103.363 102.149  1.00  0.00     0.293 HD
ENDBRANCH   8  26
TORSDOF 6
ENDMDL
