MODEL 1
REMARK VINA RESULT:    -5.307      0.000      0.000
REMARK INTER + INTRA:          -6.522
REMARK INTER:                  -6.238
REMARK INTRA:                  -0.284
REMARK UNBOUND:                -0.284
REMARK SMILES O=c1c(O)c(-c2ccc(O)cc2)oc2cc(O)cc(O)c12
REMARK SMILES IDX 5 1 3 2 2 3 1 4 21 5 19 6 18 7 16 8 15 9 14 10 13 11 6 12
REMARK SMILES IDX 7 13 8 14 9 15 12 16 11 17 10 18 4 20 20 22 17 24
REMARK H PARENT 10 19 4 21 20 23 17 25
REMARK Flexibility Score: inf
ROOT
ATOM      1  C   UNL     1     141.880 145.587 136.611  1.00  0.00     0.180 A 
ATOM      2  C   UNL     1     140.658 146.174 136.236  1.00  0.00     0.208 A 
ATOM      3  C   UNL     1     140.510 147.566 136.344  1.00  0.00     0.238 A 
ATOM      4  O   UNL     1     139.434 148.091 135.956  1.00  0.00    -0.285 OA
ATOM      5  C   UNL     1     141.578 148.351 136.841  1.00  0.00     0.111 A 
ATOM      6  C   UNL     1     141.525 149.765 137.031  1.00  0.00     0.134 A 
ATOM      7  C   UNL     1     142.683 150.456 137.405  1.00  0.00     0.093 A 
ATOM      8  C   UNL     1     143.877 149.777 137.659  1.00  0.00     0.123 A 
ATOM      9  C   UNL     1     143.923 148.390 137.533  1.00  0.00     0.094 A 
ATOM     10  C   UNL     1     142.794 147.677 137.127  1.00  0.00     0.146 A 
ATOM     11  O   UNL     1     142.884 146.357 137.010  1.00  0.00    -0.452 OA
ENDROOT
BRANCH   1  12
ATOM     12  C   UNL     1     142.103 144.125 136.548  1.00  0.00     0.021 A 
ATOM     13  C   UNL     1     142.558 143.544 135.353  1.00  0.00     0.016 A 
ATOM     14  C   UNL     1     142.797 142.168 135.277  1.00  0.00     0.047 A 
ATOM     15  C   UNL     1     142.600 141.358 136.400  1.00  0.00     0.115 A 
ATOM     16  C   UNL     1     141.925 143.306 137.679  1.00  0.00     0.016 A 
ATOM     17  C   UNL     1     142.166 141.931 137.602  1.00  0.00     0.047 A 
BRANCH  15  18
ATOM     18  O   UNL     1     142.841 139.990 136.311  1.00  0.00    -0.508 OA
ATOM     19  H   UNL     1     142.865 139.402 137.136  1.00  0.00     0.293 HD
ENDBRANCH  15  18
ENDBRANCH   1  12
BRANCH   2  20
ATOM     20  O   UNL     1     139.625 145.382 135.727  1.00  0.00    -0.502 OA
ATOM     21  H   UNL     1     138.933 144.943 136.323  1.00  0.00     0.293 HD
ENDBRANCH   2  20
BRANCH   6  22
ATOM     22  O   UNL     1     140.360 150.527 136.893  1.00  0.00    -0.507 OA
ATOM     23  H   UNL     1     139.603 150.311 136.262  1.00  0.00     0.293 HD
ENDBRANCH   6  22
BRANCH   8  24
ATOM     24  O   UNL     1     145.022 150.470 138.045  1.00  0.00    -0.508 OA
ATOM     25  H   UNL     1     145.082 150.934 138.944  1.00  0.00     0.293 HD
ENDBRANCH   8  24
TORSDOF 5
ENDMDL
MODEL 2
REMARK VINA RESULT:    -5.305      5.037      7.759
REMARK INTER + INTRA:          -6.519
REMARK INTER:                  -6.234
REMARK INTRA:                  -0.286
REMARK UNBOUND:                -0.284
REMARK SMILES O=c1c(O)c(-c2ccc(O)cc2)oc2cc(O)cc(O)c12
REMARK SMILES IDX 5 1 3 2 2 3 1 4 21 5 19 6 18 7 16 8 15 9 14 10 13 11 6 12
REMARK SMILES IDX 7 13 8 14 9 15 12 16 11 17 10 18 4 20 20 22 17 24
REMARK H PARENT 10 19 4 21 20 23 17 25
REMARK Flexibility Score: inf
ROOT
ATOM      1  C   UNL     1     145.627 150.706 136.613  1.00  0.00     0.180 A 
ATOM      2  C   UNL     1     146.225 151.919 136.229  1.00  0.00     0.208 A 
ATOM      3  C   UNL     1     147.619 152.053 136.328  1.00  0.00     0.238 A 
ATOM      4  O   UNL     1     148.154 153.122 135.932  1.00  0.00    -0.285 OA
ATOM      5  C   UNL     1     148.395 150.979 136.826  1.00  0.00     0.111 A 
ATOM      6  C   UNL     1     149.811 151.018 137.007  1.00  0.00     0.134 A 
ATOM      7  C   UNL     1     150.492 149.854 137.383  1.00  0.00     0.093 A 
ATOM      8  C   UNL     1     149.801 148.669 137.647  1.00  0.00     0.123 A 
ATOM      9  C   UNL     1     148.413 148.637 137.529  1.00  0.00     0.094 A 
ATOM     10  C   UNL     1     147.710 149.772 137.121  1.00  0.00     0.146 A 
ATOM     11  O   UNL     1     146.388 149.695 137.013  1.00  0.00    -0.452 OA
ENDROOT
BRANCH   1  12
ATOM     12  C   UNL     1     144.162 150.499 136.559  1.00  0.00     0.021 A 
ATOM     13  C   UNL     1     143.571 150.036 135.371  1.00  0.00     0.016 A 
ATOM     14  C   UNL     1     142.192 149.812 135.305  1.00  0.00     0.047 A 
ATOM     15  C   UNL     1     141.389 150.031 136.429  1.00  0.00     0.115 A 
ATOM     16  C   UNL     1     143.351 150.698 137.692  1.00  0.00     0.016 A 
ATOM     17  C   UNL     1     141.973 150.472 137.624  1.00  0.00     0.047 A 
BRANCH  15  18
ATOM     18  O   UNL     1     140.018 149.804 136.349  1.00  0.00    -0.508 OA
ATOM     19  H   UNL     1     139.367 150.270 136.970  1.00  0.00     0.293 HD
ENDBRANCH  15  18
ENDBRANCH   1  12
BRANCH   2  20
ATOM     20  O   UNL     1     145.441 152.959 135.719  1.00  0.00    -0.502 OA
ATOM     21  H   UNL     1     145.750 153.547 134.955  1.00  0.00     0.293 HD
ENDBRANCH   2  20
BRANCH   6  22
ATOM     22  O   UNL     1     150.584 152.173 136.860  1.00  0.00    -0.507 OA
ATOM     23  H   UNL     1     150.430 152.883 136.160  1.00  0.00     0.293 HD
ENDBRANCH   6  22
BRANCH   8  24
ATOM     24  O   UNL     1     150.484 147.518 138.034  1.00  0.00    -0.508 OA
ATOM     25  H   UNL     1     150.028 146.785 138.566  1.00  0.00     0.293 HD
ENDBRANCH   8  24
TORSDOF 5
ENDMDL
MODEL 3
REMARK VINA RESULT:    -5.303      4.941      7.674
REMARK INTER + INTRA:          -6.517
REMARK INTER:                  -6.227
REMARK INTRA:                  -0.289
REMARK UNBOUND:                -0.284
REMARK SMILES O=c1c(O)c(-c2ccc(O)cc2)oc2cc(O)cc(O)c12
REMARK SMILES IDX 5 1 3 2 2 3 1 4 21 5 19 6 18 7 16 8 15 9 14 10 13 11 6 12
REMARK SMILES IDX 7 13 8 14 9 15 12 16 11 17 10 18 4 20 20 22 17 24
REMARK H PARENT 10 19 4 21 20 23 17 25
REMARK Flexibility Score: inf
ROOT
ATOM      1  C   UNL     1     146.903 141.823 136.623  1.00  0.00     0.180 A 
ATOM      2  C   UNL     1     146.297 140.621 136.218  1.00  0.00     0.208 A 
ATOM      3  C   UNL     1     144.902 140.496 136.311  1.00  0.00     0.238 A 
ATOM      4  O   UNL     1     144.361 139.438 135.897  1.00  0.00    -0.285 OA
ATOM      5  C   UNL     1     144.132 141.568 136.822  1.00  0.00     0.111 A 
ATOM      6  C   UNL     1     142.715 141.537 136.999  1.00  0.00     0.134 A 
ATOM      7  C   UNL     1     142.042 142.700 137.390  1.00  0.00     0.093 A 
ATOM      8  C   UNL     1     142.741 143.875 137.674  1.00  0.00     0.123 A 
ATOM      9  C   UNL     1     144.130 143.899 137.562  1.00  0.00     0.094 A 
ATOM     10  C   UNL     1     144.825 142.765 137.139  1.00  0.00     0.146 A 
ATOM     11  O   UNL     1     146.148 142.833 137.036  1.00  0.00    -0.452 OA
ENDROOT
BRANCH   1  12
ATOM     12  C   UNL     1     148.370 142.021 136.577  1.00  0.00     0.021 A 
ATOM     13  C   UNL     1     148.965 142.522 135.408  1.00  0.00     0.016 A 
ATOM     14  C   UNL     1     150.346 142.738 135.350  1.00  0.00     0.047 A 
ATOM     15  C   UNL     1     151.146 142.470 136.465  1.00  0.00     0.115 A 
ATOM     16  C   UNL     1     149.178 141.772 137.702  1.00  0.00     0.016 A 
ATOM     17  C   UNL     1     150.558 141.989 137.643  1.00  0.00     0.047 A 
BRANCH  15  18
ATOM     18  O   UNL     1     152.519 142.689 136.394  1.00  0.00    -0.508 OA
ATOM     19  H   UNL     1     152.940 143.156 135.600  1.00  0.00     0.293 HD
ENDBRANCH  15  18
ENDBRANCH   1  12
BRANCH   2  20
ATOM     20  O   UNL     1     147.075 139.583 135.695  1.00  0.00    -0.502 OA
ATOM     21  H   UNL     1     147.155 138.682 136.150  1.00  0.00     0.293 HD
ENDBRANCH   2  20
BRANCH   6  22
ATOM     22  O   UNL     1     141.934 140.390 136.831  1.00  0.00    -0.507 OA
ATOM     23  H   UNL     1     142.251 139.536 136.397  1.00  0.00     0.293 HD
ENDBRANCH   6  22
BRANCH   8  24
ATOM     24  O   UNL     1     142.065 145.025 138.078  1.00  0.00    -0.508 OA
ATOM     25  H   UNL     1     141.150 144.978 138.509  1.00  0.00     0.293 HD
ENDBRANCH   8  24
TORSDOF 5
ENDMDL
MODEL 4
REMARK VINA RESULT:    -5.301      7.432     10.930
REMARK INTER + INTRA:          -6.514
REMARK INTER:                  -6.232
REMARK INTRA:                  -0.283
REMARK UNBOUND:                -0.284
REMARK SMILES O=c1c(O)c(-c2ccc(O)cc2)oc2cc(O)cc(O)c12
REMARK SMILES IDX 5 1 3 2 2 3 1 4 21 5 19 6 18 7 16 8 15 9 14 10 13 11 6 12
REMARK SMILES IDX 7 13 8 14 9 15 12 16 11 17 10 18 4 20 20 22 17 24
REMARK H PARENT 10 19 4 21 20 23 17 25
REMARK Flexibility Score: inf
ROOT
ATOM      1  C   UNL     1     150.721 146.954 136.615  1.00  0.00     0.180 A 
ATOM      2  C   UNL     1     151.929 146.353 136.220  1.00  0.00     0.208 A 
ATOM      3  C   UNL     1     152.059 144.959 136.316  1.00  0.00     0.238 A 
ATOM      4  O   UNL     1     153.123 144.422 135.911  1.00  0.00    -0.285 OA
ATOM      5  C   UNL     1     150.987 144.185 136.821  1.00  0.00     0.111 A 
ATOM      6  C   UNL     1     151.023 142.769 137.001  1.00  0.00     0.134 A 
ATOM      7  C   UNL     1     149.860 142.091 137.385  1.00  0.00     0.093 A 
ATOM      8  C   UNL     1     148.679 142.785 137.659  1.00  0.00     0.123 A 
ATOM      9  C   UNL     1     148.650 144.174 137.544  1.00  0.00     0.094 A 
ATOM     10  C   UNL     1     149.785 144.874 137.128  1.00  0.00     0.146 A 
ATOM     11  O   UNL     1     149.711 146.196 137.022  1.00  0.00    -0.452 OA
ENDROOT
BRANCH   1  12
ATOM     12  C   UNL     1     150.517 148.420 136.565  1.00  0.00     0.021 A 
ATOM     13  C   UNL     1     150.060 149.016 135.378  1.00  0.00     0.016 A 
ATOM     14  C   UNL     1     149.839 150.396 135.315  1.00  0.00     0.047 A 
ATOM     15  C   UNL     1     150.057 151.194 136.442  1.00  0.00     0.115 A 
ATOM     16  C   UNL     1     150.715 149.227 137.701  1.00  0.00     0.016 A 
ATOM     17  C   UNL     1     150.493 150.606 137.637  1.00  0.00     0.047 A 
BRANCH  15  18
ATOM     18  O   UNL     1     149.834 152.566 136.366  1.00  0.00    -0.508 OA
ATOM     19  H   UNL     1     149.633 153.022 135.483  1.00  0.00     0.293 HD
ENDBRANCH  15  18
ENDBRANCH   1  12
BRANCH   2  20
ATOM     20  O   UNL     1     152.966 147.135 135.703  1.00  0.00    -0.502 OA
ATOM     21  H   UNL     1     153.418 147.864 136.243  1.00  0.00     0.293 HD
ENDBRANCH   2  20
BRANCH   6  22
ATOM     22  O   UNL     1     152.175 141.992 136.843  1.00  0.00    -0.507 OA
ATOM     23  H   UNL     1     153.118 142.341 136.921  1.00  0.00     0.293 HD
ENDBRANCH   6  22
BRANCH   8  24
ATOM     24  O   UNL     1     147.530 142.105 138.055  1.00  0.00    -0.508 OA
ATOM     25  H   UNL     1     146.981 142.411 138.850  1.00  0.00     0.293 HD
ENDBRANCH   8  24
TORSDOF 5
ENDMDL
MODEL 5
REMARK VINA RESULT:    -5.133      4.219      7.122
REMARK INTER + INTRA:          -6.317
REMARK INTER:                  -6.030
REMARK INTRA:                  -0.287
REMARK UNBOUND:                -0.284
REMARK SMILES O=c1c(O)c(-c2ccc(O)cc2)oc2cc(O)cc(O)c12
REMARK SMILES IDX 5 1 3 2 2 3 1 4 21 5 19 6 18 7 16 8 15 9 14 10 13 11 6 12
REMARK SMILES IDX 7 13 8 14 9 15 12 16 11 17 10 18 4 20 20 22 17 24
REMARK H PARENT 10 19 4 21 20 23 17 25
REMARK Flexibility Score: inf
ROOT
ATOM      1  C   UNL     1     145.508 149.028 137.109  1.00  0.00     0.180 A 
ATOM      2  C   UNL     1     145.971 147.749 137.461  1.00  0.00     0.208 A 
ATOM      3  C   UNL     1     147.352 147.537 137.597  1.00  0.00     0.238 A 
ATOM      4  O   UNL     1     147.757 146.404 137.965  1.00  0.00    -0.285 OA
ATOM      5  C   UNL     1     148.254 148.604 137.362  1.00  0.00     0.111 A 
ATOM      6  C   UNL     1     149.676 148.492 137.431  1.00  0.00     0.134 A 
ATOM      7  C   UNL     1     150.465 149.642 137.308  1.00  0.00     0.093 A 
ATOM      8  C   UNL     1     149.888 150.888 137.054  1.00  0.00     0.123 A 
ATOM      9  C   UNL     1     148.504 150.997 136.927  1.00  0.00     0.094 A 
ATOM     10  C   UNL     1     147.689 149.874 137.080  1.00  0.00     0.146 A 
ATOM     11  O   UNL     1     146.374 150.023 136.960  1.00  0.00    -0.452 OA
ENDROOT
BRANCH   1  12
ATOM     12  C   UNL     1     144.069 149.322 136.924  1.00  0.00     0.021 A 
ATOM     13  C   UNL     1     143.468 149.082 135.677  1.00  0.00     0.016 A 
ATOM     14  C   UNL     1     142.105 149.331 135.486  1.00  0.00     0.047 A 
ATOM     15  C   UNL     1     141.323 149.808 136.542  1.00  0.00     0.115 A 
ATOM     16  C   UNL     1     143.272 149.783 137.988  1.00  0.00     0.016 A 
ATOM     17  C   UNL     1     141.909 150.031 137.795  1.00  0.00     0.047 A 
BRANCH  15  18
ATOM     18  O   UNL     1     139.967 150.052 136.338  1.00  0.00    -0.508 OA
ATOM     19  H   UNL     1     139.636 150.544 135.516  1.00  0.00     0.293 HD
ENDBRANCH  15  18
ENDBRANCH   1  12
BRANCH   2  20
ATOM     20  O   UNL     1     145.062 146.716 137.710  1.00  0.00    -0.502 OA
ATOM     21  H   UNL     1     145.358 145.775 137.937  1.00  0.00     0.293 HD
ENDBRANCH   2  20
BRANCH   6  22
ATOM     22  O   UNL     1     150.357 147.282 137.589  1.00  0.00    -0.507 OA
ATOM     23  H   UNL     1     151.360 147.181 137.580  1.00  0.00     0.293 HD
ENDBRANCH   6  22
BRANCH   8  24
ATOM     24  O   UNL     1     150.681 152.026 136.919  1.00  0.00    -0.508 OA
ATOM     25  H   UNL     1     151.611 152.074 137.319  1.00  0.00     0.293 HD
ENDBRANCH   8  24
TORSDOF 5
ENDMDL
MODEL 6
REMARK VINA RESULT:    -5.125      1.362      3.207
REMARK INTER + INTRA:          -6.308
REMARK INTER:                  -6.021
REMARK INTRA:                  -0.287
REMARK UNBOUND:                -0.284
REMARK SMILES O=c1c(O)c(-c2ccc(O)cc2)oc2cc(O)cc(O)c12
REMARK SMILES IDX 5 1 3 2 2 3 1 4 21 5 19 6 18 7 16 8 15 9 14 10 13 11 6 12
REMARK SMILES IDX 7 13 8 14 9 15 12 16 11 17 10 18 4 20 20 22 17 24
REMARK H PARENT 10 19 4 21 20 23 17 25
REMARK Flexibility Score: inf
ROOT
ATOM      1  C   UNL     1     143.654 145.491 137.096  1.00  0.00     0.180 A 
ATOM      2  C   UNL     1     144.927 145.968 137.455  1.00  0.00     0.208 A 
ATOM      3  C   UNL     1     145.119 147.350 137.608  1.00  0.00     0.238 A 
ATOM      4  O   UNL     1     146.247 147.766 137.982  1.00  0.00    -0.285 OA
ATOM      5  C   UNL     1     144.040 148.239 137.384  1.00  0.00     0.111 A 
ATOM      6  C   UNL     1     144.131 149.662 137.471  1.00  0.00     0.134 A 
ATOM      7  C   UNL     1     142.971 150.436 137.357  1.00  0.00     0.093 A 
ATOM      8  C   UNL     1     141.733 149.844 137.095  1.00  0.00     0.123 A 
ATOM      9  C   UNL     1     141.644 148.461 136.950  1.00  0.00     0.094 A 
ATOM     10  C   UNL     1     142.778 147.659 137.094  1.00  0.00     0.146 A 
ATOM     11  O   UNL     1     142.647 146.345 136.958  1.00  0.00    -0.452 OA
ENDROOT
BRANCH   1  12
ATOM     12  C   UNL     1     143.381 144.050 136.893  1.00  0.00     0.021 A 
ATOM     13  C   UNL     1     143.638 143.467 135.641  1.00  0.00     0.016 A 
ATOM     14  C   UNL     1     143.408 142.103 135.433  1.00  0.00     0.047 A 
ATOM     15  C   UNL     1     142.934 141.302 136.477  1.00  0.00     0.115 A 
ATOM     16  C   UNL     1     142.923 143.235 137.945  1.00  0.00     0.016 A 
ATOM     17  C   UNL     1     142.695 141.871 137.735  1.00  0.00     0.047 A 
BRANCH  15  18
ATOM     18  O   UNL     1     142.710 139.946 136.256  1.00  0.00    -0.508 OA
ATOM     19  H   UNL     1     143.095 139.239 136.871  1.00  0.00     0.293 HD
ENDBRANCH  15  18
ENDBRANCH   1  12
BRANCH   2  20
ATOM     20  O   UNL     1     145.972 145.070 137.693  1.00  0.00    -0.502 OA
ATOM     21  H   UNL     1     146.391 144.954 138.608  1.00  0.00     0.293 HD
ENDBRANCH   2  20
BRANCH   6  22
ATOM     22  O   UNL     1     145.332 150.357 137.638  1.00  0.00    -0.507 OA
ATOM     23  H   UNL     1     145.982 150.208 138.394  1.00  0.00     0.293 HD
ENDBRANCH   6  22
BRANCH   8  24
ATOM     24  O   UNL     1     140.584 150.623 136.968  1.00  0.00    -0.508 OA
ATOM     25  H   UNL     1     140.049 150.641 136.108  1.00  0.00     0.293 HD
ENDBRANCH   8  24
TORSDOF 5
ENDMDL
MODEL 7
REMARK VINA RESULT:    -5.116      6.537      9.957
REMARK INTER + INTRA:          -6.296
REMARK INTER:                  -6.011
REMARK INTRA:                  -0.286
REMARK UNBOUND:                -0.284
REMARK SMILES O=c1c(O)c(-c2ccc(O)cc2)oc2cc(O)cc(O)c12
REMARK SMILES IDX 5 1 3 2 2 3 1 4 21 5 19 6 18 7 16 8 15 9 14 10 13 11 6 12
REMARK SMILES IDX 7 13 8 14 9 15 12 16 11 17 10 18 4 20 20 22 17 24
REMARK H PARENT 10 19 4 21 20 23 17 25
REMARK Flexibility Score: inf
ROOT
ATOM      1  C   UNL     1     149.469 146.984 137.194  1.00  0.00     0.180 A 
ATOM      2  C   UNL     1     148.120 146.614 137.334  1.00  0.00     0.208 A 
ATOM      3  C   UNL     1     147.782 145.252 137.330  1.00  0.00     0.238 A 
ATOM      4  O   UNL     1     146.580 144.926 137.510  1.00  0.00    -0.285 OA
ATOM      5  C   UNL     1     148.796 144.277 137.168  1.00  0.00     0.111 A 
ATOM      6  C   UNL     1     148.564 142.869 137.108  1.00  0.00     0.134 A 
ATOM      7  C   UNL     1     149.653 141.990 137.077  1.00  0.00     0.093 A 
ATOM      8  C   UNL     1     150.964 142.469 137.039  1.00  0.00     0.123 A 
ATOM      9  C   UNL     1     151.199 143.843 137.038  1.00  0.00     0.094 A 
ATOM     10  C   UNL     1     150.134 144.743 137.104  1.00  0.00     0.146 A 
ATOM     11  O   UNL     1     150.403 146.044 137.111  1.00  0.00    -0.452 OA
ENDROOT
BRANCH   1  12
ATOM     12  C   UNL     1     149.899 148.400 137.165  1.00  0.00     0.021 A 
ATOM     13  C   UNL     1     150.187 149.061 138.370  1.00  0.00     0.016 A 
ATOM     14  C   UNL     1     150.616 150.392 138.365  1.00  0.00     0.047 A 
ATOM     15  C   UNL     1     150.779 151.074 137.155  1.00  0.00     0.115 A 
ATOM     16  C   UNL     1     150.084 149.086 135.950  1.00  0.00     0.016 A 
ATOM     17  C   UNL     1     150.514 150.416 135.946  1.00  0.00     0.047 A 
BRANCH  15  18
ATOM     18  O   UNL     1     151.206 152.399 137.164  1.00  0.00    -0.508 OA
ATOM     19  H   UNL     1     152.182 152.639 137.295  1.00  0.00     0.293 HD
ENDBRANCH  15  18
ENDBRANCH   1  12
BRANCH   2  20
ATOM     20  O   UNL     1     147.138 147.593 137.514  1.00  0.00    -0.502 OA
ATOM     21  H   UNL     1     146.211 147.513 137.116  1.00  0.00     0.293 HD
ENDBRANCH   2  20
BRANCH   6  22
ATOM     22  O   UNL     1     147.293 142.290 137.049  1.00  0.00    -0.507 OA
ATOM     23  H   UNL     1     146.434 142.763 137.286  1.00  0.00     0.293 HD
ENDBRANCH   6  22
BRANCH   8  24
ATOM     24  O   UNL     1     152.043 141.588 136.993  1.00  0.00    -0.508 OA
ATOM     25  H   UNL     1     152.290 141.012 137.789  1.00  0.00     0.293 HD
ENDBRANCH   8  24
TORSDOF 5
ENDMDL
MODEL 8
REMARK VINA RESULT:    -5.070      5.045      7.154
REMARK INTER + INTRA:          -6.243
REMARK INTER:                  -5.952
REMARK INTRA:                  -0.292
REMARK UNBOUND:                -0.284
REMARK SMILES O=c1c(O)c(-c2ccc(O)cc2)oc2cc(O)cc(O)c12
REMARK SMILES IDX 5 1 3 2 2 3 1 4 21 5 19 6 18 7 16 8 15 9 14 10 13 11 6 12
REMARK SMILES IDX 7 13 8 14 9 15 12 16 11 17 10 18 4 20 20 22 17 24
REMARK H PARENT 10 19 4 21 20 23 17 25
REMARK Flexibility Score: inf
ROOT
ATOM      1  C   UNL     1     146.972 143.639 137.027  1.00  0.00     0.180 A 
ATOM      2  C   UNL     1     146.497 144.928 137.324  1.00  0.00     0.208 A 
ATOM      3  C   UNL     1     145.116 145.126 137.479  1.00  0.00     0.238 A 
ATOM      4  O   UNL     1     144.701 146.271 137.798  1.00  0.00    -0.285 OA
ATOM      5  C   UNL     1     144.227 144.036 137.320  1.00  0.00     0.111 A 
ATOM      6  C   UNL     1     142.805 144.130 137.415  1.00  0.00     0.134 A 
ATOM      7  C   UNL     1     142.031 142.964 137.369  1.00  0.00     0.093 A 
ATOM      8  C   UNL     1     142.622 141.715 137.166  1.00  0.00     0.123 A 
ATOM      9  C   UNL     1     144.004 141.620 137.014  1.00  0.00     0.094 A 
ATOM     10  C   UNL     1     144.805 142.761 137.091  1.00  0.00     0.146 A 
ATOM     11  O   UNL     1     146.119 142.625 136.949  1.00  0.00    -0.452 OA
ENDROOT
BRANCH   1  12
ATOM     12  C   UNL     1     148.412 143.357 136.825  1.00  0.00     0.021 A 
ATOM     13  C   UNL     1     149.209 143.001 137.926  1.00  0.00     0.016 A 
ATOM     14  C   UNL     1     150.566 142.709 137.755  1.00  0.00     0.047 A 
ATOM     15  C   UNL     1     151.139 142.752 136.480  1.00  0.00     0.115 A 
ATOM     16  C   UNL     1     148.990 143.380 135.543  1.00  0.00     0.016 A 
ATOM     17  C   UNL     1     150.347 143.086 135.373  1.00  0.00     0.047 A 
BRANCH  15  18
ATOM     18  O   UNL     1     152.491 142.460 136.324  1.00  0.00    -0.508 OA
ATOM     19  H   UNL     1     153.210 143.123 136.587  1.00  0.00     0.293 HD
ENDBRANCH  15  18
ENDBRANCH   1  12
BRANCH   2  20
ATOM     20  O   UNL     1     147.395 145.985 137.499  1.00  0.00    -0.502 OA
ATOM     21  H   UNL     1     147.158 146.818 138.023  1.00  0.00     0.293 HD
ENDBRANCH   2  20
BRANCH   6  22
ATOM     22  O   UNL     1     142.108 145.337 137.526  1.00  0.00    -0.507 OA
ATOM     23  H   UNL     1     141.104 145.419 137.575  1.00  0.00     0.293 HD
ENDBRANCH   6  22
BRANCH   8  24
ATOM     24  O   UNL     1     141.844 140.560 137.107  1.00  0.00    -0.508 OA
ATOM     25  H   UNL     1     142.220 139.686 136.758  1.00  0.00     0.293 HD
ENDBRANCH   8  24
TORSDOF 5
ENDMDL
MODEL 9
REMARK VINA RESULT:    -5.032      4.068      7.695
REMARK INTER + INTRA:          -6.198
REMARK INTER:                  -5.972
REMARK INTRA:                  -0.227
REMARK UNBOUND:                -0.284
REMARK SMILES O=c1c(O)c(-c2ccc(O)cc2)oc2cc(O)cc(O)c12
REMARK SMILES IDX 5 1 3 2 2 3 1 4 21 5 19 6 18 7 16 8 15 9 14 10 13 11 6 12
REMARK SMILES IDX 7 13 8 14 9 15 12 16 11 17 10 18 4 20 20 22 17 24
REMARK H PARENT 10 19 4 21 20 23 17 25
REMARK Flexibility Score: inf
ROOT
ATOM      1  C   UNL     1     146.978 149.719 137.036  1.00  0.00     0.180 A 
ATOM      2  C   UNL     1     146.613 148.392 136.747  1.00  0.00     0.208 A 
ATOM      3  C   UNL     1     145.267 148.013 136.869  1.00  0.00     0.238 A 
ATOM      4  O   UNL     1     144.939 146.839 136.557  1.00  0.00    -0.285 OA
ATOM      5  C   UNL     1     144.305 148.961 137.294  1.00  0.00     0.111 A 
ATOM      6  C   UNL     1     142.920 148.677 137.491  1.00  0.00     0.134 A 
ATOM      7  C   UNL     1     142.036 149.721 137.787  1.00  0.00     0.093 A 
ATOM      8  C   UNL     1     142.497 151.029 137.957  1.00  0.00     0.123 A 
ATOM      9  C   UNL     1     143.856 151.306 137.824  1.00  0.00     0.094 A 
ATOM     10  C   UNL     1     144.757 150.291 137.494  1.00  0.00     0.146 A 
ATOM     11  O   UNL     1     146.043 150.600 137.368  1.00  0.00    -0.452 OA
ENDROOT
BRANCH   1  12
ATOM     12  C   UNL     1     148.380 150.186 136.954  1.00  0.00     0.021 A 
ATOM     13  C   UNL     1     148.753 151.081 135.937  1.00  0.00     0.016 A 
ATOM     14  C   UNL     1     150.067 151.554 135.854  1.00  0.00     0.047 A 
ATOM     15  C   UNL     1     151.020 151.150 136.794  1.00  0.00     0.115 A 
ATOM     16  C   UNL     1     149.339 149.799 137.908  1.00  0.00     0.016 A 
ATOM     17  C   UNL     1     150.652 150.273 137.824  1.00  0.00     0.047 A 
BRANCH  15  18
ATOM     18  O   UNL     1     152.325 151.627 136.700  1.00  0.00    -0.508 OA
ATOM     19  H   UNL     1     153.119 150.998 136.693  1.00  0.00     0.293 HD
ENDBRANCH  15  18
ENDBRANCH   1  12
BRANCH   2  20
ATOM     20  O   UNL     1     147.576 147.479 136.307  1.00  0.00    -0.502 OA
ATOM     21  H   UNL     1     147.501 146.484 136.482  1.00  0.00     0.293 HD
ENDBRANCH   2  20
BRANCH   6  22
ATOM     22  O   UNL     1     142.372 147.392 137.435  1.00  0.00    -0.507 OA
ATOM     23  H   UNL     1     142.361 146.738 138.203  1.00  0.00     0.293 HD
ENDBRANCH   6  22
BRANCH   8  24
ATOM     24  O   UNL     1     141.613 152.061 138.266  1.00  0.00    -0.508 OA
ATOM     25  H   UNL     1     140.710 151.876 138.686  1.00  0.00     0.293 HD
ENDBRANCH   8  24
TORSDOF 5
ENDMDL
