MODEL 1
REMARK VINA RESULT:    -7.421      0.000      0.000
REMARK INTER + INTRA:          -9.233
REMARK INTER:                  -8.939
REMARK INTRA:                  -0.294
REMARK UNBOUND:                -0.294
REMARK SMILES O=c1c(O)c(-c2ccc(O)c(O)c2)oc2cc(O)cc(O)c12
REMARK SMILES IDX 5 1 3 2 2 3 1 4 22 5 20 6 19 7 17 8 16 9 15 10 14 11 6 12
REMARK SMILES IDX 7 13 8 14 9 15 13 16 11 17 10 18 12 20 4 22 21 24 18 26
REMARK H PARENT 10 19 12 21 4 23 21 25 18 27
REMARK Flexibility Score: inf
ROOT
ATOM      1  C   UNL     1     -40.766  10.062   6.930  1.00  0.00     0.180 A 
ATOM      2  C   UNL     1     -40.212   9.384   8.031  1.00  0.00     0.208 A 
ATOM      3  C   UNL     1     -40.594   9.765   9.328  1.00  0.00     0.238 A 
ATOM      4  O   UNL     1     -40.055   9.190  10.309  1.00  0.00    -0.285 OA
ATOM      5  C   UNL     1     -41.535  10.806   9.507  1.00  0.00     0.111 A 
ATOM      6  C   UNL     1     -42.024  11.248  10.774  1.00  0.00     0.134 A 
ATOM      7  C   UNL     1     -42.854  12.373  10.840  1.00  0.00     0.093 A 
ATOM      8  C   UNL     1     -43.265  13.034   9.681  1.00  0.00     0.123 A 
ATOM      9  C   UNL     1     -42.841  12.576   8.436  1.00  0.00     0.094 A 
ATOM     10  C   UNL     1     -41.983  11.476   8.339  1.00  0.00     0.146 A 
ATOM     11  O   UNL     1     -41.595  11.078   7.134  1.00  0.00    -0.452 OA
ENDROOT
BRANCH   1  12
ATOM     12  C   UNL     1     -40.431   9.701   5.534  1.00  0.00     0.025 A 
ATOM     13  C   UNL     1     -41.044   8.584   4.943  1.00  0.00     0.016 A 
ATOM     14  C   UNL     1     -40.726   8.213   3.634  1.00  0.00     0.051 A 
ATOM     15  C   UNL     1     -39.780   8.942   2.903  1.00  0.00     0.157 A 
ATOM     16  C   UNL     1     -39.466  10.417   4.804  1.00  0.00     0.062 A 
ATOM     17  C   UNL     1     -39.145  10.043   3.491  1.00  0.00     0.158 A 
BRANCH  15  18
ATOM     18  O   UNL     1     -39.461   8.576   1.596  1.00  0.00    -0.504 OA
ATOM     19  H   UNL     1     -39.598   7.628   1.264  1.00  0.00     0.293 HD
ENDBRANCH  15  18
BRANCH  17  20
ATOM     20  O   UNL     1     -38.193  10.760   2.766  1.00  0.00    -0.504 OA
ATOM     21  H   UNL     1     -37.351  11.115   3.203  1.00  0.00     0.293 HD
ENDBRANCH  17  20
ENDBRANCH   1  12
BRANCH   2  22
ATOM     22  O   UNL     1     -39.269   8.372   7.831  1.00  0.00    -0.502 OA
ATOM     23  H   UNL     1     -39.272   7.781   7.008  1.00  0.00     0.293 HD
ENDBRANCH   2  22
BRANCH   6  24
ATOM     24  O   UNL     1     -41.748  10.603  11.984  1.00  0.00    -0.507 OA
ATOM     25  H   UNL     1     -41.404   9.658  12.067  1.00  0.00     0.293 HD
ENDBRANCH   6  24
BRANCH   8  26
ATOM     26  O   UNL     1     -44.104  14.144   9.754  1.00  0.00    -0.508 OA
ATOM     27  H   UNL     1     -43.875  15.012   9.282  1.00  0.00     0.293 HD
ENDBRANCH   8  26
TORSDOF 6
ENDMDL
MODEL 2
REMARK VINA RESULT:    -7.266      1.353      1.650
REMARK INTER + INTRA:          -9.047
REMARK INTER:                  -8.733
REMARK INTRA:                  -0.315
REMARK UNBOUND:                -0.294
REMARK SMILES O=c1c(O)c(-c2ccc(O)c(O)c2)oc2cc(O)cc(O)c12
REMARK SMILES IDX 5 1 3 2 2 3 1 4 22 5 20 6 19 7 17 8 16 9 15 10 14 11 6 12
REMARK SMILES IDX 7 13 8 14 9 15 13 16 11 17 10 18 12 20 4 22 21 24 18 26
REMARK H PARENT 10 19 12 21 4 23 21 25 18 27
REMARK Flexibility Score: inf
ROOT
ATOM      1  C   UNL     1     -41.337  10.948   8.034  1.00  0.00     0.180 A 
ATOM      2  C   UNL     1     -41.069  10.086   9.112  1.00  0.00     0.208 A 
ATOM      3  C   UNL     1     -41.368  10.512  10.416  1.00  0.00     0.238 A 
ATOM      4  O   UNL     1     -41.076   9.757  11.380  1.00  0.00    -0.285 OA
ATOM      5  C   UNL     1     -41.948  11.786  10.625  1.00  0.00     0.111 A 
ATOM      6  C   UNL     1     -42.329  12.304  11.900  1.00  0.00     0.134 A 
ATOM      7  C   UNL     1     -42.771  13.628  12.003  1.00  0.00     0.093 A 
ATOM      8  C   UNL     1     -42.908  14.433  10.869  1.00  0.00     0.123 A 
ATOM      9  C   UNL     1     -42.594  13.918   9.614  1.00  0.00     0.094 A 
ATOM     10  C   UNL     1     -42.116  12.611   9.483  1.00  0.00     0.146 A 
ATOM     11  O   UNL     1     -41.819  12.163   8.269  1.00  0.00    -0.452 OA
ENDROOT
BRANCH   1  12
ATOM     12  C   UNL     1     -41.071  10.560   6.631  1.00  0.00     0.025 A 
ATOM     13  C   UNL     1     -42.093   9.963   5.874  1.00  0.00     0.016 A 
ATOM     14  C   UNL     1     -41.857   9.569   4.554  1.00  0.00     0.051 A 
ATOM     15  C   UNL     1     -40.594   9.751   3.978  1.00  0.00     0.157 A 
ATOM     16  C   UNL     1     -39.799  10.721   6.055  1.00  0.00     0.062 A 
ATOM     17  C   UNL     1     -39.561  10.323   4.731  1.00  0.00     0.158 A 
BRANCH  15  18
ATOM     18  O   UNL     1     -40.355   9.360   2.661  1.00  0.00    -0.504 OA
ATOM     19  H   UNL     1     -40.876   9.758   1.888  1.00  0.00     0.293 HD
ENDBRANCH  15  18
BRANCH  17  20
ATOM     20  O   UNL     1     -38.301  10.491   4.159  1.00  0.00    -0.504 OA
ATOM     21  H   UNL     1     -38.120  11.220   3.479  1.00  0.00     0.293 HD
ENDBRANCH  17  20
ENDBRANCH   1  12
BRANCH   2  22
ATOM     22  O   UNL     1     -40.477   8.840   8.884  1.00  0.00    -0.502 OA
ATOM     23  H   UNL     1     -40.148   8.249   9.638  1.00  0.00     0.293 HD
ENDBRANCH   2  22
BRANCH   6  24
ATOM     24  O   UNL     1     -42.318  11.555  13.081  1.00  0.00    -0.507 OA
ATOM     25  H   UNL     1     -42.174  11.938  14.003  1.00  0.00     0.293 HD
ENDBRANCH   6  24
BRANCH   8  26
ATOM     26  O   UNL     1     -43.364  15.745  10.978  1.00  0.00    -0.508 OA
ATOM     27  H   UNL     1     -42.731  16.509  11.185  1.00  0.00     0.293 HD
ENDBRANCH   8  26
TORSDOF 6
ENDMDL
MODEL 3
REMARK VINA RESULT:    -7.259      8.849     12.344
REMARK INTER + INTRA:          -9.038
REMARK INTER:                  -8.910
REMARK INTRA:                  -0.128
REMARK UNBOUND:                -0.294
REMARK SMILES O=c1c(O)c(-c2ccc(O)c(O)c2)oc2cc(O)cc(O)c12
REMARK SMILES IDX 5 1 3 2 2 3 1 4 22 5 20 6 19 7 17 8 16 9 15 10 14 11 6 12
REMARK SMILES IDX 7 13 8 14 9 15 13 16 11 17 10 18 12 20 4 22 21 24 18 26
REMARK H PARENT 10 19 12 21 4 23 21 25 18 27
REMARK Flexibility Score: inf
ROOT
ATOM      1  C   UNL     1     -31.726  14.181   1.063  1.00  0.00     0.180 A 
ATOM      2  C   UNL     1     -32.527  14.673   2.108  1.00  0.00     0.208 A 
ATOM      3  C   UNL     1     -33.684  13.965   2.471  1.00  0.00     0.238 A 
ATOM      4  O   UNL     1     -34.425  14.439   3.372  1.00  0.00    -0.285 OA
ATOM      5  C   UNL     1     -34.017  12.767   1.796  1.00  0.00     0.111 A 
ATOM      6  C   UNL     1     -35.144  11.947   2.106  1.00  0.00     0.134 A 
ATOM      7  C   UNL     1     -35.449  10.854   1.288  1.00  0.00     0.093 A 
ATOM      8  C   UNL     1     -34.632  10.511   0.208  1.00  0.00     0.123 A 
ATOM      9  C   UNL     1     -33.498  11.270  -0.069  1.00  0.00     0.094 A 
ATOM     10  C   UNL     1     -33.186  12.389   0.709  1.00  0.00     0.146 A 
ATOM     11  O   UNL     1     -32.101  13.091   0.405  1.00  0.00    -0.452 OA
ENDROOT
BRANCH   1  12
ATOM     12  C   UNL     1     -30.480  14.859   0.641  1.00  0.00     0.025 A 
ATOM     13  C   UNL     1     -30.328  15.254  -0.698  1.00  0.00     0.016 A 
ATOM     14  C   UNL     1     -29.150  15.875  -1.123  1.00  0.00     0.051 A 
ATOM     15  C   UNL     1     -28.103  16.097  -0.220  1.00  0.00     0.157 A 
ATOM     16  C   UNL     1     -29.417  15.064   1.539  1.00  0.00     0.062 A 
ATOM     17  C   UNL     1     -28.234  15.686   1.112  1.00  0.00     0.158 A 
BRANCH  15  18
ATOM     18  O   UNL     1     -26.928  16.718  -0.640  1.00  0.00    -0.504 OA
ATOM     19  H   UNL     1     -26.347  16.317  -1.368  1.00  0.00     0.293 HD
ENDBRANCH  15  18
BRANCH  17  20
ATOM     20  O   UNL     1     -27.185  15.895   2.006  1.00  0.00    -0.504 OA
ATOM     21  H   UNL     1     -27.337  16.324   2.912  1.00  0.00     0.293 HD
ENDBRANCH  17  20
ENDBRANCH   1  12
BRANCH   2  22
ATOM     22  O   UNL     1     -32.191  15.870   2.748  1.00  0.00    -0.502 OA
ATOM     23  H   UNL     1     -32.708  16.729   2.600  1.00  0.00     0.293 HD
ENDBRANCH   2  22
BRANCH   6  24
ATOM     24  O   UNL     1     -35.971  12.147   3.216  1.00  0.00    -0.507 OA
ATOM     25  H   UNL     1     -36.960  11.950   3.239  1.00  0.00     0.293 HD
ENDBRANCH   6  24
BRANCH   8  26
ATOM     26  O   UNL     1     -34.934   9.412  -0.593  1.00  0.00    -0.508 OA
ATOM     27  H   UNL     1     -35.224   8.528  -0.191  1.00  0.00     0.293 HD
ENDBRANCH   8  26
TORSDOF 6
ENDMDL
MODEL 4
REMARK VINA RESULT:    -7.129      8.641     12.312
REMARK INTER + INTRA:          -8.882
REMARK INTER:                  -8.578
REMARK INTRA:                  -0.304
REMARK UNBOUND:                -0.294
REMARK SMILES O=c1c(O)c(-c2ccc(O)c(O)c2)oc2cc(O)cc(O)c12
REMARK SMILES IDX 5 1 3 2 2 3 1 4 22 5 20 6 19 7 17 8 16 9 15 10 14 11 6 12
REMARK SMILES IDX 7 13 8 14 9 15 13 16 11 17 10 18 12 20 4 22 21 24 18 26
REMARK H PARENT 10 19 12 21 4 23 21 25 18 27
REMARK Flexibility Score: inf
ROOT
ATOM      1  C   UNL     1     -31.569  12.959   0.349  1.00  0.00     0.180 A 
ATOM      2  C   UNL     1     -31.527  11.765  -0.393  1.00  0.00     0.208 A 
ATOM      3  C   UNL     1     -32.635  10.904  -0.360  1.00  0.00     0.238 A 
ATOM      4  O   UNL     1     -32.570   9.812  -0.984  1.00  0.00    -0.285 OA
ATOM      5  C   UNL     1     -33.777  11.253   0.400  1.00  0.00     0.111 A 
ATOM      6  C   UNL     1     -34.971  10.475   0.474  1.00  0.00     0.134 A 
ATOM      7  C   UNL     1     -35.987  10.851   1.360  1.00  0.00     0.093 A 
ATOM      8  C   UNL     1     -35.880  12.013   2.128  1.00  0.00     0.123 A 
ATOM      9  C   UNL     1     -34.743  12.811   2.020  1.00  0.00     0.094 A 
ATOM     10  C   UNL     1     -33.697  12.443   1.170  1.00  0.00     0.146 A 
ATOM     11  O   UNL     1     -32.627  13.226   1.105  1.00  0.00    -0.452 OA
ENDROOT
BRANCH   1  12
ATOM     12  C   UNL     1     -30.450  13.928   0.345  1.00  0.00     0.025 A 
ATOM     13  C   UNL     1     -30.322  14.831  -0.724  1.00  0.00     0.016 A 
ATOM     14  C   UNL     1     -29.261  15.739  -0.760  1.00  0.00     0.051 A 
ATOM     15  C   UNL     1     -28.304  15.748   0.263  1.00  0.00     0.157 A 
ATOM     16  C   UNL     1     -29.475  13.927   1.358  1.00  0.00     0.062 A 
ATOM     17  C   UNL     1     -28.409  14.837   1.322  1.00  0.00     0.158 A 
BRANCH  15  18
ATOM     18  O   UNL     1     -27.245  16.654   0.232  1.00  0.00    -0.504 OA
ATOM     19  H   UNL     1     -26.883  17.016  -0.642  1.00  0.00     0.293 HD
ENDBRANCH  15  18
BRANCH  17  20
ATOM     20  O   UNL     1     -27.448  14.839   2.332  1.00  0.00    -0.504 OA
ATOM     21  H   UNL     1     -26.995  13.984   2.635  1.00  0.00     0.293 HD
ENDBRANCH  17  20
ENDBRANCH   1  12
BRANCH   2  22
ATOM     22  O   UNL     1     -30.381  11.430  -1.120  1.00  0.00    -0.502 OA
ATOM     23  H   UNL     1     -29.776  12.129  -1.533  1.00  0.00     0.293 HD
ENDBRANCH   2  22
BRANCH   6  24
ATOM     24  O   UNL     1     -35.218   9.348  -0.317  1.00  0.00    -0.507 OA
ATOM     25  H   UNL     1     -35.343   8.413   0.038  1.00  0.00     0.293 HD
ENDBRANCH   6  24
BRANCH   8  26
ATOM     26  O   UNL     1     -36.902  12.389   2.996  1.00  0.00    -0.508 OA
ATOM     27  H   UNL     1     -37.774  12.776   2.652  1.00  0.00     0.293 HD
ENDBRANCH   8  26
TORSDOF 6
ENDMDL
MODEL 5
REMARK VINA RESULT:    -6.956      8.443     12.764
REMARK INTER + INTRA:          -8.673
REMARK INTER:                  -8.407
REMARK INTRA:                  -0.266
REMARK UNBOUND:                -0.294
REMARK SMILES O=c1c(O)c(-c2ccc(O)c(O)c2)oc2cc(O)cc(O)c12
REMARK SMILES IDX 5 1 3 2 2 3 1 4 22 5 20 6 19 7 17 8 16 9 15 10 14 11 6 12
REMARK SMILES IDX 7 13 8 14 9 15 13 16 11 17 10 18 12 20 4 22 21 24 18 26
REMARK H PARENT 10 19 12 21 4 23 21 25 18 27
REMARK Flexibility Score: inf
ROOT
ATOM      1  C   UNL     1     -32.817  13.189   0.738  1.00  0.00     0.180 A 
ATOM      2  C   UNL     1     -32.927  14.436   0.096  1.00  0.00     0.208 A 
ATOM      3  C   UNL     1     -31.756  15.125  -0.257  1.00  0.00     0.238 A 
ATOM      4  O   UNL     1     -31.861  16.264  -0.783  1.00  0.00    -0.285 OA
ATOM      5  C   UNL     1     -30.491  14.554   0.020  1.00  0.00     0.111 A 
ATOM      6  C   UNL     1     -29.240  15.145  -0.329  1.00  0.00     0.134 A 
ATOM      7  C   UNL     1     -28.049  14.554   0.111  1.00  0.00     0.093 A 
ATOM      8  C   UNL     1     -28.062  13.358   0.832  1.00  0.00     0.123 A 
ATOM      9  C   UNL     1     -29.276  12.742   1.128  1.00  0.00     0.094 A 
ATOM     10  C   UNL     1     -30.482  13.326   0.733  1.00  0.00     0.146 A 
ATOM     11  O   UNL     1     -31.617  12.711   1.044  1.00  0.00    -0.452 OA
ENDROOT
BRANCH   1  12
ATOM     12  C   UNL     1     -34.005  12.393   1.118  1.00  0.00     0.025 A 
ATOM     13  C   UNL     1     -34.739  12.751   2.261  1.00  0.00     0.016 A 
ATOM     14  C   UNL     1     -35.851  12.000   2.652  1.00  0.00     0.051 A 
ATOM     15  C   UNL     1     -36.236  10.873   1.915  1.00  0.00     0.157 A 
ATOM     16  C   UNL     1     -34.383  11.248   0.394  1.00  0.00     0.062 A 
ATOM     17  C   UNL     1     -35.498  10.493   0.787  1.00  0.00     0.158 A 
BRANCH  15  18
ATOM     18  O   UNL     1     -37.346  10.122   2.300  1.00  0.00    -0.504 OA
ATOM     19  H   UNL     1     -37.524   9.901   3.272  1.00  0.00     0.293 HD
ENDBRANCH  15  18
BRANCH  17  20
ATOM     20  O   UNL     1     -35.876   9.364   0.062  1.00  0.00    -0.504 OA
ATOM     21  H   UNL     1     -36.572   8.717   0.414  1.00  0.00     0.293 HD
ENDBRANCH  17  20
ENDBRANCH   1  12
BRANCH   2  22
ATOM     22  O   UNL     1     -34.186  14.991  -0.149  1.00  0.00    -0.502 OA
ATOM     23  H   UNL     1     -35.041  14.454  -0.073  1.00  0.00     0.293 HD
ENDBRANCH   2  22
BRANCH   6  24
ATOM     24  O   UNL     1     -29.113  16.289  -1.124  1.00  0.00    -0.507 OA
ATOM     25  H   UNL     1     -29.809  17.014  -1.205  1.00  0.00     0.293 HD
ENDBRANCH   6  24
BRANCH   8  26
ATOM     26  O   UNL     1     -26.873  12.768   1.253  1.00  0.00    -0.508 OA
ATOM     27  H   UNL     1     -26.311  13.177   1.992  1.00  0.00     0.293 HD
ENDBRANCH   8  26
TORSDOF 6
ENDMDL
MODEL 6
REMARK VINA RESULT:    -6.871      1.343      2.899
REMARK INTER + INTRA:          -8.571
REMARK INTER:                  -8.279
REMARK INTRA:                  -0.292
REMARK UNBOUND:                -0.294
REMARK SMILES O=c1c(O)c(-c2ccc(O)c(O)c2)oc2cc(O)cc(O)c12
REMARK SMILES IDX 5 1 3 2 2 3 1 4 22 5 20 6 19 7 17 8 16 9 15 10 14 11 6 12
REMARK SMILES IDX 7 13 8 14 9 15 13 16 11 17 10 18 12 20 4 22 21 24 18 26
REMARK H PARENT 10 19 12 21 4 23 21 25 18 27
REMARK Flexibility Score: inf
ROOT
ATOM      1  C   UNL     1     -41.185   9.884   6.307  1.00  0.00     0.180 A 
ATOM      2  C   UNL     1     -42.374  10.620   6.455  1.00  0.00     0.208 A 
ATOM      3  C   UNL     1     -42.777  11.012   7.741  1.00  0.00     0.238 A 
ATOM      4  O   UNL     1     -43.868  11.625   7.872  1.00  0.00    -0.285 OA
ATOM      5  C   UNL     1     -41.979  10.678   8.862  1.00  0.00     0.111 A 
ATOM      6  C   UNL     1     -42.270  11.058  10.207  1.00  0.00     0.134 A 
ATOM      7  C   UNL     1     -41.481  10.560  11.250  1.00  0.00     0.093 A 
ATOM      8  C   UNL     1     -40.373   9.750  10.994  1.00  0.00     0.123 A 
ATOM      9  C   UNL     1     -40.046   9.421   9.680  1.00  0.00     0.094 A 
ATOM     10  C   UNL     1     -40.835   9.873   8.619  1.00  0.00     0.146 A 
ATOM     11  O   UNL     1     -40.494   9.528   7.383  1.00  0.00    -0.452 OA
ENDROOT
BRANCH   1  12
ATOM     12  C   UNL     1     -40.684   9.456   4.981  1.00  0.00     0.025 A 
ATOM     13  C   UNL     1     -41.224   8.309   4.376  1.00  0.00     0.016 A 
ATOM     14  C   UNL     1     -40.750   7.875   3.135  1.00  0.00     0.051 A 
ATOM     15  C   UNL     1     -39.721   8.571   2.489  1.00  0.00     0.157 A 
ATOM     16  C   UNL     1     -39.636  10.139   4.339  1.00  0.00     0.062 A 
ATOM     17  C   UNL     1     -39.159   9.702   3.094  1.00  0.00     0.158 A 
BRANCH  15  18
ATOM     18  O   UNL     1     -39.246   8.142   1.250  1.00  0.00    -0.504 OA
ATOM     19  H   UNL     1     -38.933   8.800   0.547  1.00  0.00     0.293 HD
ENDBRANCH  15  18
BRANCH  17  20
ATOM     20  O   UNL     1     -38.125  10.386   2.456  1.00  0.00    -0.504 OA
ATOM     21  H   UNL     1     -37.153  10.208   2.681  1.00  0.00     0.293 HD
ENDBRANCH  17  20
ENDBRANCH   1  12
BRANCH   2  22
ATOM     22  O   UNL     1     -43.157  10.921   5.337  1.00  0.00    -0.502 OA
ATOM     23  H   UNL     1     -43.172  10.336   4.510  1.00  0.00     0.293 HD
ENDBRANCH   2  22
BRANCH   6  24
ATOM     24  O   UNL     1     -43.297  11.937  10.564  1.00  0.00    -0.507 OA
ATOM     25  H   UNL     1     -44.212  11.654  10.879  1.00  0.00     0.293 HD
ENDBRANCH   6  24
BRANCH   8  26
ATOM     26  O   UNL     1     -39.583   9.272  12.037  1.00  0.00    -0.508 OA
ATOM     27  H   UNL     1     -38.602   9.055  11.903  1.00  0.00     0.293 HD
ENDBRANCH   8  26
TORSDOF 6
ENDMDL
MODEL 7
REMARK VINA RESULT:    -6.810      7.496     11.037
REMARK INTER + INTRA:          -8.497
REMARK INTER:                  -8.167
REMARK INTRA:                  -0.330
REMARK UNBOUND:                -0.294
REMARK SMILES O=c1c(O)c(-c2ccc(O)c(O)c2)oc2cc(O)cc(O)c12
REMARK SMILES IDX 5 1 3 2 2 3 1 4 22 5 20 6 19 7 17 8 16 9 15 10 14 11 6 12
REMARK SMILES IDX 7 13 8 14 9 15 13 16 11 17 10 18 12 20 4 22 21 24 18 26
REMARK H PARENT 10 19 12 21 4 23 21 25 18 27
REMARK Flexibility Score: inf
ROOT
ATOM      1  C   UNL     1     -33.046  13.365   0.939  1.00  0.00     0.180 A 
ATOM      2  C   UNL     1     -34.064  14.331   0.853  1.00  0.00     0.208 A 
ATOM      3  C   UNL     1     -35.364  13.990   1.260  1.00  0.00     0.238 A 
ATOM      4  O   UNL     1     -36.280  14.843   1.131  1.00  0.00    -0.285 OA
ATOM      5  C   UNL     1     -35.626  12.694   1.765  1.00  0.00     0.111 A 
ATOM      6  C   UNL     1     -36.896  12.252   2.243  1.00  0.00     0.134 A 
ATOM      7  C   UNL     1     -37.072  10.909   2.596  1.00  0.00     0.093 A 
ATOM      8  C   UNL     1     -36.007  10.006   2.550  1.00  0.00     0.123 A 
ATOM      9  C   UNL     1     -34.749  10.441   2.140  1.00  0.00     0.094 A 
ATOM     10  C   UNL     1     -34.551  11.767   1.747  1.00  0.00     0.146 A 
ATOM     11  O   UNL     1     -33.338  12.138   1.354  1.00  0.00    -0.452 OA
ENDROOT
BRANCH   1  12
ATOM     12  C   UNL     1     -31.648  13.658   0.552  1.00  0.00     0.025 A 
ATOM     13  C   UNL     1     -31.196  13.297  -0.729  1.00  0.00     0.016 A 
ATOM     14  C   UNL     1     -29.874  13.544  -1.108  1.00  0.00     0.051 A 
ATOM     15  C   UNL     1     -28.981  14.141  -0.209  1.00  0.00     0.157 A 
ATOM     16  C   UNL     1     -30.742  14.237   1.458  1.00  0.00     0.062 A 
ATOM     17  C   UNL     1     -29.414  14.483   1.078  1.00  0.00     0.158 A 
BRANCH  15  18
ATOM     18  O   UNL     1     -27.662  14.390  -0.584  1.00  0.00    -0.504 OA
ATOM     19  H   UNL     1     -27.040  14.938  -0.001  1.00  0.00     0.293 HD
ENDBRANCH  15  18
BRANCH  17  20
ATOM     20  O   UNL     1     -28.520  15.065   1.976  1.00  0.00    -0.504 OA
ATOM     21  H   UNL     1     -28.342  16.062   1.976  1.00  0.00     0.293 HD
ENDBRANCH  17  20
ENDBRANCH   1  12
BRANCH   2  22
ATOM     22  O   UNL     1     -33.787  15.599   0.332  1.00  0.00    -0.502 OA
ATOM     23  H   UNL     1     -32.937  16.103   0.554  1.00  0.00     0.293 HD
ENDBRANCH   2  22
BRANCH   6  24
ATOM     24  O   UNL     1     -38.000  13.093   2.416  1.00  0.00    -0.507 OA
ATOM     25  H   UNL     1     -38.084  13.790   3.140  1.00  0.00     0.293 HD
ENDBRANCH   6  24
BRANCH   8  26
ATOM     26  O   UNL     1     -36.186   8.674   2.918  1.00  0.00    -0.508 OA
ATOM     27  H   UNL     1     -35.675   7.926   2.464  1.00  0.00     0.293 HD
ENDBRANCH   8  26
TORSDOF 6
ENDMDL
MODEL 8
REMARK VINA RESULT:    -6.598      1.803      6.961
REMARK INTER + INTRA:          -8.242
REMARK INTER:                  -8.249
REMARK INTRA:                   0.007
REMARK UNBOUND:                -0.294
REMARK SMILES O=c1c(O)c(-c2ccc(O)c(O)c2)oc2cc(O)cc(O)c12
REMARK SMILES IDX 5 1 3 2 2 3 1 4 22 5 20 6 19 7 17 8 16 9 15 10 14 11 6 12
REMARK SMILES IDX 7 13 8 14 9 15 13 16 11 17 10 18 12 20 4 22 21 24 18 26
REMARK H PARENT 10 19 12 21 4 23 21 25 18 27
REMARK Flexibility Score: inf
ROOT
ATOM      1  C   UNL     1     -41.852  10.475   6.845  1.00  0.00     0.180 A 
ATOM      2  C   UNL     1     -40.490  10.526   6.499  1.00  0.00     0.208 A 
ATOM      3  C   UNL     1     -40.095  10.090   5.224  1.00  0.00     0.238 A 
ATOM      4  O   UNL     1     -38.869  10.088   4.940  1.00  0.00    -0.285 OA
ATOM      5  C   UNL     1     -41.067   9.626   4.305  1.00  0.00     0.111 A 
ATOM      6  C   UNL     1     -40.784   9.198   2.973  1.00  0.00     0.134 A 
ATOM      7  C   UNL     1     -41.805   8.636   2.198  1.00  0.00     0.093 A 
ATOM      8  C   UNL     1     -43.111   8.544   2.682  1.00  0.00     0.123 A 
ATOM      9  C   UNL     1     -43.410   9.013   3.960  1.00  0.00     0.094 A 
ATOM     10  C   UNL     1     -42.405   9.547   4.771  1.00  0.00     0.146 A 
ATOM     11  O   UNL     1     -42.730   9.972   5.986  1.00  0.00    -0.452 OA
ENDROOT
BRANCH   1  12
ATOM     12  C   UNL     1     -42.347  10.939   8.161  1.00  0.00     0.025 A 
ATOM     13  C   UNL     1     -43.374  11.896   8.214  1.00  0.00     0.016 A 
ATOM     14  C   UNL     1     -43.841  12.364   9.445  1.00  0.00     0.051 A 
ATOM     15  C   UNL     1     -43.279  11.895  10.638  1.00  0.00     0.157 A 
ATOM     16  C   UNL     1     -41.771  10.487   9.361  1.00  0.00     0.062 A 
ATOM     17  C   UNL     1     -42.239  10.958  10.597  1.00  0.00     0.158 A 
BRANCH  15  18
ATOM     18  O   UNL     1     -43.744  12.358  11.869  1.00  0.00    -0.504 OA
ATOM     19  H   UNL     1     -44.689  12.706  11.981  1.00  0.00     0.293 HD
ENDBRANCH  15  18
BRANCH  17  20
ATOM     20  O   UNL     1     -41.672  10.502  11.786  1.00  0.00    -0.504 OA
ATOM     21  H   UNL     1     -42.158   9.848  12.389  1.00  0.00     0.293 HD
ENDBRANCH  17  20
ENDBRANCH   1  12
BRANCH   2  22
ATOM     22  O   UNL     1     -39.545  10.968   7.429  1.00  0.00    -0.502 OA
ATOM     23  H   UNL     1     -39.804  11.465   8.273  1.00  0.00     0.293 HD
ENDBRANCH   2  22
BRANCH   6  24
ATOM     24  O   UNL     1     -39.534   9.330   2.361  1.00  0.00    -0.507 OA
ATOM     25  H   UNL     1     -38.724   9.749   2.791  1.00  0.00     0.293 HD
ENDBRANCH   6  24
BRANCH   8  26
ATOM     26  O   UNL     1     -44.125   7.997   1.898  1.00  0.00    -0.508 OA
ATOM     27  H   UNL     1     -44.044   7.945   0.889  1.00  0.00     0.293 HD
ENDBRANCH   8  26
TORSDOF 6
ENDMDL
MODEL 9
REMARK VINA RESULT:    -5.787      2.310      7.019
REMARK INTER + INTRA:          -7.266
REMARK INTER:                  -7.221
REMARK INTRA:                  -0.044
REMARK UNBOUND:                -0.294
REMARK SMILES O=c1c(O)c(-c2ccc(O)c(O)c2)oc2cc(O)cc(O)c12
REMARK SMILES IDX 5 1 3 2 2 3 1 4 22 5 20 6 19 7 17 8 16 9 15 10 14 11 6 12
REMARK SMILES IDX 7 13 8 14 9 15 13 16 11 17 10 18 12 20 4 22 21 24 18 26
REMARK H PARENT 10 19 12 21 4 23 21 25 18 27
REMARK Flexibility Score: inf
ROOT
ATOM      1  C   UNL     1     -41.992  11.619   9.264  1.00  0.00     0.180 A 
ATOM      2  C   UNL     1     -41.057  10.589   9.464  1.00  0.00     0.208 A 
ATOM      3  C   UNL     1     -40.862   9.639   8.449  1.00  0.00     0.238 A 
ATOM      4  O   UNL     1     -40.062   8.689   8.656  1.00  0.00    -0.285 OA
ATOM      5  C   UNL     1     -41.591   9.740   7.240  1.00  0.00     0.111 A 
ATOM      6  C   UNL     1     -41.445   8.857   6.128  1.00  0.00     0.134 A 
ATOM      7  C   UNL     1     -42.311   8.973   5.035  1.00  0.00     0.093 A 
ATOM      8  C   UNL     1     -43.276   9.981   4.984  1.00  0.00     0.123 A 
ATOM      9  C   UNL     1     -43.389  10.884   6.038  1.00  0.00     0.094 A 
ATOM     10  C   UNL     1     -42.562  10.773   7.159  1.00  0.00     0.146 A 
ATOM     11  O   UNL     1     -42.709  11.648   8.146  1.00  0.00    -0.452 OA
ENDROOT
BRANCH   1  12
ATOM     12  C   UNL     1     -42.235  12.670  10.277  1.00  0.00     0.025 A 
ATOM     13  C   UNL     1     -42.053  14.019   9.932  1.00  0.00     0.016 A 
ATOM     14  C   UNL     1     -42.255  15.026  10.879  1.00  0.00     0.051 A 
ATOM     15  C   UNL     1     -42.627  14.698  12.189  1.00  0.00     0.157 A 
ATOM     16  C   UNL     1     -42.588  12.345  11.600  1.00  0.00     0.062 A 
ATOM     17  C   UNL     1     -42.789  13.356  12.552  1.00  0.00     0.158 A 
BRANCH  15  18
ATOM     18  O   UNL     1     -42.831  15.700  13.137  1.00  0.00    -0.504 OA
ATOM     19  H   UNL     1     -42.066  16.074  13.685  1.00  0.00     0.293 HD
ENDBRANCH  15  18
BRANCH  17  20
ATOM     20  O   UNL     1     -43.146  13.031  13.860  1.00  0.00    -0.504 OA
ATOM     21  H   UNL     1     -43.333  13.748  14.551  1.00  0.00     0.293 HD
ENDBRANCH  17  20
ENDBRANCH   1  12
BRANCH   2  22
ATOM     22  O   UNL     1     -40.363  10.496  10.674  1.00  0.00    -0.502 OA
ATOM     23  H   UNL     1     -39.697   9.756  10.863  1.00  0.00     0.293 HD
ENDBRANCH   2  22
BRANCH   6  24
ATOM     24  O   UNL     1     -40.453   7.875   6.038  1.00  0.00    -0.507 OA
ATOM     25  H   UNL     1     -40.362   7.090   6.665  1.00  0.00     0.293 HD
ENDBRANCH   6  24
BRANCH   8  26
ATOM     26  O   UNL     1     -44.125  10.099   3.886  1.00  0.00    -0.508 OA
ATOM     27  H   UNL     1     -44.936   9.500   3.776  1.00  0.00     0.293 HD
ENDBRANCH   8  26
TORSDOF 6
ENDMDL
