MODEL 1
REMARK VINA RESULT:    -3.912      0.000      0.000
REMARK INTER + INTRA:         -15.192
REMARK INTER:                 -10.315
REMARK INTRA:                  -4.877
REMARK UNBOUND:                -4.877
REMARK SMILES CCCCCCCCCCCCCCCCCCCCCCCCCCCCCC(=O)[O-]
REMARK SMILES IDX 16 1 17 2 18 3 19 4 20 5 21 6 22 7 23 8 24 9 25 10 26 11
REMARK SMILES IDX 27 12 28 13 29 14 30 15 31 16 32 17 15 18 14 19 13 20 12 21
REMARK SMILES IDX 11 22 10 23 9 24 8 25 7 26 6 27 5 28 4 29 3 30 2 31 1 32
REMARK H PARENT
REMARK Flexibility Score: inf
ROOT
ATOM      1  C   UNL     1      -4.149  -8.370 -44.319  1.00  0.00     0.000 C 
ENDROOT
BRANCH   1   2
ATOM      2  C   UNL     1      -3.324  -8.277 -43.021  1.00  0.00     0.000 C 
BRANCH   2   3
ATOM      3  C   UNL     1      -4.173  -7.888 -41.802  1.00  0.00     0.000 C 
BRANCH   3   4
ATOM      4  C   UNL     1      -3.296  -7.646 -40.568  1.00  0.00     0.000 C 
BRANCH   4   5
ATOM      5  C   UNL     1      -2.062  -8.557 -40.590  1.00  0.00     0.000 C 
BRANCH   5   6
ATOM      6  C   UNL     1      -1.449  -8.704 -39.189  1.00  0.00     0.000 C 
BRANCH   6   7
ATOM      7  C   UNL     1      -1.616 -10.129 -38.619  1.00  0.00     0.000 C 
BRANCH   7   8
ATOM      8  C   UNL     1      -2.856 -10.878 -39.147  1.00  0.00     0.000 C 
BRANCH   8   9
ATOM      9  C   UNL     1      -2.675 -12.393 -39.334  1.00  0.00     0.000 C 
BRANCH   9  10
ATOM     10  C   UNL     1      -1.890 -12.754 -40.605  1.00  0.00     0.000 C 
BRANCH  10  11
ATOM     11  C   UNL     1      -2.305 -11.855 -41.776  1.00  0.00     0.000 C 
BRANCH  11  12
ATOM     12  C   UNL     1      -1.085 -11.436 -42.610  1.00  0.00     0.000 C 
BRANCH  12  13
ATOM     13  C   UNL     1       0.171 -11.215 -41.751  1.00  0.00     0.006 C 
BRANCH  13  14
ATOM     14  C   UNL     1       1.472 -11.385 -42.550  1.00  0.00     0.053 C 
BRANCH  14  15
ATOM     15  C   UNL     1       1.691 -10.228 -43.475  1.00  0.00     0.041 C 
ATOM     16  O   UNL     1       2.203 -10.409 -44.611  1.00  0.00    -0.550 OA
ATOM     17  O   UNL     1       1.350  -8.942 -43.071  1.00  0.00    -0.550 OA
ENDBRANCH  14  15
ENDBRANCH  13  14
ENDBRANCH  12  13
ENDBRANCH  11  12
ENDBRANCH  10  11
ENDBRANCH   9  10
ENDBRANCH   8   9
ENDBRANCH   7   8
ENDBRANCH   6   7
ENDBRANCH   5   6
ENDBRANCH   4   5
ENDBRANCH   3   4
ENDBRANCH   2   3
ENDBRANCH   1   2
BRANCH   1  18
ATOM     18  C   UNL     1      -4.145  -7.095 -45.186  1.00  0.00     0.000 C 
BRANCH  18  19
ATOM     19  C   UNL     1      -2.985  -6.997 -46.195  1.00  0.00     0.000 C 
BRANCH  19  20
ATOM     20  C   UNL     1      -3.415  -6.973 -47.674  1.00  0.00     0.000 C 
BRANCH  20  21
ATOM     21  C   UNL     1      -3.010  -8.250 -48.429  1.00  0.00     0.000 C 
BRANCH  21  22
ATOM     22  C   UNL     1      -4.179  -9.241 -48.506  1.00  0.00     0.000 C 
BRANCH  22  23
ATOM     23  C   UNL     1      -5.526  -8.511 -48.393  1.00  0.00     0.000 C 
BRANCH  23  24
ATOM     24  C   UNL     1      -6.672  -9.447 -47.973  1.00  0.00    -0.000 C 
BRANCH  24  25
ATOM     25  C   UNL     1      -6.984  -9.352 -46.469  1.00  0.00    -0.000 C 
BRANCH  25  26
ATOM     26  C   UNL     1      -7.215 -10.729 -45.824  1.00  0.00    -0.000 C 
BRANCH  26  27
ATOM     27  C   UNL     1      -7.017 -10.714 -44.301  1.00  0.00    -0.000 C 
BRANCH  27  28
ATOM     28  C   UNL     1      -5.682 -11.368 -43.915  1.00  0.00    -0.000 C 
BRANCH  28  29
ATOM     29  C   UNL     1      -5.688 -11.933 -42.485  1.00  0.00    -0.000 C 
BRANCH  29  30
ATOM     30  C   UNL     1      -5.804 -10.835 -41.415  1.00  0.00    -0.000 C 
BRANCH  30  31
ATOM     31  C   UNL     1      -6.410 -11.353 -40.103  1.00  0.00    -0.003 C 
ATOM     32  C   UNL     1      -6.378 -12.878 -39.997  1.00  0.00     0.004 C 
ENDBRANCH  30  31
ENDBRANCH  29  30
ENDBRANCH  28  29
ENDBRANCH  27  28
ENDBRANCH  26  27
ENDBRANCH  25  26
ENDBRANCH  24  25
ENDBRANCH  23  24
ENDBRANCH  22  23
ENDBRANCH  21  22
ENDBRANCH  20  21
ENDBRANCH  19  20
ENDBRANCH  18  19
ENDBRANCH   1  18
TORSDOF 28
ENDMDL
MODEL 2
REMARK VINA RESULT:    -3.884      4.500      8.086
REMARK INTER + INTRA:         -15.117
REMARK INTER:                 -10.285
REMARK INTRA:                  -4.832
REMARK UNBOUND:                -4.877
REMARK SMILES CCCCCCCCCCCCCCCCCCCCCCCCCCCCCC(=O)[O-]
REMARK SMILES IDX 16 1 17 2 18 3 19 4 20 5 21 6 22 7 23 8 24 9 25 10 26 11
REMARK SMILES IDX 27 12 28 13 29 14 30 15 31 16 32 17 15 18 14 19 13 20 12 21
REMARK SMILES IDX 11 22 10 23 9 24 8 25 7 26 6 27 5 28 4 29 3 30 2 31 1 32
REMARK H PARENT
REMARK Flexibility Score: inf
ROOT
ATOM      1  C   UNL     1      -0.370  -7.646 -36.655  1.00  0.00     0.000 C 
ENDROOT
BRANCH   1   2
ATOM      2  C   UNL     1      -1.467  -7.819 -35.587  1.00  0.00     0.000 C 
BRANCH   2   3
ATOM      3  C   UNL     1      -1.425  -9.195 -34.907  1.00  0.00     0.000 C 
BRANCH   3   4
ATOM      4  C   UNL     1      -0.204 -10.004 -35.363  1.00  0.00     0.000 C 
BRANCH   4   5
ATOM      5  C   UNL     1      -0.070 -11.295 -34.546  1.00  0.00     0.000 C 
BRANCH   5   6
ATOM      6  C   UNL     1      -1.325 -11.553 -33.698  1.00  0.00     0.000 C 
BRANCH   6   7
ATOM      7  C   UNL     1      -1.169 -12.781 -32.773  1.00  0.00     0.000 C 
BRANCH   7   8
ATOM      8  C   UNL     1       0.207 -13.470 -32.868  1.00  0.00     0.000 C 
BRANCH   8   9
ATOM      9  C   UNL     1       0.166 -15.005 -32.935  1.00  0.00     0.000 C 
BRANCH   9  10
ATOM     10  C   UNL     1       0.990 -15.579 -34.098  1.00  0.00     0.000 C 
BRANCH  10  11
ATOM     11  C   UNL     1       1.001 -14.613 -35.288  1.00  0.00     0.000 C 
BRANCH  11  12
ATOM     12  C   UNL     1       0.046 -15.088 -36.393  1.00  0.00     0.000 C 
BRANCH  12  13
ATOM     13  C   UNL     1      -0.980 -14.015 -36.792  1.00  0.00     0.006 C 
BRANCH  13  14
ATOM     14  C   UNL     1      -2.314 -14.166 -36.048  1.00  0.00     0.053 C 
BRANCH  14  15
ATOM     15  C   UNL     1      -3.224 -15.116 -36.764  1.00  0.00     0.041 C 
ATOM     16  O   UNL     1      -3.312 -16.316 -36.391  1.00  0.00    -0.550 OA
ATOM     17  O   UNL     1      -3.961 -14.681 -37.860  1.00  0.00    -0.550 OA
ENDBRANCH  14  15
ENDBRANCH  13  14
ENDBRANCH  12  13
ENDBRANCH  11  12
ENDBRANCH  10  11
ENDBRANCH   9  10
ENDBRANCH   8   9
ENDBRANCH   7   8
ENDBRANCH   6   7
ENDBRANCH   5   6
ENDBRANCH   4   5
ENDBRANCH   3   4
ENDBRANCH   2   3
ENDBRANCH   1   2
BRANCH   1  18
ATOM     18  C   UNL     1      -0.862  -7.109 -38.013  1.00  0.00     0.000 C 
BRANCH  18  19
ATOM     19  C   UNL     1      -1.244  -8.191 -39.042  1.00  0.00     0.000 C 
BRANCH  19  20
ATOM     20  C   UNL     1      -0.476  -9.518 -38.900  1.00  0.00     0.000 C 
BRANCH  20  21
ATOM     21  C   UNL     1      -1.408 -10.738 -38.828  1.00  0.00     0.000 C 
BRANCH  21  22
ATOM     22  C   UNL     1      -0.928 -11.858 -39.759  1.00  0.00     0.000 C 
BRANCH  22  23
ATOM     23  C   UNL     1      -2.100 -12.753 -40.190  1.00  0.00     0.000 C 
BRANCH  23  24
ATOM     24  C   UNL     1      -2.588 -12.442 -41.616  1.00  0.00    -0.000 C 
BRANCH  24  25
ATOM     25  C   UNL     1      -1.659 -11.460 -42.352  1.00  0.00    -0.000 C 
BRANCH  25  26
ATOM     26  C   UNL     1      -2.292 -10.072 -42.537  1.00  0.00    -0.000 C 
BRANCH  26  27
ATOM     27  C   UNL     1      -1.247  -8.961 -42.724  1.00  0.00    -0.000 C 
BRANCH  27  28
ATOM     28  C   UNL     1       0.133  -9.419 -42.232  1.00  0.00    -0.000 C 
BRANCH  28  29
ATOM     29  C   UNL     1       1.238  -9.208 -43.280  1.00  0.00    -0.000 C 
BRANCH  29  30
ATOM     30  C   UNL     1       1.911 -10.524 -43.706  1.00  0.00    -0.000 C 
BRANCH  30  31
ATOM     31  C   UNL     1       2.231 -11.435 -42.512  1.00  0.00    -0.003 C 
ATOM     32  C   UNL     1       3.445 -10.959 -41.714  1.00  0.00     0.004 C 
ENDBRANCH  30  31
ENDBRANCH  29  30
ENDBRANCH  28  29
ENDBRANCH  27  28
ENDBRANCH  26  27
ENDBRANCH  25  26
ENDBRANCH  24  25
ENDBRANCH  23  24
ENDBRANCH  22  23
ENDBRANCH  21  22
ENDBRANCH  20  21
ENDBRANCH  19  20
ENDBRANCH  18  19
ENDBRANCH   1  18
TORSDOF 28
ENDMDL
MODEL 3
REMARK VINA RESULT:    -3.880      5.313      8.606
REMARK INTER + INTRA:         -15.109
REMARK INTER:                  -9.516
REMARK INTRA:                  -5.593
REMARK UNBOUND:                -4.877
REMARK SMILES CCCCCCCCCCCCCCCCCCCCCCCCCCCCCC(=O)[O-]
REMARK SMILES IDX 16 1 17 2 18 3 19 4 20 5 21 6 22 7 23 8 24 9 25 10 26 11
REMARK SMILES IDX 27 12 28 13 29 14 30 15 31 16 32 17 15 18 14 19 13 20 12 21
REMARK SMILES IDX 11 22 10 23 9 24 8 25 7 26 6 27 5 28 4 29 3 30 2 31 1 32
REMARK H PARENT
REMARK Flexibility Score: inf
ROOT
ATOM      1  C   UNL     1      -0.452 -10.481 -35.545  1.00  0.00     0.000 C 
ENDROOT
BRANCH   1   2
ATOM      2  C   UNL     1      -1.124 -10.273 -34.175  1.00  0.00     0.000 C 
BRANCH   2   3
ATOM      3  C   UNL     1      -2.196 -11.329 -33.869  1.00  0.00     0.000 C 
BRANCH   3   4
ATOM      4  C   UNL     1      -2.174 -11.732 -32.390  1.00  0.00     0.000 C 
BRANCH   4   5
ATOM      5  C   UNL     1      -0.735 -11.967 -31.911  1.00  0.00     0.000 C 
BRANCH   5   6
ATOM      6  C   UNL     1      -0.227 -13.355 -32.328  1.00  0.00     0.000 C 
BRANCH   6   7
ATOM      7  C   UNL     1       1.066 -13.281 -33.170  1.00  0.00     0.000 C 
BRANCH   7   8
ATOM      8  C   UNL     1       0.928 -13.870 -34.589  1.00  0.00     0.000 C 
BRANCH   8   9
ATOM      9  C   UNL     1      -0.499 -14.272 -34.994  1.00  0.00     0.000 C 
BRANCH   9  10
ATOM     10  C   UNL     1      -0.811 -13.981 -36.470  1.00  0.00     0.000 C 
BRANCH  10  11
ATOM     11  C   UNL     1      -2.230 -14.439 -36.828  1.00  0.00     0.000 C 
BRANCH  11  12
ATOM     12  C   UNL     1      -3.212 -13.258 -36.811  1.00  0.00     0.000 C 
BRANCH  12  13
ATOM     13  C   UNL     1      -4.393 -13.483 -35.853  1.00  0.00     0.006 C 
BRANCH  13  14
ATOM     14  C   UNL     1      -4.247 -14.767 -35.025  1.00  0.00     0.053 C 
BRANCH  14  15
ATOM     15  C   UNL     1      -4.289 -14.469 -33.558  1.00  0.00     0.041 C 
ATOM     16  O   UNL     1      -3.500 -15.051 -32.767  1.00  0.00    -0.550 OA
ATOM     17  O   UNL     1      -5.219 -13.563 -33.060  1.00  0.00    -0.550 OA
ENDBRANCH  14  15
ENDBRANCH  13  14
ENDBRANCH  12  13
ENDBRANCH  11  12
ENDBRANCH  10  11
ENDBRANCH   9  10
ENDBRANCH   8   9
ENDBRANCH   7   8
ENDBRANCH   6   7
ENDBRANCH   5   6
ENDBRANCH   4   5
ENDBRANCH   3   4
ENDBRANCH   2   3
ENDBRANCH   1   2
BRANCH   1  18
ATOM     18  C   UNL     1      -1.036  -9.634 -36.693  1.00  0.00     0.000 C 
BRANCH  18  19
ATOM     19  C   UNL     1      -0.578  -8.164 -36.716  1.00  0.00     0.000 C 
BRANCH  19  20
ATOM     20  C   UNL     1      -0.752  -7.453 -38.071  1.00  0.00     0.000 C 
BRANCH  20  21
ATOM     21  C   UNL     1      -1.052  -8.430 -39.219  1.00  0.00     0.000 C 
BRANCH  21  22
ATOM     22  C   UNL     1      -2.277  -7.978 -40.026  1.00  0.00     0.000 C 
BRANCH  22  23
ATOM     23  C   UNL     1      -2.725  -9.075 -41.003  1.00  0.00     0.000 C 
BRANCH  23  24
ATOM     24  C   UNL     1      -3.960  -9.844 -40.503  1.00  0.00    -0.000 C 
BRANCH  24  25
ATOM     25  C   UNL     1      -3.581 -11.111 -39.714  1.00  0.00    -0.000 C 
BRANCH  25  26
ATOM     26  C   UNL     1      -3.375 -12.334 -40.623  1.00  0.00    -0.000 C 
BRANCH  26  27
ATOM     27  C   UNL     1      -2.040 -13.050 -40.366  1.00  0.00    -0.000 C 
BRANCH  27  28
ATOM     28  C   UNL     1      -0.991 -12.071 -39.818  1.00  0.00    -0.000 C 
BRANCH  28  29
ATOM     29  C   UNL     1       0.236 -11.941 -40.735  1.00  0.00    -0.000 C 
BRANCH  29  30
ATOM     30  C   UNL     1      -0.053 -11.112 -41.997  1.00  0.00    -0.000 C 
BRANCH  30  31
ATOM     31  C   UNL     1       0.826  -9.856 -42.091  1.00  0.00    -0.003 C 
ATOM     32  C   UNL     1       2.293 -10.134 -41.766  1.00  0.00     0.004 C 
ENDBRANCH  30  31
ENDBRANCH  29  30
ENDBRANCH  28  29
ENDBRANCH  27  28
ENDBRANCH  26  27
ENDBRANCH  25  26
ENDBRANCH  24  25
ENDBRANCH  23  24
ENDBRANCH  22  23
ENDBRANCH  21  22
ENDBRANCH  20  21
ENDBRANCH  19  20
ENDBRANCH  18  19
ENDBRANCH   1  18
TORSDOF 28
ENDMDL
MODEL 4
REMARK VINA RESULT:    -3.845      1.188      2.842
REMARK INTER + INTRA:         -15.016
REMARK INTER:                 -10.399
REMARK INTRA:                  -4.616
REMARK UNBOUND:                -4.877
REMARK SMILES CCCCCCCCCCCCCCCCCCCCCCCCCCCCCC(=O)[O-]
REMARK SMILES IDX 16 1 17 2 18 3 19 4 20 5 21 6 22 7 23 8 24 9 25 10 26 11
REMARK SMILES IDX 27 12 28 13 29 14 30 15 31 16 32 17 15 18 14 19 13 20 12 21
REMARK SMILES IDX 11 22 10 23 9 24 8 25 7 26 6 27 5 28 4 29 3 30 2 31 1 32
REMARK H PARENT
REMARK Flexibility Score: inf
ROOT
ATOM      1  C   UNL     1      -2.479  -8.343 -40.274  1.00  0.00     0.000 C 
ENDROOT
BRANCH   1   2
ATOM      2  C   UNL     1      -1.144  -8.207 -39.518  1.00  0.00     0.000 C 
BRANCH   2   3
ATOM      3  C   UNL     1      -1.255  -7.325 -38.265  1.00  0.00     0.000 C 
BRANCH   3   4
ATOM      4  C   UNL     1      -0.739  -8.058 -37.021  1.00  0.00     0.000 C 
BRANCH   4   5
ATOM      5  C   UNL     1      -0.509  -9.545 -37.322  1.00  0.00     0.000 C 
BRANCH   5   6
ATOM      6  C   UNL     1      -1.400 -10.437 -36.444  1.00  0.00     0.000 C 
BRANCH   6   7
ATOM      7  C   UNL     1      -1.970 -11.645 -37.219  1.00  0.00     0.000 C 
BRANCH   7   8
ATOM      8  C   UNL     1      -2.812 -11.263 -38.453  1.00  0.00     0.000 C 
BRANCH   8   9
ATOM      9  C   UNL     1      -2.625 -12.170 -39.680  1.00  0.00     0.000 C 
BRANCH   9  10
ATOM     10  C   UNL     1      -1.430 -13.127 -39.544  1.00  0.00     0.000 C 
BRANCH  10  11
ATOM     11  C   UNL     1      -0.129 -12.438 -39.971  1.00  0.00     0.000 C 
BRANCH  11  12
ATOM     12  C   UNL     1      -0.341 -11.592 -41.235  1.00  0.00     0.000 C 
BRANCH  12  13
ATOM     13  C   UNL     1       0.894 -10.753 -41.601  1.00  0.00     0.006 C 
BRANCH  13  14
ATOM     14  C   UNL     1       2.028 -11.598 -42.198  1.00  0.00     0.053 C 
BRANCH  14  15
ATOM     15  C   UNL     1       2.150 -11.371 -43.673  1.00  0.00     0.041 C 
ATOM     16  O   UNL     1       1.927 -10.232 -44.162  1.00  0.00    -0.550 OA
ATOM     17  O   UNL     1       2.488 -12.426 -44.513  1.00  0.00    -0.550 OA
ENDBRANCH  14  15
ENDBRANCH  13  14
ENDBRANCH  12  13
ENDBRANCH  11  12
ENDBRANCH  10  11
ENDBRANCH   9  10
ENDBRANCH   8   9
ENDBRANCH   7   8
ENDBRANCH   6   7
ENDBRANCH   5   6
ENDBRANCH   4   5
ENDBRANCH   3   4
ENDBRANCH   2   3
ENDBRANCH   1   2
BRANCH   1  18
ATOM     18  C   UNL     1      -2.348  -8.652 -41.778  1.00  0.00     0.000 C 
BRANCH  18  19
ATOM     19  C   UNL     1      -3.459  -8.058 -42.665  1.00  0.00     0.000 C 
BRANCH  19  20
ATOM     20  C   UNL     1      -3.358  -8.421 -44.158  1.00  0.00     0.000 C 
BRANCH  20  21
ATOM     21  C   UNL     1      -4.044  -7.389 -45.067  1.00  0.00     0.000 C 
BRANCH  21  22
ATOM     22  C   UNL     1      -3.231  -7.150 -46.346  1.00  0.00     0.000 C 
BRANCH  22  23
ATOM     23  C   UNL     1      -4.158  -6.975 -47.559  1.00  0.00     0.000 C 
BRANCH  23  24
ATOM     24  C   UNL     1      -4.703  -8.313 -48.085  1.00  0.00    -0.000 C 
BRANCH  24  25
ATOM     25  C   UNL     1      -6.229  -8.428 -47.922  1.00  0.00    -0.000 C 
BRANCH  25  26
ATOM     26  C   UNL     1      -6.680  -9.854 -47.565  1.00  0.00    -0.000 C 
BRANCH  26  27
ATOM     27  C   UNL     1      -6.191 -10.305 -46.180  1.00  0.00    -0.000 C 
BRANCH  27  28
ATOM     28  C   UNL     1      -7.024  -9.652 -45.066  1.00  0.00    -0.000 C 
BRANCH  28  29
ATOM     29  C   UNL     1      -6.586 -10.095 -43.660  1.00  0.00    -0.000 C 
BRANCH  29  30
ATOM     30  C   UNL     1      -5.598 -11.273 -43.691  1.00  0.00    -0.000 C 
BRANCH  30  31
ATOM     31  C   UNL     1      -5.079 -11.643 -42.294  1.00  0.00    -0.003 C 
ATOM     32  C   UNL     1      -5.625 -10.728 -41.198  1.00  0.00     0.004 C 
ENDBRANCH  30  31
ENDBRANCH  29  30
ENDBRANCH  28  29
ENDBRANCH  27  28
ENDBRANCH  26  27
ENDBRANCH  25  26
ENDBRANCH  24  25
ENDBRANCH  23  24
ENDBRANCH  22  23
ENDBRANCH  21  22
ENDBRANCH  20  21
ENDBRANCH  19  20
ENDBRANCH  18  19
ENDBRANCH   1  18
TORSDOF 28
ENDMDL
MODEL 5
REMARK VINA RESULT:    -3.760      2.499      3.536
REMARK INTER + INTRA:         -14.791
REMARK INTER:                  -9.440
REMARK INTRA:                  -5.351
REMARK UNBOUND:                -4.877
REMARK SMILES CCCCCCCCCCCCCCCCCCCCCCCCCCCCCC(=O)[O-]
REMARK SMILES IDX 16 1 17 2 18 3 19 4 20 5 21 6 22 7 23 8 24 9 25 10 26 11
REMARK SMILES IDX 27 12 28 13 29 14 30 15 31 16 32 17 15 18 14 19 13 20 12 21
REMARK SMILES IDX 11 22 10 23 9 24 8 25 7 26 6 27 5 28 4 29 3 30 2 31 1 32
REMARK H PARENT
REMARK Flexibility Score: inf
ROOT
ATOM      1  C   UNL     1      -3.720  -8.961 -43.713  1.00  0.00     0.000 C 
ENDROOT
BRANCH   1   2
ATOM      2  C   UNL     1      -2.629  -8.379 -42.795  1.00  0.00     0.000 C 
BRANCH   2   3
ATOM      3  C   UNL     1      -3.060  -8.317 -41.322  1.00  0.00     0.000 C 
BRANCH   3   4
ATOM      4  C   UNL     1      -1.886  -8.629 -40.385  1.00  0.00     0.000 C 
BRANCH   4   5
ATOM      5  C   UNL     1      -0.670  -9.119 -41.182  1.00  0.00     0.000 C 
BRANCH   5   6
ATOM      6  C   UNL     1      -0.335 -10.581 -40.850  1.00  0.00     0.000 C 
BRANCH   6   7
ATOM      7  C   UNL     1      -0.612 -11.532 -42.034  1.00  0.00     0.000 C 
BRANCH   7   8
ATOM      8  C   UNL     1      -2.100 -11.896 -42.216  1.00  0.00     0.000 C 
BRANCH   8   9
ATOM      9  C   UNL     1      -2.747 -12.618 -41.023  1.00  0.00     0.000 C 
BRANCH   9  10
ATOM     10  C   UNL     1      -3.835 -11.783 -40.331  1.00  0.00     0.000 C 
BRANCH  10  11
ATOM     11  C   UNL     1      -3.616 -11.752 -38.814  1.00  0.00     0.000 C 
BRANCH  11  12
ATOM     12  C   UNL     1      -2.304 -12.454 -38.432  1.00  0.00     0.000 C 
BRANCH  12  13
ATOM     13  C   UNL     1      -1.633 -11.825 -37.200  1.00  0.00     0.006 C 
BRANCH  13  14
ATOM     14  C   UNL     1      -1.535 -10.296 -37.295  1.00  0.00     0.053 C 
BRANCH  14  15
ATOM     15  C   UNL     1      -0.854  -9.724 -36.090  1.00  0.00     0.041 C 
ATOM     16  O   UNL     1      -0.117 -10.450 -35.371  1.00  0.00    -0.550 OA
ATOM     17  O   UNL     1      -1.051  -8.392 -35.747  1.00  0.00    -0.550 OA
ENDBRANCH  14  15
ENDBRANCH  13  14
ENDBRANCH  12  13
ENDBRANCH  11  12
ENDBRANCH  10  11
ENDBRANCH   9  10
ENDBRANCH   8   9
ENDBRANCH   7   8
ENDBRANCH   6   7
ENDBRANCH   5   6
ENDBRANCH   4   5
ENDBRANCH   3   4
ENDBRANCH   2   3
ENDBRANCH   1   2
BRANCH   1  18
ATOM     18  C   UNL     1      -4.283  -7.980 -44.759  1.00  0.00     0.000 C 
BRANCH  18  19
ATOM     19  C   UNL     1      -3.243  -7.402 -45.737  1.00  0.00     0.000 C 
BRANCH  19  20
ATOM     20  C   UNL     1      -3.820  -6.908 -47.077  1.00  0.00     0.000 C 
BRANCH  20  21
ATOM     21  C   UNL     1      -3.329  -7.736 -48.275  1.00  0.00     0.000 C 
BRANCH  21  22
ATOM     22  C   UNL     1      -4.105  -9.055 -48.392  1.00  0.00     0.000 C 
BRANCH  22  23
ATOM     23  C   UNL     1      -5.591  -8.792 -48.683  1.00  0.00     0.000 C 
BRANCH  23  24
ATOM     24  C   UNL     1      -6.520  -9.418 -47.628  1.00  0.00    -0.000 C 
BRANCH  24  25
ATOM     25  C   UNL     1      -7.311  -8.357 -46.841  1.00  0.00    -0.000 C 
BRANCH  25  26
ATOM     26  C   UNL     1      -7.781  -8.867 -45.470  1.00  0.00    -0.000 C 
BRANCH  26  27
ATOM     27  C   UNL     1      -8.684 -10.107 -45.573  1.00  0.00    -0.000 C 
BRANCH  27  28
ATOM     28  C   UNL     1      -8.149 -11.248 -44.694  1.00  0.00    -0.000 C 
BRANCH  28  29
ATOM     29  C   UNL     1      -6.630 -11.164 -44.471  1.00  0.00    -0.000 C 
BRANCH  29  30
ATOM     30  C   UNL     1      -6.236 -11.367 -42.999  1.00  0.00    -0.000 C 
BRANCH  30  31
ATOM     31  C   UNL     1      -7.195 -10.662 -42.028  1.00  0.00    -0.003 C 
ATOM     32  C   UNL     1      -6.556  -9.459 -41.335  1.00  0.00     0.004 C 
ENDBRANCH  30  31
ENDBRANCH  29  30
ENDBRANCH  28  29
ENDBRANCH  27  28
ENDBRANCH  26  27
ENDBRANCH  25  26
ENDBRANCH  24  25
ENDBRANCH  23  24
ENDBRANCH  22  23
ENDBRANCH  21  22
ENDBRANCH  20  21
ENDBRANCH  19  20
ENDBRANCH  18  19
ENDBRANCH   1  18
TORSDOF 28
ENDMDL
MODEL 6
REMARK VINA RESULT:    -3.602      3.813      7.073
REMARK INTER + INTRA:         -14.374
REMARK INTER:                 -10.065
REMARK INTRA:                  -4.309
REMARK UNBOUND:                -4.877
REMARK SMILES CCCCCCCCCCCCCCCCCCCCCCCCCCCCCC(=O)[O-]
REMARK SMILES IDX 16 1 17 2 18 3 19 4 20 5 21 6 22 7 23 8 24 9 25 10 26 11
REMARK SMILES IDX 27 12 28 13 29 14 30 15 31 16 32 17 15 18 14 19 13 20 12 21
REMARK SMILES IDX 11 22 10 23 9 24 8 25 7 26 6 27 5 28 4 29 3 30 2 31 1 32
REMARK H PARENT
REMARK Flexibility Score: inf
ROOT
ATOM      1  C   UNL     1      -3.995  -7.918 -42.918  1.00  0.00     0.000 C 
ENDROOT
BRANCH   1   2
ATOM      2  C   UNL     1      -3.839  -8.395 -41.462  1.00  0.00     0.000 C 
BRANCH   2   3
ATOM      3  C   UNL     1      -2.378  -8.397 -40.988  1.00  0.00     0.000 C 
BRANCH   3   4
ATOM      4  C   UNL     1      -2.238  -7.724 -39.616  1.00  0.00     0.000 C 
BRANCH   4   5
ATOM      5  C   UNL     1      -0.941  -8.162 -38.925  1.00  0.00     0.000 C 
BRANCH   5   6
ATOM      6  C   UNL     1      -0.499  -7.141 -37.865  1.00  0.00     0.000 C 
BRANCH   6   7
ATOM      7  C   UNL     1      -0.339  -7.776 -36.467  1.00  0.00     0.000 C 
BRANCH   7   8
ATOM      8  C   UNL     1      -0.601  -9.296 -36.431  1.00  0.00     0.000 C 
BRANCH   8   9
ATOM      9  C   UNL     1      -1.086  -9.844 -35.079  1.00  0.00     0.000 C 
BRANCH   9  10
ATOM     10  C   UNL     1      -0.785 -11.339 -34.892  1.00  0.00     0.000 C 
BRANCH  10  11
ATOM     11  C   UNL     1      -2.018 -12.188 -35.221  1.00  0.00     0.000 C 
BRANCH  11  12
ATOM     12  C   UNL     1      -1.614 -13.618 -35.614  1.00  0.00     0.000 C 
BRANCH  12  13
ATOM     13  C   UNL     1      -0.092 -13.831 -35.592  1.00  0.00     0.006 C 
BRANCH  13  14
ATOM     14  C   UNL     1       0.333 -14.970 -34.655  1.00  0.00     0.053 C 
BRANCH  14  15
ATOM     15  C   UNL     1       1.585 -14.617 -33.912  1.00  0.00     0.041 C 
ATOM     16  O   UNL     1       2.354 -15.523 -33.494  1.00  0.00    -0.550 OA
ATOM     17  O   UNL     1       1.891 -13.285 -33.661  1.00  0.00    -0.550 OA
ENDBRANCH  14  15
ENDBRANCH  13  14
ENDBRANCH  12  13
ENDBRANCH  11  12
ENDBRANCH  10  11
ENDBRANCH   9  10
ENDBRANCH   8   9
ENDBRANCH   7   8
ENDBRANCH   6   7
ENDBRANCH   5   6
ENDBRANCH   4   5
ENDBRANCH   3   4
ENDBRANCH   2   3
ENDBRANCH   1   2
BRANCH   1  18
ATOM     18  C   UNL     1      -4.173  -9.043 -43.957  1.00  0.00     0.000 C 
BRANCH  18  19
ATOM     19  C   UNL     1      -5.533  -9.765 -43.909  1.00  0.00     0.000 C 
BRANCH  19  20
ATOM     20  C   UNL     1      -5.451 -11.287 -43.690  1.00  0.00     0.000 C 
BRANCH  20  21
ATOM     21  C   UNL     1      -5.255 -11.664 -42.213  1.00  0.00     0.000 C 
BRANCH  21  22
ATOM     22  C   UNL     1      -3.833 -12.181 -41.957  1.00  0.00     0.000 C 
BRANCH  22  23
ATOM     23  C   UNL     1      -3.700 -12.734 -40.530  1.00  0.00     0.000 C 
BRANCH  23  24
ATOM     24  C   UNL     1      -3.519 -11.624 -39.480  1.00  0.00    -0.000 C 
BRANCH  24  25
ATOM     25  C   UNL     1      -2.076 -11.551 -38.948  1.00  0.00    -0.000 C 
BRANCH  25  26
ATOM     26  C   UNL     1      -1.247 -12.793 -39.314  1.00  0.00    -0.000 C 
BRANCH  26  27
ATOM     27  C   UNL     1      -0.009 -12.455 -40.160  1.00  0.00    -0.000 C 
BRANCH  27  28
ATOM     28  C   UNL     1      -0.297 -11.279 -41.105  1.00  0.00    -0.000 C 
BRANCH  28  29
ATOM     29  C   UNL     1       0.915 -10.349 -41.283  1.00  0.00    -0.000 C 
BRANCH  29  30
ATOM     30  C   UNL     1       2.158 -11.089 -41.804  1.00  0.00    -0.000 C 
BRANCH  30  31
ATOM     31  C   UNL     1       1.916 -11.764 -43.162  1.00  0.00    -0.003 C 
ATOM     32  C   UNL     1       2.418 -10.924 -44.337  1.00  0.00     0.004 C 
ENDBRANCH  30  31
ENDBRANCH  29  30
ENDBRANCH  28  29
ENDBRANCH  27  28
ENDBRANCH  26  27
ENDBRANCH  25  26
ENDBRANCH  24  25
ENDBRANCH  23  24
ENDBRANCH  22  23
ENDBRANCH  21  22
ENDBRANCH  20  21
ENDBRANCH  19  20
ENDBRANCH  18  19
ENDBRANCH   1  18
TORSDOF 28
ENDMDL
MODEL 7
REMARK VINA RESULT:    -3.577      4.780      7.555
REMARK INTER + INTRA:         -14.310
REMARK INTER:                  -9.188
REMARK INTRA:                  -5.122
REMARK UNBOUND:                -4.877
REMARK SMILES CCCCCCCCCCCCCCCCCCCCCCCCCCCCCC(=O)[O-]
REMARK SMILES IDX 16 1 17 2 18 3 19 4 20 5 21 6 22 7 23 8 24 9 25 10 26 11
REMARK SMILES IDX 27 12 28 13 29 14 30 15 31 16 32 17 15 18 14 19 13 20 12 21
REMARK SMILES IDX 11 22 10 23 9 24 8 25 7 26 6 27 5 28 4 29 3 30 2 31 1 32
REMARK H PARENT
REMARK Flexibility Score: inf
ROOT
ATOM      1  C   UNL     1      -0.380  -7.350 -37.299  1.00  0.00     0.000 C 
ENDROOT
BRANCH   1   2
ATOM      2  C   UNL     1      -1.206  -7.288 -36.000  1.00  0.00     0.000 C 
BRANCH   2   3
ATOM      3  C   UNL     1      -1.418  -8.669 -35.363  1.00  0.00     0.000 C 
BRANCH   3   4
ATOM      4  C   UNL     1      -0.303  -9.644 -35.763  1.00  0.00     0.000 C 
BRANCH   4   5
ATOM      5  C   UNL     1      -0.541 -11.027 -35.144  1.00  0.00     0.000 C 
BRANCH   5   6
ATOM      6  C   UNL     1      -1.005 -10.913 -33.683  1.00  0.00     0.000 C 
BRANCH   6   7
ATOM      7  C   UNL     1      -2.323 -11.675 -33.424  1.00  0.00     0.000 C 
BRANCH   7   8
ATOM      8  C   UNL     1      -2.783 -12.559 -34.601  1.00  0.00     0.000 C 
BRANCH   8   9
ATOM      9  C   UNL     1      -2.585 -14.070 -34.400  1.00  0.00     0.000 C 
BRANCH   9  10
ATOM     10  C   UNL     1      -2.204 -14.806 -35.694  1.00  0.00     0.000 C 
BRANCH  10  11
ATOM     11  C   UNL     1      -0.828 -15.468 -35.559  1.00  0.00     0.000 C 
BRANCH  11  12
ATOM     12  C   UNL     1       0.299 -14.450 -35.788  1.00  0.00     0.000 C 
BRANCH  12  13
ATOM     13  C   UNL     1       1.214 -14.293 -34.563  1.00  0.00     0.006 C 
BRANCH  13  14
ATOM     14  C   UNL     1       1.085 -15.461 -33.574  1.00  0.00     0.053 C 
BRANCH  14  15
ATOM     15  C   UNL     1       2.290 -16.349 -33.630  1.00  0.00     0.041 C 
ATOM     16  O   UNL     1       2.707 -16.923 -32.589  1.00  0.00    -0.550 OA
ATOM     17  O   UNL     1       2.968 -16.525 -34.831  1.00  0.00    -0.550 OA
ENDBRANCH  14  15
ENDBRANCH  13  14
ENDBRANCH  12  13
ENDBRANCH  11  12
ENDBRANCH  10  11
ENDBRANCH   9  10
ENDBRANCH   8   9
ENDBRANCH   7   8
ENDBRANCH   6   7
ENDBRANCH   5   6
ENDBRANCH   4   5
ENDBRANCH   3   4
ENDBRANCH   2   3
ENDBRANCH   1   2
BRANCH   1  18
ATOM     18  C   UNL     1      -1.203  -7.256 -38.599  1.00  0.00     0.000 C 
BRANCH  18  19
ATOM     19  C   UNL     1      -1.076  -8.469 -39.540  1.00  0.00     0.000 C 
BRANCH  19  20
ATOM     20  C   UNL     1      -2.226  -8.627 -40.552  1.00  0.00     0.000 C 
BRANCH  20  21
ATOM     21  C   UNL     1      -1.743  -9.109 -41.929  1.00  0.00     0.000 C 
BRANCH  21  22
ATOM     22  C   UNL     1      -1.833 -10.637 -42.044  1.00  0.00     0.000 C 
BRANCH  22  23
ATOM     23  C   UNL     1      -0.435 -11.272 -42.008  1.00  0.00     0.000 C 
BRANCH  23  24
ATOM     24  C   UNL     1      -0.063 -11.803 -40.613  1.00  0.00    -0.000 C 
BRANCH  24  25
ATOM     25  C   UNL     1      -1.163 -12.698 -40.014  1.00  0.00    -0.000 C 
BRANCH  25  26
ATOM     26  C   UNL     1      -1.378 -12.446 -38.512  1.00  0.00    -0.000 C 
BRANCH  26  27
ATOM     27  C   UNL     1      -2.557 -11.502 -38.230  1.00  0.00    -0.000 C 
BRANCH  27  28
ATOM     28  C   UNL     1      -3.891 -12.165 -38.602  1.00  0.00    -0.000 C 
BRANCH  28  29
ATOM     29  C   UNL     1      -4.619 -11.437 -39.743  1.00  0.00    -0.000 C 
BRANCH  29  30
ATOM     30  C   UNL     1      -4.986 -12.374 -40.906  1.00  0.00    -0.000 C 
BRANCH  30  31
ATOM     31  C   UNL     1      -5.826 -11.675 -41.984  1.00  0.00    -0.003 C 
ATOM     32  C   UNL     1      -6.963 -12.552 -42.509  1.00  0.00     0.004 C 
ENDBRANCH  30  31
ENDBRANCH  29  30
ENDBRANCH  28  29
ENDBRANCH  27  28
ENDBRANCH  26  27
ENDBRANCH  25  26
ENDBRANCH  24  25
ENDBRANCH  23  24
ENDBRANCH  22  23
ENDBRANCH  21  22
ENDBRANCH  20  21
ENDBRANCH  19  20
ENDBRANCH  18  19
ENDBRANCH   1  18
TORSDOF 28
ENDMDL
MODEL 8
REMARK VINA RESULT:    -3.554      4.031      6.929
REMARK INTER + INTRA:         -14.249
REMARK INTER:                  -9.533
REMARK INTRA:                  -4.716
REMARK UNBOUND:                -4.877
REMARK SMILES CCCCCCCCCCCCCCCCCCCCCCCCCCCCCC(=O)[O-]
REMARK SMILES IDX 16 1 17 2 18 3 19 4 20 5 21 6 22 7 23 8 24 9 25 10 26 11
REMARK SMILES IDX 27 12 28 13 29 14 30 15 31 16 32 17 15 18 14 19 13 20 12 21
REMARK SMILES IDX 11 22 10 23 9 24 8 25 7 26 6 27 5 28 4 29 3 30 2 31 1 32
REMARK H PARENT
REMARK Flexibility Score: inf
ROOT
ATOM      1  C   UNL     1      -2.184  -8.097 -39.768  1.00  0.00     0.000 C 
ENDROOT
BRANCH   1   2
ATOM      2  C   UNL     1      -0.823  -8.152 -39.049  1.00  0.00     0.000 C 
BRANCH   2   3
ATOM      3  C   UNL     1      -0.790  -9.187 -37.915  1.00  0.00     0.000 C 
BRANCH   3   4
ATOM      4  C   UNL     1      -0.433  -8.532 -36.575  1.00  0.00     0.000 C 
BRANCH   4   5
ATOM      5  C   UNL     1      -1.265  -9.136 -35.435  1.00  0.00     0.000 C 
BRANCH   5   6
ATOM      6  C   UNL     1      -0.570 -10.363 -34.825  1.00  0.00     0.000 C 
BRANCH   6   7
ATOM      7  C   UNL     1      -1.488 -11.138 -33.855  1.00  0.00     0.000 C 
BRANCH   7   8
ATOM      8  C   UNL     1      -0.982 -11.169 -32.398  1.00  0.00     0.000 C 
BRANCH   8   9
ATOM      9  C   UNL     1      -0.303 -12.479 -31.970  1.00  0.00     0.000 C 
BRANCH   9  10
ATOM     10  C   UNL     1       0.517 -13.129 -33.095  1.00  0.00     0.000 C 
BRANCH  10  11
ATOM     11  C   UNL     1       0.185 -14.621 -33.219  1.00  0.00     0.000 C 
BRANCH  11  12
ATOM     12  C   UNL     1      -0.751 -14.880 -34.410  1.00  0.00     0.000 C 
BRANCH  12  13
ATOM     13  C   UNL     1      -0.234 -14.255 -35.717  1.00  0.00     0.006 C 
BRANCH  13  14
ATOM     14  C   UNL     1      -1.353 -13.610 -36.547  1.00  0.00     0.053 C 
BRANCH  14  15
ATOM     15  C   UNL     1      -2.224 -14.653 -37.178  1.00  0.00     0.041 C 
ATOM     16  O   UNL     1      -3.468 -14.646 -36.983  1.00  0.00    -0.550 OA
ATOM     17  O   UNL     1      -1.657 -15.648 -37.966  1.00  0.00    -0.550 OA
ENDBRANCH  14  15
ENDBRANCH  13  14
ENDBRANCH  12  13
ENDBRANCH  11  12
ENDBRANCH  10  11
ENDBRANCH   9  10
ENDBRANCH   8   9
ENDBRANCH   7   8
ENDBRANCH   6   7
ENDBRANCH   5   6
ENDBRANCH   4   5
ENDBRANCH   3   4
ENDBRANCH   2   3
ENDBRANCH   1   2
BRANCH   1  18
ATOM     18  C   UNL     1      -2.149  -8.489 -41.258  1.00  0.00     0.000 C 
BRANCH  18  19
ATOM     19  C   UNL     1      -3.529  -8.608 -41.933  1.00  0.00     0.000 C 
BRANCH  19  20
ATOM     20  C   UNL     1      -3.565  -9.515 -43.177  1.00  0.00     0.000 C 
BRANCH  20  21
ATOM     21  C   UNL     1      -4.955 -10.120 -43.431  1.00  0.00     0.000 C 
BRANCH  21  22
ATOM     22  C   UNL     1      -4.967 -11.624 -43.131  1.00  0.00     0.000 C 
BRANCH  22  23
ATOM     23  C   UNL     1      -5.901 -11.940 -41.953  1.00  0.00     0.000 C 
BRANCH  23  24
ATOM     24  C   UNL     1      -5.149 -12.511 -40.738  1.00  0.00    -0.000 C 
BRANCH  24  25
ATOM     25  C   UNL     1      -4.574 -11.407 -39.833  1.00  0.00    -0.000 C 
BRANCH  25  26
ATOM     26  C   UNL     1      -3.133 -11.700 -39.384  1.00  0.00    -0.000 C 
BRANCH  26  27
ATOM     27  C   UNL     1      -2.146 -11.774 -40.560  1.00  0.00    -0.000 C 
BRANCH  27  28
ATOM     28  C   UNL     1      -0.928 -12.637 -40.198  1.00  0.00    -0.000 C 
BRANCH  28  29
ATOM     29  C   UNL     1       0.404 -11.984 -40.602  1.00  0.00    -0.000 C 
BRANCH  29  30
ATOM     30  C   UNL     1       0.295 -11.174 -41.906  1.00  0.00    -0.000 C 
BRANCH  30  31
ATOM     31  C   UNL     1       1.361 -10.073 -42.006  1.00  0.00    -0.003 C 
ATOM     32  C   UNL     1       1.065  -9.063 -43.115  1.00  0.00     0.004 C 
ENDBRANCH  30  31
ENDBRANCH  29  30
ENDBRANCH  28  29
ENDBRANCH  27  28
ENDBRANCH  26  27
ENDBRANCH  25  26
ENDBRANCH  24  25
ENDBRANCH  23  24
ENDBRANCH  22  23
ENDBRANCH  21  22
ENDBRANCH  20  21
ENDBRANCH  19  20
ENDBRANCH  18  19
ENDBRANCH   1  18
TORSDOF 28
ENDMDL
MODEL 9
REMARK VINA RESULT:    -3.535      6.544     11.439
REMARK INTER + INTRA:         -14.198
REMARK INTER:                 -10.404
REMARK INTRA:                  -3.794
REMARK UNBOUND:                -4.877
REMARK SMILES CCCCCCCCCCCCCCCCCCCCCCCCCCCCCC(=O)[O-]
REMARK SMILES IDX 16 1 17 2 18 3 19 4 20 5 21 6 22 7 23 8 24 9 25 10 26 11
REMARK SMILES IDX 27 12 28 13 29 14 30 15 31 16 32 17 15 18 14 19 13 20 12 21
REMARK SMILES IDX 11 22 10 23 9 24 8 25 7 26 6 27 5 28 4 29 3 30 2 31 1 32
REMARK H PARENT
REMARK Flexibility Score: inf
ROOT
ATOM      1  C   UNL     1      -0.403  -8.329 -36.733  1.00  0.00     0.000 C 
ENDROOT
BRANCH   1   2
ATOM      2  C   UNL     1      -0.792  -7.771 -38.115  1.00  0.00     0.000 C 
BRANCH   2   3
ATOM      3  C   UNL     1      -1.310  -8.855 -39.072  1.00  0.00     0.000 C 
BRANCH   3   4
ATOM      4  C   UNL     1      -0.378  -9.023 -40.278  1.00  0.00     0.000 C 
BRANCH   4   5
ATOM      5  C   UNL     1      -0.035 -10.502 -40.499  1.00  0.00     0.000 C 
BRANCH   5   6
ATOM      6  C   UNL     1      -0.523 -10.991 -41.871  1.00  0.00     0.000 C 
BRANCH   6   7
ATOM      7  C   UNL     1      -1.775 -10.229 -42.357  1.00  0.00     0.000 C 
BRANCH   7   8
ATOM      8  C   UNL     1      -3.091 -11.018 -42.206  1.00  0.00     0.000 C 
BRANCH   8   9
ATOM      9  C   UNL     1      -2.931 -12.543 -42.102  1.00  0.00     0.000 C 
BRANCH   9  10
ATOM     10  C   UNL     1      -3.329 -13.099 -40.726  1.00  0.00     0.000 C 
BRANCH  10  11
ATOM     11  C   UNL     1      -3.826 -11.976 -39.808  1.00  0.00     0.000 C 
BRANCH  11  12
ATOM     12  C   UNL     1      -3.001 -11.915 -38.514  1.00  0.00     0.000 C 
BRANCH  12  13
ATOM     13  C   UNL     1      -1.848 -12.932 -38.498  1.00  0.00     0.006 C 
BRANCH  13  14
ATOM     14  C   UNL     1      -1.553 -13.471 -37.091  1.00  0.00     0.053 C 
BRANCH  14  15
ATOM     15  C   UNL     1      -2.510 -14.561 -36.720  1.00  0.00     0.041 C 
ATOM     16  O   UNL     1      -3.150 -14.506 -35.637  1.00  0.00    -0.550 OA
ATOM     17  O   UNL     1      -2.679 -15.653 -37.563  1.00  0.00    -0.550 OA
ENDBRANCH  14  15
ENDBRANCH  13  14
ENDBRANCH  12  13
ENDBRANCH  11  12
ENDBRANCH  10  11
ENDBRANCH   9  10
ENDBRANCH   8   9
ENDBRANCH   7   8
ENDBRANCH   6   7
ENDBRANCH   5   6
ENDBRANCH   4   5
ENDBRANCH   3   4
ENDBRANCH   2   3
ENDBRANCH   1   2
BRANCH   1  18
ATOM     18  C   UNL     1      -0.718  -9.823 -36.521  1.00  0.00     0.000 C 
BRANCH  18  19
ATOM     19  C   UNL     1      -0.115 -10.441 -35.245  1.00  0.00     0.000 C 
BRANCH  19  20
ATOM     20  C   UNL     1      -1.108 -10.622 -34.082  1.00  0.00     0.000 C 
BRANCH  20  21
ATOM     21  C   UNL     1      -1.294 -12.094 -33.684  1.00  0.00     0.000 C 
BRANCH  21  22
ATOM     22  C   UNL     1      -0.352 -12.481 -32.536  1.00  0.00     0.000 C 
BRANCH  22  23
ATOM     23  C   UNL     1       0.359 -13.810 -32.834  1.00  0.00     0.000 C 
BRANCH  23  24
ATOM     24  C   UNL     1       1.669 -13.616 -33.617  1.00  0.00    -0.000 C 
BRANCH  24  25
ATOM     25  C   UNL     1       1.861 -14.683 -34.710  1.00  0.00    -0.000 C 
BRANCH  25  26
ATOM     26  C   UNL     1       1.896 -16.111 -34.143  1.00  0.00    -0.000 C 
BRANCH  26  27
ATOM     27  C   UNL     1       3.325 -16.655 -33.986  1.00  0.00    -0.000 C 
BRANCH  27  28
ATOM     28  C   UNL     1       3.633 -16.969 -32.514  1.00  0.00    -0.000 C 
BRANCH  28  29
ATOM     29  C   UNL     1       5.072 -16.603 -32.117  1.00  0.00    -0.000 C 
BRANCH  29  30
ATOM     30  C   UNL     1       6.125 -17.304 -32.992  1.00  0.00    -0.000 C 
BRANCH  30  31
ATOM     31  C   UNL     1       7.490 -16.601 -32.948  1.00  0.00    -0.003 C 
ATOM     32  C   UNL     1       8.608 -17.513 -32.442  1.00  0.00     0.004 C 
ENDBRANCH  30  31
ENDBRANCH  29  30
ENDBRANCH  28  29
ENDBRANCH  27  28
ENDBRANCH  26  27
ENDBRANCH  25  26
ENDBRANCH  24  25
ENDBRANCH  23  24
ENDBRANCH  22  23
ENDBRANCH  21  22
ENDBRANCH  20  21
ENDBRANCH  19  20
ENDBRANCH  18  19
ENDBRANCH   1  18
TORSDOF 28
ENDMDL
