MODEL 1
REMARK VINA RESULT:    -3.874      0.000      0.000
REMARK INTER + INTRA:         -10.350
REMARK INTER:                  -7.498
REMARK INTRA:                  -2.852
REMARK UNBOUND:                -2.852
REMARK SMILES CCCCCCCCCCCCCCCCCC(=O)[O-]
REMARK SMILES IDX 10 1 11 2 12 3 13 4 14 5 15 6 16 7 17 8 18 9 19 10 20 11
REMARK SMILES IDX 9 12 8 13 7 14 6 15 5 16 4 17 3 18 2 19 1 20
REMARK H PARENT
REMARK Flexibility Score: inf
ROOT
ATOM      1  C   UNL     1     -26.847 -53.498  32.082  1.00  0.00     0.000 C 
ENDROOT
BRANCH   1   2
ATOM      2  C   UNL     1     -25.465 -53.719  31.436  1.00  0.00     0.000 C 
BRANCH   2   3
ATOM      3  C   UNL     1     -25.493 -53.983  29.918  1.00  0.00     0.000 C 
BRANCH   3   4
ATOM      4  C   UNL     1     -24.716 -52.959  29.066  1.00  0.00     0.000 C 
BRANCH   4   5
ATOM      5  C   UNL     1     -24.754 -53.216  27.546  1.00  0.00     0.000 C 
BRANCH   5   6
ATOM      6  C   UNL     1     -25.937 -54.074  27.058  1.00  0.00     0.000 C 
BRANCH   6   7
ATOM      7  C   UNL     1     -26.890 -53.370  26.070  1.00  0.00     0.006 C 
BRANCH   7   8
ATOM      8  C   UNL     1     -27.965 -54.284  25.462  1.00  0.00     0.053 C 
BRANCH   8   9
ATOM      9  C   UNL     1     -27.816 -54.413  23.977  1.00  0.00     0.041 C 
ATOM     10  O   UNL     1     -27.777 -55.551  23.441  1.00  0.00    -0.550 OA
ATOM     11  O   UNL     1     -27.686 -53.276  23.189  1.00  0.00    -0.550 OA
ENDBRANCH   8   9
ENDBRANCH   7   8
ENDBRANCH   6   7
ENDBRANCH   5   6
ENDBRANCH   4   5
ENDBRANCH   3   4
ENDBRANCH   2   3
ENDBRANCH   1   2
BRANCH   1  12
ATOM     12  C   UNL     1     -26.876 -52.467  33.229  1.00  0.00     0.000 C 
BRANCH  12  13
ATOM     13  C   UNL     1     -25.603 -51.615  33.376  1.00  0.00    -0.000 C 
BRANCH  13  14
ATOM     14  C   UNL     1     -25.744 -50.218  32.749  1.00  0.00    -0.000 C 
BRANCH  14  15
ATOM     15  C   UNL     1     -24.959 -50.079  31.435  1.00  0.00    -0.000 C 
BRANCH  15  16
ATOM     16  C   UNL     1     -25.830 -49.576  30.269  1.00  0.00    -0.000 C 
BRANCH  16  17
ATOM     17  C   UNL     1     -27.249 -50.181  30.302  1.00  0.00    -0.000 C 
BRANCH  17  18
ATOM     18  C   UNL     1     -27.646 -50.890  28.996  1.00  0.00    -0.000 C 
BRANCH  18  19
ATOM     19  C   UNL     1     -28.642 -52.037  29.218  1.00  0.00    -0.003 C 
ATOM     20  C   UNL     1     -29.577 -51.735  30.386  1.00  0.00     0.004 C 
ENDBRANCH  18  19
ENDBRANCH  17  18
ENDBRANCH  16  17
ENDBRANCH  15  16
ENDBRANCH  14  15
ENDBRANCH  13  14
ENDBRANCH  12  13
ENDBRANCH   1  12
TORSDOF 16
ENDMDL
MODEL 2
REMARK VINA RESULT:    -3.723     10.174     12.342
REMARK INTER + INTRA:         -10.058
REMARK INTER:                  -7.446
REMARK INTRA:                  -2.611
REMARK UNBOUND:                -2.852
REMARK SMILES CCCCCCCCCCCCCCCCCC(=O)[O-]
REMARK SMILES IDX 10 1 11 2 12 3 13 4 14 5 15 6 16 7 17 8 18 9 19 10 20 11
REMARK SMILES IDX 9 12 8 13 7 14 6 15 5 16 4 17 3 18 2 19 1 20
REMARK H PARENT
REMARK Flexibility Score: inf
ROOT
ATOM      1  C   UNL     1     -33.213 -45.955  28.173  1.00  0.00     0.000 C 
ENDROOT
BRANCH   1   2
ATOM      2  C   UNL     1     -34.638 -46.324  27.717  1.00  0.00     0.000 C 
BRANCH   2   3
ATOM      3  C   UNL     1     -35.624 -45.141  27.648  1.00  0.00     0.000 C 
BRANCH   3   4
ATOM      4  C   UNL     1     -36.347 -44.820  28.971  1.00  0.00     0.000 C 
BRANCH   4   5
ATOM      5  C   UNL     1     -36.404 -45.984  29.981  1.00  0.00     0.000 C 
BRANCH   5   6
ATOM      6  C   UNL     1     -35.827 -45.667  31.374  1.00  0.00     0.000 C 
BRANCH   6   7
ATOM      7  C   UNL     1     -34.701 -44.612  31.389  1.00  0.00     0.006 C 
BRANCH   7   8
ATOM      8  C   UNL     1     -33.394 -45.087  32.041  1.00  0.00     0.053 C 
BRANCH   8   9
ATOM      9  C   UNL     1     -33.328 -44.727  33.494  1.00  0.00     0.041 C 
ATOM     10  O   UNL     1     -33.757 -45.528  34.365  1.00  0.00    -0.550 OA
ATOM     11  O   UNL     1     -32.827 -43.491  33.883  1.00  0.00    -0.550 OA
ENDBRANCH   8   9
ENDBRANCH   7   8
ENDBRANCH   6   7
ENDBRANCH   5   6
ENDBRANCH   4   5
ENDBRANCH   3   4
ENDBRANCH   2   3
ENDBRANCH   1   2
BRANCH   1  12
ATOM     12  C   UNL     1     -32.870 -44.453  28.099  1.00  0.00     0.000 C 
BRANCH  12  13
ATOM     13  C   UNL     1     -32.094 -44.019  26.842  1.00  0.00    -0.000 C 
BRANCH  13  14
ATOM     14  C   UNL     1     -32.959 -43.223  25.851  1.00  0.00    -0.000 C 
BRANCH  14  15
ATOM     15  C   UNL     1     -33.283 -44.020  24.578  1.00  0.00    -0.000 C 
BRANCH  15  16
ATOM     16  C   UNL     1     -32.268 -45.145  24.303  1.00  0.00    -0.000 C 
BRANCH  16  17
ATOM     17  C   UNL     1     -32.919 -46.356  23.603  1.00  0.00    -0.000 C 
BRANCH  17  18
ATOM     18  C   UNL     1     -32.992 -47.613  24.486  1.00  0.00    -0.000 C 
BRANCH  18  19
ATOM     19  C   UNL     1     -34.403 -48.216  24.551  1.00  0.00    -0.003 C 
ATOM     20  C   UNL     1     -35.459 -47.187  24.156  1.00  0.00     0.004 C 
ENDBRANCH  18  19
ENDBRANCH  17  18
ENDBRANCH  16  17
ENDBRANCH  15  16
ENDBRANCH  14  15
ENDBRANCH  13  14
ENDBRANCH  12  13
ENDBRANCH   1  12
TORSDOF 16
ENDMDL
MODEL 3
REMARK VINA RESULT:    -3.707      1.784      3.768
REMARK INTER + INTRA:         -10.025
REMARK INTER:                  -7.240
REMARK INTRA:                  -2.785
REMARK UNBOUND:                -2.852
REMARK SMILES CCCCCCCCCCCCCCCCCC(=O)[O-]
REMARK SMILES IDX 10 1 11 2 12 3 13 4 14 5 15 6 16 7 17 8 18 9 19 10 20 11
REMARK SMILES IDX 9 12 8 13 7 14 6 15 5 16 4 17 3 18 2 19 1 20
REMARK H PARENT
REMARK Flexibility Score: inf
ROOT
ATOM      1  C   UNL     1     -28.090 -53.022  28.416  1.00  0.00     0.000 C 
ENDROOT
BRANCH   1   2
ATOM      2  C   UNL     1     -28.026 -51.743  27.558  1.00  0.00     0.000 C 
BRANCH   2   3
ATOM      3  C   UNL     1     -26.609 -51.179  27.339  1.00  0.00     0.000 C 
BRANCH   3   4
ATOM      4  C   UNL     1     -25.865 -51.747  26.114  1.00  0.00     0.000 C 
BRANCH   4   5
ATOM      5  C   UNL     1     -26.065 -50.956  24.806  1.00  0.00     0.000 C 
BRANCH   5   6
ATOM      6  C   UNL     1     -26.832 -51.707  23.700  1.00  0.00     0.000 C 
BRANCH   6   7
ATOM      7  C   UNL     1     -28.360 -51.774  23.897  1.00  0.00     0.006 C 
BRANCH   7   8
ATOM      8  C   UNL     1     -28.881 -53.140  24.369  1.00  0.00     0.053 C 
BRANCH   8   9
ATOM      9  C   UNL     1     -28.848 -54.162  23.275  1.00  0.00     0.041 C 
ATOM     10  O   UNL     1     -28.055 -55.137  23.343  1.00  0.00    -0.550 OA
ATOM     11  O   UNL     1     -29.667 -54.018  22.163  1.00  0.00    -0.550 OA
ENDBRANCH   8   9
ENDBRANCH   7   8
ENDBRANCH   6   7
ENDBRANCH   5   6
ENDBRANCH   4   5
ENDBRANCH   3   4
ENDBRANCH   2   3
ENDBRANCH   1   2
BRANCH   1  12
ATOM     12  C   UNL     1     -27.733 -54.326  27.675  1.00  0.00     0.000 C 
BRANCH  12  13
ATOM     13  C   UNL     1     -26.376 -54.946  28.055  1.00  0.00    -0.000 C 
BRANCH  13  14
ATOM     14  C   UNL     1     -25.747 -54.290  29.296  1.00  0.00    -0.000 C 
BRANCH  14  15
ATOM     15  C   UNL     1     -24.459 -53.519  28.968  1.00  0.00    -0.000 C 
BRANCH  15  16
ATOM     16  C   UNL     1     -24.185 -52.367  29.952  1.00  0.00    -0.000 C 
BRANCH  16  17
ATOM     17  C   UNL     1     -25.218 -52.325  31.098  1.00  0.00    -0.000 C 
BRANCH  17  18
ATOM     18  C   UNL     1     -26.156 -51.108  31.039  1.00  0.00    -0.000 C 
BRANCH  18  19
ATOM     19  C   UNL     1     -27.527 -51.378  31.674  1.00  0.00    -0.003 C 
ATOM     20  C   UNL     1     -27.641 -52.828  32.137  1.00  0.00     0.004 C 
ENDBRANCH  18  19
ENDBRANCH  17  18
ENDBRANCH  16  17
ENDBRANCH  15  16
ENDBRANCH  14  15
ENDBRANCH  13  14
ENDBRANCH  12  13
ENDBRANCH   1  12
TORSDOF 16
ENDMDL
MODEL 4
REMARK VINA RESULT:    -3.653      7.008      8.795
REMARK INTER + INTRA:          -9.921
REMARK INTER:                  -7.095
REMARK INTRA:                  -2.825
REMARK UNBOUND:                -2.852
REMARK SMILES CCCCCCCCCCCCCCCCCC(=O)[O-]
REMARK SMILES IDX 10 1 11 2 12 3 13 4 14 5 15 6 16 7 17 8 18 9 19 10 20 11
REMARK SMILES IDX 9 12 8 13 7 14 6 15 5 16 4 17 3 18 2 19 1 20
REMARK H PARENT
REMARK Flexibility Score: inf
ROOT
ATOM      1  C   UNL     1     -29.628 -48.545  25.281  1.00  0.00     0.000 C 
ENDROOT
BRANCH   1   2
ATOM      2  C   UNL     1     -28.804 -47.879  26.400  1.00  0.00     0.000 C 
BRANCH   2   3
ATOM      3  C   UNL     1     -28.347 -46.438  26.100  1.00  0.00     0.000 C 
BRANCH   3   4
ATOM      4  C   UNL     1     -26.879 -46.302  25.651  1.00  0.00     0.000 C 
BRANCH   4   5
ATOM      5  C   UNL     1     -26.616 -46.649  24.172  1.00  0.00     0.000 C 
BRANCH   5   6
ATOM      6  C   UNL     1     -25.681 -47.853  23.940  1.00  0.00     0.000 C 
BRANCH   6   7
ATOM      7  C   UNL     1     -26.388 -49.153  23.507  1.00  0.00     0.006 C 
BRANCH   7   8
ATOM      8  C   UNL     1     -27.347 -48.989  22.317  1.00  0.00     0.053 C 
BRANCH   8   9
ATOM      9  C   UNL     1     -28.173 -50.217  22.090  1.00  0.00     0.041 C 
ATOM     10  O   UNL     1     -29.167 -50.178  21.318  1.00  0.00    -0.550 OA
ATOM     11  O   UNL     1     -27.867 -51.396  22.758  1.00  0.00    -0.550 OA
ENDBRANCH   8   9
ENDBRANCH   7   8
ENDBRANCH   6   7
ENDBRANCH   5   6
ENDBRANCH   4   5
ENDBRANCH   3   4
ENDBRANCH   2   3
ENDBRANCH   1   2
BRANCH   1  12
ATOM     12  C   UNL     1     -30.729 -47.659  24.663  1.00  0.00     0.000 C 
BRANCH  12  13
ATOM     13  C   UNL     1     -30.960 -47.858  23.153  1.00  0.00    -0.000 C 
BRANCH  13  14
ATOM     14  C   UNL     1     -30.170 -46.858  22.293  1.00  0.00    -0.000 C 
BRANCH  14  15
ATOM     15  C   UNL     1     -29.967 -45.506  22.996  1.00  0.00    -0.000 C 
BRANCH  15  16
ATOM     16  C   UNL     1     -30.949 -44.425  22.508  1.00  0.00    -0.000 C 
BRANCH  16  17
ATOM     17  C   UNL     1     -31.801 -43.852  23.660  1.00  0.00    -0.000 C 
BRANCH  17  18
ATOM     18  C   UNL     1     -33.292 -44.216  23.565  1.00  0.00    -0.000 C 
BRANCH  18  19
ATOM     19  C   UNL     1     -33.671 -45.415  24.445  1.00  0.00    -0.003 C 
ATOM     20  C   UNL     1     -34.363 -46.502  23.627  1.00  0.00     0.004 C 
ENDBRANCH  18  19
ENDBRANCH  17  18
ENDBRANCH  16  17
ENDBRANCH  15  16
ENDBRANCH  14  15
ENDBRANCH  13  14
ENDBRANCH  12  13
ENDBRANCH   1  12
TORSDOF 16
ENDMDL
MODEL 5
REMARK VINA RESULT:    -3.643      1.909      2.091
REMARK INTER + INTRA:          -9.902
REMARK INTER:                  -6.994
REMARK INTRA:                  -2.908
REMARK UNBOUND:                -2.852
REMARK SMILES CCCCCCCCCCCCCCCCCC(=O)[O-]
REMARK SMILES IDX 10 1 11 2 12 3 13 4 14 5 15 6 16 7 17 8 18 9 19 10 20 11
REMARK SMILES IDX 9 12 8 13 7 14 6 15 5 16 4 17 3 18 2 19 1 20
REMARK H PARENT
REMARK Flexibility Score: inf
ROOT
ATOM      1  C   UNL     1     -26.839 -53.503  32.003  1.00  0.00     0.000 C 
ENDROOT
BRANCH   1   2
ATOM      2  C   UNL     1     -25.519 -53.759  31.250  1.00  0.00     0.000 C 
BRANCH   2   3
ATOM      3  C   UNL     1     -25.660 -53.896  29.721  1.00  0.00     0.000 C 
BRANCH   3   4
ATOM      4  C   UNL     1     -24.752 -52.960  28.899  1.00  0.00     0.000 C 
BRANCH   4   5
ATOM      5  C   UNL     1     -24.862 -53.126  27.370  1.00  0.00     0.000 C 
BRANCH   5   6
ATOM      6  C   UNL     1     -26.292 -53.344  26.839  1.00  0.00     0.000 C 
BRANCH   6   7
ATOM      7  C   UNL     1     -26.848 -52.196  25.971  1.00  0.00     0.006 C 
BRANCH   7   8
ATOM      8  C   UNL     1     -26.134 -52.016  24.622  1.00  0.00     0.053 C 
BRANCH   8   9
ATOM      9  C   UNL     1     -25.578 -50.635  24.462  1.00  0.00     0.041 C 
ATOM     10  O   UNL     1     -24.376 -50.471  24.125  1.00  0.00    -0.550 OA
ATOM     11  O   UNL     1     -26.376 -49.527  24.720  1.00  0.00    -0.550 OA
ENDBRANCH   8   9
ENDBRANCH   7   8
ENDBRANCH   6   7
ENDBRANCH   5   6
ENDBRANCH   4   5
ENDBRANCH   3   4
ENDBRANCH   2   3
ENDBRANCH   1   2
BRANCH   1  12
ATOM     12  C   UNL     1     -26.739 -52.515  33.183  1.00  0.00     0.000 C 
BRANCH  12  13
ATOM     13  C   UNL     1     -25.462 -51.655  33.212  1.00  0.00    -0.000 C 
BRANCH  13  14
ATOM     14  C   UNL     1     -25.672 -50.256  32.611  1.00  0.00    -0.000 C 
BRANCH  14  15
ATOM     15  C   UNL     1     -24.934 -50.069  31.276  1.00  0.00    -0.000 C 
BRANCH  15  16
ATOM     16  C   UNL     1     -25.874 -49.667  30.125  1.00  0.00    -0.000 C 
BRANCH  16  17
ATOM     17  C   UNL     1     -27.315 -50.173  30.349  1.00  0.00    -0.000 C 
BRANCH  17  18
ATOM     18  C   UNL     1     -27.931 -50.844  29.110  1.00  0.00    -0.000 C 
BRANCH  18  19
ATOM     19  C   UNL     1     -28.901 -51.980  29.466  1.00  0.00    -0.003 C 
ATOM     20  C   UNL     1     -29.741 -51.622  30.689  1.00  0.00     0.004 C 
ENDBRANCH  18  19
ENDBRANCH  17  18
ENDBRANCH  16  17
ENDBRANCH  15  16
ENDBRANCH  14  15
ENDBRANCH  13  14
ENDBRANCH  12  13
ENDBRANCH   1  12
TORSDOF 16
ENDMDL
MODEL 6
REMARK VINA RESULT:    -3.619      3.484      5.924
REMARK INTER + INTRA:          -9.856
REMARK INTER:                  -6.930
REMARK INTRA:                  -2.926
REMARK UNBOUND:                -2.852
REMARK SMILES CCCCCCCCCCCCCCCCCC(=O)[O-]
REMARK SMILES IDX 10 1 11 2 12 3 13 4 14 5 15 6 16 7 17 8 18 9 19 10 20 11
REMARK SMILES IDX 9 12 8 13 7 14 6 15 5 16 4 17 3 18 2 19 1 20
REMARK H PARENT
REMARK Flexibility Score: inf
ROOT
ATOM      1  C   UNL     1     -28.551 -50.931  32.591  1.00  0.00     0.000 C 
ENDROOT
BRANCH   1   2
ATOM      2  C   UNL     1     -27.989 -52.348  32.817  1.00  0.00     0.000 C 
BRANCH   2   3
ATOM      3  C   UNL     1     -26.947 -52.460  33.948  1.00  0.00     0.000 C 
BRANCH   3   4
ATOM      4  C   UNL     1     -26.126 -51.180  34.205  1.00  0.00     0.000 C 
BRANCH   4   5
ATOM      5  C   UNL     1     -24.791 -51.098  33.438  1.00  0.00     0.000 C 
BRANCH   5   6
ATOM      6  C   UNL     1     -24.857 -50.351  32.091  1.00  0.00     0.000 C 
BRANCH   6   7
ATOM      7  C   UNL     1     -24.429 -51.181  30.864  1.00  0.00     0.006 C 
BRANCH   7   8
ATOM      8  C   UNL     1     -25.596 -51.747  30.040  1.00  0.00     0.053 C 
BRANCH   8   9
ATOM      9  C   UNL     1     -25.223 -53.016  29.338  1.00  0.00     0.041 C 
ATOM     10  O   UNL     1     -24.703 -52.977  28.192  1.00  0.00    -0.550 OA
ATOM     11  O   UNL     1     -25.482 -54.244  29.935  1.00  0.00    -0.550 OA
ENDBRANCH   8   9
ENDBRANCH   7   8
ENDBRANCH   6   7
ENDBRANCH   5   6
ENDBRANCH   4   5
ENDBRANCH   3   4
ENDBRANCH   2   3
ENDBRANCH   1   2
BRANCH   1  12
ATOM     12  C   UNL     1     -30.079 -50.856  32.395  1.00  0.00     0.000 C 
BRANCH  12  13
ATOM     13  C   UNL     1     -30.903 -51.770  33.321  1.00  0.00    -0.000 C 
BRANCH  13  14
ATOM     14  C   UNL     1     -31.033 -51.212  34.748  1.00  0.00    -0.000 C 
BRANCH  14  15
ATOM     15  C   UNL     1     -30.229 -52.025  35.775  1.00  0.00    -0.000 C 
BRANCH  15  16
ATOM     16  C   UNL     1     -29.148 -51.189  36.484  1.00  0.00    -0.000 C 
BRANCH  16  17
ATOM     17  C   UNL     1     -29.459 -49.678  36.438  1.00  0.00    -0.000 C 
BRANCH  17  18
ATOM     18  C   UNL     1     -28.267 -48.818  35.985  1.00  0.00    -0.000 C 
BRANCH  18  19
ATOM     19  C   UNL     1     -28.616 -47.880  34.820  1.00  0.00    -0.003 C 
ATOM     20  C   UNL     1     -27.409 -47.653  33.915  1.00  0.00     0.004 C 
ENDBRANCH  18  19
ENDBRANCH  17  18
ENDBRANCH  16  17
ENDBRANCH  15  16
ENDBRANCH  14  15
ENDBRANCH  13  14
ENDBRANCH  12  13
ENDBRANCH   1  12
TORSDOF 16
ENDMDL
MODEL 7
REMARK VINA RESULT:    -3.616      4.665      7.623
REMARK INTER + INTRA:          -9.850
REMARK INTER:                  -7.297
REMARK INTRA:                  -2.553
REMARK UNBOUND:                -2.852
REMARK SMILES CCCCCCCCCCCCCCCCCC(=O)[O-]
REMARK SMILES IDX 10 1 11 2 12 3 13 4 14 5 15 6 16 7 17 8 18 9 19 10 20 11
REMARK SMILES IDX 9 12 8 13 7 14 6 15 5 16 4 17 3 18 2 19 1 20
REMARK H PARENT
REMARK Flexibility Score: inf
ROOT
ATOM      1  C   UNL     1     -30.557 -49.034  23.121  1.00  0.00     0.000 C 
ENDROOT
BRANCH   1   2
ATOM      2  C   UNL     1     -31.211 -50.209  22.369  1.00  0.00     0.000 C 
BRANCH   2   3
ATOM      3  C   UNL     1     -30.292 -51.425  22.139  1.00  0.00     0.000 C 
BRANCH   3   4
ATOM      4  C   UNL     1     -30.611 -52.655  23.011  1.00  0.00     0.000 C 
BRANCH   4   5
ATOM      5  C   UNL     1     -29.731 -53.892  22.739  1.00  0.00     0.000 C 
BRANCH   5   6
ATOM      6  C   UNL     1     -28.254 -53.746  23.155  1.00  0.00     0.000 C 
BRANCH   6   7
ATOM      7  C   UNL     1     -27.786 -54.726  24.251  1.00  0.00     0.006 C 
BRANCH   7   8
ATOM      8  C   UNL     1     -28.113 -54.280  25.684  1.00  0.00     0.053 C 
BRANCH   8   9
ATOM      9  C   UNL     1     -26.878 -54.120  26.517  1.00  0.00     0.041 C 
ATOM     10  O   UNL     1     -25.965 -53.334  26.151  1.00  0.00    -0.550 OA
ATOM     11  O   UNL     1     -26.719 -54.866  27.678  1.00  0.00    -0.550 OA
ENDBRANCH   8   9
ENDBRANCH   7   8
ENDBRANCH   6   7
ENDBRANCH   5   6
ENDBRANCH   4   5
ENDBRANCH   3   4
ENDBRANCH   2   3
ENDBRANCH   1   2
BRANCH   1  12
ATOM     12  C   UNL     1     -30.676 -47.663  22.424  1.00  0.00     0.000 C 
BRANCH  12  13
ATOM     13  C   UNL     1     -29.661 -46.602  22.889  1.00  0.00    -0.000 C 
BRANCH  13  14
ATOM     14  C   UNL     1     -28.936 -46.997  24.186  1.00  0.00    -0.000 C 
BRANCH  14  15
ATOM     15  C   UNL     1     -27.466 -46.551  24.200  1.00  0.00    -0.000 C 
BRANCH  15  16
ATOM     16  C   UNL     1     -26.485 -47.730  24.343  1.00  0.00    -0.000 C 
BRANCH  16  17
ATOM     17  C   UNL     1     -26.651 -48.763  23.209  1.00  0.00    -0.000 C 
BRANCH  17  18
ATOM     18  C   UNL     1     -27.074 -50.157  23.702  1.00  0.00    -0.000 C 
BRANCH  18  19
ATOM     19  C   UNL     1     -27.275 -50.217  25.223  1.00  0.00    -0.003 C 
ATOM     20  C   UNL     1     -28.651 -50.775  25.575  1.00  0.00     0.004 C 
ENDBRANCH  18  19
ENDBRANCH  17  18
ENDBRANCH  16  17
ENDBRANCH  15  16
ENDBRANCH  14  15
ENDBRANCH  13  14
ENDBRANCH  12  13
ENDBRANCH   1  12
TORSDOF 16
ENDMDL
MODEL 8
REMARK VINA RESULT:    -3.600      4.213      6.933
REMARK INTER + INTRA:          -9.819
REMARK INTER:                  -6.993
REMARK INTRA:                  -2.826
REMARK UNBOUND:                -2.852
REMARK SMILES CCCCCCCCCCCCCCCCCC(=O)[O-]
REMARK SMILES IDX 10 1 11 2 12 3 13 4 14 5 15 6 16 7 17 8 18 9 19 10 20 11
REMARK SMILES IDX 9 12 8 13 7 14 6 15 5 16 4 17 3 18 2 19 1 20
REMARK H PARENT
REMARK Flexibility Score: inf
ROOT
ATOM      1  C   UNL     1     -27.222 -50.847  25.976  1.00  0.00     0.000 C 
ENDROOT
BRANCH   1   2
ATOM      2  C   UNL     1     -28.324 -51.895  26.220  1.00  0.00     0.000 C 
BRANCH   2   3
ATOM      3  C   UNL     1     -27.972 -53.325  25.766  1.00  0.00     0.000 C 
BRANCH   3   4
ATOM      4  C   UNL     1     -28.067 -54.399  26.867  1.00  0.00     0.000 C 
BRANCH   4   5
ATOM      5  C   UNL     1     -26.983 -54.309  27.960  1.00  0.00     0.000 C 
BRANCH   5   6
ATOM      6  C   UNL     1     -25.546 -54.115  27.438  1.00  0.00     0.000 C 
BRANCH   6   7
ATOM      7  C   UNL     1     -24.701 -53.089  28.220  1.00  0.00     0.006 C 
BRANCH   7   8
ATOM      8  C   UNL     1     -25.518 -52.141  29.112  1.00  0.00     0.053 C 
BRANCH   8   9
ATOM      9  C   UNL     1     -24.994 -52.099  30.514  1.00  0.00     0.041 C 
ATOM     10  O   UNL     1     -24.302 -51.122  30.903  1.00  0.00    -0.550 OA
ATOM     11  O   UNL     1     -25.239 -53.157  31.381  1.00  0.00    -0.550 OA
ENDBRANCH   8   9
ENDBRANCH   7   8
ENDBRANCH   6   7
ENDBRANCH   5   6
ENDBRANCH   4   5
ENDBRANCH   3   4
ENDBRANCH   2   3
ENDBRANCH   1   2
BRANCH   1  12
ATOM     12  C   UNL     1     -25.994 -51.357  25.194  1.00  0.00     0.000 C 
BRANCH  12  13
ATOM     13  C   UNL     1     -25.804 -50.739  23.797  1.00  0.00    -0.000 C 
BRANCH  13  14
ATOM     14  C   UNL     1     -25.963 -49.210  23.794  1.00  0.00    -0.000 C 
BRANCH  14  15
ATOM     15  C   UNL     1     -27.030 -48.728  22.798  1.00  0.00    -0.000 C 
BRANCH  15  16
ATOM     16  C   UNL     1     -28.343 -48.312  23.486  1.00  0.00    -0.000 C 
BRANCH  16  17
ATOM     17  C   UNL     1     -29.492 -49.300  23.191  1.00  0.00    -0.000 C 
BRANCH  17  18
ATOM     18  C   UNL     1     -29.152 -50.332  22.103  1.00  0.00    -0.000 C 
BRANCH  18  19
ATOM     19  C   UNL     1     -29.262 -51.780  22.599  1.00  0.00    -0.003 C 
ATOM     20  C   UNL     1     -30.663 -52.076  23.127  1.00  0.00     0.004 C 
ENDBRANCH  18  19
ENDBRANCH  17  18
ENDBRANCH  16  17
ENDBRANCH  15  16
ENDBRANCH  14  15
ENDBRANCH  13  14
ENDBRANCH  12  13
ENDBRANCH   1  12
TORSDOF 16
ENDMDL
MODEL 9
REMARK VINA RESULT:    -3.590      4.511      7.451
REMARK INTER + INTRA:          -9.800
REMARK INTER:                  -7.442
REMARK INTRA:                  -2.358
REMARK UNBOUND:                -2.852
REMARK SMILES CCCCCCCCCCCCCCCCCC(=O)[O-]
REMARK SMILES IDX 10 1 11 2 12 3 13 4 14 5 15 6 16 7 17 8 18 9 19 10 20 11
REMARK SMILES IDX 9 12 8 13 7 14 6 15 5 16 4 17 3 18 2 19 1 20
REMARK H PARENT
REMARK Flexibility Score: inf
ROOT
ATOM      1  C   UNL     1     -29.442 -50.920  25.606  1.00  0.00     0.000 C 
ENDROOT
BRANCH   1   2
ATOM      2  C   UNL     1     -27.948 -50.612  25.827  1.00  0.00     0.000 C 
BRANCH   2   3
ATOM      3  C   UNL     1     -26.980 -51.418  24.939  1.00  0.00     0.000 C 
BRANCH   3   4
ATOM      4  C   UNL     1     -25.565 -51.604  25.522  1.00  0.00     0.000 C 
BRANCH   4   5
ATOM      5  C   UNL     1     -25.456 -52.662  26.639  1.00  0.00     0.000 C 
BRANCH   5   6
ATOM      6  C   UNL     1     -26.431 -53.849  26.512  1.00  0.00     0.000 C 
BRANCH   6   7
ATOM      7  C   UNL     1     -26.987 -54.382  27.848  1.00  0.00     0.006 C 
BRANCH   7   8
ATOM      8  C   UNL     1     -25.916 -54.669  28.912  1.00  0.00     0.053 C 
BRANCH   8   9
ATOM      9  C   UNL     1     -26.114 -53.842  30.145  1.00  0.00     0.041 C 
ATOM     10  O   UNL     1     -26.773 -52.771  30.090  1.00  0.00    -0.550 OA
ATOM     11  O   UNL     1     -25.539 -54.235  31.348  1.00  0.00    -0.550 OA
ENDBRANCH   8   9
ENDBRANCH   7   8
ENDBRANCH   6   7
ENDBRANCH   5   6
ENDBRANCH   4   5
ENDBRANCH   3   4
ENDBRANCH   2   3
ENDBRANCH   1   2
BRANCH   1  12
ATOM     12  C   UNL     1     -29.732 -52.169  24.748  1.00  0.00     0.000 C 
BRANCH  12  13
ATOM     13  C   UNL     1     -30.984 -52.074  23.856  1.00  0.00    -0.000 C 
BRANCH  13  14
ATOM     14  C   UNL     1     -30.704 -51.392  22.506  1.00  0.00    -0.000 C 
BRANCH  14  15
ATOM     15  C   UNL     1     -31.173 -49.929  22.476  1.00  0.00    -0.000 C 
BRANCH  15  16
ATOM     16  C   UNL     1     -30.011 -48.933  22.305  1.00  0.00    -0.000 C 
BRANCH  16  17
ATOM     17  C   UNL     1     -28.689 -49.640  21.939  1.00  0.00    -0.000 C 
BRANCH  17  18
ATOM     18  C   UNL     1     -27.435 -48.878  22.398  1.00  0.00    -0.000 C 
BRANCH  18  19
ATOM     19  C   UNL     1     -27.741 -47.804  23.451  1.00  0.00    -0.003 C 
ATOM     20  C   UNL     1     -26.471 -47.368  24.177  1.00  0.00     0.004 C 
ENDBRANCH  18  19
ENDBRANCH  17  18
ENDBRANCH  16  17
ENDBRANCH  15  16
ENDBRANCH  14  15
ENDBRANCH  13  14
ENDBRANCH  12  13
ENDBRANCH   1  12
TORSDOF 16
ENDMDL
