MODEL 1
REMARK VINA RESULT:    -5.238      0.000      0.000
REMARK INTER + INTRA:          -6.468
REMARK INTER:                  -6.156
REMARK INTRA:                  -0.312
REMARK UNBOUND:                -0.312
REMARK SMILES O=c1cc(-c2ccc(O)c(O)c2)oc2cc(O)cc(O)c12
REMARK SMILES IDX 4 1 3 2 2 3 1 4 21 5 19 6 18 7 16 8 15 9 14 10 13 11 5 12
REMARK SMILES IDX 6 13 7 14 8 15 12 16 10 17 9 18 11 20 20 22 17 24
REMARK H PARENT 9 19 11 21 20 23 17 25
REMARK Flexibility Score: inf
ROOT
ATOM      1  C   UNL     1      56.160   9.210   4.777  1.00  0.00     0.138 A 
ATOM      2  C   UNL     1      55.681   9.116   3.464  1.00  0.00     0.100 A 
ATOM      3  C   UNL     1      54.308   9.020   3.234  1.00  0.00     0.197 A 
ATOM      4  O   UNL     1      53.912   8.875   2.049  1.00  0.00    -0.289 OA
ATOM      5  C   UNL     1      53.409   9.049   4.328  1.00  0.00     0.107 A 
ATOM      6  C   UNL     1      51.988   8.998   4.212  1.00  0.00     0.134 A 
ATOM      7  C   UNL     1      51.203   8.916   5.370  1.00  0.00     0.093 A 
ATOM      8  C   UNL     1      51.785   8.944   6.636  1.00  0.00     0.123 A 
ATOM      9  C   UNL     1      53.170   9.047   6.762  1.00  0.00     0.094 A 
ATOM     10  C   UNL     1      53.982   9.096   5.626  1.00  0.00     0.146 A 
ATOM     11  O   UNL     1      55.299   9.180   5.788  1.00  0.00    -0.456 OA
ENDROOT
BRANCH   1  12
ATOM     12  C   UNL     1      57.610   9.316   5.077  1.00  0.00     0.021 A 
ATOM     13  C   UNL     1      58.548   8.877   4.126  1.00  0.00     0.016 A 
ATOM     14  C   UNL     1      59.918   8.959   4.389  1.00  0.00     0.051 A 
ATOM     15  C   UNL     1      60.375   9.472   5.608  1.00  0.00     0.157 A 
ATOM     16  C   UNL     1      58.076   9.819   6.308  1.00  0.00     0.062 A 
ATOM     17  C   UNL     1      59.450   9.900   6.573  1.00  0.00     0.158 A 
BRANCH  15  18
ATOM     18  O   UNL     1      61.743   9.553   5.866  1.00  0.00    -0.504 OA
ATOM     19  H   UNL     1      62.144   9.197   6.725  1.00  0.00     0.293 HD
ENDBRANCH  15  18
BRANCH  17  20
ATOM     20  O   UNL     1      59.872  10.405   7.803  1.00  0.00    -0.504 OA
ATOM     21  H   UNL     1      59.217  10.727   8.506  1.00  0.00     0.293 HD
ENDBRANCH  17  20
ENDBRANCH   1  12
BRANCH   6  22
ATOM     22  O   UNL     1      51.301   9.051   2.995  1.00  0.00    -0.507 OA
ATOM     23  H   UNL     1      51.371   9.801   2.325  1.00  0.00     0.293 HD
ENDBRANCH   6  22
BRANCH   8  24
ATOM     24  O   UNL     1      50.972   8.875   7.767  1.00  0.00    -0.508 OA
ATOM     25  H   UNL     1      51.355   8.962   8.701  1.00  0.00     0.293 HD
ENDBRANCH   8  24
TORSDOF 5
ENDMDL
MODEL 2
REMARK VINA RESULT:    -4.566      1.240      2.696
REMARK INTER + INTRA:          -5.678
REMARK INTER:                  -5.393
REMARK INTRA:                  -0.285
REMARK UNBOUND:                -0.312
REMARK SMILES O=c1cc(-c2ccc(O)c(O)c2)oc2cc(O)cc(O)c12
REMARK SMILES IDX 4 1 3 2 2 3 1 4 21 5 19 6 18 7 16 8 15 9 14 10 13 11 5 12
REMARK SMILES IDX 6 13 7 14 8 15 12 16 10 17 9 18 11 20 20 22 17 24
REMARK H PARENT 9 19 11 21 20 23 17 25
REMARK Flexibility Score: inf
ROOT
ATOM      1  C   UNL     1      55.812   9.307   5.124  1.00  0.00     0.138 A 
ATOM      2  C   UNL     1      54.992   9.050   6.231  1.00  0.00     0.100 A 
ATOM      3  C   UNL     1      53.605   9.048   6.078  1.00  0.00     0.197 A 
ATOM      4  O   UNL     1      52.895   8.875   7.102  1.00  0.00    -0.289 OA
ATOM      5  C   UNL     1      53.039   9.274   4.800  1.00  0.00     0.107 A 
ATOM      6  C   UNL     1      51.640   9.255   4.517  1.00  0.00     0.134 A 
ATOM      7  C   UNL     1      51.190   9.608   3.238  1.00  0.00     0.093 A 
ATOM      8  C   UNL     1      52.089   9.920   2.219  1.00  0.00     0.123 A 
ATOM      9  C   UNL     1      53.461   9.889   2.471  1.00  0.00     0.094 A 
ATOM     10  C   UNL     1      53.940   9.574   3.745  1.00  0.00     0.146 A 
ATOM     11  O   UNL     1      55.254   9.571   3.947  1.00  0.00    -0.456 OA
ENDROOT
BRANCH   1  12
ATOM     12  C   UNL     1      57.293   9.320   5.231  1.00  0.00     0.021 A 
ATOM     13  C   UNL     1      58.069   8.880   4.144  1.00  0.00     0.016 A 
ATOM     14  C   UNL     1      59.464   8.876   4.223  1.00  0.00     0.051 A 
ATOM     15  C   UNL     1      60.108   9.302   5.391  1.00  0.00     0.157 A 
ATOM     16  C   UNL     1      57.946   9.735   6.408  1.00  0.00     0.062 A 
ATOM     17  C   UNL     1      59.345   9.730   6.489  1.00  0.00     0.158 A 
BRANCH  15  18
ATOM     18  O   UNL     1      61.500   9.297   5.465  1.00  0.00    -0.504 OA
ATOM     19  H   UNL     1      62.022  10.133   5.699  1.00  0.00     0.293 HD
ENDBRANCH  15  18
BRANCH  17  20
ATOM     20  O   UNL     1      59.955  10.149   7.671  1.00  0.00    -0.504 OA
ATOM     21  H   UNL     1      59.773   9.697   8.560  1.00  0.00     0.293 HD
ENDBRANCH  17  20
ENDBRANCH   1  12
BRANCH   6  22
ATOM     22  O   UNL     1      50.661   8.875   5.440  1.00  0.00    -0.507 OA
ATOM     23  H   UNL     1      50.820   8.740   6.427  1.00  0.00     0.293 HD
ENDBRANCH   6  22
BRANCH   8  24
ATOM     24  O   UNL     1      51.605  10.252   0.955  1.00  0.00    -0.508 OA
ATOM     25  H   UNL     1      51.638  11.203   0.608  1.00  0.00     0.293 HD
ENDBRANCH   8  24
TORSDOF 5
ENDMDL
MODEL 3
REMARK VINA RESULT:    -4.196      3.588      5.517
REMARK INTER + INTRA:          -5.244
REMARK INTER:                  -4.977
REMARK INTRA:                  -0.266
REMARK UNBOUND:                -0.312
REMARK SMILES O=c1cc(-c2ccc(O)c(O)c2)oc2cc(O)cc(O)c12
REMARK SMILES IDX 4 1 3 2 2 3 1 4 21 5 19 6 18 7 16 8 15 9 14 10 13 11 5 12
REMARK SMILES IDX 6 13 7 14 8 15 12 16 10 17 9 18 11 20 20 22 17 24
REMARK H PARENT 9 19 11 21 20 23 17 25
REMARK Flexibility Score: inf
ROOT
ATOM      1  C   UNL     1      52.221  10.331   3.193  1.00  0.00     0.138 A 
ATOM      2  C   UNL     1      51.401   9.374   2.580  1.00  0.00     0.100 A 
ATOM      3  C   UNL     1      50.347   9.786   1.765  1.00  0.00     0.197 A 
ATOM      4  O   UNL     1      49.592   8.905   1.279  1.00  0.00    -0.289 OA
ATOM      5  C   UNL     1      50.133  11.167   1.539  1.00  0.00     0.107 A 
ATOM      6  C   UNL     1      49.114  11.703   0.695  1.00  0.00     0.134 A 
ATOM      7  C   UNL     1      48.924  13.090   0.639  1.00  0.00     0.093 A 
ATOM      8  C   UNL     1      49.751  13.960   1.348  1.00  0.00     0.123 A 
ATOM      9  C   UNL     1      50.784  13.449   2.134  1.00  0.00     0.094 A 
ATOM     10  C   UNL     1      50.978  12.069   2.237  1.00  0.00     0.146 A 
ATOM     11  O   UNL     1      51.964  11.622   3.008  1.00  0.00    -0.456 OA
ENDROOT
BRANCH   1  12
ATOM     12  C   UNL     1      53.356   9.947   4.069  1.00  0.00     0.021 A 
ATOM     13  C   UNL     1      53.110   9.594   5.408  1.00  0.00     0.016 A 
ATOM     14  C   UNL     1      54.163   9.237   6.253  1.00  0.00     0.051 A 
ATOM     15  C   UNL     1      55.481   9.234   5.781  1.00  0.00     0.157 A 
ATOM     16  C   UNL     1      54.686   9.955   3.603  1.00  0.00     0.062 A 
ATOM     17  C   UNL     1      55.743   9.598   4.450  1.00  0.00     0.158 A 
BRANCH  15  18
ATOM     18  O   UNL     1      56.528   8.875   6.628  1.00  0.00    -0.504 OA
ATOM     19  H   UNL     1      57.467   8.726   6.278  1.00  0.00     0.293 HD
ENDBRANCH  15  18
BRANCH  17  20
ATOM     20  O   UNL     1      57.045   9.617   3.952  1.00  0.00    -0.504 OA
ATOM     21  H   UNL     1      57.430  10.429   3.484  1.00  0.00     0.293 HD
ENDBRANCH  17  20
ENDBRANCH   1  12
BRANCH   6  22
ATOM     22  O   UNL     1      48.287  10.926  -0.122  1.00  0.00    -0.507 OA
ATOM     23  H   UNL     1      47.458  10.444   0.189  1.00  0.00     0.293 HD
ENDBRANCH   6  22
BRANCH   8  24
ATOM     24  O   UNL     1      49.541  15.335   1.256  1.00  0.00    -0.508 OA
ATOM     25  H   UNL     1      50.277  15.964   0.958  1.00  0.00     0.293 HD
ENDBRANCH   8  24
TORSDOF 5
ENDMDL
MODEL 4
REMARK VINA RESULT:    -4.185      5.450      9.312
REMARK INTER + INTRA:          -5.231
REMARK INTER:                  -4.957
REMARK INTRA:                  -0.274
REMARK UNBOUND:                -0.312
REMARK SMILES O=c1cc(-c2ccc(O)c(O)c2)oc2cc(O)cc(O)c12
REMARK SMILES IDX 4 1 3 2 2 3 1 4 21 5 19 6 18 7 16 8 15 9 14 10 13 11 5 12
REMARK SMILES IDX 6 13 7 14 8 15 12 16 10 17 9 18 11 20 20 22 17 24
REMARK H PARENT 9 19 11 21 20 23 17 25
REMARK Flexibility Score: inf
ROOT
ATOM      1  C   UNL     1      50.069  12.814   1.983  1.00  0.00     0.138 A 
ATOM      2  C   UNL     1      50.697  12.333   0.826  1.00  0.00     0.100 A 
ATOM      3  C   UNL     1      51.613  11.285   0.922  1.00  0.00     0.197 A 
ATOM      4  O   UNL     1      52.206  10.917  -0.125  1.00  0.00    -0.289 OA
ATOM      5  C   UNL     1      51.878  10.696   2.182  1.00  0.00     0.107 A 
ATOM      6  C   UNL     1      52.762   9.597   2.394  1.00  0.00     0.134 A 
ATOM      7  C   UNL     1      53.034   9.173   3.702  1.00  0.00     0.093 A 
ATOM      8  C   UNL     1      52.410   9.769   4.797  1.00  0.00     0.123 A 
ATOM      9  C   UNL     1      51.503  10.810   4.596  1.00  0.00     0.094 A 
ATOM     10  C   UNL     1      51.236  11.278   3.307  1.00  0.00     0.146 A 
ATOM     11  O   UNL     1      50.376  12.281   3.160  1.00  0.00    -0.456 OA
ENDROOT
BRANCH   1  12
ATOM     12  C   UNL     1      49.086  13.926   1.937  1.00  0.00     0.021 A 
ATOM     13  C   UNL     1      49.250  15.031   2.792  1.00  0.00     0.016 A 
ATOM     14  C   UNL     1      48.334  16.085   2.773  1.00  0.00     0.051 A 
ATOM     15  C   UNL     1      47.234  16.052   1.908  1.00  0.00     0.157 A 
ATOM     16  C   UNL     1      47.970  13.892   1.079  1.00  0.00     0.062 A 
ATOM     17  C   UNL     1      47.050  14.948   1.060  1.00  0.00     0.158 A 
BRANCH  15  18
ATOM     18  O   UNL     1      46.323  17.107   1.892  1.00  0.00    -0.504 OA
ATOM     19  H   UNL     1      46.284  17.764   1.122  1.00  0.00     0.293 HD
ENDBRANCH  15  18
BRANCH  17  20
ATOM     20  O   UNL     1      45.958  14.878   0.195  1.00  0.00    -0.504 OA
ATOM     21  H   UNL     1      45.041  15.222   0.457  1.00  0.00     0.293 HD
ENDBRANCH  17  20
ENDBRANCH   1  12
BRANCH   6  22
ATOM     22  O   UNL     1      53.373   8.875   1.365  1.00  0.00    -0.507 OA
ATOM     23  H   UNL     1      53.213   7.899   1.170  1.00  0.00     0.293 HD
ENDBRANCH   6  22
BRANCH   8  24
ATOM     24  O   UNL     1      52.694   9.311   6.082  1.00  0.00    -0.508 OA
ATOM     25  H   UNL     1      52.206   8.518   6.482  1.00  0.00     0.293 HD
ENDBRANCH   8  24
TORSDOF 5
ENDMDL
MODEL 5
REMARK VINA RESULT:    -3.392      1.430      7.052
REMARK INTER + INTRA:          -4.298
REMARK INTER:                  -3.987
REMARK INTRA:                  -0.311
REMARK UNBOUND:                -0.312
REMARK SMILES O=c1cc(-c2ccc(O)c(O)c2)oc2cc(O)cc(O)c12
REMARK SMILES IDX 4 1 3 2 2 3 1 4 21 5 19 6 18 7 16 8 15 9 14 10 13 11 5 12
REMARK SMILES IDX 6 13 7 14 8 15 12 16 10 17 9 18 11 20 20 22 17 24
REMARK H PARENT 9 19 11 21 20 23 17 25
REMARK Flexibility Score: inf
ROOT
ATOM      1  C   UNL     1      57.235   9.311   4.923  1.00  0.00     0.138 A 
ATOM      2  C   UNL     1      58.079   8.992   3.851  1.00  0.00     0.100 A 
ATOM      3  C   UNL     1      59.461   9.110   4.001  1.00  0.00     0.197 A 
ATOM      4  O   UNL     1      60.190   8.875   3.002  1.00  0.00    -0.289 OA
ATOM      5  C   UNL     1      60.001   9.522   5.244  1.00  0.00     0.107 A 
ATOM      6  C   UNL     1      61.395   9.639   5.524  1.00  0.00     0.134 A 
ATOM      7  C   UNL     1      61.809  10.168   6.754  1.00  0.00     0.093 A 
ATOM      8  C   UNL     1      60.883  10.527   7.732  1.00  0.00     0.123 A 
ATOM      9  C   UNL     1      59.518  10.365   7.488  1.00  0.00     0.094 A 
ATOM     10  C   UNL     1      59.073   9.873   6.259  1.00  0.00     0.146 A 
ATOM     11  O   UNL     1      57.764   9.748   6.061  1.00  0.00    -0.456 OA
ENDROOT
BRANCH   1  12
ATOM     12  C   UNL     1      55.758   9.202   4.818  1.00  0.00     0.021 A 
ATOM     13  C   UNL     1      55.148   9.249   3.551  1.00  0.00     0.016 A 
ATOM     14  C   UNL     1      53.760   9.156   3.428  1.00  0.00     0.051 A 
ATOM     15  C   UNL     1      52.955   9.025   4.565  1.00  0.00     0.157 A 
ATOM     16  C   UNL     1      54.942   9.084   5.960  1.00  0.00     0.062 A 
ATOM     17  C   UNL     1      53.549   8.993   5.837  1.00  0.00     0.158 A 
BRANCH  15  18
ATOM     18  O   UNL     1      51.570   8.932   4.437  1.00  0.00    -0.504 OA
ATOM     19  H   UNL     1      51.140   8.327   3.748  1.00  0.00     0.293 HD
ENDBRANCH  15  18
BRANCH  17  20
ATOM     20  O   UNL     1      52.775   8.875   6.991  1.00  0.00    -0.504 OA
ATOM     21  H   UNL     1      51.771   8.746   6.954  1.00  0.00     0.293 HD
ENDBRANCH  17  20
ENDBRANCH   1  12
BRANCH   6  22
ATOM     22  O   UNL     1      62.405   9.231   4.649  1.00  0.00    -0.507 OA
ATOM     23  H   UNL     1      62.791   9.796   3.909  1.00  0.00     0.293 HD
ENDBRANCH   6  22
BRANCH   8  24
ATOM     24  O   UNL     1      61.331  11.036   8.949  1.00  0.00    -0.508 OA
ATOM     25  H   UNL     1      62.273  11.393   9.060  1.00  0.00     0.293 HD
ENDBRANCH   8  24
TORSDOF 5
ENDMDL
MODEL 6
REMARK VINA RESULT:    -2.240      3.700      5.779
REMARK INTER + INTRA:          -2.944
REMARK INTER:                  -2.681
REMARK INTRA:                  -0.263
REMARK UNBOUND:                -0.312
REMARK SMILES O=c1cc(-c2ccc(O)c(O)c2)oc2cc(O)cc(O)c12
REMARK SMILES IDX 4 1 3 2 2 3 1 4 21 5 19 6 18 7 16 8 15 9 14 10 13 11 5 12
REMARK SMILES IDX 6 13 7 14 8 15 12 16 10 17 9 18 11 20 20 22 17 24
REMARK H PARENT 9 19 11 21 20 23 17 25
REMARK Flexibility Score: inf
ROOT
ATOM      1  C   UNL     1      52.069  10.955   3.096  1.00  0.00     0.138 A 
ATOM      2  C   UNL     1      51.930  12.329   2.861  1.00  0.00     0.100 A 
ATOM      3  C   UNL     1      50.874  12.794   2.077  1.00  0.00     0.197 A 
ATOM      4  O   UNL     1      50.812  14.026   1.833  1.00  0.00    -0.289 OA
ATOM      5  C   UNL     1      49.933  11.876   1.550  1.00  0.00     0.107 A 
ATOM      6  C   UNL     1      48.794  12.238   0.771  1.00  0.00     0.134 A 
ATOM      7  C   UNL     1      47.997  11.234   0.206  1.00  0.00     0.093 A 
ATOM      8  C   UNL     1      48.263   9.886   0.441  1.00  0.00     0.123 A 
ATOM      9  C   UNL     1      49.343   9.522   1.246  1.00  0.00     0.094 A 
ATOM     10  C   UNL     1      50.177  10.499   1.796  1.00  0.00     0.146 A 
ATOM     11  O   UNL     1      51.204  10.110   2.545  1.00  0.00    -0.456 OA
ENDROOT
BRANCH   1  12
ATOM     12  C   UNL     1      53.173  10.408   3.924  1.00  0.00     0.021 A 
ATOM     13  C   UNL     1      52.924  10.046   5.259  1.00  0.00     0.016 A 
ATOM     14  C   UNL     1      53.948   9.536   6.060  1.00  0.00     0.051 A 
ATOM     15  C   UNL     1      55.242   9.387   5.546  1.00  0.00     0.157 A 
ATOM     16  C   UNL     1      54.480  10.269   3.415  1.00  0.00     0.062 A 
ATOM     17  C   UNL     1      55.508   9.759   4.218  1.00  0.00     0.158 A 
BRANCH  15  18
ATOM     18  O   UNL     1      56.261   8.877   6.348  1.00  0.00    -0.504 OA
ATOM     19  H   UNL     1      56.183   8.859   7.358  1.00  0.00     0.293 HD
ENDBRANCH  15  18
BRANCH  17  20
ATOM     20  O   UNL     1      56.789   9.634   3.679  1.00  0.00    -0.504 OA
ATOM     21  H   UNL     1      57.419  10.424   3.602  1.00  0.00     0.293 HD
ENDBRANCH  17  20
ENDBRANCH   1  12
BRANCH   6  22
ATOM     22  O   UNL     1      48.389  13.557   0.545  1.00  0.00    -0.507 OA
ATOM     23  H   UNL     1      48.464  14.307   1.215  1.00  0.00     0.293 HD
ENDBRANCH   6  22
BRANCH   8  24
ATOM     24  O   UNL     1      47.440   8.914  -0.125  1.00  0.00    -0.508 OA
ATOM     25  H   UNL     1      47.595   8.571  -1.066  1.00  0.00     0.293 HD
ENDBRANCH   8  24
TORSDOF 5
ENDMDL
