MODEL 1
REMARK VINA RESULT:    -3.332      0.000      0.000
REMARK INTER + INTRA:         -11.702
REMARK INTER:                  -7.618
REMARK INTRA:                  -4.084
REMARK UNBOUND:                -4.084
REMARK SMILES CCCCCCCCCCCCCCCCCCCCCCCC(=O)[O-]
REMARK SMILES IDX 13 1 14 2 15 3 16 4 17 5 18 6 19 7 20 8 21 9 22 10 23 11
REMARK SMILES IDX 24 12 25 13 26 14 12 15 11 16 10 17 9 18 8 19 7 20 6 21 5 22
REMARK SMILES IDX 4 23 3 24 2 25 1 26
REMARK H PARENT
REMARK Flexibility Score: inf
ROOT
ATOM      1  C   UNL     1     131.122 143.201 141.255  1.00  0.00     0.000 C 
ENDROOT
BRANCH   1   2
ATOM      2  C   UNL     1     131.353 141.844 141.953  1.00  0.00     0.000 C 
BRANCH   2   3
ATOM      3  C   UNL     1     132.327 140.889 141.237  1.00  0.00     0.000 C 
BRANCH   3   4
ATOM      4  C   UNL     1     133.757 140.961 141.799  1.00  0.00     0.000 C 
BRANCH   4   5
ATOM      5  C   UNL     1     134.425 139.579 141.904  1.00  0.00     0.000 C 
BRANCH   5   6
ATOM      6  C   UNL     1     133.991 138.734 143.119  1.00  0.00     0.000 C 
BRANCH   6   7
ATOM      7  C   UNL     1     133.394 137.353 142.780  1.00  0.00     0.000 C 
BRANCH   7   8
ATOM      8  C   UNL     1     131.916 137.372 142.349  1.00  0.00     0.000 C 
BRANCH   8   9
ATOM      9  C   UNL     1     130.947 137.353 143.539  1.00  0.00     0.000 C 
BRANCH   9  10
ATOM     10  C   UNL     1     130.302 138.729 143.745  1.00  0.00     0.006 C 
BRANCH  10  11
ATOM     11  C   UNL     1     130.845 139.406 145.007  1.00  0.00     0.053 C 
BRANCH  11  12
ATOM     12  C   UNL     1     129.968 139.104 146.182  1.00  0.00     0.041 C 
ATOM     13  O   UNL     1     128.715 139.175 146.072  1.00  0.00    -0.550 OA
ATOM     14  O   UNL     1     130.533 138.695 147.382  1.00  0.00    -0.550 OA
ENDBRANCH  11  12
ENDBRANCH  10  11
ENDBRANCH   9  10
ENDBRANCH   8   9
ENDBRANCH   7   8
ENDBRANCH   6   7
ENDBRANCH   5   6
ENDBRANCH   4   5
ENDBRANCH   3   4
ENDBRANCH   2   3
ENDBRANCH   1   2
BRANCH   1  15
ATOM     15  C   UNL     1     132.340 144.140 141.224  1.00  0.00     0.000 C 
BRANCH  15  16
ATOM     16  C   UNL     1     132.465 144.915 139.901  1.00  0.00     0.000 C 
BRANCH  16  17
ATOM     17  C   UNL     1     133.826 144.698 139.221  1.00  0.00     0.000 C 
BRANCH  17  18
ATOM     18  C   UNL     1     134.051 143.238 138.789  1.00  0.00    -0.000 C 
BRANCH  18  19
ATOM     19  C   UNL     1     133.457 142.932 137.404  1.00  0.00    -0.000 C 
BRANCH  19  20
ATOM     20  C   UNL     1     132.244 141.987 137.470  1.00  0.00    -0.000 C 
BRANCH  20  21
ATOM     21  C   UNL     1     130.910 142.741 137.342  1.00  0.00    -0.000 C 
BRANCH  21  22
ATOM     22  C   UNL     1     129.764 142.047 138.100  1.00  0.00    -0.000 C 
BRANCH  22  23
ATOM     23  C   UNL     1     130.146 140.627 138.553  1.00  0.00    -0.000 C 
BRANCH  23  24
ATOM     24  C   UNL     1     128.940 139.856 139.109  1.00  0.00    -0.000 C 
BRANCH  24  25
ATOM     25  C   UNL     1     129.388 138.743 140.066  1.00  0.00    -0.003 C 
ATOM     26  C   UNL     1     128.200 137.898 140.518  1.00  0.00     0.004 C 
ENDBRANCH  24  25
ENDBRANCH  23  24
ENDBRANCH  22  23
ENDBRANCH  21  22
ENDBRANCH  20  21
ENDBRANCH  19  20
ENDBRANCH  18  19
ENDBRANCH  17  18
ENDBRANCH  16  17
ENDBRANCH  15  16
ENDBRANCH   1  15
TORSDOF 22
ENDMDL
MODEL 2
REMARK VINA RESULT:    -3.236      2.017      5.285
REMARK INTER + INTRA:         -11.482
REMARK INTER:                  -7.043
REMARK INTRA:                  -4.438
REMARK UNBOUND:                -4.084
REMARK SMILES CCCCCCCCCCCCCCCCCCCCCCCC(=O)[O-]
REMARK SMILES IDX 13 1 14 2 15 3 16 4 17 5 18 6 19 7 20 8 21 9 22 10 23 11
REMARK SMILES IDX 24 12 25 13 26 14 12 15 11 16 10 17 9 18 8 19 7 20 6 21 5 22
REMARK SMILES IDX 4 23 3 24 2 25 1 26
REMARK H PARENT
REMARK Flexibility Score: inf
ROOT
ATOM      1  C   UNL     1     133.846 142.146 138.125  1.00  0.00     0.000 C 
ENDROOT
BRANCH   1   2
ATOM      2  C   UNL     1     134.033 143.382 139.029  1.00  0.00     0.000 C 
BRANCH   2   3
ATOM      3  C   UNL     1     133.107 144.574 138.720  1.00  0.00     0.000 C 
BRANCH   3   4
ATOM      4  C   UNL     1     131.984 144.743 139.757  1.00  0.00     0.000 C 
BRANCH   4   5
ATOM      5  C   UNL     1     132.244 143.949 141.050  1.00  0.00     0.000 C 
BRANCH   5   6
ATOM      6  C   UNL     1     131.039 143.144 141.576  1.00  0.00     0.000 C 
BRANCH   6   7
ATOM      7  C   UNL     1     131.375 141.746 142.136  1.00  0.00     0.000 C 
BRANCH   7   8
ATOM      8  C   UNL     1     132.543 141.029 141.435  1.00  0.00     0.000 C 
BRANCH   8   9
ATOM      9  C   UNL     1     133.691 140.681 142.393  1.00  0.00     0.000 C 
BRANCH   9  10
ATOM     10  C   UNL     1     134.893 140.114 141.628  1.00  0.00     0.006 C 
BRANCH  10  11
ATOM     11  C   UNL     1     135.420 138.842 142.300  1.00  0.00     0.053 C 
BRANCH  11  12
ATOM     12  C   UNL     1     134.414 137.739 142.196  1.00  0.00     0.041 C 
ATOM     13  O   UNL     1     134.043 137.121 143.230  1.00  0.00    -0.550 OA
ATOM     14  O   UNL     1     133.847 137.430 140.968  1.00  0.00    -0.550 OA
ENDBRANCH  11  12
ENDBRANCH  10  11
ENDBRANCH   9  10
ENDBRANCH   8   9
ENDBRANCH   7   8
ENDBRANCH   6   7
ENDBRANCH   5   6
ENDBRANCH   4   5
ENDBRANCH   3   4
ENDBRANCH   2   3
ENDBRANCH   1   2
BRANCH   1  15
ATOM     15  C   UNL     1     132.526 142.102 137.335  1.00  0.00     0.000 C 
BRANCH  15  16
ATOM     16  C   UNL     1     131.505 141.117 137.930  1.00  0.00     0.000 C 
BRANCH  16  17
ATOM     17  C   UNL     1     130.152 141.783 138.225  1.00  0.00     0.000 C 
BRANCH  17  18
ATOM     18  C   UNL     1     129.252 140.927 139.135  1.00  0.00    -0.000 C 
BRANCH  18  19
ATOM     19  C   UNL     1     129.832 139.526 139.393  1.00  0.00    -0.000 C 
BRANCH  19  20
ATOM     20  C   UNL     1     128.767 138.515 139.855  1.00  0.00    -0.000 C 
BRANCH  20  21
ATOM     21  C   UNL     1     129.301 137.560 140.936  1.00  0.00    -0.000 C 
BRANCH  21  22
ATOM     22  C   UNL     1     130.487 138.155 141.715  1.00  0.00    -0.000 C 
BRANCH  22  23
ATOM     23  C   UNL     1     130.527 137.664 143.173  1.00  0.00    -0.000 C 
BRANCH  23  24
ATOM     24  C   UNL     1     131.112 138.721 144.121  1.00  0.00    -0.000 C 
BRANCH  24  25
ATOM     25  C   UNL     1     130.017 139.353 144.991  1.00  0.00    -0.003 C 
ATOM     26  C   UNL     1     130.557 140.550 145.768  1.00  0.00     0.004 C 
ENDBRANCH  24  25
ENDBRANCH  23  24
ENDBRANCH  22  23
ENDBRANCH  21  22
ENDBRANCH  20  21
ENDBRANCH  19  20
ENDBRANCH  18  19
ENDBRANCH  17  18
ENDBRANCH  16  17
ENDBRANCH  15  16
ENDBRANCH   1  15
TORSDOF 22
ENDMDL
MODEL 3
REMARK VINA RESULT:    -3.222      1.811      4.472
REMARK INTER + INTRA:         -11.451
REMARK INTER:                  -7.497
REMARK INTRA:                  -3.954
REMARK UNBOUND:                -4.084
REMARK SMILES CCCCCCCCCCCCCCCCCCCCCCCC(=O)[O-]
REMARK SMILES IDX 13 1 14 2 15 3 16 4 17 5 18 6 19 7 20 8 21 9 22 10 23 11
REMARK SMILES IDX 24 12 25 13 26 14 12 15 11 16 10 17 9 18 8 19 7 20 6 21 5 22
REMARK SMILES IDX 4 23 3 24 2 25 1 26
REMARK H PARENT
REMARK Flexibility Score: inf
ROOT
ATOM      1  C   UNL     1     131.755 143.596 139.796  1.00  0.00     0.000 C 
ENDROOT
BRANCH   1   2
ATOM      2  C   UNL     1     132.631 143.948 141.016  1.00  0.00     0.000 C 
BRANCH   2   3
ATOM      3  C   UNL     1     133.910 143.104 141.179  1.00  0.00     0.000 C 
BRANCH   3   4
ATOM      4  C   UNL     1     134.101 142.578 142.611  1.00  0.00     0.000 C 
BRANCH   4   5
ATOM      5  C   UNL     1     132.777 142.149 143.268  1.00  0.00     0.000 C 
BRANCH   5   6
ATOM      6  C   UNL     1     132.848 141.923 144.792  1.00  0.00     0.000 C 
BRANCH   6   7
ATOM      7  C   UNL     1     131.537 142.193 145.559  1.00  0.00     0.000 C 
BRANCH   7   8
ATOM      8  C   UNL     1     130.287 141.518 144.966  1.00  0.00     0.000 C 
BRANCH   8   9
ATOM      9  C   UNL     1     129.334 140.977 146.041  1.00  0.00     0.000 C 
BRANCH   9  10
ATOM     10  C   UNL     1     129.083 139.476 145.848  1.00  0.00     0.006 C 
BRANCH  10  11
ATOM     11  C   UNL     1     129.666 138.668 147.012  1.00  0.00     0.053 C 
BRANCH  11  12
ATOM     12  C   UNL     1     131.160 138.738 147.001  1.00  0.00     0.041 C 
ATOM     13  O   UNL     1     131.783 139.142 148.020  1.00  0.00    -0.550 OA
ATOM     14  O   UNL     1     131.867 138.306 145.888  1.00  0.00    -0.550 OA
ENDBRANCH  11  12
ENDBRANCH  10  11
ENDBRANCH   9  10
ENDBRANCH   8   9
ENDBRANCH   7   8
ENDBRANCH   6   7
ENDBRANCH   5   6
ENDBRANCH   4   5
ENDBRANCH   3   4
ENDBRANCH   2   3
ENDBRANCH   1   2
BRANCH   1  15
ATOM     15  C   UNL     1     131.562 142.091 139.537  1.00  0.00     0.000 C 
BRANCH  15  16
ATOM     16  C   UNL     1     130.280 141.533 140.180  1.00  0.00     0.000 C 
BRANCH  16  17
ATOM     17  C   UNL     1     129.314 140.940 139.141  1.00  0.00     0.000 C 
BRANCH  17  18
ATOM     18  C   UNL     1     129.362 139.402 139.094  1.00  0.00    -0.000 C 
BRANCH  18  19
ATOM     19  C   UNL     1     128.506 138.749 140.193  1.00  0.00    -0.000 C 
BRANCH  19  20
ATOM     20  C   UNL     1     128.875 137.275 140.438  1.00  0.00    -0.000 C 
BRANCH  20  21
ATOM     21  C   UNL     1     130.023 137.122 141.449  1.00  0.00    -0.000 C 
BRANCH  21  22
ATOM     22  C   UNL     1     130.054 138.260 142.485  1.00  0.00    -0.000 C 
BRANCH  22  23
ATOM     23  C   UNL     1     131.410 138.986 142.508  1.00  0.00    -0.000 C 
BRANCH  23  24
ATOM     24  C   UNL     1     132.488 138.220 141.728  1.00  0.00    -0.000 C 
BRANCH  24  25
ATOM     25  C   UNL     1     133.425 139.183 140.986  1.00  0.00    -0.003 C 
ATOM     26  C   UNL     1     133.396 138.925 139.483  1.00  0.00     0.004 C 
ENDBRANCH  24  25
ENDBRANCH  23  24
ENDBRANCH  22  23
ENDBRANCH  21  22
ENDBRANCH  20  21
ENDBRANCH  19  20
ENDBRANCH  18  19
ENDBRANCH  17  18
ENDBRANCH  16  17
ENDBRANCH  15  16
ENDBRANCH   1  15
TORSDOF 22
ENDMDL
MODEL 4
REMARK VINA RESULT:    -3.208      1.604      4.191
REMARK INTER + INTRA:         -11.418
REMARK INTER:                  -7.692
REMARK INTRA:                  -3.726
REMARK UNBOUND:                -4.084
REMARK SMILES CCCCCCCCCCCCCCCCCCCCCCCC(=O)[O-]
REMARK SMILES IDX 13 1 14 2 15 3 16 4 17 5 18 6 19 7 20 8 21 9 22 10 23 11
REMARK SMILES IDX 24 12 25 13 26 14 12 15 11 16 10 17 9 18 8 19 7 20 6 21 5 22
REMARK SMILES IDX 4 23 3 24 2 25 1 26
REMARK H PARENT
REMARK Flexibility Score: inf
ROOT
ATOM      1  C   UNL     1     130.723 143.500 138.003  1.00  0.00     0.000 C 
ENDROOT
BRANCH   1   2
ATOM      2  C   UNL     1     130.140 142.097 137.733  1.00  0.00     0.000 C 
BRANCH   2   3
ATOM      3  C   UNL     1     129.644 141.336 138.978  1.00  0.00     0.000 C 
BRANCH   3   4
ATOM      4  C   UNL     1     129.666 139.809 138.793  1.00  0.00     0.000 C 
BRANCH   4   5
ATOM      5  C   UNL     1     128.763 139.075 139.800  1.00  0.00     0.000 C 
BRANCH   5   6
ATOM      6  C   UNL     1     129.500 138.135 140.774  1.00  0.00     0.000 C 
BRANCH   6   7
ATOM      7  C   UNL     1     130.951 138.539 141.108  1.00  0.00     0.000 C 
BRANCH   7   8
ATOM      8  C   UNL     1     131.728 137.521 141.962  1.00  0.00     0.000 C 
BRANCH   8   9
ATOM      9  C   UNL     1     131.113 137.317 143.354  1.00  0.00     0.000 C 
BRANCH   9  10
ATOM     10  C   UNL     1     131.283 138.571 144.220  1.00  0.00     0.006 C 
BRANCH  10  11
ATOM     11  C   UNL     1     129.930 139.057 144.752  1.00  0.00     0.053 C 
BRANCH  11  12
ATOM     12  C   UNL     1     130.019 139.354 146.215  1.00  0.00     0.041 C 
ATOM     13  O   UNL     1     129.332 138.692 147.039  1.00  0.00    -0.550 OA
ATOM     14  O   UNL     1     130.898 140.325 146.675  1.00  0.00    -0.550 OA
ENDBRANCH  11  12
ENDBRANCH  10  11
ENDBRANCH   9  10
ENDBRANCH   8   9
ENDBRANCH   7   8
ENDBRANCH   6   7
ENDBRANCH   5   6
ENDBRANCH   4   5
ENDBRANCH   3   4
ENDBRANCH   2   3
ENDBRANCH   1   2
BRANCH   1  15
ATOM     15  C   UNL     1     131.248 143.731 139.431  1.00  0.00     0.000 C 
BRANCH  15  16
ATOM     16  C   UNL     1     132.695 144.253 139.458  1.00  0.00     0.000 C 
BRANCH  16  17
ATOM     17  C   UNL     1     133.659 143.274 140.147  1.00  0.00     0.000 C 
BRANCH  17  18
ATOM     18  C   UNL     1     132.993 141.930 140.497  1.00  0.00    -0.000 C 
BRANCH  18  19
ATOM     19  C   UNL     1     133.741 140.727 139.900  1.00  0.00    -0.000 C 
BRANCH  19  20
ATOM     20  C   UNL     1     133.284 140.391 138.468  1.00  0.00    -0.000 C 
BRANCH  20  21
ATOM     21  C   UNL     1     134.264 140.914 137.406  1.00  0.00    -0.000 C 
BRANCH  21  22
ATOM     22  C   UNL     1     133.591 141.861 136.397  1.00  0.00    -0.000 C 
BRANCH  22  23
ATOM     23  C   UNL     1     134.406 143.148 136.178  1.00  0.00    -0.000 C 
BRANCH  23  24
ATOM     24  C   UNL     1     133.505 144.361 135.902  1.00  0.00    -0.000 C 
BRANCH  24  25
ATOM     25  C   UNL     1     132.967 144.335 134.466  1.00  0.00    -0.003 C 
ATOM     26  C   UNL     1     131.443 144.258 134.453  1.00  0.00     0.004 C 
ENDBRANCH  24  25
ENDBRANCH  23  24
ENDBRANCH  22  23
ENDBRANCH  21  22
ENDBRANCH  20  21
ENDBRANCH  19  20
ENDBRANCH  18  19
ENDBRANCH  17  18
ENDBRANCH  16  17
ENDBRANCH  15  16
ENDBRANCH   1  15
TORSDOF 22
ENDMDL
MODEL 5
REMARK VINA RESULT:    -3.192      2.347      4.491
REMARK INTER + INTRA:         -11.382
REMARK INTER:                  -6.660
REMARK INTRA:                  -4.722
REMARK UNBOUND:                -4.084
REMARK SMILES CCCCCCCCCCCCCCCCCCCCCCCC(=O)[O-]
REMARK SMILES IDX 13 1 14 2 15 3 16 4 17 5 18 6 19 7 20 8 21 9 22 10 23 11
REMARK SMILES IDX 24 12 25 13 26 14 12 15 11 16 10 17 9 18 8 19 7 20 6 21 5 22
REMARK SMILES IDX 4 23 3 24 2 25 1 26
REMARK H PARENT
REMARK Flexibility Score: inf
ROOT
ATOM      1  C   UNL     1     133.366 143.745 137.671  1.00  0.00     0.000 C 
ENDROOT
BRANCH   1   2
ATOM      2  C   UNL     1     133.183 144.687 138.879  1.00  0.00     0.000 C 
BRANCH   2   3
ATOM      3  C   UNL     1     132.942 143.990 140.232  1.00  0.00     0.000 C 
BRANCH   3   4
ATOM      4  C   UNL     1     131.454 143.925 140.614  1.00  0.00     0.000 C 
BRANCH   4   5
ATOM      5  C   UNL     1     131.194 143.036 141.844  1.00  0.00     0.000 C 
BRANCH   5   6
ATOM      6  C   UNL     1     132.452 142.648 142.646  1.00  0.00     0.000 C 
BRANCH   6   7
ATOM      7  C   UNL     1     132.328 141.356 143.480  1.00  0.00     0.000 C 
BRANCH   7   8
ATOM      8  C   UNL     1     131.028 141.231 144.295  1.00  0.00     0.000 C 
BRANCH   8   9
ATOM      9  C   UNL     1     130.567 139.777 144.464  1.00  0.00     0.000 C 
BRANCH   9  10
ATOM     10  C   UNL     1     131.562 138.806 143.816  1.00  0.00     0.006 C 
BRANCH  10  11
ATOM     11  C   UNL     1     131.028 137.370 143.852  1.00  0.00     0.053 C 
BRANCH  11  12
ATOM     12  C   UNL     1     131.263 136.691 142.539  1.00  0.00     0.041 C 
ATOM     13  O   UNL     1     130.316 136.554 141.719  1.00  0.00    -0.550 OA
ATOM     14  O   UNL     1     132.537 136.257 142.200  1.00  0.00    -0.550 OA
ENDBRANCH  11  12
ENDBRANCH  10  11
ENDBRANCH   9  10
ENDBRANCH   8   9
ENDBRANCH   7   8
ENDBRANCH   6   7
ENDBRANCH   5   6
ENDBRANCH   4   5
ENDBRANCH   3   4
ENDBRANCH   2   3
ENDBRANCH   1   2
BRANCH   1  15
ATOM     15  C   UNL     1     132.071 143.359 136.934  1.00  0.00     0.000 C 
BRANCH  15  16
ATOM     16  C   UNL     1     131.480 142.025 137.422  1.00  0.00     0.000 C 
BRANCH  16  17
ATOM     17  C   UNL     1     130.006 142.154 137.836  1.00  0.00     0.000 C 
BRANCH  17  18
ATOM     18  C   UNL     1     129.555 141.032 138.789  1.00  0.00    -0.000 C 
BRANCH  18  19
ATOM     19  C   UNL     1     130.574 139.884 138.876  1.00  0.00    -0.000 C 
BRANCH  19  20
ATOM     20  C   UNL     1     131.199 139.747 140.277  1.00  0.00    -0.000 C 
BRANCH  20  21
ATOM     21  C   UNL     1     132.659 139.268 140.218  1.00  0.00    -0.000 C 
BRANCH  21  22
ATOM     22  C   UNL     1     133.655 140.429 140.057  1.00  0.00    -0.000 C 
BRANCH  22  23
ATOM     23  C   UNL     1     134.453 140.331 138.745  1.00  0.00    -0.000 C 
BRANCH  23  24
ATOM     24  C   UNL     1     134.165 139.024 137.992  1.00  0.00    -0.000 C 
BRANCH  24  25
ATOM     25  C   UNL     1     133.812 139.296 136.523  1.00  0.00    -0.003 C 
ATOM     26  C   UNL     1     132.635 138.436 136.073  1.00  0.00     0.004 C 
ENDBRANCH  24  25
ENDBRANCH  23  24
ENDBRANCH  22  23
ENDBRANCH  21  22
ENDBRANCH  20  21
ENDBRANCH  19  20
ENDBRANCH  18  19
ENDBRANCH  17  18
ENDBRANCH  16  17
ENDBRANCH  15  16
ENDBRANCH   1  15
TORSDOF 22
ENDMDL
MODEL 6
REMARK VINA RESULT:    -3.173      5.133      8.596
REMARK INTER + INTRA:         -11.338
REMARK INTER:                  -8.081
REMARK INTRA:                  -3.256
REMARK UNBOUND:                -4.084
REMARK SMILES CCCCCCCCCCCCCCCCCCCCCCCC(=O)[O-]
REMARK SMILES IDX 13 1 14 2 15 3 16 4 17 5 18 6 19 7 20 8 21 9 22 10 23 11
REMARK SMILES IDX 24 12 25 13 26 14 12 15 11 16 10 17 9 18 8 19 7 20 6 21 5 22
REMARK SMILES IDX 4 23 3 24 2 25 1 26
REMARK H PARENT
REMARK Flexibility Score: inf
ROOT
ATOM      1  C   UNL     1     131.305 143.399 141.625  1.00  0.00     0.000 C 
ENDROOT
BRANCH   1   2
ATOM      2  C   UNL     1     132.762 143.687 141.207  1.00  0.00     0.000 C 
BRANCH   2   3
ATOM      3  C   UNL     1     133.002 145.057 140.543  1.00  0.00     0.000 C 
BRANCH   3   4
ATOM      4  C   UNL     1     133.097 144.969 139.011  1.00  0.00     0.000 C 
BRANCH   4   5
ATOM      5  C   UNL     1     134.150 143.952 138.537  1.00  0.00     0.000 C 
BRANCH   5   6
ATOM      6  C   UNL     1     134.195 143.720 137.013  1.00  0.00     0.000 C 
BRANCH   6   7
ATOM      7  C   UNL     1     132.821 143.667 136.315  1.00  0.00     0.000 C 
BRANCH   7   8
ATOM      8  C   UNL     1     132.725 144.474 135.008  1.00  0.00     0.000 C 
BRANCH   8   9
ATOM      9  C   UNL     1     131.598 143.987 134.087  1.00  0.00     0.000 C 
BRANCH   9  10
ATOM     10  C   UNL     1     132.166 143.355 132.810  1.00  0.00     0.006 C 
BRANCH  10  11
ATOM     11  C   UNL     1     133.110 144.324 132.092  1.00  0.00     0.053 C 
BRANCH  11  12
ATOM     12  C   UNL     1     134.302 143.596 131.557  1.00  0.00     0.041 C 
ATOM     13  O   UNL     1     134.975 142.842 132.311  1.00  0.00    -0.550 OA
ATOM     14  O   UNL     1     134.639 143.707 130.215  1.00  0.00    -0.550 OA
ENDBRANCH  11  12
ENDBRANCH  10  11
ENDBRANCH   9  10
ENDBRANCH   8   9
ENDBRANCH   7   8
ENDBRANCH   6   7
ENDBRANCH   5   6
ENDBRANCH   4   5
ENDBRANCH   3   4
ENDBRANCH   2   3
ENDBRANCH   1   2
BRANCH   1  15
ATOM     15  C   UNL     1     131.087 142.080 142.387  1.00  0.00     0.000 C 
BRANCH  15  16
ATOM     16  C   UNL     1     132.066 140.973 141.958  1.00  0.00     0.000 C 
BRANCH  16  17
ATOM     17  C   UNL     1     132.017 139.754 142.892  1.00  0.00     0.000 C 
BRANCH  17  18
ATOM     18  C   UNL     1     130.764 138.886 142.674  1.00  0.00    -0.000 C 
BRANCH  18  19
ATOM     19  C   UNL     1     130.723 138.245 141.277  1.00  0.00    -0.000 C 
BRANCH  19  20
ATOM     20  C   UNL     1     129.338 137.673 140.923  1.00  0.00    -0.000 C 
BRANCH  20  21
ATOM     21  C   UNL     1     128.538 138.612 140.005  1.00  0.00    -0.000 C 
BRANCH  21  22
ATOM     22  C   UNL     1     129.431 139.347 138.990  1.00  0.00    -0.000 C 
BRANCH  22  23
ATOM     23  C   UNL     1     129.401 140.873 139.190  1.00  0.00    -0.000 C 
BRANCH  23  24
ATOM     24  C   UNL     1     130.570 141.571 138.479  1.00  0.00    -0.000 C 
BRANCH  24  25
ATOM     25  C   UNL     1     131.535 140.548 137.865  1.00  0.00    -0.003 C 
ATOM     26  C   UNL     1     132.872 140.547 138.598  1.00  0.00     0.004 C 
ENDBRANCH  24  25
ENDBRANCH  23  24
ENDBRANCH  22  23
ENDBRANCH  21  22
ENDBRANCH  20  21
ENDBRANCH  19  20
ENDBRANCH  18  19
ENDBRANCH  17  18
ENDBRANCH  16  17
ENDBRANCH  15  16
ENDBRANCH   1  15
TORSDOF 22
ENDMDL
MODEL 7
REMARK VINA RESULT:    -3.162      3.374      7.164
REMARK INTER + INTRA:         -11.313
REMARK INTER:                  -7.534
REMARK INTRA:                  -3.779
REMARK UNBOUND:                -4.084
REMARK SMILES CCCCCCCCCCCCCCCCCCCCCCCC(=O)[O-]
REMARK SMILES IDX 13 1 14 2 15 3 16 4 17 5 18 6 19 7 20 8 21 9 22 10 23 11
REMARK SMILES IDX 24 12 25 13 26 14 12 15 11 16 10 17 9 18 8 19 7 20 6 21 5 22
REMARK SMILES IDX 4 23 3 24 2 25 1 26
REMARK H PARENT
REMARK Flexibility Score: inf
ROOT
ATOM      1  C   UNL     1     131.788 141.048 139.508  1.00  0.00     0.000 C 
ENDROOT
BRANCH   1   2
ATOM      2  C   UNL     1     131.114 142.092 140.422  1.00  0.00     0.000 C 
BRANCH   2   3
ATOM      3  C   UNL     1     131.077 141.736 141.920  1.00  0.00     0.000 C 
BRANCH   3   4
ATOM      4  C   UNL     1     131.169 142.972 142.831  1.00  0.00     0.000 C 
BRANCH   4   5
ATOM      5  C   UNL     1     132.616 143.303 143.240  1.00  0.00     0.000 C 
BRANCH   5   6
ATOM      6  C   UNL     1     133.303 144.389 142.389  1.00  0.00     0.000 C 
BRANCH   6   7
ATOM      7  C   UNL     1     134.324 143.867 141.357  1.00  0.00     0.000 C 
BRANCH   7   8
ATOM      8  C   UNL     1     134.045 144.281 139.900  1.00  0.00     0.000 C 
BRANCH   8   9
ATOM      9  C   UNL     1     134.919 143.528 138.888  1.00  0.00     0.000 C 
BRANCH   9  10
ATOM     10  C   UNL     1     134.123 143.180 137.625  1.00  0.00     0.006 C 
BRANCH  10  11
ATOM     11  C   UNL     1     132.850 144.027 137.529  1.00  0.00     0.053 C 
BRANCH  11  12
ATOM     12  C   UNL     1     131.923 143.465 136.497  1.00  0.00     0.041 C 
ATOM     13  O   UNL     1     130.775 143.064 136.828  1.00  0.00    -0.550 OA
ATOM     14  O   UNL     1     132.307 143.433 135.164  1.00  0.00    -0.550 OA
ENDBRANCH  11  12
ENDBRANCH  10  11
ENDBRANCH   9  10
ENDBRANCH   8   9
ENDBRANCH   7   8
ENDBRANCH   6   7
ENDBRANCH   5   6
ENDBRANCH   4   5
ENDBRANCH   3   4
ENDBRANCH   2   3
ENDBRANCH   1   2
BRANCH   1  15
ATOM     15  C   UNL     1     130.825 140.109 138.760  1.00  0.00     0.000 C 
BRANCH  15  16
ATOM     16  C   UNL     1     129.352 140.530 138.896  1.00  0.00     0.000 C 
BRANCH  16  17
ATOM     17  C   UNL     1     128.486 139.434 139.537  1.00  0.00     0.000 C 
BRANCH  17  18
ATOM     18  C   UNL     1     129.304 138.200 139.960  1.00  0.00    -0.000 C 
BRANCH  18  19
ATOM     19  C   UNL     1     129.542 138.139 141.478  1.00  0.00    -0.000 C 
BRANCH  19  20
ATOM     20  C   UNL     1     131.031 137.996 141.842  1.00  0.00    -0.000 C 
BRANCH  20  21
ATOM     21  C   UNL     1     131.249 137.857 143.358  1.00  0.00    -0.000 C 
BRANCH  21  22
ATOM     22  C   UNL     1     132.158 138.960 143.927  1.00  0.00    -0.000 C 
BRANCH  22  23
ATOM     23  C   UNL     1     131.512 139.685 145.121  1.00  0.00    -0.000 C 
BRANCH  23  24
ATOM     24  C   UNL     1     130.374 138.865 145.746  1.00  0.00    -0.000 C 
BRANCH  24  25
ATOM     25  C   UNL     1     129.084 139.691 145.842  1.00  0.00    -0.003 C 
ATOM     26  C   UNL     1     129.388 141.186 145.831  1.00  0.00     0.004 C 
ENDBRANCH  24  25
ENDBRANCH  23  24
ENDBRANCH  22  23
ENDBRANCH  21  22
ENDBRANCH  20  21
ENDBRANCH  19  20
ENDBRANCH  18  19
ENDBRANCH  17  18
ENDBRANCH  16  17
ENDBRANCH  15  16
ENDBRANCH   1  15
TORSDOF 22
ENDMDL
MODEL 8
REMARK VINA RESULT:    -3.114      9.221     12.806
REMARK INTER + INTRA:         -11.203
REMARK INTER:                  -6.863
REMARK INTRA:                  -4.339
REMARK UNBOUND:                -4.084
REMARK SMILES CCCCCCCCCCCCCCCCCCCCCCCC(=O)[O-]
REMARK SMILES IDX 13 1 14 2 15 3 16 4 17 5 18 6 19 7 20 8 21 9 22 10 23 11
REMARK SMILES IDX 24 12 25 13 26 14 12 15 11 16 10 17 9 18 8 19 7 20 6 21 5 22
REMARK SMILES IDX 4 23 3 24 2 25 1 26
REMARK H PARENT
REMARK Flexibility Score: inf
ROOT
ATOM      1  C   UNL     1     135.979 141.864 131.052  1.00  0.00     0.000 C 
ENDROOT
BRANCH   1   2
ATOM      2  C   UNL     1     135.537 142.137 129.599  1.00  0.00     0.000 C 
BRANCH   2   3
ATOM      3  C   UNL     1     135.291 140.884 128.735  1.00  0.00     0.000 C 
BRANCH   3   4
ATOM      4  C   UNL     1     136.508 140.504 127.875  1.00  0.00     0.000 C 
BRANCH   4   5
ATOM      5  C   UNL     1     137.422 139.473 128.561  1.00  0.00     0.000 C 
BRANCH   5   6
ATOM      6  C   UNL     1     138.815 139.999 128.961  1.00  0.00     0.000 C 
BRANCH   6   7
ATOM      7  C   UNL     1     139.398 141.088 128.036  1.00  0.00     0.000 C 
BRANCH   7   8
ATOM      8  C   UNL     1     139.775 142.404 128.740  1.00  0.00     0.000 C 
BRANCH   8   9
ATOM      9  C   UNL     1     138.706 143.494 128.578  1.00  0.00     0.000 C 
BRANCH   9  10
ATOM     10  C   UNL     1     139.075 144.749 129.378  1.00  0.00     0.006 C 
BRANCH  10  11
ATOM     11  C   UNL     1     138.142 144.927 130.580  1.00  0.00     0.053 C 
BRANCH  11  12
ATOM     12  C   UNL     1     138.856 144.587 131.851  1.00  0.00     0.041 C 
ATOM     13  O   UNL     1     138.247 144.642 132.953  1.00  0.00    -0.550 OA
ATOM     14  O   UNL     1     140.175 144.159 131.813  1.00  0.00    -0.550 OA
ENDBRANCH  11  12
ENDBRANCH  10  11
ENDBRANCH   9  10
ENDBRANCH   8   9
ENDBRANCH   7   8
ENDBRANCH   6   7
ENDBRANCH   5   6
ENDBRANCH   4   5
ENDBRANCH   3   4
ENDBRANCH   2   3
ENDBRANCH   1   2
BRANCH   1  15
ATOM     15  C   UNL     1     135.428 142.844 132.103  1.00  0.00     0.000 C 
BRANCH  15  16
ATOM     16  C   UNL     1     134.587 143.974 131.484  1.00  0.00     0.000 C 
BRANCH  16  17
ATOM     17  C   UNL     1     133.230 144.144 132.184  1.00  0.00     0.000 C 
BRANCH  17  18
ATOM     18  C   UNL     1     132.238 143.017 131.844  1.00  0.00    -0.000 C 
BRANCH  18  19
ATOM     19  C   UNL     1     131.973 142.897 130.334  1.00  0.00    -0.000 C 
BRANCH  19  20
ATOM     20  C   UNL     1     131.813 141.437 129.871  1.00  0.00    -0.000 C 
BRANCH  20  21
ATOM     21  C   UNL     1     131.808 140.449 131.050  1.00  0.00    -0.000 C 
BRANCH  21  22
ATOM     22  C   UNL     1     132.621 139.176 130.756  1.00  0.00    -0.000 C 
BRANCH  22  23
ATOM     23  C   UNL     1     133.863 139.061 131.656  1.00  0.00    -0.000 C 
BRANCH  23  24
ATOM     24  C   UNL     1     133.679 139.799 132.991  1.00  0.00    -0.000 C 
BRANCH  24  25
ATOM     25  C   UNL     1     133.951 138.869 134.180  1.00  0.00    -0.003 C 
ATOM     26  C   UNL     1     132.909 137.757 134.256  1.00  0.00     0.004 C 
ENDBRANCH  24  25
ENDBRANCH  23  24
ENDBRANCH  22  23
ENDBRANCH  21  22
ENDBRANCH  20  21
ENDBRANCH  19  20
ENDBRANCH  18  19
ENDBRANCH  17  18
ENDBRANCH  16  17
ENDBRANCH  15  16
ENDBRANCH   1  15
TORSDOF 22
ENDMDL
MODEL 9
REMARK VINA RESULT:    -3.080      6.964      9.775
REMARK INTER + INTRA:         -11.125
REMARK INTER:                  -6.171
REMARK INTRA:                  -4.954
REMARK UNBOUND:                -4.084
REMARK SMILES CCCCCCCCCCCCCCCCCCCCCCCC(=O)[O-]
REMARK SMILES IDX 13 1 14 2 15 3 16 4 17 5 18 6 19 7 20 8 21 9 22 10 23 11
REMARK SMILES IDX 24 12 25 13 26 14 12 15 11 16 10 17 9 18 8 19 7 20 6 21 5 22
REMARK SMILES IDX 4 23 3 24 2 25 1 26
REMARK H PARENT
REMARK Flexibility Score: inf
ROOT
ATOM      1  C   UNL     1     133.940 144.476 131.413  1.00  0.00     0.000 C 
ENDROOT
BRANCH   1   2
ATOM      2  C   UNL     1     133.534 143.465 132.506  1.00  0.00     0.000 C 
BRANCH   2   3
ATOM      3  C   UNL     1     132.222 143.783 133.247  1.00  0.00     0.000 C 
BRANCH   3   4
ATOM      4  C   UNL     1     132.376 144.913 134.278  1.00  0.00     0.000 C 
BRANCH   4   5
ATOM      5  C   UNL     1     133.491 144.636 135.302  1.00  0.00     0.000 C 
BRANCH   5   6
ATOM      6  C   UNL     1     133.115 143.651 136.427  1.00  0.00     0.000 C 
BRANCH   6   7
ATOM      7  C   UNL     1     133.763 142.255 136.322  1.00  0.00     0.000 C 
BRANCH   7   8
ATOM      8  C   UNL     1     135.163 142.234 135.683  1.00  0.00     0.000 C 
BRANCH   8   9
ATOM      9  C   UNL     1     135.280 141.222 134.535  1.00  0.00     0.000 C 
BRANCH   9  10
ATOM     10  C   UNL     1     134.018 140.357 134.434  1.00  0.00     0.006 C 
BRANCH  10  11
ATOM     11  C   UNL     1     134.377 138.869 134.369  1.00  0.00     0.053 C 
BRANCH  11  12
ATOM     12  C   UNL     1     133.138 138.032 134.313  1.00  0.00     0.041 C 
ATOM     13  O   UNL     1     132.447 137.993 133.260  1.00  0.00    -0.550 OA
ATOM     14  O   UNL     1     132.775 137.256 135.405  1.00  0.00    -0.550 OA
ENDBRANCH  11  12
ENDBRANCH  10  11
ENDBRANCH   9  10
ENDBRANCH   8   9
ENDBRANCH   7   8
ENDBRANCH   6   7
ENDBRANCH   5   6
ENDBRANCH   4   5
ENDBRANCH   3   4
ENDBRANCH   2   3
ENDBRANCH   1   2
BRANCH   1  15
ATOM     15  C   UNL     1     135.323 145.125 131.597  1.00  0.00     0.000 C 
BRANCH  15  16
ATOM     16  C   UNL     1     136.134 144.492 132.741  1.00  0.00     0.000 C 
BRANCH  16  17
ATOM     17  C   UNL     1     137.305 143.639 132.227  1.00  0.00     0.000 C 
BRANCH  17  18
ATOM     18  C   UNL     1     137.459 143.700 130.696  1.00  0.00    -0.000 C 
BRANCH  18  19
ATOM     19  C   UNL     1     137.262 142.330 130.026  1.00  0.00    -0.000 C 
BRANCH  19  20
ATOM     20  C   UNL     1     136.855 141.231 131.025  1.00  0.00    -0.000 C 
BRANCH  20  21
ATOM     21  C   UNL     1     135.398 140.779 130.832  1.00  0.00    -0.000 C 
BRANCH  21  22
ATOM     22  C   UNL     1     134.787 141.302 129.521  1.00  0.00    -0.000 C 
BRANCH  22  23
ATOM     23  C   UNL     1     133.369 140.754 129.284  1.00  0.00    -0.000 C 
BRANCH  23  24
ATOM     24  C   UNL     1     132.708 140.280 130.587  1.00  0.00    -0.000 C 
BRANCH  24  25
ATOM     25  C   UNL     1     131.405 141.044 130.857  1.00  0.00    -0.003 C 
ATOM     26  C   UNL     1     131.151 142.093 129.779  1.00  0.00     0.004 C 
ENDBRANCH  24  25
ENDBRANCH  23  24
ENDBRANCH  22  23
ENDBRANCH  21  22
ENDBRANCH  20  21
ENDBRANCH  19  20
ENDBRANCH  18  19
ENDBRANCH  17  18
ENDBRANCH  16  17
ENDBRANCH  15  16
ENDBRANCH   1  15
TORSDOF 22
ENDMDL
