MODEL 1
REMARK VINA RESULT:    -3.580      0.000      0.000
REMARK INTER + INTRA:          -7.804
REMARK INTER:                  -6.091
REMARK INTRA:                  -1.713
REMARK UNBOUND:                -1.713
REMARK SMILES CCCCCCCCCCCCCC(=O)[O-]
REMARK SMILES IDX 8 1 9 2 10 3 11 4 12 5 13 6 14 7 15 8 16 9 7 10 6 11 5 12
REMARK SMILES IDX 4 13 3 14 2 15 1 16
REMARK H PARENT
REMARK Flexibility Score: inf
ROOT
ATOM      1  C   UNL     1     -19.455  31.398 -42.520  1.00  0.00     0.000 C 
ENDROOT
BRANCH   1   2
ATOM      2  C   UNL     1     -19.772  30.165 -41.656  1.00  0.00     0.000 C 
BRANCH   2   3
ATOM      3  C   UNL     1     -21.272  29.851 -41.590  1.00  0.00     0.000 C 
BRANCH   3   4
ATOM      4  C   UNL     1     -22.078  30.834 -42.448  1.00  0.00     0.000 C 
BRANCH   4   5
ATOM      5  C   UNL     1     -23.310  31.346 -41.687  1.00  0.00     0.006 C 
BRANCH   5   6
ATOM      6  C   UNL     1     -23.975  30.246 -40.850  1.00  0.00     0.053 C 
BRANCH   6   7
ATOM      7  C   UNL     1     -24.985  29.477 -41.646  1.00  0.00     0.041 C 
ATOM      8  O   UNL     1     -24.699  28.339 -42.103  1.00  0.00    -0.550 OA
ATOM      9  O   UNL     1     -26.252  30.006 -41.857  1.00  0.00    -0.550 OA
ENDBRANCH   6   7
ENDBRANCH   5   6
ENDBRANCH   4   5
ENDBRANCH   3   4
ENDBRANCH   2   3
ENDBRANCH   1   2
BRANCH   1  10
ATOM     10  C   UNL     1     -18.241  32.207 -42.017  1.00  0.00     0.000 C 
BRANCH  10  11
ATOM     11  C   UNL     1     -18.005  32.023 -40.508  1.00  0.00    -0.000 C 
BRANCH  11  12
ATOM     12  C   UNL     1     -18.834  32.996 -39.655  1.00  0.00    -0.000 C 
BRANCH  12  13
ATOM     13  C   UNL     1     -19.560  32.292 -38.495  1.00  0.00    -0.000 C 
BRANCH  13  14
ATOM     14  C   UNL     1     -21.079  32.212 -38.710  1.00  0.00    -0.000 C 
BRANCH  14  15
ATOM     15  C   UNL     1     -21.673  33.536 -39.211  1.00  0.00    -0.003 C 
ATOM     16  C   UNL     1     -22.172  34.389 -38.048  1.00  0.00     0.004 C 
ENDBRANCH  14  15
ENDBRANCH  13  14
ENDBRANCH  12  13
ENDBRANCH  11  12
ENDBRANCH  10  11
ENDBRANCH   1  10
TORSDOF 12
ENDMDL
MODEL 2
REMARK VINA RESULT:    -3.523      2.094      4.522
REMARK INTER + INTRA:          -7.707
REMARK INTER:                  -6.162
REMARK INTRA:                  -1.546
REMARK UNBOUND:                -1.713
REMARK SMILES CCCCCCCCCCCCCC(=O)[O-]
REMARK SMILES IDX 8 1 9 2 10 3 11 4 12 5 13 6 14 7 15 8 16 9 7 10 6 11 5 12
REMARK SMILES IDX 4 13 3 14 2 15 1 16
REMARK H PARENT
REMARK Flexibility Score: inf
ROOT
ATOM      1  C   UNL     1     -17.744  31.912 -41.886  1.00  0.00     0.000 C 
ENDROOT
BRANCH   1   2
ATOM      2  C   UNL     1     -18.042  32.765 -40.641  1.00  0.00     0.000 C 
BRANCH   2   3
ATOM      3  C   UNL     1     -18.323  31.919 -39.391  1.00  0.00     0.000 C 
BRANCH   3   4
ATOM      4  C   UNL     1     -19.562  32.430 -38.648  1.00  0.00     0.000 C 
BRANCH   4   5
ATOM      5  C   UNL     1     -20.427  33.312 -39.562  1.00  0.00     0.006 C 
BRANCH   5   6
ATOM      6  C   UNL     1     -21.672  33.849 -38.844  1.00  0.00     0.053 C 
BRANCH   6   7
ATOM      7  C   UNL     1     -22.725  32.794 -38.695  1.00  0.00     0.041 C 
ATOM      8  O   UNL     1     -23.487  32.517 -39.659  1.00  0.00    -0.550 OA
ATOM      9  O   UNL     1     -22.843  32.094 -37.500  1.00  0.00    -0.550 OA
ENDBRANCH   6   7
ENDBRANCH   5   6
ENDBRANCH   4   5
ENDBRANCH   3   4
ENDBRANCH   2   3
ENDBRANCH   1   2
BRANCH   1  10
ATOM     10  C   UNL     1     -18.961  31.736 -42.819  1.00  0.00     0.000 C 
BRANCH  10  11
ATOM     11  C   UNL     1     -19.699  30.410 -42.566  1.00  0.00    -0.000 C 
BRANCH  11  12
ATOM     12  C   UNL     1     -21.132  30.619 -42.052  1.00  0.00    -0.000 C 
BRANCH  12  13
ATOM     13  C   UNL     1     -21.405  29.861 -40.740  1.00  0.00    -0.000 C 
BRANCH  13  14
ATOM     14  C   UNL     1     -22.471  28.766 -40.902  1.00  0.00    -0.000 C 
BRANCH  14  15
ATOM     15  C   UNL     1     -23.298  28.934 -42.184  1.00  0.00    -0.003 C 
ATOM     16  C   UNL     1     -24.777  28.666 -41.922  1.00  0.00     0.004 C 
ENDBRANCH  14  15
ENDBRANCH  13  14
ENDBRANCH  12  13
ENDBRANCH  11  12
ENDBRANCH  10  11
ENDBRANCH   1  10
TORSDOF 12
ENDMDL
MODEL 3
REMARK VINA RESULT:    -3.513      1.424      3.690
REMARK INTER + INTRA:          -7.691
REMARK INTER:                  -5.876
REMARK INTRA:                  -1.815
REMARK UNBOUND:                -1.713
REMARK SMILES CCCCCCCCCCCCCC(=O)[O-]
REMARK SMILES IDX 8 1 9 2 10 3 11 4 12 5 13 6 14 7 15 8 16 9 7 10 6 11 5 12
REMARK SMILES IDX 4 13 3 14 2 15 1 16
REMARK H PARENT
REMARK Flexibility Score: inf
ROOT
ATOM      1  C   UNL     1     -23.318  33.626 -38.066  1.00  0.00     0.000 C 
ENDROOT
BRANCH   1   2
ATOM      2  C   UNL     1     -23.255  32.134 -37.694  1.00  0.00     0.000 C 
BRANCH   2   3
ATOM      3  C   UNL     1     -23.740  31.216 -38.824  1.00  0.00     0.000 C 
BRANCH   3   4
ATOM      4  C   UNL     1     -23.923  32.000 -40.129  1.00  0.00     0.000 C 
BRANCH   4   5
ATOM      5  C   UNL     1     -24.006  31.051 -41.334  1.00  0.00     0.006 C 
BRANCH   5   6
ATOM      6  C   UNL     1     -25.421  30.494 -41.540  1.00  0.00     0.053 C 
BRANCH   6   7
ATOM      7  C   UNL     1     -25.418  29.000 -41.648  1.00  0.00     0.041 C 
ATOM      8  O   UNL     1     -24.441  28.403 -42.171  1.00  0.00    -0.550 OA
ATOM      9  O   UNL     1     -26.483  28.266 -41.141  1.00  0.00    -0.550 OA
ENDBRANCH   6   7
ENDBRANCH   5   6
ENDBRANCH   4   5
ENDBRANCH   3   4
ENDBRANCH   2   3
ENDBRANCH   1   2
BRANCH   1  10
ATOM     10  C   UNL     1     -21.976  34.365 -37.879  1.00  0.00     0.000 C 
BRANCH  10  11
ATOM     11  C   UNL     1     -20.780  33.527 -38.364  1.00  0.00    -0.000 C 
BRANCH  11  12
ATOM     12  C   UNL     1     -20.598  33.580 -39.889  1.00  0.00    -0.000 C 
BRANCH  12  13
ATOM     13  C   UNL     1     -19.848  32.353 -40.437  1.00  0.00    -0.000 C 
BRANCH  13  14
ATOM     14  C   UNL     1     -20.260  31.048 -39.738  1.00  0.00    -0.000 C 
BRANCH  14  15
ATOM     15  C   UNL     1     -20.530  29.908 -40.729  1.00  0.00    -0.003 C 
ATOM     16  C   UNL     1     -20.473  30.409 -42.170  1.00  0.00     0.004 C 
ENDBRANCH  14  15
ENDBRANCH  13  14
ENDBRANCH  12  13
ENDBRANCH  11  12
ENDBRANCH  10  11
ENDBRANCH   1  10
TORSDOF 12
ENDMDL
MODEL 4
REMARK VINA RESULT:    -3.505      2.353      4.455
REMARK INTER + INTRA:          -7.677
REMARK INTER:                  -5.767
REMARK INTRA:                  -1.910
REMARK UNBOUND:                -1.713
REMARK SMILES CCCCCCCCCCCCCC(=O)[O-]
REMARK SMILES IDX 8 1 9 2 10 3 11 4 12 5 13 6 14 7 15 8 16 9 7 10 6 11 5 12
REMARK SMILES IDX 4 13 3 14 2 15 1 16
REMARK H PARENT
REMARK Flexibility Score: inf
ROOT
ATOM      1  C   UNL     1     -18.172  31.631 -40.856  1.00  0.00     0.000 C 
ENDROOT
BRANCH   1   2
ATOM      2  C   UNL     1     -18.543  32.496 -39.639  1.00  0.00     0.000 C 
BRANCH   2   3
ATOM      3  C   UNL     1     -19.890  33.214 -39.804  1.00  0.00     0.000 C 
BRANCH   3   4
ATOM      4  C   UNL     1     -20.533  33.496 -38.441  1.00  0.00     0.000 C 
BRANCH   4   5
ATOM      5  C   UNL     1     -21.974  34.001 -38.607  1.00  0.00     0.006 C 
BRANCH   5   6
ATOM      6  C   UNL     1     -22.825  33.753 -37.354  1.00  0.00     0.053 C 
BRANCH   6   7
ATOM      7  C   UNL     1     -24.233  33.381 -37.705  1.00  0.00     0.041 C 
ATOM      8  O   UNL     1     -25.172  34.197 -37.508  1.00  0.00    -0.550 OA
ATOM      9  O   UNL     1     -24.502  32.145 -38.278  1.00  0.00    -0.550 OA
ENDBRANCH   6   7
ENDBRANCH   5   6
ENDBRANCH   4   5
ENDBRANCH   3   4
ENDBRANCH   2   3
ENDBRANCH   1   2
BRANCH   1  10
ATOM     10  C   UNL     1     -19.070  31.881 -42.087  1.00  0.00     0.000 C 
BRANCH  10  11
ATOM     11  C   UNL     1     -19.759  30.595 -42.573  1.00  0.00    -0.000 C 
BRANCH  11  12
ATOM     12  C   UNL     1     -21.273  30.597 -42.306  1.00  0.00    -0.000 C 
BRANCH  12  13
ATOM     13  C   UNL     1     -21.688  29.557 -41.250  1.00  0.00    -0.000 C 
BRANCH  13  14
ATOM     14  C   UNL     1     -21.976  30.190 -39.880  1.00  0.00    -0.000 C 
BRANCH  14  15
ATOM     15  C   UNL     1     -20.969  29.754 -38.806  1.00  0.00    -0.003 C 
ATOM     16  C   UNL     1     -20.023  28.684 -39.343  1.00  0.00     0.004 C 
ENDBRANCH  14  15
ENDBRANCH  13  14
ENDBRANCH  12  13
ENDBRANCH  11  12
ENDBRANCH  10  11
ENDBRANCH   1  10
TORSDOF 12
ENDMDL
MODEL 5
REMARK VINA RESULT:    -3.496      2.790      5.321
REMARK INTER + INTRA:          -7.661
REMARK INTER:                  -5.924
REMARK INTRA:                  -1.737
REMARK UNBOUND:                -1.713
REMARK SMILES CCCCCCCCCCCCCC(=O)[O-]
REMARK SMILES IDX 8 1 9 2 10 3 11 4 12 5 13 6 14 7 15 8 16 9 7 10 6 11 5 12
REMARK SMILES IDX 4 13 3 14 2 15 1 16
REMARK H PARENT
REMARK Flexibility Score: inf
ROOT
ATOM      1  C   UNL     1     -21.757  28.430 -39.997  1.00  0.00     0.000 C 
ENDROOT
BRANCH   1   2
ATOM      2  C   UNL     1     -20.534  29.067 -39.314  1.00  0.00     0.000 C 
BRANCH   2   3
ATOM      3  C   UNL     1     -20.881  30.344 -38.538  1.00  0.00     0.000 C 
BRANCH   3   4
ATOM      4  C   UNL     1     -19.977  31.508 -38.962  1.00  0.00     0.000 C 
BRANCH   4   5
ATOM      5  C   UNL     1     -20.800  32.645 -39.586  1.00  0.00     0.006 C 
BRANCH   5   6
ATOM      6  C   UNL     1     -20.878  33.875 -38.673  1.00  0.00     0.053 C 
BRANCH   6   7
ATOM      7  C   UNL     1     -22.110  33.856 -37.820  1.00  0.00     0.041 C 
ATOM      8  O   UNL     1     -23.157  34.439 -38.206  1.00  0.00    -0.550 OA
ATOM      9  O   UNL     1     -22.108  33.167 -36.614  1.00  0.00    -0.550 OA
ENDBRANCH   6   7
ENDBRANCH   5   6
ENDBRANCH   4   5
ENDBRANCH   3   4
ENDBRANCH   2   3
ENDBRANCH   1   2
BRANCH   1  10
ATOM     10  C   UNL     1     -22.833  29.454 -40.414  1.00  0.00     0.000 C 
BRANCH  10  11
ATOM     11  C   UNL     1     -23.227  29.314 -41.894  1.00  0.00    -0.000 C 
BRANCH  11  12
ATOM     12  C   UNL     1     -22.022  29.438 -42.842  1.00  0.00    -0.000 C 
BRANCH  12  13
ATOM     13  C   UNL     1     -21.238  30.745 -42.631  1.00  0.00    -0.000 C 
BRANCH  13  14
ATOM     14  C   UNL     1     -19.722  30.514 -42.532  1.00  0.00    -0.000 C 
BRANCH  14  15
ATOM     15  C   UNL     1     -18.910  31.752 -42.937  1.00  0.00    -0.003 C 
ATOM     16  C   UNL     1     -17.781  32.017 -41.944  1.00  0.00     0.004 C 
ENDBRANCH  14  15
ENDBRANCH  13  14
ENDBRANCH  12  13
ENDBRANCH  11  12
ENDBRANCH  10  11
ENDBRANCH   1  10
TORSDOF 12
ENDMDL
MODEL 6
REMARK VINA RESULT:    -3.426      1.977      3.426
REMARK INTER + INTRA:          -7.543
REMARK INTER:                  -6.426
REMARK INTRA:                  -1.116
REMARK UNBOUND:                -1.713
REMARK SMILES CCCCCCCCCCCCCC(=O)[O-]
REMARK SMILES IDX 8 1 9 2 10 3 11 4 12 5 13 6 14 7 15 8 16 9 7 10 6 11 5 12
REMARK SMILES IDX 4 13 3 14 2 15 1 16
REMARK H PARENT
REMARK Flexibility Score: inf
ROOT
ATOM      1  C   UNL     1     -18.222  32.991 -40.024  1.00  0.00     0.000 C 
ENDROOT
BRANCH   1   2
ATOM      2  C   UNL     1     -17.770  31.730 -40.780  1.00  0.00     0.000 C 
BRANCH   2   3
ATOM      3  C   UNL     1     -17.688  31.940 -42.298  1.00  0.00     0.000 C 
BRANCH   3   4
ATOM      4  C   UNL     1     -19.019  31.593 -42.974  1.00  0.00     0.000 C 
BRANCH   4   5
ATOM      5  C   UNL     1     -19.753  30.483 -42.207  1.00  0.00     0.006 C 
BRANCH   5   6
ATOM      6  C   UNL     1     -21.240  30.406 -42.577  1.00  0.00     0.053 C 
BRANCH   6   7
ATOM      7  C   UNL     1     -22.117  30.836 -41.441  1.00  0.00     0.041 C 
ATOM      8  O   UNL     1     -23.079  31.623 -41.645  1.00  0.00    -0.550 OA
ATOM      9  O   UNL     1     -21.889  30.342 -40.162  1.00  0.00    -0.550 OA
ENDBRANCH   6   7
ENDBRANCH   5   6
ENDBRANCH   4   5
ENDBRANCH   3   4
ENDBRANCH   2   3
ENDBRANCH   1   2
BRANCH   1  10
ATOM     10  C   UNL     1     -19.481  32.774 -39.160  1.00  0.00     0.000 C 
BRANCH  10  11
ATOM     11  C   UNL     1     -20.656  33.657 -39.614  1.00  0.00    -0.000 C 
BRANCH  11  12
ATOM     12  C   UNL     1     -21.513  34.154 -38.438  1.00  0.00    -0.000 C 
BRANCH  12  13
ATOM     13  C   UNL     1     -22.134  33.000 -37.631  1.00  0.00    -0.000 C 
BRANCH  13  14
ATOM     14  C   UNL     1     -23.634  32.822 -37.916  1.00  0.00    -0.000 C 
BRANCH  14  15
ATOM     15  C   UNL     1     -24.486  33.950 -37.318  1.00  0.00    -0.003 C 
ATOM     16  C   UNL     1     -25.959  33.773 -37.674  1.00  0.00     0.004 C 
ENDBRANCH  14  15
ENDBRANCH  13  14
ENDBRANCH  12  13
ENDBRANCH  11  12
ENDBRANCH  10  11
ENDBRANCH   1  10
TORSDOF 12
ENDMDL
MODEL 7
REMARK VINA RESULT:    -3.387      2.780      4.638
REMARK INTER + INTRA:          -7.475
REMARK INTER:                  -5.390
REMARK INTRA:                  -2.085
REMARK UNBOUND:                -1.713
REMARK SMILES CCCCCCCCCCCCCC(=O)[O-]
REMARK SMILES IDX 8 1 9 2 10 3 11 4 12 5 13 6 14 7 15 8 16 9 7 10 6 11 5 12
REMARK SMILES IDX 4 13 3 14 2 15 1 16
REMARK H PARENT
REMARK Flexibility Score: inf
ROOT
ATOM      1  C   UNL     1     -18.942  30.571 -41.406  1.00  0.00     0.000 C 
ENDROOT
BRANCH   1   2
ATOM      2  C   UNL     1     -19.310  31.142 -40.025  1.00  0.00     0.000 C 
BRANCH   2   3
ATOM      3  C   UNL     1     -19.029  32.646 -39.906  1.00  0.00     0.000 C 
BRANCH   3   4
ATOM      4  C   UNL     1     -20.326  33.432 -39.687  1.00  0.00     0.000 C 
BRANCH   4   5
ATOM      5  C   UNL     1     -21.342  32.605 -38.883  1.00  0.00     0.006 C 
BRANCH   5   6
ATOM      6  C   UNL     1     -22.777  33.116 -39.061  1.00  0.00     0.053 C 
BRANCH   6   7
ATOM      7  C   UNL     1     -23.307  33.730 -37.801  1.00  0.00     0.041 C 
ATOM      8  O   UNL     1     -24.511  34.093 -37.730  1.00  0.00    -0.550 OA
ATOM      9  O   UNL     1     -22.478  33.872 -36.695  1.00  0.00    -0.550 OA
ENDBRANCH   6   7
ENDBRANCH   5   6
ENDBRANCH   4   5
ENDBRANCH   3   4
ENDBRANCH   2   3
ENDBRANCH   1   2
BRANCH   1  10
ATOM     10  C   UNL     1     -19.888  31.031 -42.535  1.00  0.00     0.000 C 
BRANCH  10  11
ATOM     11  C   UNL     1     -21.139  30.142 -42.643  1.00  0.00    -0.000 C 
BRANCH  11  12
ATOM     12  C   UNL     1     -22.392  30.807 -42.050  1.00  0.00    -0.000 C 
BRANCH  12  13
ATOM     13  C   UNL     1     -23.153  29.878 -41.087  1.00  0.00    -0.000 C 
BRANCH  13  14
ATOM     14  C   UNL     1     -22.259  28.775 -40.500  1.00  0.00    -0.000 C 
BRANCH  14  15
ATOM     15  C   UNL     1     -22.107  28.888 -38.977  1.00  0.00    -0.003 C 
ATOM     16  C   UNL     1     -23.374  29.450 -38.339  1.00  0.00     0.004 C 
ENDBRANCH  14  15
ENDBRANCH  13  14
ENDBRANCH  12  13
ENDBRANCH  11  12
ENDBRANCH  10  11
ENDBRANCH   1  10
TORSDOF 12
ENDMDL
MODEL 8
REMARK VINA RESULT:    -3.376      1.852      2.376
REMARK INTER + INTRA:          -7.458
REMARK INTER:                  -5.486
REMARK INTRA:                  -1.972
REMARK UNBOUND:                -1.713
REMARK SMILES CCCCCCCCCCCCCC(=O)[O-]
REMARK SMILES IDX 8 1 9 2 10 3 11 4 12 5 13 6 14 7 15 8 16 9 7 10 6 11 5 12
REMARK SMILES IDX 4 13 3 14 2 15 1 16
REMARK H PARENT
REMARK Flexibility Score: inf
ROOT
ATOM      1  C   UNL     1     -20.238  30.441 -41.760  1.00  0.00     0.000 C 
ENDROOT
BRANCH   1   2
ATOM      2  C   UNL     1     -21.481  30.222 -42.641  1.00  0.00     0.000 C 
BRANCH   2   3
ATOM      3  C   UNL     1     -22.786  30.192 -41.835  1.00  0.00     0.000 C 
BRANCH   3   4
ATOM      4  C   UNL     1     -23.274  31.612 -41.525  1.00  0.00     0.000 C 
BRANCH   4   5
ATOM      5  C   UNL     1     -24.212  31.619 -40.309  1.00  0.00     0.006 C 
BRANCH   5   6
ATOM      6  C   UNL     1     -23.756  30.642 -39.217  1.00  0.00     0.053 C 
BRANCH   6   7
ATOM      7  C   UNL     1     -24.918  29.950 -38.571  1.00  0.00     0.041 C 
ATOM      8  O   UNL     1     -24.735  29.195 -37.581  1.00  0.00    -0.550 OA
ATOM      9  O   UNL     1     -26.205  30.165 -39.047  1.00  0.00    -0.550 OA
ENDBRANCH   6   7
ENDBRANCH   5   6
ENDBRANCH   4   5
ENDBRANCH   3   4
ENDBRANCH   2   3
ENDBRANCH   1   2
BRANCH   1  10
ATOM     10  C   UNL     1     -20.286  29.671 -40.424  1.00  0.00     0.000 C 
BRANCH  10  11
ATOM     11  C   UNL     1     -20.114  30.601 -39.211  1.00  0.00    -0.000 C 
BRANCH  11  12
ATOM     12  C   UNL     1     -20.079  32.087 -39.604  1.00  0.00    -0.000 C 
BRANCH  12  13
ATOM     13  C   UNL     1     -20.507  33.012 -38.451  1.00  0.00    -0.000 C 
BRANCH  13  14
ATOM     14  C   UNL     1     -21.477  34.113 -38.908  1.00  0.00    -0.000 C 
BRANCH  14  15
ATOM     15  C   UNL     1     -22.784  34.117 -38.103  1.00  0.00    -0.003 C 
ATOM     16  C   UNL     1     -22.614  33.384 -36.775  1.00  0.00     0.004 C 
ENDBRANCH  14  15
ENDBRANCH  13  14
ENDBRANCH  12  13
ENDBRANCH  11  12
ENDBRANCH  10  11
ENDBRANCH   1  10
TORSDOF 12
ENDMDL
MODEL 9
REMARK VINA RESULT:    -3.354      1.763      2.629
REMARK INTER + INTRA:          -7.420
REMARK INTER:                  -6.065
REMARK INTRA:                  -1.355
REMARK UNBOUND:                -1.713
REMARK SMILES CCCCCCCCCCCCCC(=O)[O-]
REMARK SMILES IDX 8 1 9 2 10 3 11 4 12 5 13 6 14 7 15 8 16 9 7 10 6 11 5 12
REMARK SMILES IDX 4 13 3 14 2 15 1 16
REMARK H PARENT
REMARK Flexibility Score: inf
ROOT
ATOM      1  C   UNL     1     -21.780  30.217 -42.662  1.00  0.00     0.000 C 
ENDROOT
BRANCH   1   2
ATOM      2  C   UNL     1     -22.854  31.171 -42.111  1.00  0.00     0.000 C 
BRANCH   2   3
ATOM      3  C   UNL     1     -24.055  30.434 -41.505  1.00  0.00     0.000 C 
BRANCH   3   4
ATOM      4  C   UNL     1     -23.840  28.916 -41.532  1.00  0.00     0.000 C 
BRANCH   4   5
ATOM      5  C   UNL     1     -25.144  28.181 -41.878  1.00  0.00     0.006 C 
BRANCH   5   6
ATOM      6  C   UNL     1     -26.365  29.108 -41.825  1.00  0.00     0.053 C 
BRANCH   6   7
ATOM      7  C   UNL     1     -27.647  28.333 -41.781  1.00  0.00     0.041 C 
ATOM      8  O   UNL     1     -27.876  27.436 -42.634  1.00  0.00    -0.550 OA
ATOM      9  O   UNL     1     -28.575  28.583 -40.778  1.00  0.00    -0.550 OA
ENDBRANCH   6   7
ENDBRANCH   5   6
ENDBRANCH   4   5
ENDBRANCH   3   4
ENDBRANCH   2   3
ENDBRANCH   1   2
BRANCH   1  10
ATOM     10  C   UNL     1     -20.350  30.565 -42.200  1.00  0.00     0.000 C 
BRANCH  10  11
ATOM     11  C   UNL     1     -20.346  31.453 -40.943  1.00  0.00    -0.000 C 
BRANCH  11  12
ATOM     12  C   UNL     1     -20.437  30.639 -39.642  1.00  0.00    -0.000 C 
BRANCH  12  13
ATOM     13  C   UNL     1     -20.902  31.489 -38.446  1.00  0.00    -0.000 C 
BRANCH  13  14
ATOM     14  C   UNL     1     -22.418  31.737 -38.453  1.00  0.00    -0.000 C 
BRANCH  14  15
ATOM     15  C   UNL     1     -22.777  33.182 -38.825  1.00  0.00    -0.003 C 
ATOM     16  C   UNL     1     -21.674  34.148 -38.403  1.00  0.00     0.004 C 
ENDBRANCH  14  15
ENDBRANCH  13  14
ENDBRANCH  12  13
ENDBRANCH  11  12
ENDBRANCH  10  11
ENDBRANCH   1  10
TORSDOF 12
ENDMDL
