MODEL 1
REMARK VINA RESULT:    -6.256      0.000      0.000
REMARK INTER + INTRA:          -6.622
REMARK INTER:                  -6.622
REMARK INTRA:                   0.000
REMARK UNBOUND:                 0.000
REMARK SMILES O=c1ccc2cc(O)c(O)cc2o1
REMARK SMILES IDX 4 1 3 2 2 3 1 4 13 5 12 6 11 7 9 8 7 9 6 10 5 11 8 12 10 14
REMARK H PARENT 8 13 10 15
REMARK Flexibility Score: inf
ROOT
ATOM      1  C   UNL     1       5.885   5.215   9.654  1.00  0.00     0.019 A 
ATOM      2  C   UNL     1       6.252   6.487  10.089  1.00  0.00     0.094 A 
ATOM      3  C   UNL     1       7.315   6.615  10.990  1.00  0.00     0.336 A 
ATOM      4  O   UNL     1       7.663   7.755  11.394  1.00  0.00    -0.246 OA
ATOM      5  O   UNL     1       7.964   5.537  11.424  1.00  0.00    -0.423 OA
ATOM      6  C   UNL     1       7.644   4.306  11.035  1.00  0.00     0.142 A 
ATOM      7  C   UNL     1       8.361   3.209  11.525  1.00  0.00     0.098 A 
ATOM      8  C   UNL     1       8.028   1.909  11.118  1.00  0.00     0.161 A 
ATOM      9  C   UNL     1       6.975   1.704  10.216  1.00  0.00     0.158 A 
ATOM     10  C   UNL     1       6.252   2.800   9.721  1.00  0.00     0.062 A 
ATOM     11  C   UNL     1       6.583   4.100  10.127  1.00  0.00     0.022 A 
ENDROOT
BRANCH   9  12
ATOM     12  O   UNL     1       6.651   0.409   9.817  1.00  0.00    -0.504 OA
ATOM     13  H   UNL     1       7.359  -0.312   9.726  1.00  0.00     0.293 HD
ENDBRANCH   9  12
BRANCH   8  14
ATOM     14  O   UNL     1       8.742   0.815  11.606  1.00  0.00    -0.504 OA
ATOM     15  H   UNL     1       9.707   0.653  11.346  1.00  0.00     0.293 HD
ENDBRANCH   8  14
TORSDOF 2
ENDMDL
MODEL 2
REMARK VINA RESULT:    -6.157     11.235     12.846
REMARK INTER + INTRA:          -6.517
REMARK INTER:                  -6.517
REMARK INTRA:                   0.000
REMARK UNBOUND:                 0.000
REMARK SMILES O=c1ccc2cc(O)c(O)cc2o1
REMARK SMILES IDX 4 1 3 2 2 3 1 4 13 5 12 6 11 7 9 8 7 9 6 10 5 11 8 12 10 14
REMARK H PARENT 8 13 10 15
REMARK Flexibility Score: inf
ROOT
ATOM      1  C   UNL     1      11.532  -3.833  19.743  1.00  0.00     0.019 A 
ATOM      2  C   UNL     1      11.361  -2.449  19.730  1.00  0.00     0.094 A 
ATOM      3  C   UNL     1      10.063  -1.926  19.727  1.00  0.00     0.336 A 
ATOM      4  O   UNL     1       9.887  -0.680  19.716  1.00  0.00    -0.246 OA
ATOM      5  O   UNL     1       9.010  -2.740  19.736  1.00  0.00    -0.423 OA
ATOM      6  C   UNL     1       9.129  -4.065  19.748  1.00  0.00     0.142 A 
ATOM      7  C   UNL     1       7.986  -4.870  19.756  1.00  0.00     0.098 A 
ATOM      8  C   UNL     1       8.106  -6.268  19.770  1.00  0.00     0.161 A 
ATOM      9  C   UNL     1       9.376  -6.862  19.774  1.00  0.00     0.158 A 
ATOM     10  C   UNL     1      10.527  -6.060  19.765  1.00  0.00     0.062 A 
ATOM     11  C   UNL     1      10.408  -4.663  19.752  1.00  0.00     0.022 A 
ENDROOT
BRANCH   9  12
ATOM     12  O   UNL     1       9.486  -8.251  19.786  1.00  0.00    -0.504 OA
ATOM     13  H   UNL     1       9.189  -8.801  20.585  1.00  0.00     0.293 HD
ENDBRANCH   9  12
BRANCH   8  14
ATOM     14  O   UNL     1       6.968  -7.072  19.778  1.00  0.00    -0.504 OA
ATOM     15  H   UNL     1       6.044  -6.686  19.623  1.00  0.00     0.293 HD
ENDBRANCH   8  14
TORSDOF 2
ENDMDL
MODEL 3
REMARK VINA RESULT:    -5.982     11.720     12.883
REMARK INTER + INTRA:          -6.332
REMARK INTER:                  -6.332
REMARK INTRA:                   0.000
REMARK UNBOUND:                 0.000
REMARK SMILES O=c1ccc2cc(O)c(O)cc2o1
REMARK SMILES IDX 4 1 3 2 2 3 1 4 13 5 12 6 11 7 9 8 7 9 6 10 5 11 8 12 10 14
REMARK H PARENT 8 13 10 15
REMARK Flexibility Score: inf
ROOT
ATOM      1  C   UNL     1       9.120  -2.649  19.755  1.00  0.00     0.019 A 
ATOM      2  C   UNL     1      10.295  -1.899  19.768  1.00  0.00     0.094 A 
ATOM      3  C   UNL     1      11.525  -2.566  19.782  1.00  0.00     0.336 A 
ATOM      4  O   UNL     1      12.598  -1.908  19.793  1.00  0.00    -0.246 OA
ATOM      5  O   UNL     1      11.570  -3.896  19.785  1.00  0.00    -0.423 OA
ATOM      6  C   UNL     1      10.473  -4.649  19.775  1.00  0.00     0.142 A 
ATOM      7  C   UNL     1      10.581  -6.043  19.779  1.00  0.00     0.098 A 
ATOM      8  C   UNL     1       9.427  -6.841  19.768  1.00  0.00     0.161 A 
ATOM      9  C   UNL     1       8.160  -6.242  19.752  1.00  0.00     0.158 A 
ATOM     10  C   UNL     1       8.045  -4.844  19.748  1.00  0.00     0.062 A 
ATOM     11  C   UNL     1       9.196  -4.045  19.759  1.00  0.00     0.022 A 
ENDROOT
BRANCH   9  12
ATOM     12  O   UNL     1       7.019  -7.043  19.742  1.00  0.00    -0.504 OA
ATOM     13  H   UNL     1       7.062  -8.031  19.963  1.00  0.00     0.293 HD
ENDBRANCH   9  12
BRANCH   8  14
ATOM     14  O   UNL     1       9.533  -8.231  19.772  1.00  0.00    -0.504 OA
ATOM     15  H   UNL     1       8.993  -8.807  19.138  1.00  0.00     0.293 HD
ENDBRANCH   8  14
TORSDOF 2
ENDMDL
MODEL 4
REMARK VINA RESULT:    -5.899     10.861     12.454
REMARK INTER + INTRA:          -6.244
REMARK INTER:                  -6.244
REMARK INTRA:                   0.000
REMARK UNBOUND:                 0.000
REMARK SMILES O=c1ccc2cc(O)c(O)cc2o1
REMARK SMILES IDX 4 1 3 2 2 3 1 4 13 5 12 6 11 7 9 8 7 9 6 10 5 11 8 12 10 14
REMARK H PARENT 8 13 10 15
REMARK Flexibility Score: inf
ROOT
ATOM      1  C   UNL     1       7.316  -3.477  19.637  1.00  0.00     0.019 A 
ATOM      2  C   UNL     1       7.515  -2.097  19.655  1.00  0.00     0.094 A 
ATOM      3  C   UNL     1       8.820  -1.602  19.750  1.00  0.00     0.336 A 
ATOM      4  O   UNL     1       9.022  -0.360  19.767  1.00  0.00    -0.246 OA
ATOM      5  O   UNL     1       9.854  -2.437  19.823  1.00  0.00    -0.423 OA
ATOM      6  C   UNL     1       9.707  -3.760  19.811  1.00  0.00     0.142 A 
ATOM      7  C   UNL     1      10.830  -4.589  19.891  1.00  0.00     0.098 A 
ATOM      8  C   UNL     1      10.681  -5.984  19.877  1.00  0.00     0.161 A 
ATOM      9  C   UNL     1       9.402  -6.552  19.782  1.00  0.00     0.158 A 
ATOM     10  C   UNL     1       8.272  -5.725  19.702  1.00  0.00     0.062 A 
ATOM     11  C   UNL     1       8.419  -4.331  19.716  1.00  0.00     0.022 A 
ENDROOT
BRANCH   9  12
ATOM     12  O   UNL     1       9.263  -7.938  19.770  1.00  0.00    -0.504 OA
ATOM     13  H   UNL     1       8.928  -8.431  18.950  1.00  0.00     0.293 HD
ENDBRANCH   9  12
BRANCH   8  14
ATOM     14  O   UNL     1      11.799  -6.812  19.957  1.00  0.00    -0.504 OA
ATOM     15  H   UNL     1      11.799  -7.651  20.524  1.00  0.00     0.293 HD
ENDBRANCH   8  14
TORSDOF 2
ENDMDL
MODEL 5
REMARK VINA RESULT:    -5.582     10.593     12.705
REMARK INTER + INTRA:          -5.908
REMARK INTER:                  -5.908
REMARK INTRA:                   0.000
REMARK UNBOUND:                 0.000
REMARK SMILES O=c1ccc2cc(O)c(O)cc2o1
REMARK SMILES IDX 4 1 3 2 2 3 1 4 13 5 12 6 11 7 9 8 7 9 6 10 5 11 8 12 10 14
REMARK H PARENT 8 13 10 15
REMARK Flexibility Score: inf
ROOT
ATOM      1  C   UNL     1      11.126  -5.465  19.747  1.00  0.00     0.019 A 
ATOM      2  C   UNL     1       9.870  -6.021  19.989  1.00  0.00     0.094 A 
ATOM      3  C   UNL     1       8.739  -5.202  19.910  1.00  0.00     0.336 A 
ATOM      4  O   UNL     1       7.597  -5.684  20.125  1.00  0.00    -0.246 OA
ATOM      5  O   UNL     1       8.862  -3.911  19.610  1.00  0.00    -0.423 OA
ATOM      6  C   UNL     1      10.041  -3.341  19.372  1.00  0.00     0.142 A 
ATOM      7  C   UNL     1      10.109  -1.980  19.061  1.00  0.00     0.098 A 
ATOM      8  C   UNL     1      11.350  -1.374  18.809  1.00  0.00     0.161 A 
ATOM      9  C   UNL     1      12.526  -2.134  18.869  1.00  0.00     0.158 A 
ATOM     10  C   UNL     1      12.464  -3.500  19.182  1.00  0.00     0.062 A 
ATOM     11  C   UNL     1      11.226  -4.107  19.433  1.00  0.00     0.022 A 
ENDROOT
BRANCH   9  12
ATOM     12  O   UNL     1      13.754  -1.524  18.619  1.00  0.00    -0.504 OA
ATOM     13  H   UNL     1      13.882  -0.891  17.838  1.00  0.00     0.293 HD
ENDBRANCH   9  12
BRANCH   8  14
ATOM     14  O   UNL     1      11.420  -0.017  18.499  1.00  0.00    -0.504 OA
ATOM     15  H   UNL     1      11.981   0.323  17.728  1.00  0.00     0.293 HD
ENDBRANCH   8  14
TORSDOF 2
ENDMDL
MODEL 6
REMARK VINA RESULT:    -5.363     10.796     12.736
REMARK INTER + INTRA:          -5.677
REMARK INTER:                  -5.677
REMARK INTRA:                   0.000
REMARK UNBOUND:                 0.000
REMARK SMILES O=c1ccc2cc(O)c(O)cc2o1
REMARK SMILES IDX 4 1 3 2 2 3 1 4 13 5 12 6 11 7 9 8 7 9 6 10 5 11 8 12 10 14
REMARK H PARENT 8 13 10 15
REMARK Flexibility Score: inf
ROOT
ATOM      1  C   UNL     1       8.944  -3.753  19.790  1.00  0.00     0.019 A 
ATOM      2  C   UNL     1       8.841  -5.135  19.949  1.00  0.00     0.094 A 
ATOM      3  C   UNL     1       9.981  -5.925  19.772  1.00  0.00     0.336 A 
ATOM      4  O   UNL     1       9.910  -7.174  19.912  1.00  0.00    -0.246 OA
ATOM      5  O   UNL     1      11.147  -5.364  19.457  1.00  0.00    -0.423 OA
ATOM      6  C   UNL     1      11.288  -4.051  19.295  1.00  0.00     0.142 A 
ATOM      7  C   UNL     1      12.537  -3.518  18.963  1.00  0.00     0.098 A 
ATOM      8  C   UNL     1      12.692  -2.134  18.792  1.00  0.00     0.161 A 
ATOM      9  C   UNL     1      11.592  -1.280  18.954  1.00  0.00     0.158 A 
ATOM     10  C   UNL     1      10.336  -1.809  19.286  1.00  0.00     0.062 A 
ATOM     11  C   UNL     1      10.180  -3.191  19.458  1.00  0.00     0.022 A 
ENDROOT
BRANCH   9  12
ATOM     12  O   UNL     1      11.754   0.093  18.781  1.00  0.00    -0.504 OA
ATOM     13  H   UNL     1      12.326   0.644  19.412  1.00  0.00     0.293 HD
ENDBRANCH   9  12
BRANCH   8  14
ATOM     14  O   UNL     1      13.937  -1.601  18.460  1.00  0.00    -0.504 OA
ATOM     15  H   UNL     1      14.548  -1.205  19.164  1.00  0.00     0.293 HD
ENDBRANCH   8  14
TORSDOF 2
ENDMDL
MODEL 7
REMARK VINA RESULT:    -5.281      1.221      4.510
REMARK INTER + INTRA:          -5.590
REMARK INTER:                  -5.590
REMARK INTRA:                   0.000
REMARK UNBOUND:                 0.000
REMARK SMILES O=c1ccc2cc(O)c(O)cc2o1
REMARK SMILES IDX 4 1 3 2 2 3 1 4 13 5 12 6 11 7 9 8 7 9 6 10 5 11 8 12 10 14
REMARK H PARENT 8 13 10 15
REMARK Flexibility Score: inf
ROOT
ATOM      1  C   UNL     1       6.666   2.094   9.999  1.00  0.00     0.019 A 
ATOM      2  C   UNL     1       7.441   1.036  10.472  1.00  0.00     0.094 A 
ATOM      3  C   UNL     1       8.533   1.314  11.301  1.00  0.00     0.336 A 
ATOM      4  O   UNL     1       9.245   0.373  11.740  1.00  0.00    -0.246 OA
ATOM      5  O   UNL     1       8.827   2.570  11.630  1.00  0.00    -0.423 OA
ATOM      6  C   UNL     1       8.114   3.607  11.200  1.00  0.00     0.142 A 
ATOM      7  C   UNL     1       8.470   4.906  11.578  1.00  0.00     0.098 A 
ATOM      8  C   UNL     1       7.721   6.003  11.128  1.00  0.00     0.161 A 
ATOM      9  C   UNL     1       6.612   5.801  10.295  1.00  0.00     0.158 A 
ATOM     10  C   UNL     1       6.251   4.501   9.911  1.00  0.00     0.062 A 
ATOM     11  C   UNL     1       6.997   3.403  10.360  1.00  0.00     0.022 A 
ENDROOT
BRANCH   9  12
ATOM     12  O   UNL     1       5.875   6.897   9.851  1.00  0.00    -0.504 OA
ATOM     13  H   UNL     1       5.786   7.113   8.864  1.00  0.00     0.293 HD
ENDBRANCH   9  12
BRANCH   8  14
ATOM     14  O   UNL     1       8.075   7.298  11.504  1.00  0.00    -0.504 OA
ATOM     15  H   UNL     1       8.995   7.511  11.871  1.00  0.00     0.293 HD
ENDBRANCH   8  14
TORSDOF 2
ENDMDL
MODEL 8
REMARK VINA RESULT:    -5.037      9.785     11.630
REMARK INTER + INTRA:          -5.331
REMARK INTER:                  -5.331
REMARK INTRA:                   0.000
REMARK UNBOUND:                 0.000
REMARK SMILES O=c1ccc2cc(O)c(O)cc2o1
REMARK SMILES IDX 4 1 3 2 2 3 1 4 13 5 12 6 11 7 9 8 7 9 6 10 5 11 8 12 10 14
REMARK H PARENT 8 13 10 15
REMARK Flexibility Score: inf
ROOT
ATOM      1  C   UNL     1      12.350  -1.688  18.740  1.00  0.00     0.019 A 
ATOM      2  C   UNL     1      11.841  -0.399  18.580  1.00  0.00     0.094 A 
ATOM      3  C   UNL     1      10.472  -0.182  18.769  1.00  0.00     0.336 A 
ATOM      4  O   UNL     1       9.993   0.973  18.630  1.00  0.00    -0.246 OA
ATOM      5  O   UNL     1       9.669  -1.192  19.097  1.00  0.00    -0.423 OA
ATOM      6  C   UNL     1      10.113  -2.436  19.259  1.00  0.00     0.142 A 
ATOM      7  C   UNL     1       9.223  -3.457  19.604  1.00  0.00     0.098 A 
ATOM      8  C   UNL     1       9.687  -4.770  19.776  1.00  0.00     0.161 A 
ATOM      9  C   UNL     1      11.047  -5.062  19.603  1.00  0.00     0.158 A 
ATOM     10  C   UNL     1      11.945  -4.042  19.257  1.00  0.00     0.062 A 
ATOM     11  C   UNL     1      11.483  -2.729  19.084  1.00  0.00     0.022 A 
ENDROOT
BRANCH   9  12
ATOM     12  O   UNL     1      11.498  -6.369  19.775  1.00  0.00    -0.504 OA
ATOM     13  H   UNL     1      12.189  -6.604  20.480  1.00  0.00     0.293 HD
ENDBRANCH   9  12
BRANCH   8  14
ATOM     14  O   UNL     1       8.800  -5.790  20.119  1.00  0.00    -0.504 OA
ATOM     15  H   UNL     1       7.993  -5.616  20.706  1.00  0.00     0.293 HD
ENDBRANCH   8  14
TORSDOF 2
ENDMDL
