MODEL 1
REMARK VINA RESULT:    -5.027      0.000      0.000
REMARK INTER + INTRA:         -11.852
REMARK INTER:                  -9.729
REMARK INTRA:                  -2.123
REMARK UNBOUND:                -2.123
REMARK SMILES CCCCCCCCCCCCCCCCCC(=O)[O-]
REMARK SMILES IDX 10 1 11 2 12 3 13 4 14 5 15 6 16 7 17 8 18 9 19 10 20 11
REMARK SMILES IDX 9 12 8 13 7 14 6 15 5 16 4 17 3 18 2 19 1 20
REMARK H PARENT
REMARK Flexibility Score: inf
ROOT
ATOM      1  C   UNL     1      24.813  12.398  30.413  1.00  0.00     0.000 C 
ENDROOT
BRANCH   1   2
ATOM      2  C   UNL     1      24.707  11.014  31.079  1.00  0.00     0.000 C 
BRANCH   2   3
ATOM      3  C   UNL     1      25.265  10.998  32.510  1.00  0.00     0.000 C 
BRANCH   3   4
ATOM      4  C   UNL     1      24.808  12.213  33.337  1.00  0.00     0.000 C 
BRANCH   4   5
ATOM      5  C   UNL     1      24.930  11.963  34.849  1.00  0.00     0.000 C 
BRANCH   5   6
ATOM      6  C   UNL     1      23.783  12.613  35.643  1.00  0.00     0.000 C 
BRANCH   6   7
ATOM      7  C   UNL     1      22.457  12.630  34.864  1.00  0.00     0.006 C 
BRANCH   7   8
ATOM      8  C   UNL     1      21.229  12.608  35.782  1.00  0.00     0.053 C 
BRANCH   8   9
ATOM      9  C   UNL     1      20.221  13.618  35.333  1.00  0.00     0.041 C 
ATOM     10  O   UNL     1      19.034  13.552  35.740  1.00  0.00    -0.550 OA
ATOM     11  O   UNL     1      20.600  14.650  34.479  1.00  0.00    -0.550 OA
ENDBRANCH   8   9
ENDBRANCH   7   8
ENDBRANCH   6   7
ENDBRANCH   5   6
ENDBRANCH   4   5
ENDBRANCH   3   4
ENDBRANCH   2   3
ENDBRANCH   1   2
BRANCH   1  12
ATOM     12  C   UNL     1      25.825  12.406  29.247  1.00  0.00     0.000 C 
BRANCH  12  13
ATOM     13  C   UNL     1      26.859  11.262  29.306  1.00  0.00    -0.000 C 
BRANCH  13  14
ATOM     14  C   UNL     1      28.051  11.506  30.248  1.00  0.00    -0.000 C 
BRANCH  14  15
ATOM     15  C   UNL     1      28.361  13.001  30.447  1.00  0.00    -0.000 C 
BRANCH  15  16
ATOM     16  C   UNL     1      28.095  13.471  31.887  1.00  0.00    -0.000 C 
BRANCH  16  17
ATOM     17  C   UNL     1      28.620  12.482  32.939  1.00  0.00    -0.000 C 
BRANCH  17  18
ATOM     18  C   UNL     1      28.265  12.904  34.374  1.00  0.00    -0.000 C 
BRANCH  18  19
ATOM     19  C   UNL     1      27.943  14.397  34.545  1.00  0.00    -0.003 C 
ATOM     20  C   UNL     1      27.349  14.723  35.910  1.00  0.00     0.004 C 
ENDBRANCH  18  19
ENDBRANCH  17  18
ENDBRANCH  16  17
ENDBRANCH  15  16
ENDBRANCH  14  15
ENDBRANCH  13  14
ENDBRANCH  12  13
ENDBRANCH   1  12
TORSDOF 16
ENDMDL
MODEL 2
REMARK VINA RESULT:    -4.944      1.141      3.668
REMARK INTER + INTRA:         -11.692
REMARK INTER:                 -10.054
REMARK INTRA:                  -1.638
REMARK UNBOUND:                -2.123
REMARK SMILES CCCCCCCCCCCCCCCCCC(=O)[O-]
REMARK SMILES IDX 10 1 11 2 12 3 13 4 14 5 15 6 16 7 17 8 18 9 19 10 20 11
REMARK SMILES IDX 9 12 8 13 7 14 6 15 5 16 4 17 3 18 2 19 1 20
REMARK H PARENT
REMARK Flexibility Score: inf
ROOT
ATOM      1  C   UNL     1      28.141  13.828  34.857  1.00  0.00     0.000 C 
ENDROOT
BRANCH   1   2
ATOM      2  C   UNL     1      26.978  13.849  35.865  1.00  0.00     0.000 C 
BRANCH   2   3
ATOM      3  C   UNL     1      25.833  12.903  35.473  1.00  0.00     0.000 C 
BRANCH   3   4
ATOM      4  C   UNL     1      24.635  12.994  36.435  1.00  0.00     0.000 C 
BRANCH   4   5
ATOM      5  C   UNL     1      23.412  12.224  35.911  1.00  0.00     0.000 C 
BRANCH   5   6
ATOM      6  C   UNL     1      22.704  12.964  34.762  1.00  0.00     0.000 C 
BRANCH   6   7
ATOM      7  C   UNL     1      21.232  12.547  34.606  1.00  0.00     0.006 C 
BRANCH   7   8
ATOM      8  C   UNL     1      20.672  11.869  35.863  1.00  0.00     0.053 C 
BRANCH   8   9
ATOM      9  C   UNL     1      19.387  12.512  36.276  1.00  0.00     0.041 C 
ATOM     10  O   UNL     1      18.634  11.945  37.107  1.00  0.00    -0.550 OA
ATOM     11  O   UNL     1      19.030  13.755  35.760  1.00  0.00    -0.550 OA
ENDBRANCH   8   9
ENDBRANCH   7   8
ENDBRANCH   6   7
ENDBRANCH   5   6
ENDBRANCH   4   5
ENDBRANCH   3   4
ENDBRANCH   2   3
ENDBRANCH   1   2
BRANCH   1  12
ATOM     12  C   UNL     1      27.646  13.719  33.398  1.00  0.00     0.000 C 
BRANCH  12  13
ATOM     13  C   UNL     1      28.406  12.674  32.555  1.00  0.00    -0.000 C 
BRANCH  13  14
ATOM     14  C   UNL     1      28.728  13.107  31.113  1.00  0.00    -0.000 C 
BRANCH  14  15
ATOM     15  C   UNL     1      28.376  12.029  30.072  1.00  0.00    -0.000 C 
BRANCH  15  16
ATOM     16  C   UNL     1      26.906  12.099  29.626  1.00  0.00    -0.000 C 
BRANCH  16  17
ATOM     17  C   UNL     1      26.127  10.815  29.951  1.00  0.00    -0.000 C 
BRANCH  17  18
ATOM     18  C   UNL     1      26.000  10.568  31.463  1.00  0.00    -0.000 C 
BRANCH  18  19
ATOM     19  C   UNL     1      24.926  11.415  32.165  1.00  0.00    -0.003 C 
ATOM     20  C   UNL     1      23.515  11.100  31.686  1.00  0.00     0.004 C 
ENDBRANCH  18  19
ENDBRANCH  17  18
ENDBRANCH  16  17
ENDBRANCH  15  16
ENDBRANCH  14  15
ENDBRANCH  13  14
ENDBRANCH  12  13
ENDBRANCH   1  12
TORSDOF 16
ENDMDL
MODEL 3
REMARK VINA RESULT:    -4.861      1.606      2.525
REMARK INTER + INTRA:         -11.530
REMARK INTER:                  -9.971
REMARK INTRA:                  -1.559
REMARK UNBOUND:                -2.123
REMARK SMILES CCCCCCCCCCCCCCCCCC(=O)[O-]
REMARK SMILES IDX 10 1 11 2 12 3 13 4 14 5 15 6 16 7 17 8 18 9 19 10 20 11
REMARK SMILES IDX 9 12 8 13 7 14 6 15 5 16 4 17 3 18 2 19 1 20
REMARK H PARENT
REMARK Flexibility Score: inf
ROOT
ATOM      1  C   UNL     1      25.337  11.357  32.553  1.00  0.00     0.000 C 
ENDROOT
BRANCH   1   2
ATOM      2  C   UNL     1      24.323  12.210  33.337  1.00  0.00     0.000 C 
BRANCH   2   3
ATOM      3  C   UNL     1      24.610  12.240  34.846  1.00  0.00     0.000 C 
BRANCH   3   4
ATOM      4  C   UNL     1      23.379  12.651  35.674  1.00  0.00     0.000 C 
BRANCH   4   5
ATOM      5  C   UNL     1      22.083  12.596  34.850  1.00  0.00     0.000 C 
BRANCH   5   6
ATOM      6  C   UNL     1      20.965  13.460  35.461  1.00  0.00     0.000 C 
BRANCH   6   7
ATOM      7  C   UNL     1      19.783  12.622  35.976  1.00  0.00     0.006 C 
BRANCH   7   8
ATOM      8  C   UNL     1      20.067  11.115  35.949  1.00  0.00     0.053 C 
BRANCH   8   9
ATOM      9  C   UNL     1      19.049  10.405  35.115  1.00  0.00     0.041 C 
ATOM     10  O   UNL     1      18.582  10.953  34.085  1.00  0.00    -0.550 OA
ATOM     11  O   UNL     1      18.632   9.123  35.462  1.00  0.00    -0.550 OA
ENDBRANCH   8   9
ENDBRANCH   7   8
ENDBRANCH   6   7
ENDBRANCH   5   6
ENDBRANCH   4   5
ENDBRANCH   3   4
ENDBRANCH   2   3
ENDBRANCH   1   2
BRANCH   1  12
ATOM     12  C   UNL     1      24.975  11.253  31.055  1.00  0.00     0.000 C 
BRANCH  12  13
ATOM     13  C   UNL     1      26.124  10.731  30.168  1.00  0.00    -0.000 C 
BRANCH  13  14
ATOM     14  C   UNL     1      27.000  11.822  29.525  1.00  0.00    -0.000 C 
BRANCH  14  15
ATOM     15  C   UNL     1      28.406  11.904  30.146  1.00  0.00    -0.000 C 
BRANCH  15  16
ATOM     16  C   UNL     1      28.559  13.101  31.099  1.00  0.00    -0.000 C 
BRANCH  16  17
ATOM     17  C   UNL     1      28.434  12.701  32.577  1.00  0.00    -0.000 C 
BRANCH  17  18
ATOM     18  C   UNL     1      28.004  13.875  33.472  1.00  0.00    -0.000 C 
BRANCH  18  19
ATOM     19  C   UNL     1      28.074  13.593  34.981  1.00  0.00    -0.003 C 
ATOM     20  C   UNL     1      27.296  14.607  35.811  1.00  0.00     0.004 C 
ENDBRANCH  18  19
ENDBRANCH  17  18
ENDBRANCH  16  17
ENDBRANCH  15  16
ENDBRANCH  14  15
ENDBRANCH  13  14
ENDBRANCH  12  13
ENDBRANCH   1  12
TORSDOF 16
ENDMDL
MODEL 4
REMARK VINA RESULT:    -4.800      3.997      8.534
REMARK INTER + INTRA:         -11.413
REMARK INTER:                 -10.551
REMARK INTRA:                  -0.863
REMARK UNBOUND:                -2.123
REMARK SMILES CCCCCCCCCCCCCCCCCC(=O)[O-]
REMARK SMILES IDX 10 1 11 2 12 3 13 4 14 5 15 6 16 7 17 8 18 9 19 10 20 11
REMARK SMILES IDX 9 12 8 13 7 14 6 15 5 16 4 17 3 18 2 19 1 20
REMARK H PARENT
REMARK Flexibility Score: inf
ROOT
ATOM      1  C   UNL     1      23.094  12.588  35.587  1.00  0.00     0.000 C 
ENDROOT
BRANCH   1   2
ATOM      2  C   UNL     1      24.257  12.225  34.646  1.00  0.00     0.000 C 
BRANCH   2   3
ATOM      3  C   UNL     1      25.606  12.134  35.374  1.00  0.00     0.000 C 
BRANCH   3   4
ATOM      4  C   UNL     1      26.098  13.503  35.878  1.00  0.00     0.000 C 
BRANCH   4   5
ATOM      5  C   UNL     1      27.561  13.772  35.488  1.00  0.00     0.000 C 
BRANCH   5   6
ATOM      6  C   UNL     1      27.727  14.011  33.976  1.00  0.00     0.000 C 
BRANCH   6   7
ATOM      7  C   UNL     1      28.410  12.834  33.261  1.00  0.00     0.006 C 
BRANCH   7   8
ATOM      8  C   UNL     1      28.557  13.062  31.751  1.00  0.00     0.053 C 
BRANCH   8   9
ATOM      9  C   UNL     1      28.043  11.880  30.991  1.00  0.00     0.041 C 
ATOM     10  O   UNL     1      27.122  11.172  31.470  1.00  0.00    -0.550 OA
ATOM     11  O   UNL     1      28.566  11.574  29.738  1.00  0.00    -0.550 OA
ENDBRANCH   8   9
ENDBRANCH   7   8
ENDBRANCH   6   7
ENDBRANCH   5   6
ENDBRANCH   4   5
ENDBRANCH   3   4
ENDBRANCH   2   3
ENDBRANCH   1   2
BRANCH   1  12
ATOM     12  C   UNL     1      21.764  12.777  34.824  1.00  0.00     0.000 C 
BRANCH  12  13
ATOM     13  C   UNL     1      20.608  13.300  35.701  1.00  0.00    -0.000 C 
BRANCH  13  14
ATOM     14  C   UNL     1      19.596  12.232  36.154  1.00  0.00    -0.000 C 
BRANCH  14  15
ATOM     15  C   UNL     1      19.729  10.912  35.371  1.00  0.00    -0.000 C 
BRANCH  15  16
ATOM     16  C   UNL     1      18.366  10.263  35.079  1.00  0.00    -0.000 C 
BRANCH  16  17
ATOM     17  C   UNL     1      18.083   9.050  35.978  1.00  0.00    -0.000 C 
BRANCH  17  18
ATOM     18  C   UNL     1      19.327   8.588  36.754  1.00  0.00    -0.000 C 
BRANCH  18  19
ATOM     19  C   UNL     1      19.219   7.180  37.363  1.00  0.00    -0.003 C 
ATOM     20  C   UNL     1      18.056   6.376  36.794  1.00  0.00     0.004 C 
ENDBRANCH  18  19
ENDBRANCH  17  18
ENDBRANCH  16  17
ENDBRANCH  15  16
ENDBRANCH  14  15
ENDBRANCH  13  14
ENDBRANCH  12  13
ENDBRANCH   1  12
TORSDOF 16
ENDMDL
MODEL 5
REMARK VINA RESULT:    -4.799      3.228      7.837
REMARK INTER + INTRA:         -11.411
REMARK INTER:                 -10.120
REMARK INTRA:                  -1.291
REMARK UNBOUND:                -2.123
REMARK SMILES CCCCCCCCCCCCCCCCCC(=O)[O-]
REMARK SMILES IDX 10 1 11 2 12 3 13 4 14 5 15 6 16 7 17 8 18 9 19 10 20 11
REMARK SMILES IDX 9 12 8 13 7 14 6 15 5 16 4 17 3 18 2 19 1 20
REMARK H PARENT
REMARK Flexibility Score: inf
ROOT
ATOM      1  C   UNL     1      24.440  12.149  34.458  1.00  0.00     0.000 C 
ENDROOT
BRANCH   1   2
ATOM      2  C   UNL     1      23.926  11.888  33.030  1.00  0.00     0.000 C 
BRANCH   2   3
ATOM      3  C   UNL     1      25.043  11.475  32.061  1.00  0.00     0.000 C 
BRANCH   3   4
ATOM      4  C   UNL     1      25.374  12.576  31.037  1.00  0.00     0.000 C 
BRANCH   4   5
ATOM      5  C   UNL     1      26.882  12.869  30.971  1.00  0.00     0.000 C 
BRANCH   5   6
ATOM      6  C   UNL     1      27.678  12.073  32.020  1.00  0.00     0.000 C 
BRANCH   6   7
ATOM      7  C   UNL     1      28.497  12.979  32.955  1.00  0.00     0.006 C 
BRANCH   7   8
ATOM      8  C   UNL     1      27.651  14.082  33.604  1.00  0.00     0.053 C 
BRANCH   8   9
ATOM      9  C   UNL     1      27.562  13.872  35.082  1.00  0.00     0.041 C 
ATOM     10  O   UNL     1      27.289  14.835  35.842  1.00  0.00    -0.550 OA
ATOM     11  O   UNL     1      27.757  12.603  35.621  1.00  0.00    -0.550 OA
ENDBRANCH   8   9
ENDBRANCH   7   8
ENDBRANCH   6   7
ENDBRANCH   5   6
ENDBRANCH   4   5
ENDBRANCH   3   4
ENDBRANCH   2   3
ENDBRANCH   1   2
BRANCH   1  12
ATOM     12  C   UNL     1      23.333  12.698  35.384  1.00  0.00     0.000 C 
BRANCH  12  13
ATOM     13  C   UNL     1      21.937  12.754  34.728  1.00  0.00    -0.000 C 
BRANCH  13  14
ATOM     14  C   UNL     1      20.787  13.146  35.673  1.00  0.00    -0.000 C 
BRANCH  14  15
ATOM     15  C   UNL     1      19.607  12.158  35.622  1.00  0.00    -0.000 C 
BRANCH  15  16
ATOM     16  C   UNL     1      18.720  12.236  36.875  1.00  0.00    -0.000 C 
BRANCH  16  17
ATOM     17  C   UNL     1      17.964  10.927  37.148  1.00  0.00    -0.000 C 
BRANCH  17  18
ATOM     18  C   UNL     1      18.537   9.739  36.358  1.00  0.00    -0.000 C 
BRANCH  18  19
ATOM     19  C   UNL     1      19.395   8.770  37.187  1.00  0.00    -0.003 C 
ATOM     20  C   UNL     1      18.989   7.312  37.003  1.00  0.00     0.004 C 
ENDBRANCH  18  19
ENDBRANCH  17  18
ENDBRANCH  16  17
ENDBRANCH  15  16
ENDBRANCH  14  15
ENDBRANCH  13  14
ENDBRANCH  12  13
ENDBRANCH   1  12
TORSDOF 16
ENDMDL
MODEL 6
REMARK VINA RESULT:    -4.776      2.629      6.560
REMARK INTER + INTRA:         -11.367
REMARK INTER:                  -9.645
REMARK INTRA:                  -1.722
REMARK UNBOUND:                -2.123
REMARK SMILES CCCCCCCCCCCCCCCCCC(=O)[O-]
REMARK SMILES IDX 10 1 11 2 12 3 13 4 14 5 15 6 16 7 17 8 18 9 19 10 20 11
REMARK SMILES IDX 9 12 8 13 7 14 6 15 5 16 4 17 3 18 2 19 1 20
REMARK H PARENT
REMARK Flexibility Score: inf
ROOT
ATOM      1  C   UNL     1      25.585  10.572  31.688  1.00  0.00     0.000 C 
ENDROOT
BRANCH   1   2
ATOM      2  C   UNL     1      25.918  10.937  30.230  1.00  0.00     0.000 C 
BRANCH   2   3
ATOM      3  C   UNL     1      25.495  12.367  29.863  1.00  0.00     0.000 C 
BRANCH   3   4
ATOM      4  C   UNL     1      26.691  13.330  29.758  1.00  0.00     0.000 C 
BRANCH   4   5
ATOM      5  C   UNL     1      28.025  12.631  30.070  1.00  0.00     0.000 C 
BRANCH   5   6
ATOM      6  C   UNL     1      28.765  13.286  31.250  1.00  0.00     0.000 C 
BRANCH   6   7
ATOM      7  C   UNL     1      28.347  12.703  32.610  1.00  0.00     0.006 C 
BRANCH   7   8
ATOM      8  C   UNL     1      28.038  13.788  33.651  1.00  0.00     0.053 C 
BRANCH   8   9
ATOM      9  C   UNL     1      27.803  13.173  34.994  1.00  0.00     0.041 C 
ATOM     10  O   UNL     1      27.439  13.887  35.961  1.00  0.00    -0.550 OA
ATOM     11  O   UNL     1      27.964  11.802  35.172  1.00  0.00    -0.550 OA
ENDBRANCH   8   9
ENDBRANCH   7   8
ENDBRANCH   6   7
ENDBRANCH   5   6
ENDBRANCH   4   5
ENDBRANCH   3   4
ENDBRANCH   2   3
ENDBRANCH   1   2
BRANCH   1  12
ATOM     12  C   UNL     1      24.332  11.314  32.203  1.00  0.00     0.000 C 
BRANCH  12  13
ATOM     13  C   UNL     1      24.632  12.375  33.282  1.00  0.00    -0.000 C 
BRANCH  13  14
ATOM     14  C   UNL     1      24.450  11.899  34.735  1.00  0.00    -0.000 C 
BRANCH  14  15
ATOM     15  C   UNL     1      23.322  12.644  35.472  1.00  0.00    -0.000 C 
BRANCH  15  16
ATOM     16  C   UNL     1      21.998  12.629  34.690  1.00  0.00    -0.000 C 
BRANCH  16  17
ATOM     17  C   UNL     1      20.916  13.503  35.341  1.00  0.00    -0.000 C 
BRANCH  17  18
ATOM     18  C   UNL     1      19.758  12.675  35.921  1.00  0.00    -0.000 C 
BRANCH  18  19
ATOM     19  C   UNL     1      19.554  11.302  35.259  1.00  0.00    -0.003 C 
ATOM     20  C   UNL     1      19.666  10.146  36.246  1.00  0.00     0.004 C 
ENDBRANCH  18  19
ENDBRANCH  17  18
ENDBRANCH  16  17
ENDBRANCH  15  16
ENDBRANCH  14  15
ENDBRANCH  13  14
ENDBRANCH  12  13
ENDBRANCH   1  12
TORSDOF 16
ENDMDL
MODEL 7
REMARK VINA RESULT:    -4.741      2.911      7.924
REMARK INTER + INTRA:         -11.299
REMARK INTER:                 -10.309
REMARK INTRA:                  -0.990
REMARK UNBOUND:                -2.123
REMARK SMILES CCCCCCCCCCCCCCCCCC(=O)[O-]
REMARK SMILES IDX 10 1 11 2 12 3 13 4 14 5 15 6 16 7 17 8 18 9 19 10 20 11
REMARK SMILES IDX 9 12 8 13 7 14 6 15 5 16 4 17 3 18 2 19 1 20
REMARK H PARENT
REMARK Flexibility Score: inf
ROOT
ATOM      1  C   UNL     1      24.327  12.601  35.998  1.00  0.00     0.000 C 
ENDROOT
BRANCH   1   2
ATOM      2  C   UNL     1      25.712  12.640  35.326  1.00  0.00     0.000 C 
BRANCH   2   3
ATOM      3  C   UNL     1      26.569  13.824  35.796  1.00  0.00     0.000 C 
BRANCH   3   4
ATOM      4  C   UNL     1      27.948  13.865  35.112  1.00  0.00     0.000 C 
BRANCH   4   5
ATOM      5  C   UNL     1      28.114  12.738  34.079  1.00  0.00     0.000 C 
BRANCH   5   6
ATOM      6  C   UNL     1      28.420  13.278  32.671  1.00  0.00     0.000 C 
BRANCH   6   7
ATOM      7  C   UNL     1      28.058  12.278  31.560  1.00  0.00     0.006 C 
BRANCH   7   8
ATOM      8  C   UNL     1      26.683  12.554  30.938  1.00  0.00     0.053 C 
BRANCH   8   9
ATOM      9  C   UNL     1      25.675  11.569  31.439  1.00  0.00     0.041 C 
ATOM     10  O   UNL     1      25.952  10.344  31.477  1.00  0.00    -0.550 OA
ATOM     11  O   UNL     1      24.433  12.008  31.889  1.00  0.00    -0.550 OA
ENDBRANCH   8   9
ENDBRANCH   7   8
ENDBRANCH   6   7
ENDBRANCH   5   6
ENDBRANCH   4   5
ENDBRANCH   3   4
ENDBRANCH   2   3
ENDBRANCH   1   2
BRANCH   1  12
ATOM     12  C   UNL     1      23.178  12.658  34.969  1.00  0.00     0.000 C 
BRANCH  12  13
ATOM     13  C   UNL     1      21.770  12.655  35.600  1.00  0.00    -0.000 C 
BRANCH  13  14
ATOM     14  C   UNL     1      20.724  13.514  34.867  1.00  0.00    -0.000 C 
BRANCH  14  15
ATOM     15  C   UNL     1      19.295  12.955  34.995  1.00  0.00    -0.000 C 
BRANCH  15  16
ATOM     16  C   UNL     1      18.599  13.409  36.289  1.00  0.00    -0.000 C 
BRANCH  16  17
ATOM     17  C   UNL     1      17.917  12.250  37.032  1.00  0.00    -0.000 C 
BRANCH  17  18
ATOM     18  C   UNL     1      18.574  10.892  36.737  1.00  0.00    -0.000 C 
BRANCH  18  19
ATOM     19  C   UNL     1      18.124   9.746  37.657  1.00  0.00    -0.003 C 
ATOM     20  C   UNL     1      18.879   8.447  37.400  1.00  0.00     0.004 C 
ENDBRANCH  18  19
ENDBRANCH  17  18
ENDBRANCH  16  17
ENDBRANCH  15  16
ENDBRANCH  14  15
ENDBRANCH  13  14
ENDBRANCH  12  13
ENDBRANCH   1  12
TORSDOF 16
ENDMDL
MODEL 8
REMARK VINA RESULT:    -4.740      2.249      7.064
REMARK INTER + INTRA:         -11.297
REMARK INTER:                  -9.811
REMARK INTRA:                  -1.486
REMARK UNBOUND:                -2.123
REMARK SMILES CCCCCCCCCCCCCCCCCC(=O)[O-]
REMARK SMILES IDX 10 1 11 2 12 3 13 4 14 5 15 6 16 7 17 8 18 9 19 10 20 11
REMARK SMILES IDX 9 12 8 13 7 14 6 15 5 16 4 17 3 18 2 19 1 20
REMARK H PARENT
REMARK Flexibility Score: inf
ROOT
ATOM      1  C   UNL     1      26.980  11.833  34.868  1.00  0.00     0.000 C 
ENDROOT
BRANCH   1   2
ATOM      2  C   UNL     1      27.247  13.345  34.982  1.00  0.00     0.000 C 
BRANCH   2   3
ATOM      3  C   UNL     1      27.976  13.916  33.756  1.00  0.00     0.000 C 
BRANCH   3   4
ATOM      4  C   UNL     1      28.575  12.817  32.860  1.00  0.00     0.000 C 
BRANCH   4   5
ATOM      5  C   UNL     1      28.750  13.287  31.406  1.00  0.00     0.000 C 
BRANCH   5   6
ATOM      6  C   UNL     1      28.181  12.277  30.394  1.00  0.00     0.000 C 
BRANCH   6   7
ATOM      7  C   UNL     1      27.317  11.193  31.059  1.00  0.00     0.006 C 
BRANCH   7   8
ATOM      8  C   UNL     1      25.954  11.019  30.376  1.00  0.00     0.053 C 
BRANCH   8   9
ATOM      9  C   UNL     1      25.035  12.139  30.749  1.00  0.00     0.041 C 
ATOM     10  O   UNL     1      24.579  12.905  29.864  1.00  0.00    -0.550 OA
ATOM     11  O   UNL     1      24.662  12.323  32.078  1.00  0.00    -0.550 OA
ENDBRANCH   8   9
ENDBRANCH   7   8
ENDBRANCH   6   7
ENDBRANCH   5   6
ENDBRANCH   4   5
ENDBRANCH   3   4
ENDBRANCH   2   3
ENDBRANCH   1   2
BRANCH   1  12
ATOM     12  C   UNL     1      25.531  11.467  35.253  1.00  0.00     0.000 C 
BRANCH  12  13
ATOM     13  C   UNL     1      24.693  12.664  35.752  1.00  0.00    -0.000 C 
BRANCH  13  14
ATOM     14  C   UNL     1      23.195  12.375  35.951  1.00  0.00    -0.000 C 
BRANCH  14  15
ATOM     15  C   UNL     1      22.318  12.962  34.829  1.00  0.00    -0.000 C 
BRANCH  15  16
ATOM     16  C   UNL     1      21.094  12.085  34.519  1.00  0.00    -0.000 C 
BRANCH  16  17
ATOM     17  C   UNL     1      19.804  12.904  34.358  1.00  0.00    -0.000 C 
BRANCH  17  18
ATOM     18  C   UNL     1      19.486  13.755  35.598  1.00  0.00    -0.000 C 
BRANCH  18  19
ATOM     19  C   UNL     1      18.176  13.387  36.312  1.00  0.00    -0.003 C 
ATOM     20  C   UNL     1      18.304  12.144  37.185  1.00  0.00     0.004 C 
ENDBRANCH  18  19
ENDBRANCH  17  18
ENDBRANCH  16  17
ENDBRANCH  15  16
ENDBRANCH  14  15
ENDBRANCH  13  14
ENDBRANCH  12  13
ENDBRANCH   1  12
TORSDOF 16
ENDMDL
MODEL 9
REMARK VINA RESULT:    -4.710      1.752      3.016
REMARK INTER + INTRA:         -11.239
REMARK INTER:                  -9.155
REMARK INTRA:                  -2.084
REMARK UNBOUND:                -2.123
REMARK SMILES CCCCCCCCCCCCCCCCCC(=O)[O-]
REMARK SMILES IDX 10 1 11 2 12 3 13 4 14 5 15 6 16 7 17 8 18 9 19 10 20 11
REMARK SMILES IDX 9 12 8 13 7 14 6 15 5 16 4 17 3 18 2 19 1 20
REMARK H PARENT
REMARK Flexibility Score: inf
ROOT
ATOM      1  C   UNL     1      25.778  10.710  31.579  1.00  0.00     0.000 C 
ENDROOT
BRANCH   1   2
ATOM      2  C   UNL     1      24.874  11.919  31.879  1.00  0.00     0.000 C 
BRANCH   2   3
ATOM      3  C   UNL     1      23.469  11.511  32.345  1.00  0.00     0.000 C 
BRANCH   3   4
ATOM      4  C   UNL     1      22.746  10.611  31.327  1.00  0.00     0.000 C 
BRANCH   4   5
ATOM      5  C   UNL     1      21.242  10.494  31.624  1.00  0.00     0.000 C 
BRANCH   5   6
ATOM      6  C   UNL     1      20.722  11.667  32.475  1.00  0.00     0.000 C 
BRANCH   6   7
ATOM      7  C   UNL     1      19.957  11.200  33.725  1.00  0.00     0.006 C 
BRANCH   7   8
ATOM      8  C   UNL     1      18.984  12.261  34.255  1.00  0.00     0.053 C 
BRANCH   8   9
ATOM      9  C   UNL     1      19.461  12.799  35.567  1.00  0.00     0.041 C 
ATOM     10  O   UNL     1      19.147  12.223  36.639  1.00  0.00    -0.550 OA
ATOM     11  O   UNL     1      20.275  13.927  35.604  1.00  0.00    -0.550 OA
ENDBRANCH   8   9
ENDBRANCH   7   8
ENDBRANCH   6   7
ENDBRANCH   5   6
ENDBRANCH   4   5
ENDBRANCH   3   4
ENDBRANCH   2   3
ENDBRANCH   1   2
BRANCH   1  12
ATOM     12  C   UNL     1      27.210  11.136  31.187  1.00  0.00     0.000 C 
BRANCH  12  13
ATOM     13  C   UNL     1      27.492  12.640  31.385  1.00  0.00    -0.000 C 
BRANCH  13  14
ATOM     14  C   UNL     1      28.380  12.985  32.595  1.00  0.00    -0.000 C 
BRANCH  14  15
ATOM     15  C   UNL     1      27.674  13.899  33.614  1.00  0.00    -0.000 C 
BRANCH  15  16
ATOM     16  C   UNL     1      27.551  13.248  35.001  1.00  0.00    -0.000 C 
BRANCH  16  17
ATOM     17  C   UNL     1      27.221  11.749  34.925  1.00  0.00    -0.000 C 
BRANCH  17  18
ATOM     18  C   UNL     1      25.757  11.448  35.286  1.00  0.00    -0.000 C 
BRANCH  18  19
ATOM     19  C   UNL     1      25.028  12.587  36.016  1.00  0.00    -0.003 C 
ATOM     20  C   UNL     1      23.538  12.637  35.698  1.00  0.00     0.004 C 
ENDBRANCH  18  19
ENDBRANCH  17  18
ENDBRANCH  16  17
ENDBRANCH  15  16
ENDBRANCH  14  15
ENDBRANCH  13  14
ENDBRANCH  12  13
ENDBRANCH   1  12
TORSDOF 16
ENDMDL
