MODEL 1
REMARK VINA RESULT:    -4.075      0.000      0.000
REMARK INTER + INTRA:         -13.475
REMARK INTER:                  -9.316
REMARK INTRA:                  -4.159
REMARK UNBOUND:                -4.159
REMARK SMILES CCCCCCCCCCCCCCCCCCCCCCCC(=O)[O-]
REMARK SMILES IDX 13 1 14 2 15 3 16 4 17 5 18 6 19 7 20 8 21 9 22 10 23 11
REMARK SMILES IDX 24 12 25 13 26 14 12 15 11 16 10 17 9 18 8 19 7 20 6 21 5 22
REMARK SMILES IDX 4 23 3 24 2 25 1 26
REMARK H PARENT
REMARK Flexibility Score: inf
ROOT
ATOM      1  C   UNL     1      -8.928  17.237  -1.994  1.00  0.00     0.000 C 
ENDROOT
BRANCH   1   2
ATOM      2  C   UNL     1      -9.937  16.970  -0.865  1.00  0.00     0.000 C 
BRANCH   2   3
ATOM      3  C   UNL     1     -10.683  15.637  -1.042  1.00  0.00     0.000 C 
BRANCH   3   4
ATOM      4  C   UNL     1     -10.749  14.819   0.260  1.00  0.00     0.000 C 
BRANCH   4   5
ATOM      5  C   UNL     1      -9.531  13.898   0.439  1.00  0.00     0.000 C 
BRANCH   5   6
ATOM      6  C   UNL     1      -8.470  14.493   1.381  1.00  0.00     0.000 C 
BRANCH   6   7
ATOM      7  C   UNL     1      -7.038  14.281   0.866  1.00  0.00     0.000 C 
BRANCH   7   8
ATOM      8  C   UNL     1      -6.233  15.588   0.808  1.00  0.00     0.000 C 
BRANCH   8   9
ATOM      9  C   UNL     1      -7.086  16.778   1.261  1.00  0.00     0.000 C 
BRANCH   9  10
ATOM     10  C   UNL     1      -6.243  17.789   2.054  1.00  0.00     0.006 C 
BRANCH  10  11
ATOM     11  C   UNL     1      -6.650  17.851   3.532  1.00  0.00     0.053 C 
BRANCH  11  12
ATOM     12  C   UNL     1      -7.698  18.894   3.776  1.00  0.00     0.041 C 
ATOM     13  O   UNL     1      -7.373  20.035   4.198  1.00  0.00    -0.550 OA
ATOM     14  O   UNL     1      -9.039  18.593   3.566  1.00  0.00    -0.550 OA
ENDBRANCH  11  12
ENDBRANCH  10  11
ENDBRANCH   9  10
ENDBRANCH   8   9
ENDBRANCH   7   8
ENDBRANCH   6   7
ENDBRANCH   5   6
ENDBRANCH   4   5
ENDBRANCH   3   4
ENDBRANCH   2   3
ENDBRANCH   1   2
BRANCH   1  15
ATOM     15  C   UNL     1      -8.732  16.021  -2.919  1.00  0.00     0.000 C 
BRANCH  15  16
ATOM     16  C   UNL     1      -7.513  15.134  -2.591  1.00  0.00     0.000 C 
BRANCH  16  17
ATOM     17  C   UNL     1      -7.733  13.622  -2.788  1.00  0.00     0.000 C 
BRANCH  17  18
ATOM     18  C   UNL     1      -9.176  13.276  -3.185  1.00  0.00    -0.000 C 
BRANCH  18  19
ATOM     19  C   UNL     1      -9.208  12.523  -4.524  1.00  0.00    -0.000 C 
BRANCH  19  20
ATOM     20  C   UNL     1     -10.322  13.022  -5.458  1.00  0.00    -0.000 C 
BRANCH  20  21
ATOM     21  C   UNL     1      -9.920  14.287  -6.236  1.00  0.00    -0.000 C 
BRANCH  21  22
ATOM     22  C   UNL     1      -9.301  13.969  -7.606  1.00  0.00    -0.000 C 
BRANCH  22  23
ATOM     23  C   UNL     1      -7.875  14.522  -7.759  1.00  0.00    -0.000 C 
BRANCH  23  24
ATOM     24  C   UNL     1      -7.428  15.246  -6.480  1.00  0.00    -0.000 C 
BRANCH  24  25
ATOM     25  C   UNL     1      -6.176  14.615  -5.852  1.00  0.00    -0.003 C 
ATOM     26  C   UNL     1      -6.012  13.138  -6.215  1.00  0.00     0.004 C 
ENDBRANCH  24  25
ENDBRANCH  23  24
ENDBRANCH  22  23
ENDBRANCH  21  22
ENDBRANCH  20  21
ENDBRANCH  19  20
ENDBRANCH  18  19
ENDBRANCH  17  18
ENDBRANCH  16  17
ENDBRANCH  15  16
ENDBRANCH   1  15
TORSDOF 22
ENDMDL
MODEL 2
REMARK VINA RESULT:    -4.042      3.483      7.656
REMARK INTER + INTRA:         -13.400
REMARK INTER:                  -8.688
REMARK INTRA:                  -4.712
REMARK UNBOUND:                -4.159
REMARK SMILES CCCCCCCCCCCCCCCCCCCCCCCC(=O)[O-]
REMARK SMILES IDX 13 1 14 2 15 3 16 4 17 5 18 6 19 7 20 8 21 9 22 10 23 11
REMARK SMILES IDX 24 12 25 13 26 14 12 15 11 16 10 17 9 18 8 19 7 20 6 21 5 22
REMARK SMILES IDX 4 23 3 24 2 25 1 26
REMARK H PARENT
REMARK Flexibility Score: inf
ROOT
ATOM      1  C   UNL     1      -8.758  17.211  -2.181  1.00  0.00     0.000 C 
ENDROOT
BRANCH   1   2
ATOM      2  C   UNL     1      -9.591  16.938  -0.917  1.00  0.00     0.000 C 
BRANCH   2   3
ATOM      3  C   UNL     1     -10.618  15.811  -1.120  1.00  0.00     0.000 C 
BRANCH   3   4
ATOM      4  C   UNL     1     -10.551  14.745  -0.012  1.00  0.00     0.000 C 
BRANCH   4   5
ATOM      5  C   UNL     1     -10.765  13.321  -0.551  1.00  0.00     0.000 C 
BRANCH   5   6
ATOM      6  C   UNL     1     -11.194  13.305  -2.029  1.00  0.00     0.000 C 
BRANCH   6   7
ATOM      7  C   UNL     1     -10.783  12.010  -2.748  1.00  0.00     0.000 C 
BRANCH   7   8
ATOM      8  C   UNL     1     -11.068  12.058  -4.257  1.00  0.00     0.000 C 
BRANCH   8   9
ATOM      9  C   UNL     1     -10.649  13.408  -4.851  1.00  0.00     0.000 C 
BRANCH   9  10
ATOM     10  C   UNL     1      -9.532  13.229  -5.890  1.00  0.00     0.006 C 
BRANCH  10  11
ATOM     11  C   UNL     1      -9.105  14.561  -6.520  1.00  0.00     0.053 C 
BRANCH  11  12
ATOM     12  C   UNL     1      -7.617  14.650  -6.677  1.00  0.00     0.041 C 
ATOM     13  O   UNL     1      -7.066  15.763  -6.883  1.00  0.00    -0.550 OA
ATOM     14  O   UNL     1      -6.844  13.497  -6.628  1.00  0.00    -0.550 OA
ENDBRANCH  11  12
ENDBRANCH  10  11
ENDBRANCH   9  10
ENDBRANCH   8   9
ENDBRANCH   7   8
ENDBRANCH   6   7
ENDBRANCH   5   6
ENDBRANCH   4   5
ENDBRANCH   3   4
ENDBRANCH   2   3
ENDBRANCH   1   2
BRANCH   1  15
ATOM     15  C   UNL     1      -8.699  16.001  -3.131  1.00  0.00     0.000 C 
BRANCH  15  16
ATOM     16  C   UNL     1      -7.360  15.234  -3.137  1.00  0.00     0.000 C 
BRANCH  16  17
ATOM     17  C   UNL     1      -7.464  13.736  -2.795  1.00  0.00     0.000 C 
BRANCH  17  18
ATOM     18  C   UNL     1      -7.220  13.445  -1.307  1.00  0.00    -0.000 C 
BRANCH  18  19
ATOM     19  C   UNL     1      -6.302  14.510  -0.686  1.00  0.00    -0.000 C 
BRANCH  19  20
ATOM     20  C   UNL     1      -6.815  15.016   0.672  1.00  0.00    -0.000 C 
BRANCH  20  21
ATOM     21  C   UNL     1      -6.215  16.378   1.060  1.00  0.00    -0.000 C 
BRANCH  21  22
ATOM     22  C   UNL     1      -7.125  17.179   2.005  1.00  0.00    -0.000 C 
BRANCH  22  23
ATOM     23  C   UNL     1      -8.325  16.362   2.510  1.00  0.00    -0.000 C 
BRANCH  23  24
ATOM     24  C   UNL     1      -9.272  17.238   3.344  1.00  0.00    -0.000 C 
BRANCH  24  25
ATOM     25  C   UNL     1     -10.517  17.676   2.558  1.00  0.00    -0.003 C 
ATOM     26  C   UNL     1     -11.333  18.744   3.288  1.00  0.00     0.004 C 
ENDBRANCH  24  25
ENDBRANCH  23  24
ENDBRANCH  22  23
ENDBRANCH  21  22
ENDBRANCH  20  21
ENDBRANCH  19  20
ENDBRANCH  18  19
ENDBRANCH  17  18
ENDBRANCH  16  17
ENDBRANCH  15  16
ENDBRANCH   1  15
TORSDOF 22
ENDMDL
MODEL 3
REMARK VINA RESULT:    -4.013      1.118      2.412
REMARK INTER + INTRA:         -13.334
REMARK INTER:                  -9.204
REMARK INTRA:                  -4.130
REMARK UNBOUND:                -4.159
REMARK SMILES CCCCCCCCCCCCCCCCCCCCCCCC(=O)[O-]
REMARK SMILES IDX 13 1 14 2 15 3 16 4 17 5 18 6 19 7 20 8 21 9 22 10 23 11
REMARK SMILES IDX 24 12 25 13 26 14 12 15 11 16 10 17 9 18 8 19 7 20 6 21 5 22
REMARK SMILES IDX 4 23 3 24 2 25 1 26
REMARK H PARENT
REMARK Flexibility Score: inf
ROOT
ATOM      1  C   UNL     1     -10.624  15.209   0.178  1.00  0.00     0.000 C 
ENDROOT
BRANCH   1   2
ATOM      2  C   UNL     1      -9.802  16.495  -0.015  1.00  0.00     0.000 C 
BRANCH   2   3
ATOM      3  C   UNL     1     -10.018  17.131  -1.399  1.00  0.00     0.000 C 
BRANCH   3   4
ATOM      4  C   UNL     1      -8.719  17.218  -2.219  1.00  0.00     0.000 C 
BRANCH   4   5
ATOM      5  C   UNL     1      -8.383  15.898  -2.931  1.00  0.00     0.000 C 
BRANCH   5   6
ATOM      6  C   UNL     1      -7.084  15.257  -2.411  1.00  0.00     0.000 C 
BRANCH   6   7
ATOM      7  C   UNL     1      -7.340  13.964  -1.621  1.00  0.00     0.000 C 
BRANCH   7   8
ATOM      8  C   UNL     1      -7.132  14.145  -0.110  1.00  0.00     0.000 C 
BRANCH   8   9
ATOM      9  C   UNL     1      -6.031  15.173   0.172  1.00  0.00     0.000 C 
BRANCH   9  10
ATOM     10  C   UNL     1      -6.171  15.754   1.587  1.00  0.00     0.006 C 
BRANCH  10  11
ATOM     11  C   UNL     1      -6.494  17.254   1.570  1.00  0.00     0.053 C 
BRANCH  11  12
ATOM     12  C   UNL     1      -6.942  17.741   2.914  1.00  0.00     0.041 C 
ATOM     13  O   UNL     1      -6.129  18.316   3.685  1.00  0.00    -0.550 OA
ATOM     14  O   UNL     1      -8.252  17.531   3.328  1.00  0.00    -0.550 OA
ENDBRANCH  11  12
ENDBRANCH  10  11
ENDBRANCH   9  10
ENDBRANCH   8   9
ENDBRANCH   7   8
ENDBRANCH   6   7
ENDBRANCH   5   6
ENDBRANCH   4   5
ENDBRANCH   3   4
ENDBRANCH   2   3
ENDBRANCH   1   2
BRANCH   1  15
ATOM     15  C   UNL     1     -11.442  14.830  -1.070  1.00  0.00     0.000 C 
BRANCH  15  16
ATOM     16  C   UNL     1     -11.047  13.495  -1.735  1.00  0.00     0.000 C 
BRANCH  16  17
ATOM     17  C   UNL     1     -10.951  13.534  -3.272  1.00  0.00     0.000 C 
BRANCH  17  18
ATOM     18  C   UNL     1      -9.941  12.522  -3.832  1.00  0.00    -0.000 C 
BRANCH  18  19
ATOM     19  C   UNL     1     -10.083  12.396  -5.357  1.00  0.00    -0.000 C 
BRANCH  19  20
ATOM     20  C   UNL     1     -11.237  13.243  -5.917  1.00  0.00    -0.000 C 
BRANCH  20  21
ATOM     21  C   UNL     1     -10.960  13.750  -7.343  1.00  0.00    -0.000 C 
BRANCH  21  22
ATOM     22  C   UNL     1      -9.888  14.851  -7.382  1.00  0.00    -0.000 C 
BRANCH  22  23
ATOM     23  C   UNL     1      -8.778  14.565  -8.407  1.00  0.00    -0.000 C 
BRANCH  23  24
ATOM     24  C   UNL     1      -7.566  13.907  -7.732  1.00  0.00    -0.000 C 
BRANCH  24  25
ATOM     25  C   UNL     1      -7.259  14.509  -6.352  1.00  0.00    -0.003 C 
ATOM     26  C   UNL     1      -6.240  13.687  -5.562  1.00  0.00     0.004 C 
ENDBRANCH  24  25
ENDBRANCH  23  24
ENDBRANCH  22  23
ENDBRANCH  21  22
ENDBRANCH  20  21
ENDBRANCH  19  20
ENDBRANCH  18  19
ENDBRANCH  17  18
ENDBRANCH  16  17
ENDBRANCH  15  16
ENDBRANCH   1  15
TORSDOF 22
ENDMDL
MODEL 4
REMARK VINA RESULT:    -3.962      3.717      8.242
REMARK INTER + INTRA:         -13.217
REMARK INTER:                  -9.482
REMARK INTRA:                  -3.735
REMARK UNBOUND:                -4.159
REMARK SMILES CCCCCCCCCCCCCCCCCCCCCCCC(=O)[O-]
REMARK SMILES IDX 13 1 14 2 15 3 16 4 17 5 18 6 19 7 20 8 21 9 22 10 23 11
REMARK SMILES IDX 24 12 25 13 26 14 12 15 11 16 10 17 9 18 8 19 7 20 6 21 5 22
REMARK SMILES IDX 4 23 3 24 2 25 1 26
REMARK H PARENT
REMARK Flexibility Score: inf
ROOT
ATOM      1  C   UNL     1      -7.773  15.387  -3.403  1.00  0.00     0.000 C 
ENDROOT
BRANCH   1   2
ATOM      2  C   UNL     1      -8.743  16.520  -3.027  1.00  0.00     0.000 C 
BRANCH   2   3
ATOM      3  C   UNL     1      -8.675  16.884  -1.535  1.00  0.00     0.000 C 
BRANCH   3   4
ATOM      4  C   UNL     1     -10.029  16.718  -0.823  1.00  0.00     0.000 C 
BRANCH   4   5
ATOM      5  C   UNL     1     -10.346  15.251  -0.495  1.00  0.00     0.000 C 
BRANCH   5   6
ATOM      6  C   UNL     1     -11.344  14.623  -1.485  1.00  0.00     0.000 C 
BRANCH   6   7
ATOM      7  C   UNL     1     -10.767  13.394  -2.205  1.00  0.00     0.000 C 
BRANCH   7   8
ATOM      8  C   UNL     1     -10.966  13.456  -3.727  1.00  0.00     0.000 C 
BRANCH   8   9
ATOM      9  C   UNL     1      -9.774  12.833  -4.462  1.00  0.00     0.000 C 
BRANCH   9  10
ATOM     10  C   UNL     1      -9.979  12.881  -5.983  1.00  0.00     0.006 C 
BRANCH  10  11
ATOM     11  C   UNL     1      -9.690  14.271  -6.565  1.00  0.00     0.053 C 
BRANCH  11  12
ATOM     12  C   UNL     1      -8.400  14.297  -7.327  1.00  0.00     0.041 C 
ATOM     13  O   UNL     1      -7.322  13.973  -6.762  1.00  0.00    -0.550 OA
ATOM     14  O   UNL     1      -8.384  14.712  -8.653  1.00  0.00    -0.550 OA
ENDBRANCH  11  12
ENDBRANCH  10  11
ENDBRANCH   9  10
ENDBRANCH   8   9
ENDBRANCH   7   8
ENDBRANCH   6   7
ENDBRANCH   5   6
ENDBRANCH   4   5
ENDBRANCH   3   4
ENDBRANCH   2   3
ENDBRANCH   1   2
BRANCH   1  15
ATOM     15  C   UNL     1      -6.863  14.967  -2.233  1.00  0.00     0.000 C 
BRANCH  15  16
ATOM     16  C   UNL     1      -7.036  13.510  -1.756  1.00  0.00     0.000 C 
BRANCH  16  17
ATOM     17  C   UNL     1      -7.404  13.349  -0.269  1.00  0.00     0.000 C 
BRANCH  17  18
ATOM     18  C   UNL     1      -6.358  13.960   0.675  1.00  0.00    -0.000 C 
BRANCH  18  19
ATOM     19  C   UNL     1      -6.952  15.143   1.455  1.00  0.00    -0.000 C 
BRANCH  19  20
ATOM     20  C   UNL     1      -6.182  16.453   1.220  1.00  0.00    -0.000 C 
BRANCH  20  21
ATOM     21  C   UNL     1      -6.580  17.559   2.214  1.00  0.00    -0.000 C 
BRANCH  21  22
ATOM     22  C   UNL     1      -7.621  17.085   3.241  1.00  0.00    -0.000 C 
BRANCH  22  23
ATOM     23  C   UNL     1      -8.783  18.077   3.413  1.00  0.00    -0.000 C 
BRANCH  23  24
ATOM     24  C   UNL     1     -10.013  17.624   2.612  1.00  0.00    -0.000 C 
BRANCH  24  25
ATOM     25  C   UNL     1     -11.323  17.796   3.396  1.00  0.00    -0.003 C 
ATOM     26  C   UNL     1     -11.840  19.236   3.375  1.00  0.00     0.004 C 
ENDBRANCH  24  25
ENDBRANCH  23  24
ENDBRANCH  22  23
ENDBRANCH  21  22
ENDBRANCH  20  21
ENDBRANCH  19  20
ENDBRANCH  18  19
ENDBRANCH  17  18
ENDBRANCH  16  17
ENDBRANCH  15  16
ENDBRANCH   1  15
TORSDOF 22
ENDMDL
MODEL 5
REMARK VINA RESULT:    -3.933      0.913      1.938
REMARK INTER + INTRA:         -13.150
REMARK INTER:                  -8.477
REMARK INTRA:                  -4.673
REMARK UNBOUND:                -4.159
REMARK SMILES CCCCCCCCCCCCCCCCCCCCCCCC(=O)[O-]
REMARK SMILES IDX 13 1 14 2 15 3 16 4 17 5 18 6 19 7 20 8 21 9 22 10 23 11
REMARK SMILES IDX 24 12 25 13 26 14 12 15 11 16 10 17 9 18 8 19 7 20 6 21 5 22
REMARK SMILES IDX 4 23 3 24 2 25 1 26
REMARK H PARENT
REMARK Flexibility Score: inf
ROOT
ATOM      1  C   UNL     1      -7.432  15.373  -3.503  1.00  0.00     0.000 C 
ENDROOT
BRANCH   1   2
ATOM      2  C   UNL     1      -8.751  16.151  -3.357  1.00  0.00     0.000 C 
BRANCH   2   3
ATOM      3  C   UNL     1      -8.729  17.133  -2.174  1.00  0.00     0.000 C 
BRANCH   3   4
ATOM      4  C   UNL     1      -9.936  16.955  -1.236  1.00  0.00     0.000 C 
BRANCH   4   5
ATOM      5  C   UNL     1     -10.556  15.553  -1.335  1.00  0.00     0.000 C 
BRANCH   5   6
ATOM      6  C   UNL     1     -10.278  14.691  -0.091  1.00  0.00     0.000 C 
BRANCH   6   7
ATOM      7  C   UNL     1      -9.530  15.463   1.007  1.00  0.00     0.000 C 
BRANCH   7   8
ATOM      8  C   UNL     1      -8.413  14.632   1.657  1.00  0.00     0.000 C 
BRANCH   8   9
ATOM      9  C   UNL     1      -7.050  15.310   1.477  1.00  0.00     0.000 C 
BRANCH   9  10
ATOM     10  C   UNL     1      -7.214  16.819   1.240  1.00  0.00     0.006 C 
BRANCH  10  11
ATOM     11  C   UNL     1      -6.389  17.655   2.227  1.00  0.00     0.053 C 
BRANCH  11  12
ATOM     12  C   UNL     1      -7.204  18.077   3.412  1.00  0.00     0.041 C 
ATOM     13  O   UNL     1      -6.637  18.492   4.457  1.00  0.00    -0.550 OA
ATOM     14  O   UNL     1      -8.590  17.983   3.372  1.00  0.00    -0.550 OA
ENDBRANCH  11  12
ENDBRANCH  10  11
ENDBRANCH   9  10
ENDBRANCH   8   9
ENDBRANCH   7   8
ENDBRANCH   6   7
ENDBRANCH   5   6
ENDBRANCH   4   5
ENDBRANCH   3   4
ENDBRANCH   2   3
ENDBRANCH   1   2
BRANCH   1  15
ATOM     15  C   UNL     1      -6.874  14.886  -2.153  1.00  0.00     0.000 C 
BRANCH  15  16
ATOM     16  C   UNL     1      -7.244  13.437  -1.772  1.00  0.00     0.000 C 
BRANCH  16  17
ATOM     17  C   UNL     1      -7.784  12.575  -2.929  1.00  0.00     0.000 C 
BRANCH  17  18
ATOM     18  C   UNL     1      -9.300  12.348  -2.847  1.00  0.00    -0.000 C 
BRANCH  18  19
ATOM     19  C   UNL     1      -9.895  12.121  -4.245  1.00  0.00    -0.000 C 
BRANCH  19  20
ATOM     20  C   UNL     1     -10.509  13.397  -4.843  1.00  0.00    -0.000 C 
BRANCH  20  21
ATOM     21  C   UNL     1     -10.223  13.542  -6.348  1.00  0.00    -0.000 C 
BRANCH  21  22
ATOM     22  C   UNL     1      -9.211  14.657  -6.653  1.00  0.00    -0.000 C 
BRANCH  22  23
ATOM     23  C   UNL     1      -8.025  14.170  -7.501  1.00  0.00    -0.000 C 
BRANCH  23  24
ATOM     24  C   UNL     1      -7.874  12.644  -7.405  1.00  0.00    -0.000 C 
BRANCH  24  25
ATOM     25  C   UNL     1      -6.821  12.219  -6.371  1.00  0.00    -0.003 C 
ATOM     26  C   UNL     1      -5.789  13.314  -6.093  1.00  0.00     0.004 C 
ENDBRANCH  24  25
ENDBRANCH  23  24
ENDBRANCH  22  23
ENDBRANCH  21  22
ENDBRANCH  20  21
ENDBRANCH  19  20
ENDBRANCH  18  19
ENDBRANCH  17  18
ENDBRANCH  16  17
ENDBRANCH  15  16
ENDBRANCH   1  15
TORSDOF 22
ENDMDL
MODEL 6
REMARK VINA RESULT:    -3.881      3.286      8.199
REMARK INTER + INTRA:         -13.031
REMARK INTER:                  -9.565
REMARK INTRA:                  -3.466
REMARK UNBOUND:                -4.159
REMARK SMILES CCCCCCCCCCCCCCCCCCCCCCCC(=O)[O-]
REMARK SMILES IDX 13 1 14 2 15 3 16 4 17 5 18 6 19 7 20 8 21 9 22 10 23 11
REMARK SMILES IDX 24 12 25 13 26 14 12 15 11 16 10 17 9 18 8 19 7 20 6 21 5 22
REMARK SMILES IDX 4 23 3 24 2 25 1 26
REMARK H PARENT
REMARK Flexibility Score: inf
ROOT
ATOM      1  C   UNL     1      -8.737  16.996  -1.722  1.00  0.00     0.000 C 
ENDROOT
BRANCH   1   2
ATOM      2  C   UNL     1      -8.653  16.300  -3.092  1.00  0.00     0.000 C 
BRANCH   2   3
ATOM      3  C   UNL     1      -7.728  15.072  -3.074  1.00  0.00     0.000 C 
BRANCH   3   4
ATOM      4  C   UNL     1      -8.464  13.772  -3.446  1.00  0.00     0.000 C 
BRANCH   4   5
ATOM      5  C   UNL     1      -9.723  14.030  -4.290  1.00  0.00     0.000 C 
BRANCH   5   6
ATOM      6  C   UNL     1     -10.145  12.803  -5.116  1.00  0.00     0.000 C 
BRANCH   6   7
ATOM      7  C   UNL     1     -11.136  13.157  -6.236  1.00  0.00     0.000 C 
BRANCH   7   8
ATOM      8  C   UNL     1     -10.461  13.255  -7.613  1.00  0.00     0.000 C 
BRANCH   8   9
ATOM      9  C   UNL     1     -10.000  14.688  -7.896  1.00  0.00     0.000 C 
BRANCH   9  10
ATOM     10  C   UNL     1      -8.566  14.706  -8.446  1.00  0.00     0.006 C 
BRANCH  10  11
ATOM     11  C   UNL     1      -7.703  13.583  -7.856  1.00  0.00     0.053 C 
BRANCH  11  12
ATOM     12  C   UNL     1      -6.829  14.080  -6.744  1.00  0.00     0.041 C 
ATOM     13  O   UNL     1      -6.068  13.286  -6.131  1.00  0.00    -0.550 OA
ATOM     14  O   UNL     1      -6.880  15.417  -6.366  1.00  0.00    -0.550 OA
ENDBRANCH  11  12
ENDBRANCH  10  11
ENDBRANCH   9  10
ENDBRANCH   8   9
ENDBRANCH   7   8
ENDBRANCH   6   7
ENDBRANCH   5   6
ENDBRANCH   4   5
ENDBRANCH   3   4
ENDBRANCH   2   3
ENDBRANCH   1   2
BRANCH   1  15
ATOM     15  C   UNL     1     -10.152  16.955  -1.117  1.00  0.00     0.000 C 
BRANCH  15  16
ATOM     16  C   UNL     1     -10.906  15.620  -1.295  1.00  0.00     0.000 C 
BRANCH  16  17
ATOM     17  C   UNL     1     -11.199  14.857   0.010  1.00  0.00     0.000 C 
BRANCH  17  18
ATOM     18  C   UNL     1      -9.955  14.685   0.893  1.00  0.00    -0.000 C 
BRANCH  18  19
ATOM     19  C   UNL     1     -10.284  14.979   2.365  1.00  0.00    -0.000 C 
BRANCH  19  20
ATOM     20  C   UNL     1     -10.438  16.482   2.649  1.00  0.00    -0.000 C 
BRANCH  20  21
ATOM     21  C   UNL     1      -9.167  17.281   2.308  1.00  0.00    -0.000 C 
BRANCH  21  22
ATOM     22  C   UNL     1      -8.135  17.267   3.446  1.00  0.00    -0.000 C 
BRANCH  22  23
ATOM     23  C   UNL     1      -6.710  17.577   2.962  1.00  0.00    -0.000 C 
BRANCH  23  24
ATOM     24  C   UNL     1      -6.535  17.185   1.488  1.00  0.00    -0.000 C 
BRANCH  24  25
ATOM     25  C   UNL     1      -5.781  15.858   1.315  1.00  0.00    -0.003 C 
ATOM     26  C   UNL     1      -6.408  14.956   0.250  1.00  0.00     0.004 C 
ENDBRANCH  24  25
ENDBRANCH  23  24
ENDBRANCH  22  23
ENDBRANCH  21  22
ENDBRANCH  20  21
ENDBRANCH  19  20
ENDBRANCH  18  19
ENDBRANCH  17  18
ENDBRANCH  16  17
ENDBRANCH  15  16
ENDBRANCH   1  15
TORSDOF 22
ENDMDL
MODEL 7
REMARK VINA RESULT:    -3.875      1.195      2.643
REMARK INTER + INTRA:         -13.018
REMARK INTER:                  -8.718
REMARK INTRA:                  -4.300
REMARK UNBOUND:                -4.159
REMARK SMILES CCCCCCCCCCCCCCCCCCCCCCCC(=O)[O-]
REMARK SMILES IDX 13 1 14 2 15 3 16 4 17 5 18 6 19 7 20 8 21 9 22 10 23 11
REMARK SMILES IDX 24 12 25 13 26 14 12 15 11 16 10 17 9 18 8 19 7 20 6 21 5 22
REMARK SMILES IDX 4 23 3 24 2 25 1 26
REMARK H PARENT
REMARK Flexibility Score: inf
ROOT
ATOM      1  C   UNL     1      -8.583  16.862  -2.086  1.00  0.00     0.000 C 
ENDROOT
BRANCH   1   2
ATOM      2  C   UNL     1      -8.747  16.158  -3.443  1.00  0.00     0.000 C 
BRANCH   2   3
ATOM      3  C   UNL     1      -7.673  15.084  -3.684  1.00  0.00     0.000 C 
BRANCH   3   4
ATOM      4  C   UNL     1      -6.729  14.910  -2.480  1.00  0.00     0.000 C 
BRANCH   4   5
ATOM      5  C   UNL     1      -6.933  13.566  -1.763  1.00  0.00     0.000 C 
BRANCH   5   6
ATOM      6  C   UNL     1      -6.395  13.576  -0.321  1.00  0.00     0.000 C 
BRANCH   6   7
ATOM      7  C   UNL     1      -7.376  14.223   0.671  1.00  0.00     0.000 C 
BRANCH   7   8
ATOM      8  C   UNL     1      -6.671  15.127   1.693  1.00  0.00     0.000 C 
BRANCH   8   9
ATOM      9  C   UNL     1      -6.483  16.542   1.135  1.00  0.00     0.000 C 
BRANCH   9  10
ATOM     10  C   UNL     1      -6.543  17.589   2.258  1.00  0.00     0.006 C 
BRANCH  10  11
ATOM     11  C   UNL     1      -7.548  17.209   3.353  1.00  0.00     0.053 C 
BRANCH  11  12
ATOM     12  C   UNL     1      -8.932  17.680   3.023  1.00  0.00     0.041 C 
ATOM     13  O   UNL     1      -9.325  18.814   3.404  1.00  0.00    -0.550 OA
ATOM     14  O   UNL     1      -9.799  16.851   2.320  1.00  0.00    -0.550 OA
ENDBRANCH  11  12
ENDBRANCH  10  11
ENDBRANCH   9  10
ENDBRANCH   8   9
ENDBRANCH   7   8
ENDBRANCH   6   7
ENDBRANCH   5   6
ENDBRANCH   4   5
ENDBRANCH   3   4
ENDBRANCH   2   3
ENDBRANCH   1   2
BRANCH   1  15
ATOM     15  C   UNL     1      -9.851  16.782  -1.215  1.00  0.00     0.000 C 
BRANCH  15  16
ATOM     16  C   UNL     1     -10.797  15.607  -1.536  1.00  0.00     0.000 C 
BRANCH  16  17
ATOM     17  C   UNL     1     -10.813  14.476  -0.490  1.00  0.00     0.000 C 
BRANCH  17  18
ATOM     18  C   UNL     1     -10.548  13.093  -1.102  1.00  0.00    -0.000 C 
BRANCH  18  19
ATOM     19  C   UNL     1     -10.677  13.139  -2.633  1.00  0.00    -0.000 C 
BRANCH  19  20
ATOM     20  C   UNL     1      -9.869  12.032  -3.330  1.00  0.00    -0.000 C 
BRANCH  20  21
ATOM     21  C   UNL     1      -9.752  12.252  -4.848  1.00  0.00    -0.000 C 
BRANCH  21  22
ATOM     22  C   UNL     1     -10.626  13.413  -5.347  1.00  0.00    -0.000 C 
BRANCH  22  23
ATOM     23  C   UNL     1     -10.617  13.551  -6.878  1.00  0.00    -0.000 C 
BRANCH  23  24
ATOM     24  C   UNL     1      -9.842  14.804  -7.310  1.00  0.00    -0.000 C 
BRANCH  24  25
ATOM     25  C   UNL     1      -8.616  14.471  -8.175  1.00  0.00    -0.003 C 
ATOM     26  C   UNL     1      -7.409  14.032  -7.346  1.00  0.00     0.004 C 
ENDBRANCH  24  25
ENDBRANCH  23  24
ENDBRANCH  22  23
ENDBRANCH  21  22
ENDBRANCH  20  21
ENDBRANCH  19  20
ENDBRANCH  18  19
ENDBRANCH  17  18
ENDBRANCH  16  17
ENDBRANCH  15  16
ENDBRANCH   1  15
TORSDOF 22
ENDMDL
MODEL 8
REMARK VINA RESULT:    -3.840      3.700      7.570
REMARK INTER + INTRA:         -12.937
REMARK INTER:                  -9.097
REMARK INTRA:                  -3.841
REMARK UNBOUND:                -4.159
REMARK SMILES CCCCCCCCCCCCCCCCCCCCCCCC(=O)[O-]
REMARK SMILES IDX 13 1 14 2 15 3 16 4 17 5 18 6 19 7 20 8 21 9 22 10 23 11
REMARK SMILES IDX 24 12 25 13 26 14 12 15 11 16 10 17 9 18 8 19 7 20 6 21 5 22
REMARK SMILES IDX 4 23 3 24 2 25 1 26
REMARK H PARENT
REMARK Flexibility Score: inf
ROOT
ATOM      1  C   UNL     1      -7.621  18.485   3.753  1.00  0.00     0.000 C 
ENDROOT
BRANCH   1   2
ATOM      2  C   UNL     1      -6.487  17.949   2.861  1.00  0.00     0.000 C 
BRANCH   2   3
ATOM      3  C   UNL     1      -7.013  17.215   1.617  1.00  0.00     0.000 C 
BRANCH   3   4
ATOM      4  C   UNL     1      -6.001  16.197   1.060  1.00  0.00     0.000 C 
BRANCH   4   5
ATOM      5  C   UNL     1      -6.666  14.875   0.644  1.00  0.00     0.000 C 
BRANCH   5   6
ATOM      6  C   UNL     1      -6.572  14.614  -0.870  1.00  0.00     0.000 C 
BRANCH   6   7
ATOM      7  C   UNL     1      -7.388  13.387  -1.309  1.00  0.00     0.000 C 
BRANCH   7   8
ATOM      8  C   UNL     1      -7.621  13.347  -2.827  1.00  0.00     0.000 C 
BRANCH   8   9
ATOM      9  C   UNL     1      -6.897  14.504  -3.524  1.00  0.00     0.000 C 
BRANCH   9  10
ATOM     10  C   UNL     1      -7.827  15.218  -4.516  1.00  0.00     0.006 C 
BRANCH  10  11
ATOM     11  C   UNL     1      -9.080  14.392  -4.835  1.00  0.00     0.053 C 
BRANCH  11  12
ATOM     12  C   UNL     1      -9.220  14.142  -6.306  1.00  0.00     0.041 C 
ATOM     13  O   UNL     1      -8.335  14.545  -7.106  1.00  0.00    -0.550 OA
ATOM     14  O   UNL     1     -10.346  13.489  -6.795  1.00  0.00    -0.550 OA
ENDBRANCH  11  12
ENDBRANCH  10  11
ENDBRANCH   9  10
ENDBRANCH   8   9
ENDBRANCH   7   8
ENDBRANCH   6   7
ENDBRANCH   5   6
ENDBRANCH   4   5
ENDBRANCH   3   4
ENDBRANCH   2   3
ENDBRANCH   1   2
BRANCH   1  15
ATOM     15  C   UNL     1      -9.002  17.930   3.360  1.00  0.00     0.000 C 
BRANCH  15  16
ATOM     16  C   UNL     1     -10.122  18.983   3.231  1.00  0.00     0.000 C 
BRANCH  16  17
ATOM     17  C   UNL     1     -11.546  18.410   3.100  1.00  0.00     0.000 C 
BRANCH  17  18
ATOM     18  C   UNL     1     -11.825  17.272   4.093  1.00  0.00    -0.000 C 
BRANCH  18  19
ATOM     19  C   UNL     1     -12.068  15.948   3.353  1.00  0.00    -0.000 C 
BRANCH  19  20
ATOM     20  C   UNL     1     -10.908  14.953   3.520  1.00  0.00    -0.000 C 
BRANCH  20  21
ATOM     21  C   UNL     1     -10.489  14.304   2.190  1.00  0.00    -0.000 C 
BRANCH  21  22
ATOM     22  C   UNL     1     -10.307  15.331   1.061  1.00  0.00    -0.000 C 
BRANCH  22  23
ATOM     23  C   UNL     1     -10.958  14.887  -0.258  1.00  0.00    -0.000 C 
BRANCH  23  24
ATOM     24  C   UNL     1     -10.362  15.655  -1.448  1.00  0.00    -0.000 C 
BRANCH  24  25
ATOM     25  C   UNL     1      -9.540  16.877  -1.010  1.00  0.00    -0.003 C 
ATOM     26  C   UNL     1      -8.817  17.552  -2.176  1.00  0.00     0.004 C 
ENDBRANCH  24  25
ENDBRANCH  23  24
ENDBRANCH  22  23
ENDBRANCH  21  22
ENDBRANCH  20  21
ENDBRANCH  19  20
ENDBRANCH  18  19
ENDBRANCH  17  18
ENDBRANCH  16  17
ENDBRANCH  15  16
ENDBRANCH   1  15
TORSDOF 22
ENDMDL
MODEL 9
REMARK VINA RESULT:    -3.840      1.407      2.903
REMARK INTER + INTRA:         -12.936
REMARK INTER:                  -8.636
REMARK INTRA:                  -4.301
REMARK UNBOUND:                -4.159
REMARK SMILES CCCCCCCCCCCCCCCCCCCCCCCC(=O)[O-]
REMARK SMILES IDX 13 1 14 2 15 3 16 4 17 5 18 6 19 7 20 8 21 9 22 10 23 11
REMARK SMILES IDX 24 12 25 13 26 14 12 15 11 16 10 17 9 18 8 19 7 20 6 21 5 22
REMARK SMILES IDX 4 23 3 24 2 25 1 26
REMARK H PARENT
REMARK Flexibility Score: inf
ROOT
ATOM      1  C   UNL     1      -9.617  16.480  -1.467  1.00  0.00     0.000 C 
ENDROOT
BRANCH   1   2
ATOM      2  C   UNL     1     -10.490  15.225  -1.643  1.00  0.00     0.000 C 
BRANCH   2   3
ATOM      3  C   UNL     1     -10.193  14.147  -0.586  1.00  0.00     0.000 C 
BRANCH   3   4
ATOM      4  C   UNL     1      -9.932  12.765  -1.210  1.00  0.00     0.000 C 
BRANCH   4   5
ATOM      5  C   UNL     1      -8.455  12.557  -1.582  1.00  0.00     0.000 C 
BRANCH   5   6
ATOM      6  C   UNL     1      -7.491  13.199  -0.569  1.00  0.00     0.000 C 
BRANCH   6   7
ATOM      7  C   UNL     1      -6.410  14.057  -1.244  1.00  0.00     0.000 C 
BRANCH   7   8
ATOM      8  C   UNL     1      -6.120  15.354  -0.473  1.00  0.00     0.000 C 
BRANCH   8   9
ATOM      9  C   UNL     1      -6.927  15.410   0.828  1.00  0.00     0.000 C 
BRANCH   9  10
ATOM     10  C   UNL     1      -6.129  16.105   1.941  1.00  0.00     0.006 C 
BRANCH  10  11
ATOM     11  C   UNL     1      -6.463  17.599   2.051  1.00  0.00     0.053 C 
BRANCH  11  12
ATOM     12  C   UNL     1      -6.602  18.033   3.478  1.00  0.00     0.041 C 
ATOM     13  O   UNL     1      -6.829  19.241   3.755  1.00  0.00    -0.550 OA
ATOM     14  O   UNL     1      -6.449  17.108   4.504  1.00  0.00    -0.550 OA
ENDBRANCH  11  12
ENDBRANCH  10  11
ENDBRANCH   9  10
ENDBRANCH   8   9
ENDBRANCH   7   8
ENDBRANCH   6   7
ENDBRANCH   5   6
ENDBRANCH   4   5
ENDBRANCH   3   4
ENDBRANCH   2   3
ENDBRANCH   1   2
BRANCH   1  15
ATOM     15  C   UNL     1      -8.745  16.777  -2.700  1.00  0.00     0.000 C 
BRANCH  15  16
ATOM     16  C   UNL     1      -8.620  15.621  -3.713  1.00  0.00     0.000 C 
BRANCH  16  17
ATOM     17  C   UNL     1      -8.426  16.054  -5.179  1.00  0.00     0.000 C 
BRANCH  17  18
ATOM     18  C   UNL     1      -7.342  15.242  -5.903  1.00  0.00    -0.000 C 
BRANCH  18  19
ATOM     19  C   UNL     1      -6.799  14.126  -4.997  1.00  0.00    -0.000 C 
BRANCH  19  20
ATOM     20  C   UNL     1      -6.599  12.799  -5.746  1.00  0.00    -0.000 C 
BRANCH  20  21
ATOM     21  C   UNL     1      -7.931  12.139  -6.144  1.00  0.00    -0.000 C 
BRANCH  21  22
ATOM     22  C   UNL     1      -8.830  11.842  -4.934  1.00  0.00    -0.000 C 
BRANCH  22  23
ATOM     23  C   UNL     1     -10.324  11.818  -5.293  1.00  0.00    -0.000 C 
BRANCH  23  24
ATOM     24  C   UNL     1     -10.874  13.244  -5.445  1.00  0.00    -0.000 C 
BRANCH  24  25
ATOM     25  C   UNL     1     -11.426  13.517  -6.853  1.00  0.00    -0.003 C 
ATOM     26  C   UNL     1     -10.569  14.507  -7.643  1.00  0.00     0.004 C 
ENDBRANCH  24  25
ENDBRANCH  23  24
ENDBRANCH  22  23
ENDBRANCH  21  22
ENDBRANCH  20  21
ENDBRANCH  19  20
ENDBRANCH  18  19
ENDBRANCH  17  18
ENDBRANCH  16  17
ENDBRANCH  15  16
ENDBRANCH   1  15
TORSDOF 22
ENDMDL
