MODEL 1
REMARK VINA RESULT:    -8.152      0.000      0.000
REMARK INTER + INTRA:         -10.686
REMARK INTER:                 -10.773
REMARK INTRA:                   0.086
REMARK UNBOUND:                 0.086
REMARK SMILES CC[C@H](C=C[C@@H](C)[C@@H]1CC[C@@H]2[C@H]3CC=C4C[C@H](O)CC[C@@]4(C)[C@@H]3CC[C@]21C)C(C)C
REMARK SMILES IDX 6 1 7 2 5 3 4 4 3 5 2 6 1 7 28 8 29 9 30 10 8 11 9 12 26 13
REMARK SMILES IDX 10 14 11 15 25 16 27 17 12 18 24 19 23 20 13 21 21 22 14 23
REMARK SMILES IDX 15 24 20 25 22 26 16 27 19 28 17 29 18 30
REMARK H PARENT 18 31
REMARK Flexibility Score: inf
ROOT
ATOM      1  C   UNL     1     119.012 128.892 130.172  1.00  0.00     0.012 C 
ATOM      2  C   UNL     1     117.578 129.085 130.696  1.00  0.00     0.012 C 
ENDROOT
BRANCH   1   3
ATOM      3  C   UNL     1     119.282 129.984 129.160  1.00  0.00    -0.028 C 
ATOM      4  C   UNL     1     120.148 130.979 129.409  1.00  0.00    -0.027 C 
BRANCH   4   5
ATOM      5  C   UNL     1     120.406 132.152 128.473  1.00  0.00     0.014 C 
BRANCH   5   6
ATOM      6  C   UNL     1     119.229 133.163 128.350  1.00  0.00     0.004 C 
ATOM      7  C   UNL     1     118.916 133.683 126.944  1.00  0.00     0.004 C 
ENDBRANCH   5   6
BRANCH   5   8
ATOM      8  C   UNL     1     121.823 132.804 128.591  1.00  0.00    -0.011 C 
ATOM      9  C   UNL     1     122.942 131.762 128.433  1.00  0.00     0.008 C 
ATOM     10  C   UNL     1     122.063 133.650 129.850  1.00  0.00     0.008 C 
ENDBRANCH   5   8
ENDBRANCH   4   5
ENDBRANCH   1   3
BRANCH   1  11
ATOM     11  C   UNL     1     119.332 127.492 129.543  1.00  0.00     0.002 C 
ATOM     12  C   UNL     1     119.754 127.470 128.050  1.00  0.00     0.005 C 
ATOM     13  C   UNL     1     118.239 126.396 129.647  1.00  0.00    -0.026 C 
ATOM     14  C   UNL     1     119.340 126.091 127.503  1.00  0.00     0.005 C 
ATOM     15  C   UNL     1     118.849 125.326 128.728  1.00  0.00    -0.001 C 
ATOM     16  C   UNL     1     118.087 125.765 131.050  1.00  0.00     0.007 C 
ATOM     17  C   UNL     1     116.862 126.931 129.145  1.00  0.00     0.012 C 
ATOM     18  C   UNL     1     117.922 124.110 128.525  1.00  0.00     0.000 C 
ATOM     19  C   UNL     1     117.203 124.494 131.005  1.00  0.00     0.005 C 
ATOM     20  C   UNL     1     117.641 123.457 129.915  1.00  0.00     0.003 C 
ATOM     21  C   UNL     1     118.567 123.084 127.569  1.00  0.00     0.031 C 
ATOM     22  C   UNL     1     116.675 122.224 129.757  1.00  0.00    -0.008 C 
ATOM     23  C   UNL     1     118.053 121.673 127.720  1.00  0.00    -0.027 C 
ATOM     24  C   UNL     1     117.299 121.244 128.759  1.00  0.00    -0.065 C 
ATOM     25  C   UNL     1     116.513 121.497 131.123  1.00  0.00     0.014 C 
ATOM     26  C   UNL     1     115.276 122.653 129.228  1.00  0.00     0.016 C 
ATOM     27  C   UNL     1     117.239 119.749 129.014  1.00  0.00     0.063 C 
ATOM     28  C   UNL     1     115.728 120.171 131.053  1.00  0.00     0.033 C 
ATOM     29  C   UNL     1     115.983 119.323 129.782  1.00  0.00     0.118 C 
BRANCH  29  30
ATOM     30  O   UNL     1     114.878 119.378 128.918  1.00  0.00    -0.393 OA
ATOM     31  H   UNL     1     114.811 118.492 128.474  1.00  0.00     0.210 HD
ENDBRANCH  29  30
ENDBRANCH   1  11
TORSDOF 6
ENDMDL
MODEL 2
REMARK VINA RESULT:    -7.920      1.293      3.014
REMARK INTER + INTRA:         -10.380
REMARK INTER:                  -9.938
REMARK INTRA:                  -0.442
REMARK UNBOUND:                 0.086
REMARK SMILES CC[C@H](C=C[C@@H](C)[C@@H]1CC[C@@H]2[C@H]3CC=C4C[C@H](O)CC[C@@]4(C)[C@@H]3CC[C@]21C)C(C)C
REMARK SMILES IDX 6 1 7 2 5 3 4 4 3 5 2 6 1 7 28 8 29 9 30 10 8 11 9 12 26 13
REMARK SMILES IDX 10 14 11 15 25 16 27 17 12 18 24 19 23 20 13 21 21 22 14 23
REMARK SMILES IDX 15 24 20 25 22 26 16 27 19 28 17 29 18 30
REMARK H PARENT 18 31
REMARK Flexibility Score: inf
ROOT
ATOM      1  C   UNL     1     119.391 129.228 129.204  1.00  0.00     0.012 C 
ATOM      2  C   UNL     1     120.773 129.220 129.880  1.00  0.00     0.012 C 
ENDROOT
BRANCH   1   3
ATOM      3  C   UNL     1     118.887 130.655 129.203  1.00  0.00    -0.028 C 
ATOM      4  C   UNL     1     119.572 131.645 128.610  1.00  0.00    -0.027 C 
BRANCH   4   5
ATOM      5  C   UNL     1     119.167 133.112 128.641  1.00  0.00     0.014 C 
BRANCH   5   6
ATOM      6  C   UNL     1     120.353 134.117 128.716  1.00  0.00     0.004 C 
ATOM      7  C   UNL     1     121.707 133.619 128.199  1.00  0.00     0.004 C 
ENDBRANCH   5   6
BRANCH   5   8
ATOM      8  C   UNL     1     118.027 133.515 127.648  1.00  0.00    -0.011 C 
ATOM      9  C   UNL     1     118.550 133.645 126.207  1.00  0.00     0.008 C 
ATOM     10  C   UNL     1     117.221 134.764 128.031  1.00  0.00     0.008 C 
ENDBRANCH   5   8
ENDBRANCH   4   5
ENDBRANCH   1   3
BRANCH   1  11
ATOM     11  C   UNL     1     118.311 128.282 129.835  1.00  0.00     0.002 C 
ATOM     12  C   UNL     1     118.079 128.401 131.364  1.00  0.00     0.005 C 
ATOM     13  C   UNL     1     118.465 126.758 129.589  1.00  0.00    -0.026 C 
ATOM     14  C   UNL     1     117.577 127.022 131.834  1.00  0.00     0.005 C 
ATOM     15  C   UNL     1     117.390 126.225 130.547  1.00  0.00    -0.001 C 
ATOM     16  C   UNL     1     118.087 126.291 128.165  1.00  0.00     0.007 C 
ATOM     17  C   UNL     1     119.906 126.278 129.947  1.00  0.00     0.012 C 
ATOM     18  C   UNL     1     117.362 124.685 130.622  1.00  0.00     0.000 C 
ATOM     19  C   UNL     1     117.980 124.748 128.087  1.00  0.00     0.005 C 
ATOM     20  C   UNL     1     117.070 124.119 129.197  1.00  0.00     0.003 C 
ATOM     21  C   UNL     1     116.289 124.204 131.622  1.00  0.00     0.031 C 
ATOM     22  C   UNL     1     117.059 122.545 129.222  1.00  0.00    -0.008 C 
ATOM     23  C   UNL     1     115.793 122.799 131.387  1.00  0.00    -0.027 C 
ATOM     24  C   UNL     1     116.034 122.084 130.263  1.00  0.00    -0.065 C 
ATOM     25  C   UNL     1     116.630 121.994 127.832  1.00  0.00     0.014 C 
ATOM     26  C   UNL     1     118.452 121.967 129.603  1.00  0.00     0.016 C 
ATOM     27  C   UNL     1     115.126 120.904 129.972  1.00  0.00     0.063 C 
ATOM     28  C   UNL     1     116.414 120.467 127.788  1.00  0.00     0.033 C 
ATOM     29  C   UNL     1     115.778 119.857 129.063  1.00  0.00     0.118 C 
BRANCH  29  30
ATOM     30  O   UNL     1     116.733 119.140 129.801  1.00  0.00    -0.393 OA
ATOM     31  H   UNL     1     117.626 119.418 129.466  1.00  0.00     0.210 HD
ENDBRANCH  29  30
ENDBRANCH   1  11
TORSDOF 6
ENDMDL
MODEL 3
REMARK VINA RESULT:    -7.891      8.161     11.555
REMARK INTER + INTRA:         -10.342
REMARK INTER:                  -9.052
REMARK INTRA:                  -1.290
REMARK UNBOUND:                 0.086
REMARK SMILES CC[C@H](C=C[C@@H](C)[C@@H]1CC[C@@H]2[C@H]3CC=C4C[C@H](O)CC[C@@]4(C)[C@@H]3CC[C@]21C)C(C)C
REMARK SMILES IDX 6 1 7 2 5 3 4 4 3 5 2 6 1 7 28 8 29 9 30 10 8 11 9 12 26 13
REMARK SMILES IDX 10 14 11 15 25 16 27 17 12 18 24 19 23 20 13 21 21 22 14 23
REMARK SMILES IDX 15 24 20 25 22 26 16 27 19 28 17 29 18 30
REMARK H PARENT 18 31
REMARK Flexibility Score: inf
ROOT
ATOM      1  C   UNL     1     120.487 119.197 125.943  1.00  0.00     0.012 C 
ATOM      2  C   UNL     1     119.240 118.299 126.027  1.00  0.00     0.012 C 
ENDROOT
BRANCH   1   3
ATOM      3  C   UNL     1     120.209 120.447 126.747  1.00  0.00    -0.028 C 
ATOM      4  C   UNL     1     120.392 121.674 126.233  1.00  0.00    -0.027 C 
BRANCH   4   5
ATOM      5  C   UNL     1     120.212 122.970 127.010  1.00  0.00     0.014 C 
BRANCH   5   6
ATOM      6  C   UNL     1     121.515 123.541 127.642  1.00  0.00     0.004 C 
ATOM      7  C   UNL     1     122.822 122.829 127.277  1.00  0.00     0.004 C 
ENDBRANCH   5   6
BRANCH   5   8
ATOM      8  C   UNL     1     119.290 124.036 126.332  1.00  0.00    -0.011 C 
ATOM      9  C   UNL     1     119.609 125.458 126.824  1.00  0.00     0.008 C 
ATOM     10  C   UNL     1     117.781 123.770 126.431  1.00  0.00     0.008 C 
ENDBRANCH   5   8
ENDBRANCH   4   5
ENDBRANCH   1   3
BRANCH   1  11
ATOM     11  C   UNL     1     120.957 119.587 124.498  1.00  0.00     0.002 C 
ATOM     12  C   UNL     1     120.016 119.210 123.325  1.00  0.00     0.005 C 
ATOM     13  C   UNL     1     122.354 119.087 124.043  1.00  0.00    -0.026 C 
ATOM     14  C   UNL     1     120.915 119.035 122.086  1.00  0.00     0.005 C 
ATOM     15  C   UNL     1     122.300 119.469 122.556  1.00  0.00    -0.001 C 
ATOM     16  C   UNL     1     123.548 119.843 124.670  1.00  0.00     0.007 C 
ATOM     17  C   UNL     1     122.502 117.553 124.283  1.00  0.00     0.012 C 
ATOM     18  C   UNL     1     123.537 118.993 121.768  1.00  0.00     0.000 C 
ATOM     19  C   UNL     1     124.876 119.495 123.952  1.00  0.00     0.005 C 
ATOM     20  C   UNL     1     124.811 119.644 122.394  1.00  0.00     0.003 C 
ATOM     21  C   UNL     1     123.416 119.371 120.277  1.00  0.00     0.031 C 
ATOM     22  C   UNL     1     126.103 119.162 121.635  1.00  0.00    -0.008 C 
ATOM     23  C   UNL     1     124.731 119.464 119.542  1.00  0.00    -0.027 C 
ATOM     24  C   UNL     1     125.941 119.489 120.147  1.00  0.00    -0.065 C 
ATOM     25  C   UNL     1     127.350 119.922 122.173  1.00  0.00     0.014 C 
ATOM     26  C   UNL     1     126.323 117.630 121.789  1.00  0.00     0.016 C 
ATOM     27  C   UNL     1     127.115 120.029 119.351  1.00  0.00     0.063 C 
ATOM     28  C   UNL     1     128.649 119.659 121.383  1.00  0.00     0.033 C 
ATOM     29  C   UNL     1     128.468 119.511 119.851  1.00  0.00     0.118 C 
BRANCH  29  30
ATOM     30  O   UNL     1     128.617 118.171 119.460  1.00  0.00    -0.393 OA
ATOM     31  H   UNL     1     129.336 117.782 120.026  1.00  0.00     0.210 HD
ENDBRANCH  29  30
ENDBRANCH   1  11
TORSDOF 6
ENDMDL
MODEL 4
REMARK VINA RESULT:    -7.771      8.156     11.512
REMARK INTER + INTRA:         -10.183
REMARK INTER:                  -9.113
REMARK INTRA:                  -1.071
REMARK UNBOUND:                 0.086
REMARK SMILES CC[C@H](C=C[C@@H](C)[C@@H]1CC[C@@H]2[C@H]3CC=C4C[C@H](O)CC[C@@]4(C)[C@@H]3CC[C@]21C)C(C)C
REMARK SMILES IDX 6 1 7 2 5 3 4 4 3 5 2 6 1 7 28 8 29 9 30 10 8 11 9 12 26 13
REMARK SMILES IDX 10 14 11 15 25 16 27 17 12 18 24 19 23 20 13 21 21 22 14 23
REMARK SMILES IDX 15 24 20 25 22 26 16 27 19 28 17 29 18 30
REMARK H PARENT 18 31
REMARK Flexibility Score: inf
ROOT
ATOM      1  C   UNL     1     120.551 119.361 125.923  1.00  0.00     0.012 C 
ATOM      2  C   UNL     1     119.620 118.148 126.098  1.00  0.00     0.012 C 
ENDROOT
BRANCH   1   3
ATOM      3  C   UNL     1     119.858 120.564 126.524  1.00  0.00    -0.028 C 
ATOM      4  C   UNL     1     119.834 121.751 125.897  1.00  0.00    -0.027 C 
BRANCH   4   5
ATOM      5  C   UNL     1     119.228 123.020 126.479  1.00  0.00     0.014 C 
BRANCH   5   6
ATOM      6  C   UNL     1     118.135 122.787 127.563  1.00  0.00     0.004 C 
ATOM      7  C   UNL     1     116.706 123.199 127.195  1.00  0.00     0.004 C 
ENDBRANCH   5   6
BRANCH   5   8
ATOM      8  C   UNL     1     120.248 124.160 126.810  1.00  0.00    -0.011 C 
ATOM      9  C   UNL     1     121.103 123.816 128.041  1.00  0.00     0.008 C 
ATOM     10  C   UNL     1     119.649 125.565 126.960  1.00  0.00     0.008 C 
ENDBRANCH   5   8
ENDBRANCH   4   5
ENDBRANCH   1   3
BRANCH   1  11
ATOM     11  C   UNL     1     120.994 119.681 124.453  1.00  0.00     0.002 C 
ATOM     12  C   UNL     1     120.044 119.223 123.315  1.00  0.00     0.005 C 
ATOM     13  C   UNL     1     122.394 119.183 124.005  1.00  0.00    -0.026 C 
ATOM     14  C   UNL     1     120.930 118.997 122.075  1.00  0.00     0.005 C 
ATOM     15  C   UNL     1     122.312 119.483 122.501  1.00  0.00    -0.001 C 
ATOM     16  C   UNL     1     123.581 119.994 124.573  1.00  0.00     0.007 C 
ATOM     17  C   UNL     1     122.576 117.667 124.325  1.00  0.00     0.012 C 
ATOM     18  C   UNL     1     123.548 118.988 121.722  1.00  0.00     0.000 C 
ATOM     19  C   UNL     1     124.906 119.633 123.856  1.00  0.00     0.005 C 
ATOM     20  C   UNL     1     124.817 119.696 122.292  1.00  0.00     0.003 C 
ATOM     21  C   UNL     1     123.400 119.282 120.214  1.00  0.00     0.031 C 
ATOM     22  C   UNL     1     126.108 119.198 121.542  1.00  0.00    -0.008 C 
ATOM     23  C   UNL     1     124.702 119.360 119.456  1.00  0.00    -0.027 C 
ATOM     24  C   UNL     1     125.920 119.441 120.041  1.00  0.00    -0.065 C 
ATOM     25  C   UNL     1     127.347 120.009 122.020  1.00  0.00     0.014 C 
ATOM     26  C   UNL     1     126.360 117.681 121.775  1.00  0.00     0.016 C 
ATOM     27  C   UNL     1     127.071 119.959 119.199  1.00  0.00     0.063 C 
ATOM     28  C   UNL     1     128.640 119.729 121.226  1.00  0.00     0.033 C 
ATOM     29  C   UNL     1     128.441 119.494 119.707  1.00  0.00     0.118 C 
BRANCH  29  30
ATOM     30  O   UNL     1     128.612 118.138 119.387  1.00  0.00    -0.393 OA
ATOM     31  H   UNL     1     128.619 117.636 120.245  1.00  0.00     0.210 HD
ENDBRANCH  29  30
ENDBRANCH   1  11
TORSDOF 6
ENDMDL
MODEL 5
REMARK VINA RESULT:    -7.651      1.363      2.088
REMARK INTER + INTRA:         -10.025
REMARK INTER:                  -9.124
REMARK INTRA:                  -0.901
REMARK UNBOUND:                 0.086
REMARK SMILES CC[C@H](C=C[C@@H](C)[C@@H]1CC[C@@H]2[C@H]3CC=C4C[C@H](O)CC[C@@]4(C)[C@@H]3CC[C@]21C)C(C)C
REMARK SMILES IDX 6 1 7 2 5 3 4 4 3 5 2 6 1 7 28 8 29 9 30 10 8 11 9 12 26 13
REMARK SMILES IDX 10 14 11 15 25 16 27 17 12 18 24 19 23 20 13 21 21 22 14 23
REMARK SMILES IDX 15 24 20 25 22 26 16 27 19 28 17 29 18 30
REMARK H PARENT 18 31
REMARK Flexibility Score: inf
ROOT
ATOM      1  C   UNL     1     118.784 128.257 130.392  1.00  0.00     0.012 C 
ATOM      2  C   UNL     1     117.684 129.057 131.112  1.00  0.00     0.012 C 
ENDROOT
BRANCH   1   3
ATOM      3  C   UNL     1     119.693 129.247 129.697  1.00  0.00    -0.028 C 
ATOM      4  C   UNL     1     119.263 130.466 129.334  1.00  0.00    -0.027 C 
BRANCH   4   5
ATOM      5  C   UNL     1     120.096 131.478 128.559  1.00  0.00     0.014 C 
BRANCH   5   6
ATOM      6  C   UNL     1     119.288 132.661 127.951  1.00  0.00     0.004 C 
ATOM      7  C   UNL     1     117.937 132.976 128.603  1.00  0.00     0.004 C 
ENDBRANCH   5   6
BRANCH   5   8
ATOM      8  C   UNL     1     121.450 131.884 129.228  1.00  0.00    -0.011 C 
ATOM      9  C   UNL     1     121.509 133.392 129.522  1.00  0.00     0.008 C 
ATOM     10  C   UNL     1     122.718 131.443 128.482  1.00  0.00     0.008 C 
ENDBRANCH   5   8
ENDBRANCH   4   5
ENDBRANCH   1   3
BRANCH   1  11
ATOM     11  C   UNL     1     118.291 127.177 129.368  1.00  0.00     0.002 C 
ATOM     12  C   UNL     1     116.913 127.419 128.698  1.00  0.00     0.005 C 
ATOM     13  C   UNL     1     118.224 125.706 129.859  1.00  0.00    -0.026 C 
ATOM     14  C   UNL     1     116.354 126.028 128.343  1.00  0.00     0.005 C 
ATOM     15  C   UNL     1     117.490 125.065 128.673  1.00  0.00    -0.001 C 
ATOM     16  C   UNL     1     119.595 125.004 129.987  1.00  0.00     0.007 C 
ATOM     17  C   UNL     1     117.438 125.602 131.203  1.00  0.00     0.012 C 
ATOM     18  C   UNL     1     117.160 123.576 128.904  1.00  0.00     0.000 C 
ATOM     19  C   UNL     1     119.430 123.477 130.188  1.00  0.00     0.005 C 
ATOM     20  C   UNL     1     118.493 122.796 129.133  1.00  0.00     0.003 C 
ATOM     21  C   UNL     1     116.393 122.990 127.699  1.00  0.00     0.031 C 
ATOM     22  C   UNL     1     118.201 121.273 129.401  1.00  0.00    -0.008 C 
ATOM     23  C   UNL     1     116.500 121.492 127.553  1.00  0.00    -0.027 C 
ATOM     24  C   UNL     1     117.387 120.722 128.225  1.00  0.00    -0.065 C 
ATOM     25  C   UNL     1     119.538 120.483 129.487  1.00  0.00     0.014 C 
ATOM     26  C   UNL     1     117.389 121.066 130.711  1.00  0.00     0.016 C 
ATOM     27  C   UNL     1     117.689 119.344 127.665  1.00  0.00     0.063 C 
ATOM     28  C   UNL     1     119.370 118.951 129.573  1.00  0.00     0.033 C 
ATOM     29  C   UNL     1     118.211 118.368 128.725  1.00  0.00     0.118 C 
BRANCH  29  30
ATOM     30  O   UNL     1     117.145 117.972 129.548  1.00  0.00    -0.393 OA
ATOM     31  H   UNL     1     117.507 117.879 130.468  1.00  0.00     0.210 HD
ENDBRANCH  29  30
ENDBRANCH   1  11
TORSDOF 6
ENDMDL
MODEL 6
REMARK VINA RESULT:    -7.611      4.754      8.190
REMARK INTER + INTRA:          -9.972
REMARK INTER:                  -8.487
REMARK INTRA:                  -1.485
REMARK UNBOUND:                 0.086
REMARK SMILES CC[C@H](C=C[C@@H](C)[C@@H]1CC[C@@H]2[C@H]3CC=C4C[C@H](O)CC[C@@]4(C)[C@@H]3CC[C@]21C)C(C)C
REMARK SMILES IDX 6 1 7 2 5 3 4 4 3 5 2 6 1 7 28 8 29 9 30 10 8 11 9 12 26 13
REMARK SMILES IDX 10 14 11 15 25 16 27 17 12 18 24 19 23 20 13 21 21 22 14 23
REMARK SMILES IDX 15 24 20 25 22 26 16 27 19 28 17 29 18 30
REMARK H PARENT 18 31
REMARK Flexibility Score: inf
ROOT
ATOM      1  C   UNL     1     117.057 124.263 130.349  1.00  0.00     0.012 C 
ATOM      2  C   UNL     1     117.065 125.741 130.775  1.00  0.00     0.012 C 
ENDROOT
BRANCH   1   3
ATOM      3  C   UNL     1     116.284 123.487 131.393  1.00  0.00    -0.028 C 
ATOM      4  C   UNL     1     116.760 122.351 131.925  1.00  0.00    -0.027 C 
BRANCH   4   5
ATOM      5  C   UNL     1     116.002 121.479 132.916  1.00  0.00     0.014 C 
BRANCH   5   6
ATOM      6  C   UNL     1     115.136 120.357 132.272  1.00  0.00     0.004 C 
ATOM      7  C   UNL     1     115.582 119.853 130.895  1.00  0.00     0.004 C 
ENDBRANCH   5   6
BRANCH   5   8
ATOM      8  C   UNL     1     116.813 121.038 134.179  1.00  0.00    -0.011 C 
ATOM      9  C   UNL     1     118.313 120.894 133.868  1.00  0.00     0.008 C 
ATOM     10  C   UNL     1     116.300 119.780 134.894  1.00  0.00     0.008 C 
ENDBRANCH   5   8
ENDBRANCH   4   5
ENDBRANCH   1   3
BRANCH   1  11
ATOM     11  C   UNL     1     118.462 123.602 130.127  1.00  0.00     0.002 C 
ATOM     12  C   UNL     1     119.705 124.510 130.316  1.00  0.00     0.005 C 
ATOM     13  C   UNL     1     118.711 122.892 128.770  1.00  0.00    -0.026 C 
ATOM     14  C   UNL     1     120.812 123.921 129.422  1.00  0.00     0.005 C 
ATOM     15  C   UNL     1     120.218 122.623 128.885  1.00  0.00    -0.001 C 
ATOM     16  C   UNL     1     118.008 121.524 128.617  1.00  0.00     0.007 C 
ATOM     17  C   UNL     1     118.337 123.825 127.576  1.00  0.00     0.012 C 
ATOM     18  C   UNL     1     120.817 122.003 127.606  1.00  0.00     0.000 C 
ATOM     19  C   UNL     1     118.537 120.752 127.382  1.00  0.00     0.005 C 
ATOM     20  C   UNL     1     120.099 120.646 127.323  1.00  0.00     0.003 C 
ATOM     21  C   UNL     1     122.338 121.785 127.762  1.00  0.00     0.031 C 
ATOM     22  C   UNL     1     120.662 119.990 126.008  1.00  0.00    -0.008 C 
ATOM     23  C   UNL     1     122.918 120.727 126.858  1.00  0.00    -0.027 C 
ATOM     24  C   UNL     1     122.180 119.837 126.154  1.00  0.00    -0.065 C 
ATOM     25  C   UNL     1     120.042 118.577 125.811  1.00  0.00     0.014 C 
ATOM     26  C   UNL     1     120.367 120.865 124.756  1.00  0.00     0.016 C 
ATOM     27  C   UNL     1     122.873 118.579 125.664  1.00  0.00     0.063 C 
ATOM     28  C   UNL     1     120.653 117.767 124.648  1.00  0.00     0.033 C 
ATOM     29  C   UNL     1     122.179 117.947 124.452  1.00  0.00     0.118 C 
BRANCH  29  30
ATOM     30  O   UNL     1     122.446 118.726 123.314  1.00  0.00    -0.393 OA
ATOM     31  H   UNL     1     123.365 119.087 123.419  1.00  0.00     0.210 HD
ENDBRANCH  29  30
ENDBRANCH   1  11
TORSDOF 6
ENDMDL
MODEL 7
REMARK VINA RESULT:    -7.580      8.323     11.690
REMARK INTER + INTRA:          -9.931
REMARK INTER:                  -8.923
REMARK INTRA:                  -1.008
REMARK UNBOUND:                 0.086
REMARK SMILES CC[C@H](C=C[C@@H](C)[C@@H]1CC[C@@H]2[C@H]3CC=C4C[C@H](O)CC[C@@]4(C)[C@@H]3CC[C@]21C)C(C)C
REMARK SMILES IDX 6 1 7 2 5 3 4 4 3 5 2 6 1 7 28 8 29 9 30 10 8 11 9 12 26 13
REMARK SMILES IDX 10 14 11 15 25 16 27 17 12 18 24 19 23 20 13 21 21 22 14 23
REMARK SMILES IDX 15 24 20 25 22 26 16 27 19 28 17 29 18 30
REMARK H PARENT 18 31
REMARK Flexibility Score: inf
ROOT
ATOM      1  C   UNL     1     120.848 119.697 125.885  1.00  0.00     0.012 C 
ATOM      2  C   UNL     1     119.571 118.850 126.034  1.00  0.00     0.012 C 
ENDROOT
BRANCH   1   3
ATOM      3  C   UNL     1     120.615 121.009 126.600  1.00  0.00    -0.028 C 
ATOM      4  C   UNL     1     119.437 121.650 126.536  1.00  0.00    -0.027 C 
BRANCH   4   5
ATOM      5  C   UNL     1     119.161 123.010 127.161  1.00  0.00     0.014 C 
BRANCH   5   6
ATOM      6  C   UNL     1     119.360 124.222 126.205  1.00  0.00     0.004 C 
ATOM      7  C   UNL     1     119.241 125.616 126.831  1.00  0.00     0.004 C 
ENDBRANCH   5   6
BRANCH   5   8
ATOM      8  C   UNL     1     117.884 123.087 128.061  1.00  0.00    -0.011 C 
ATOM      9  C   UNL     1     117.888 121.998 129.147  1.00  0.00     0.008 C 
ATOM     10  C   UNL     1     116.542 123.081 127.314  1.00  0.00     0.008 C 
ENDBRANCH   5   8
ENDBRANCH   4   5
ENDBRANCH   1   3
BRANCH   1  11
ATOM     11  C   UNL     1     121.325 119.968 124.416  1.00  0.00     0.002 C 
ATOM     12  C   UNL     1     120.331 119.623 123.277  1.00  0.00     0.005 C 
ATOM     13  C   UNL     1     122.661 119.317 123.968  1.00  0.00    -0.026 C 
ATOM     14  C   UNL     1     121.187 119.302 122.037  1.00  0.00     0.005 C 
ATOM     15  C   UNL     1     122.615 119.627 122.465  1.00  0.00    -0.001 C 
ATOM     16  C   UNL     1     123.931 119.988 124.538  1.00  0.00     0.007 C 
ATOM     17  C   UNL     1     122.670 117.789 124.285  1.00  0.00     0.012 C 
ATOM     18  C   UNL     1     123.787 118.998 121.685  1.00  0.00     0.000 C 
ATOM     19  C   UNL     1     125.207 119.481 123.821  1.00  0.00     0.005 C 
ATOM     20  C   UNL     1     125.128 119.557 122.258  1.00  0.00     0.003 C 
ATOM     21  C   UNL     1     123.674 119.311 120.178  1.00  0.00     0.031 C 
ATOM     22  C   UNL     1     126.355 118.918 121.507  1.00  0.00    -0.008 C 
ATOM     23  C   UNL     1     124.978 119.243 119.421  1.00  0.00    -0.027 C 
ATOM     24  C   UNL     1     126.197 119.185 120.007  1.00  0.00    -0.065 C 
ATOM     25  C   UNL     1     127.677 119.584 121.988  1.00  0.00     0.014 C 
ATOM     26  C   UNL     1     126.434 117.382 121.737  1.00  0.00     0.016 C 
ATOM     27  C   UNL     1     127.400 119.572 119.167  1.00  0.00     0.063 C 
ATOM     28  C   UNL     1     128.931 119.162 121.194  1.00  0.00     0.033 C 
ATOM     29  C   UNL     1     128.708 118.955 119.675  1.00  0.00     0.118 C 
BRANCH  29  30
ATOM     30  O   UNL     1     128.725 117.588 119.352  1.00  0.00    -0.393 OA
ATOM     31  H   UNL     1     127.779 117.285 119.323  1.00  0.00     0.210 HD
ENDBRANCH  29  30
ENDBRANCH   1  11
TORSDOF 6
ENDMDL
MODEL 8
REMARK VINA RESULT:    -7.239      1.358      2.114
REMARK INTER + INTRA:          -9.481
REMARK INTER:                  -9.187
REMARK INTRA:                  -0.293
REMARK UNBOUND:                 0.086
REMARK SMILES CC[C@H](C=C[C@@H](C)[C@@H]1CC[C@@H]2[C@H]3CC=C4C[C@H](O)CC[C@@]4(C)[C@@H]3CC[C@]21C)C(C)C
REMARK SMILES IDX 6 1 7 2 5 3 4 4 3 5 2 6 1 7 28 8 29 9 30 10 8 11 9 12 26 13
REMARK SMILES IDX 10 14 11 15 25 16 27 17 12 18 24 19 23 20 13 21 21 22 14 23
REMARK SMILES IDX 15 24 20 25 22 26 16 27 19 28 17 29 18 30
REMARK H PARENT 18 31
REMARK Flexibility Score: inf
ROOT
ATOM      1  C   UNL     1     118.939 128.207 130.481  1.00  0.00     0.012 C 
ATOM      2  C   UNL     1     117.460 128.621 130.388  1.00  0.00     0.012 C 
ENDROOT
BRANCH   1   3
ATOM      3  C   UNL     1     119.778 129.446 130.257  1.00  0.00    -0.028 C 
ATOM      4  C   UNL     1     119.312 130.499 129.567  1.00  0.00    -0.027 C 
BRANCH   4   5
ATOM      5  C   UNL     1     120.128 131.741 129.234  1.00  0.00     0.014 C 
BRANCH   5   6
ATOM      6  C   UNL     1     121.349 131.491 128.302  1.00  0.00     0.004 C 
ATOM      7  C   UNL     1     122.709 131.981 128.808  1.00  0.00     0.004 C 
ENDBRANCH   5   6
BRANCH   5   8
ATOM      8  C   UNL     1     119.294 133.020 128.896  1.00  0.00    -0.011 C 
ATOM      9  C   UNL     1     118.964 133.102 127.396  1.00  0.00     0.008 C 
ATOM     10  C   UNL     1     119.891 134.350 129.378  1.00  0.00     0.008 C 
ENDBRANCH   5   8
ENDBRANCH   4   5
ENDBRANCH   1   3
BRANCH   1  11
ATOM     11  C   UNL     1     119.398 127.070 129.503  1.00  0.00     0.002 C 
ATOM     12  C   UNL     1     119.289 127.361 127.984  1.00  0.00     0.005 C 
ATOM     13  C   UNL     1     118.742 125.674 129.674  1.00  0.00    -0.026 C 
ATOM     14  C   UNL     1     119.106 125.995 127.294  1.00  0.00     0.005 C 
ATOM     15  C   UNL     1     119.276 124.975 128.415  1.00  0.00    -0.001 C 
ATOM     16  C   UNL     1     119.241 124.869 130.895  1.00  0.00     0.007 C 
ATOM     17  C   UNL     1     117.186 125.790 129.705  1.00  0.00     0.012 C 
ATOM     18  C   UNL     1     118.701 123.557 128.225  1.00  0.00     0.000 C 
ATOM     19  C   UNL     1     118.771 123.395 130.829  1.00  0.00     0.005 C 
ATOM     20  C   UNL     1     119.085 122.690 129.466  1.00  0.00     0.003 C 
ATOM     21  C   UNL     1     119.242 122.914 126.930  1.00  0.00     0.031 C 
ATOM     22  C   UNL     1     118.493 121.238 129.326  1.00  0.00    -0.008 C 
ATOM     23  C   UNL     1     119.210 121.406 126.915  1.00  0.00    -0.027 C 
ATOM     24  C   UNL     1     118.990 120.637 128.007  1.00  0.00    -0.065 C 
ATOM     25  C   UNL     1     118.998 120.344 130.495  1.00  0.00     0.014 C 
ATOM     26  C   UNL     1     116.938 121.250 129.315  1.00  0.00     0.016 C 
ATOM     27  C   UNL     1     119.425 119.185 127.944  1.00  0.00     0.063 C 
ATOM     28  C   UNL     1     118.624 118.853 130.366  1.00  0.00     0.033 C 
ATOM     29  C   UNL     1     118.661 118.288 128.924  1.00  0.00     0.118 C 
BRANCH  29  30
ATOM     30  O   UNL     1     117.360 118.083 128.437  1.00  0.00    -0.393 OA
ATOM     31  H   UNL     1     116.738 118.514 129.080  1.00  0.00     0.210 HD
ENDBRANCH  29  30
ENDBRANCH   1  11
TORSDOF 6
ENDMDL
MODEL 9
REMARK VINA RESULT:    -7.200      6.242      8.962
REMARK INTER + INTRA:          -9.429
REMARK INTER:                  -8.357
REMARK INTRA:                  -1.072
REMARK UNBOUND:                 0.086
REMARK SMILES CC[C@H](C=C[C@@H](C)[C@@H]1CC[C@@H]2[C@H]3CC=C4C[C@H](O)CC[C@@]4(C)[C@@H]3CC[C@]21C)C(C)C
REMARK SMILES IDX 6 1 7 2 5 3 4 4 3 5 2 6 1 7 28 8 29 9 30 10 8 11 9 12 26 13
REMARK SMILES IDX 10 14 11 15 25 16 27 17 12 18 24 19 23 20 13 21 21 22 14 23
REMARK SMILES IDX 15 24 20 25 22 26 16 27 19 28 17 29 18 30
REMARK H PARENT 18 31
REMARK Flexibility Score: inf
ROOT
ATOM      1  C   UNL     1     119.462 121.430 132.992  1.00  0.00     0.012 C 
ATOM      2  C   UNL     1     119.834 121.237 134.472  1.00  0.00     0.012 C 
ENDROOT
BRANCH   1   3
ATOM      3  C   UNL     1     118.271 120.544 132.698  1.00  0.00    -0.028 C 
ATOM      4  C   UNL     1     117.040 121.051 132.528  1.00  0.00    -0.027 C 
BRANCH   4   5
ATOM      5  C   UNL     1     115.786 120.215 132.312  1.00  0.00     0.014 C 
BRANCH   5   6
ATOM      6  C   UNL     1     114.765 120.251 133.486  1.00  0.00     0.004 C 
ATOM      7  C   UNL     1     115.261 120.847 134.807  1.00  0.00     0.004 C 
ENDBRANCH   5   6
BRANCH   5   8
ATOM      8  C   UNL     1     115.151 120.314 130.886  1.00  0.00    -0.011 C 
ATOM      9  C   UNL     1     115.748 119.273 129.924  1.00  0.00     0.008 C 
ATOM     10  C   UNL     1     115.182 121.707 130.240  1.00  0.00     0.008 C 
ENDBRANCH   5   8
ENDBRANCH   4   5
ENDBRANCH   1   3
BRANCH   1  11
ATOM     11  C   UNL     1     120.604 121.149 131.953  1.00  0.00     0.002 C 
ATOM     12  C   UNL     1     121.894 122.000 132.078  1.00  0.00     0.005 C 
ATOM     13  C   UNL     1     120.235 121.231 130.448  1.00  0.00    -0.026 C 
ATOM     14  C   UNL     1     122.504 122.072 130.664  1.00  0.00     0.005 C 
ATOM     15  C   UNL     1     121.636 121.137 129.827  1.00  0.00    -0.001 C 
ATOM     16  C   UNL     1     119.414 120.034 129.917  1.00  0.00     0.007 C 
ATOM     17  C   UNL     1     119.504 122.571 130.125  1.00  0.00     0.012 C 
ATOM     18  C   UNL     1     121.627 121.304 128.294  1.00  0.00     0.000 C 
ATOM     19  C   UNL     1     119.344 120.040 128.369  1.00  0.00     0.005 C 
ATOM     20  C   UNL     1     120.741 120.178 127.673  1.00  0.00     0.003 C 
ATOM     21  C   UNL     1     123.061 121.235 127.726  1.00  0.00     0.031 C 
ATOM     22  C   UNL     1     120.681 120.327 126.107  1.00  0.00    -0.008 C 
ATOM     23  C   UNL     1     123.144 120.838 126.273  1.00  0.00    -0.027 C 
ATOM     24  C   UNL     1     122.114 120.320 125.565  1.00  0.00    -0.065 C 
ATOM     25  C   UNL     1     119.914 119.124 125.488  1.00  0.00     0.014 C 
ATOM     26  C   UNL     1     119.993 121.656 125.682  1.00  0.00     0.016 C 
ATOM     27  C   UNL     1     122.446 119.563 124.292  1.00  0.00     0.063 C 
ATOM     28  C   UNL     1     119.944 119.072 123.946  1.00  0.00     0.033 C 
ATOM     29  C   UNL     1     121.279 119.520 123.299  1.00  0.00     0.118 C 
BRANCH  29  30
ATOM     30  O   UNL     1     121.142 120.782 122.699  1.00  0.00    -0.393 OA
ATOM     31  H   UNL     1     120.298 120.763 122.175  1.00  0.00     0.210 HD
ENDBRANCH  29  30
ENDBRANCH   1  11
TORSDOF 6
ENDMDL
