MODEL 1
REMARK VINA RESULT:     7.833      0.000      0.000
REMARK INTER + INTRA:          10.174
REMARK INTER:                  10.351
REMARK INTRA:                  -0.177
REMARK UNBOUND:                -0.177
REMARK SMILES CC[C@H](C=C[C@H](C)[C@@H]1CC[C@H]2C3=CC[C@@H]4C[C@H](O)CC[C@@]4(C)[C@H]3CC[C@@]21C)C(C)C
REMARK SMILES IDX 6 1 7 2 5 3 4 4 3 5 2 6 1 7 28 8 29 9 30 10 8 11 9 12 26 13
REMARK SMILES IDX 10 14 11 15 25 16 27 17 12 18 24 19 23 20 13 21 21 22 14 23
REMARK SMILES IDX 15 24 20 25 22 26 16 27 19 28 17 29 18 30
REMARK H PARENT 18 31
REMARK Flexibility Score: inf
ROOT
ATOM      1  C   UNL     1     137.318 122.914 139.017  1.00  0.00     0.012 C 
ATOM      2  C   UNL     1     138.831 122.740 138.744  1.00  0.00     0.012 C 
ENDROOT
BRANCH   1   3
ATOM      3  C   UNL     1     136.507 122.669 137.749  1.00  0.00    -0.028 C 
ATOM      4  C   UNL     1     135.581 123.458 137.163  1.00  0.00    -0.027 C 
BRANCH   4   5
ATOM      5  C   UNL     1     135.039 124.783 137.671  1.00  0.00     0.014 C 
BRANCH   5   6
ATOM      6  C   UNL     1     133.483 124.823 137.766  1.00  0.00     0.004 C 
ATOM      7  C   UNL     1     132.778 125.876 136.896  1.00  0.00     0.004 C 
ENDBRANCH   5   6
BRANCH   5   8
ATOM      8  C   UNL     1     135.787 125.165 138.998  1.00  0.00    -0.011 C 
ATOM      9  C   UNL     1     136.894 126.213 138.753  1.00  0.00     0.008 C 
ATOM     10  C   UNL     1     134.853 125.625 140.129  1.00  0.00     0.008 C 
ENDBRANCH   5   8
ENDBRANCH   4   5
ENDBRANCH   1   3
BRANCH   1  11
ATOM     11  C   UNL     1     136.800 122.105 140.262  1.00  0.00     0.002 C 
ATOM     12  C   UNL     1     135.243 121.932 140.263  1.00  0.00     0.005 C 
ATOM     13  C   UNL     1     137.090 122.720 141.683  1.00  0.00    -0.023 C 
ATOM     14  C   UNL     1     134.678 122.653 141.490  1.00  0.00     0.009 C 
ATOM     15  C   UNL     1     135.823 123.545 141.941  1.00  0.00     0.021 C 
ATOM     16  C   UNL     1     138.315 123.669 141.842  1.00  0.00     0.008 C 
ATOM     17  C   UNL     1     137.237 121.535 142.698  1.00  0.00     0.012 C 
ATOM     18  C   UNL     1     135.841 124.143 143.336  1.00  0.00    -0.067 C 
ATOM     19  C   UNL     1     138.356 124.348 143.241  1.00  0.00     0.009 C 
ATOM     20  C   UNL     1     137.025 125.090 143.589  1.00  0.00     0.021 C 
ATOM     21  C   UNL     1     135.000 123.730 144.314  1.00  0.00    -0.027 C 
ATOM     22  C   UNL     1     136.975 125.786 145.007  1.00  0.00    -0.023 C 
ATOM     23  C   UNL     1     135.097 124.200 145.734  1.00  0.00     0.031 C 
ATOM     24  C   UNL     1     136.495 124.743 146.066  1.00  0.00     0.002 C 
ATOM     25  C   UNL     1     138.374 126.336 145.450  1.00  0.00     0.010 C 
ATOM     26  C   UNL     1     135.991 126.988 144.897  1.00  0.00     0.012 C 
ATOM     27  C   UNL     1     136.526 125.281 147.510  1.00  0.00     0.036 C 
ATOM     28  C   UNL     1     138.383 126.878 146.888  1.00  0.00     0.032 C 
ATOM     29  C   UNL     1     137.918 125.803 147.884  1.00  0.00     0.114 C 
BRANCH  29  30
ATOM     30  O   UNL     1     137.869 126.340 149.179  1.00  0.00    -0.393 OA
ATOM     31  H   UNL     1     138.605 125.917 149.697  1.00  0.00     0.210 HD
ENDBRANCH  29  30
ENDBRANCH   1  11
TORSDOF 6
ENDMDL
MODEL 2
REMARK VINA RESULT:     7.951      1.377      2.663
REMARK INTER + INTRA:          10.330
REMARK INTER:                  11.382
REMARK INTRA:                  -1.052
REMARK UNBOUND:                -0.177
REMARK SMILES CC[C@H](C=C[C@H](C)[C@@H]1CC[C@H]2C3=CC[C@@H]4C[C@H](O)CC[C@@]4(C)[C@H]3CC[C@@]21C)C(C)C
REMARK SMILES IDX 6 1 7 2 5 3 4 4 3 5 2 6 1 7 28 8 29 9 30 10 8 11 9 12 26 13
REMARK SMILES IDX 10 14 11 15 25 16 27 17 12 18 24 19 23 20 13 21 21 22 14 23
REMARK SMILES IDX 15 24 20 25 22 26 16 27 19 28 17 29 18 30
REMARK H PARENT 18 31
REMARK Flexibility Score: inf
ROOT
ATOM      1  C   UNL     1     135.495 121.913 139.801  1.00  0.00     0.012 C 
ATOM      2  C   UNL     1     135.398 120.379 139.971  1.00  0.00     0.012 C 
ENDROOT
BRANCH   1   3
ATOM      3  C   UNL     1     135.516 122.293 138.324  1.00  0.00    -0.028 C 
ATOM      4  C   UNL     1     136.434 123.012 137.642  1.00  0.00    -0.027 C 
BRANCH   4   5
ATOM      5  C   UNL     1     137.664 123.707 138.197  1.00  0.00     0.014 C 
BRANCH   5   6
ATOM      6  C   UNL     1     137.358 125.098 138.833  1.00  0.00     0.004 C 
ATOM      7  C   UNL     1     136.048 125.770 138.393  1.00  0.00     0.004 C 
ENDBRANCH   5   6
BRANCH   5   8
ATOM      8  C   UNL     1     138.432 122.712 139.137  1.00  0.00    -0.011 C 
ATOM      9  C   UNL     1     139.829 122.357 138.581  1.00  0.00     0.008 C 
ATOM     10  C   UNL     1     138.541 123.189 140.595  1.00  0.00     0.008 C 
ENDBRANCH   5   8
ENDBRANCH   4   5
ENDBRANCH   1   3
BRANCH   1  11
ATOM     11  C   UNL     1     134.436 122.714 140.643  1.00  0.00     0.002 C 
ATOM     12  C   UNL     1     133.994 124.046 139.944  1.00  0.00     0.005 C 
ATOM     13  C   UNL     1     134.880 123.195 142.075  1.00  0.00    -0.023 C 
ATOM     14  C   UNL     1     134.419 125.219 140.831  1.00  0.00     0.009 C 
ATOM     15  C   UNL     1     135.423 124.601 141.790  1.00  0.00     0.021 C 
ATOM     16  C   UNL     1     135.996 122.395 142.811  1.00  0.00     0.008 C 
ATOM     17  C   UNL     1     133.605 123.231 142.986  1.00  0.00     0.012 C 
ATOM     18  C   UNL     1     135.807 125.306 143.078  1.00  0.00    -0.067 C 
ATOM     19  C   UNL     1     136.462 123.100 144.117  1.00  0.00     0.009 C 
ATOM     20  C   UNL     1     136.899 124.580 143.880  1.00  0.00     0.021 C 
ATOM     21  C   UNL     1     135.115 126.366 143.559  1.00  0.00    -0.027 C 
ATOM     22  C   UNL     1     137.364 125.377 145.163  1.00  0.00    -0.023 C 
ATOM     23  C   UNL     1     135.384 126.984 144.898  1.00  0.00     0.031 C 
ATOM     24  C   UNL     1     136.110 126.015 145.842  1.00  0.00     0.002 C 
ATOM     25  C   UNL     1     138.080 124.456 146.208  1.00  0.00     0.010 C 
ATOM     26  C   UNL     1     138.376 126.462 144.693  1.00  0.00     0.012 C 
ATOM     27  C   UNL     1     136.430 126.716 147.177  1.00  0.00     0.036 C 
ATOM     28  C   UNL     1     138.402 125.175 147.528  1.00  0.00     0.032 C 
ATOM     29  C   UNL     1     137.129 125.765 148.157  1.00  0.00     0.114 C 
BRANCH  29  30
ATOM     30  O   UNL     1     137.455 126.473 149.323  1.00  0.00    -0.393 OA
ATOM     31  H   UNL     1     137.248 125.878 150.092  1.00  0.00     0.210 HD
ENDBRANCH  29  30
ENDBRANCH   1  11
TORSDOF 6
ENDMDL
MODEL 3
REMARK VINA RESULT:     8.826      2.941      8.088
REMARK INTER + INTRA:          11.487
REMARK INTER:                  10.748
REMARK INTRA:                   0.740
REMARK UNBOUND:                -0.177
REMARK SMILES CC[C@H](C=C[C@H](C)[C@@H]1CC[C@H]2C3=CC[C@@H]4C[C@H](O)CC[C@@]4(C)[C@H]3CC[C@@]21C)C(C)C
REMARK SMILES IDX 6 1 7 2 5 3 4 4 3 5 2 6 1 7 28 8 29 9 30 10 8 11 9 12 26 13
REMARK SMILES IDX 10 14 11 15 25 16 27 17 12 18 24 19 23 20 13 21 21 22 14 23
REMARK SMILES IDX 15 24 20 25 22 26 16 27 19 28 17 29 18 30
REMARK H PARENT 18 31
REMARK Flexibility Score: inf
ROOT
ATOM      1  C   UNL     1     135.860 127.335 145.175  1.00  0.00     0.012 C 
ATOM      2  C   UNL     1     134.825 128.283 144.525  1.00  0.00     0.012 C 
ENDROOT
BRANCH   1   3
ATOM      3  C   UNL     1     136.253 127.832 146.563  1.00  0.00    -0.028 C 
ATOM      4  C   UNL     1     137.292 127.458 147.340  1.00  0.00    -0.027 C 
BRANCH   4   5
ATOM      5  C   UNL     1     138.312 126.367 147.060  1.00  0.00     0.014 C 
BRANCH   5   6
ATOM      6  C   UNL     1     139.606 126.890 146.364  1.00  0.00     0.004 C 
ATOM      7  C   UNL     1     139.937 126.271 144.996  1.00  0.00     0.004 C 
ENDBRANCH   5   6
BRANCH   5   8
ATOM      8  C   UNL     1     138.561 125.551 148.377  1.00  0.00    -0.011 C 
ATOM      9  C   UNL     1     138.092 126.324 149.630  1.00  0.00     0.008 C 
ATOM     10  C   UNL     1     137.953 124.139 148.360  1.00  0.00     0.008 C 
ENDBRANCH   5   8
ENDBRANCH   4   5
ENDBRANCH   1   3
BRANCH   1  11
ATOM     11  C   UNL     1     135.443 125.820 145.142  1.00  0.00     0.002 C 
ATOM     12  C   UNL     1     136.547 124.878 145.733  1.00  0.00     0.005 C 
ATOM     13  C   UNL     1     135.158 125.189 143.728  1.00  0.00    -0.023 C 
ATOM     14  C   UNL     1     137.037 123.951 144.618  1.00  0.00     0.009 C 
ATOM     15  C   UNL     1     136.529 124.614 143.349  1.00  0.00     0.021 C 
ATOM     16  C   UNL     1     134.703 126.132 142.575  1.00  0.00     0.008 C 
ATOM     17  C   UNL     1     134.080 124.066 143.912  1.00  0.00     0.012 C 
ATOM     18  C   UNL     1     136.451 123.842 142.044  1.00  0.00    -0.067 C 
ATOM     19  C   UNL     1     134.652 125.403 141.202  1.00  0.00     0.009 C 
ATOM     20  C   UNL     1     135.999 124.694 140.847  1.00  0.00     0.021 C 
ATOM     21  C   UNL     1     136.583 122.496 141.988  1.00  0.00    -0.027 C 
ATOM     22  C   UNL     1     136.023 123.907 139.477  1.00  0.00    -0.023 C 
ATOM     23  C   UNL     1     136.365 121.700 140.736  1.00  0.00     0.031 C 
ATOM     24  C   UNL     1     135.498 122.456 139.719  1.00  0.00     0.002 C 
ATOM     25  C   UNL     1     135.127 124.584 138.385  1.00  0.00     0.010 C 
ATOM     26  C   UNL     1     137.495 123.907 138.969  1.00  0.00     0.012 C 
ATOM     27  C   UNL     1     135.361 121.632 138.423  1.00  0.00     0.036 C 
ATOM     28  C   UNL     1     135.012 123.755 137.096  1.00  0.00     0.032 C 
ATOM     29  C   UNL     1     134.474 122.345 137.396  1.00  0.00     0.114 C 
BRANCH  29  30
ATOM     30  O   UNL     1     134.442 121.585 136.217  1.00  0.00    -0.393 OA
ATOM     31  H   UNL     1     135.376 121.535 135.879  1.00  0.00     0.210 HD
ENDBRANCH  29  30
ENDBRANCH   1  11
TORSDOF 6
ENDMDL
MODEL 4
REMARK VINA RESULT:     9.940      1.621      3.809
REMARK INTER + INTRA:          12.959
REMARK INTER:                  11.839
REMARK INTRA:                   1.120
REMARK UNBOUND:                -0.177
REMARK SMILES CC[C@H](C=C[C@H](C)[C@@H]1CC[C@H]2C3=CC[C@@H]4C[C@H](O)CC[C@@]4(C)[C@H]3CC[C@@]21C)C(C)C
REMARK SMILES IDX 6 1 7 2 5 3 4 4 3 5 2 6 1 7 28 8 29 9 30 10 8 11 9 12 26 13
REMARK SMILES IDX 10 14 11 15 25 16 27 17 12 18 24 19 23 20 13 21 21 22 14 23
REMARK SMILES IDX 15 24 20 25 22 26 16 27 19 28 17 29 18 30
REMARK H PARENT 18 31
REMARK Flexibility Score: inf
ROOT
ATOM      1  C   UNL     1     134.128 124.245 137.283  1.00  0.00     0.012 C 
ATOM      2  C   UNL     1     132.953 123.576 138.034  1.00  0.00     0.012 C 
ENDROOT
BRANCH   1   3
ATOM      3  C   UNL     1     133.921 125.753 137.186  1.00  0.00    -0.028 C 
ATOM      4  C   UNL     1     132.769 126.457 137.175  1.00  0.00    -0.027 C 
BRANCH   4   5
ATOM      5  C   UNL     1     131.351 125.911 137.174  1.00  0.00     0.014 C 
BRANCH   5   6
ATOM      6  C   UNL     1     130.498 126.397 138.386  1.00  0.00     0.004 C 
ATOM      7  C   UNL     1     130.080 127.876 138.370  1.00  0.00     0.004 C 
ENDBRANCH   5   6
BRANCH   5   8
ATOM      8  C   UNL     1     130.703 126.176 135.769  1.00  0.00    -0.011 C 
ATOM      9  C   UNL     1     129.503 127.142 135.862  1.00  0.00     0.008 C 
ATOM     10  C   UNL     1     131.701 126.661 134.704  1.00  0.00     0.008 C 
ENDBRANCH   5   8
ENDBRANCH   4   5
ENDBRANCH   1   3
BRANCH   1  11
ATOM     11  C   UNL     1     135.545 123.837 137.828  1.00  0.00     0.002 C 
ATOM     12  C   UNL     1     135.720 122.284 137.949  1.00  0.00     0.005 C 
ATOM     13  C   UNL     1     135.930 124.351 139.266  1.00  0.00    -0.023 C 
ATOM     14  C   UNL     1     135.924 121.935 139.426  1.00  0.00     0.009 C 
ATOM     15  C   UNL     1     135.473 123.188 140.157  1.00  0.00     0.021 C 
ATOM     16  C   UNL     1     135.252 125.649 139.795  1.00  0.00     0.008 C 
ATOM     17  C   UNL     1     137.485 124.544 139.306  1.00  0.00     0.012 C 
ATOM     18  C   UNL     1     135.863 123.429 141.604  1.00  0.00    -0.067 C 
ATOM     19  C   UNL     1     135.580 125.919 141.291  1.00  0.00     0.009 C 
ATOM     20  C   UNL     1     135.245 124.700 142.209  1.00  0.00     0.021 C 
ATOM     21  C   UNL     1     136.812 122.695 142.232  1.00  0.00    -0.027 C 
ATOM     22  C   UNL     1     135.573 124.883 143.745  1.00  0.00    -0.023 C 
ATOM     23  C   UNL     1     137.316 123.007 143.609  1.00  0.00     0.031 C 
ATOM     24  C   UNL     1     137.058 124.472 143.996  1.00  0.00     0.002 C 
ATOM     25  C   UNL     1     135.379 126.362 144.223  1.00  0.00     0.010 C 
ATOM     26  C   UNL     1     134.584 123.979 144.539  1.00  0.00     0.012 C 
ATOM     27  C   UNL     1     137.526 124.727 145.443  1.00  0.00     0.036 C 
ATOM     28  C   UNL     1     135.839 126.595 145.670  1.00  0.00     0.032 C 
ATOM     29  C   UNL     1     137.311 126.189 145.852  1.00  0.00     0.114 C 
BRANCH  29  30
ATOM     30  O   UNL     1     137.689 126.346 147.193  1.00  0.00    -0.393 OA
ATOM     31  H   UNL     1     137.019 126.949 147.615  1.00  0.00     0.210 HD
ENDBRANCH  29  30
ENDBRANCH   1  11
TORSDOF 6
ENDMDL
MODEL 5
REMARK VINA RESULT:    10.031      1.529      3.481
REMARK INTER + INTRA:          13.079
REMARK INTER:                  15.433
REMARK INTRA:                  -2.354
REMARK UNBOUND:                -0.177
REMARK SMILES CC[C@H](C=C[C@H](C)[C@@H]1CC[C@H]2C3=CC[C@@H]4C[C@H](O)CC[C@@]4(C)[C@H]3CC[C@@]21C)C(C)C
REMARK SMILES IDX 6 1 7 2 5 3 4 4 3 5 2 6 1 7 28 8 29 9 30 10 8 11 9 12 26 13
REMARK SMILES IDX 10 14 11 15 25 16 27 17 12 18 24 19 23 20 13 21 21 22 14 23
REMARK SMILES IDX 15 24 20 25 22 26 16 27 19 28 17 29 18 30
REMARK H PARENT 18 31
REMARK Flexibility Score: inf
ROOT
ATOM      1  C   UNL     1     135.784 122.059 138.126  1.00  0.00     0.012 C 
ATOM      2  C   UNL     1     135.275 121.122 137.005  1.00  0.00     0.012 C 
ENDROOT
BRANCH   1   3
ATOM      3  C   UNL     1     136.863 122.998 137.598  1.00  0.00    -0.028 C 
ATOM      4  C   UNL     1     138.052 123.326 138.148  1.00  0.00    -0.027 C 
BRANCH   4   5
ATOM      5  C   UNL     1     138.596 122.897 139.499  1.00  0.00     0.014 C 
BRANCH   5   6
ATOM      6  C   UNL     1     139.872 122.005 139.401  1.00  0.00     0.004 C 
ATOM      7  C   UNL     1     140.763 122.231 138.169  1.00  0.00     0.004 C 
ENDBRANCH   5   6
BRANCH   5   8
ATOM      8  C   UNL     1     138.752 124.165 140.412  1.00  0.00    -0.011 C 
ATOM      9  C   UNL     1     140.034 124.101 141.271  1.00  0.00     0.008 C 
ATOM     10  C   UNL     1     138.686 125.496 139.646  1.00  0.00     0.008 C 
ENDBRANCH   5   8
ENDBRANCH   4   5
ENDBRANCH   1   3
BRANCH   1  11
ATOM     11  C   UNL     1     134.636 122.794 138.909  1.00  0.00     0.002 C 
ATOM     12  C   UNL     1     134.362 124.237 138.361  1.00  0.00     0.005 C 
ATOM     13  C   UNL     1     134.865 123.036 140.448  1.00  0.00    -0.023 C 
ATOM     14  C   UNL     1     134.686 125.243 139.469  1.00  0.00     0.009 C 
ATOM     15  C   UNL     1     135.500 124.433 140.464  1.00  0.00     0.021 C 
ATOM     16  C   UNL     1     135.819 122.072 141.215  1.00  0.00     0.008 C 
ATOM     17  C   UNL     1     133.464 123.020 141.150  1.00  0.00     0.012 C 
ATOM     18  C   UNL     1     135.701 124.920 141.887  1.00  0.00    -0.067 C 
ATOM     19  C   UNL     1     136.097 122.551 142.668  1.00  0.00     0.009 C 
ATOM     20  C   UNL     1     136.624 124.021 142.726  1.00  0.00     0.021 C 
ATOM     21  C   UNL     1     134.983 125.941 142.413  1.00  0.00    -0.027 C 
ATOM     22  C   UNL     1     136.909 124.595 144.171  1.00  0.00    -0.023 C 
ATOM     23  C   UNL     1     135.060 126.343 143.855  1.00  0.00     0.031 C 
ATOM     24  C   UNL     1     135.589 125.204 144.741  1.00  0.00     0.002 C 
ATOM     25  C   UNL     1     137.414 123.491 145.160  1.00  0.00     0.010 C 
ATOM     26  C   UNL     1     138.024 125.672 144.029  1.00  0.00     0.012 C 
ATOM     27  C   UNL     1     135.719 125.686 146.200  1.00  0.00     0.036 C 
ATOM     28  C   UNL     1     137.549 123.992 146.607  1.00  0.00     0.032 C 
ATOM     29  C   UNL     1     136.216 124.563 147.118  1.00  0.00     0.114 C 
BRANCH  29  30
ATOM     30  O   UNL     1     136.381 125.075 148.414  1.00  0.00    -0.393 OA
ATOM     31  H   UNL     1     135.748 124.583 149.003  1.00  0.00     0.210 HD
ENDBRANCH  29  30
ENDBRANCH   1  11
TORSDOF 6
ENDMDL
MODEL 6
REMARK VINA RESULT:    10.508      1.466      2.908
REMARK INTER + INTRA:          13.710
REMARK INTER:                  15.314
REMARK INTRA:                  -1.605
REMARK UNBOUND:                -0.177
REMARK SMILES CC[C@H](C=C[C@H](C)[C@@H]1CC[C@H]2C3=CC[C@@H]4C[C@H](O)CC[C@@]4(C)[C@H]3CC[C@@]21C)C(C)C
REMARK SMILES IDX 6 1 7 2 5 3 4 4 3 5 2 6 1 7 28 8 29 9 30 10 8 11 9 12 26 13
REMARK SMILES IDX 10 14 11 15 25 16 27 17 12 18 24 19 23 20 13 21 21 22 14 23
REMARK SMILES IDX 15 24 20 25 22 26 16 27 19 28 17 29 18 30
REMARK H PARENT 18 31
REMARK Flexibility Score: inf
ROOT
ATOM      1  C   UNL     1     136.802 122.765 137.942  1.00  0.00     0.012 C 
ATOM      2  C   UNL     1     137.218 122.356 136.510  1.00  0.00     0.012 C 
ENDROOT
BRANCH   1   3
ATOM      3  C   UNL     1     135.781 121.785 138.510  1.00  0.00    -0.028 C 
ATOM      4  C   UNL     1     134.666 122.037 139.230  1.00  0.00    -0.027 C 
BRANCH   4   5
ATOM      5  C   UNL     1     134.176 123.382 139.736  1.00  0.00     0.014 C 
BRANCH   5   6
ATOM      6  C   UNL     1     133.561 124.281 138.619  1.00  0.00     0.004 C 
ATOM      7  C   UNL     1     134.553 124.877 137.608  1.00  0.00     0.004 C 
ENDBRANCH   5   6
BRANCH   5   8
ATOM      8  C   UNL     1     133.244 123.151 140.978  1.00  0.00    -0.011 C 
ATOM      9  C   UNL     1     133.843 122.125 141.964  1.00  0.00     0.008 C 
ATOM     10  C   UNL     1     132.858 124.443 141.718  1.00  0.00     0.008 C 
ENDBRANCH   5   8
ENDBRANCH   4   5
ENDBRANCH   1   3
BRANCH   1  11
ATOM     11  C   UNL     1     138.016 123.038 138.903  1.00  0.00     0.002 C 
ATOM     12  C   UNL     1     138.561 121.729 139.572  1.00  0.00     0.005 C 
ATOM     13  C   UNL     1     137.752 123.983 140.134  1.00  0.00    -0.023 C 
ATOM     14  C   UNL     1     138.356 121.841 141.085  1.00  0.00     0.009 C 
ATOM     15  C   UNL     1     137.365 122.983 141.231  1.00  0.00     0.021 C 
ATOM     16  C   UNL     1     136.610 125.037 140.027  1.00  0.00     0.008 C 
ATOM     17  C   UNL     1     139.092 124.727 140.464  1.00  0.00     0.012 C 
ATOM     18  C   UNL     1     137.177 123.686 142.564  1.00  0.00    -0.067 C 
ATOM     19  C   UNL     1     136.342 125.755 141.380  1.00  0.00     0.009 C 
ATOM     20  C   UNL     1     136.072 124.755 142.550  1.00  0.00     0.021 C 
ATOM     21  C   UNL     1     138.030 123.516 143.601  1.00  0.00    -0.027 C 
ATOM     22  C   UNL     1     135.815 125.404 143.968  1.00  0.00    -0.023 C 
ATOM     23  C   UNL     1     137.949 124.308 144.871  1.00  0.00     0.031 C 
ATOM     24  C   UNL     1     137.188 125.628 144.677  1.00  0.00     0.002 C 
ATOM     25  C   UNL     1     135.077 126.782 143.866  1.00  0.00     0.010 C 
ATOM     26  C   UNL     1     134.908 124.423 144.768  1.00  0.00     0.012 C 
ATOM     27  C   UNL     1     137.066 126.372 146.021  1.00  0.00     0.036 C 
ATOM     28  C   UNL     1     134.955 127.504 145.217  1.00  0.00     0.032 C 
ATOM     29  C   UNL     1     136.337 127.711 145.857  1.00  0.00     0.114 C 
BRANCH  29  30
ATOM     30  O   UNL     1     136.196 128.309 147.118  1.00  0.00    -0.393 OA
ATOM     31  H   UNL     1     135.481 128.995 147.036  1.00  0.00     0.210 HD
ENDBRANCH  29  30
ENDBRANCH   1  11
TORSDOF 6
ENDMDL
MODEL 7
REMARK VINA RESULT:    10.736      1.204      2.929
REMARK INTER + INTRA:          14.011
REMARK INTER:                  12.246
REMARK INTRA:                   1.764
REMARK UNBOUND:                -0.177
REMARK SMILES CC[C@H](C=C[C@H](C)[C@@H]1CC[C@H]2C3=CC[C@@H]4C[C@H](O)CC[C@@]4(C)[C@H]3CC[C@@]21C)C(C)C
REMARK SMILES IDX 6 1 7 2 5 3 4 4 3 5 2 6 1 7 28 8 29 9 30 10 8 11 9 12 26 13
REMARK SMILES IDX 10 14 11 15 25 16 27 17 12 18 24 19 23 20 13 21 21 22 14 23
REMARK SMILES IDX 15 24 20 25 22 26 16 27 19 28 17 29 18 30
REMARK H PARENT 18 31
REMARK Flexibility Score: inf
ROOT
ATOM      1  C   UNL     1     134.973 123.932 139.053  1.00  0.00     0.012 C 
ATOM      2  C   UNL     1     133.829 124.692 138.342  1.00  0.00     0.012 C 
ENDROOT
BRANCH   1   3
ATOM      3  C   UNL     1     136.153 124.859 139.324  1.00  0.00    -0.028 C 
ATOM      4  C   UNL     1     137.435 124.750 138.913  1.00  0.00    -0.027 C 
BRANCH   4   5
ATOM      5  C   UNL     1     138.062 123.612 138.128  1.00  0.00     0.014 C 
BRANCH   5   6
ATOM      6  C   UNL     1     139.052 122.747 138.968  1.00  0.00     0.004 C 
ATOM      7  C   UNL     1     139.202 123.136 140.447  1.00  0.00     0.004 C 
ENDBRANCH   5   6
BRANCH   5   8
ATOM      8  C   UNL     1     136.924 122.798 137.414  1.00  0.00    -0.011 C 
ATOM      9  C   UNL     1     137.271 122.495 135.940  1.00  0.00     0.008 C 
ATOM     10  C   UNL     1     136.528 121.506 138.148  1.00  0.00     0.008 C 
ENDBRANCH   5   8
ENDBRANCH   4   5
ENDBRANCH   1   3
BRANCH   1  11
ATOM     11  C   UNL     1     134.507 123.119 140.316  1.00  0.00     0.002 C 
ATOM     12  C   UNL     1     132.994 123.347 140.656  1.00  0.00     0.005 C 
ATOM     13  C   UNL     1     135.229 123.443 141.678  1.00  0.00    -0.023 C 
ATOM     14  C   UNL     1     132.904 124.015 142.030  1.00  0.00     0.009 C 
ATOM     15  C   UNL     1     134.315 124.519 142.280  1.00  0.00     0.021 C 
ATOM     16  C   UNL     1     136.675 124.021 141.630  1.00  0.00     0.008 C 
ATOM     17  C   UNL     1     135.240 122.134 142.538  1.00  0.00     0.012 C 
ATOM     18  C   UNL     1     134.772 124.899 143.676  1.00  0.00    -0.067 C 
ATOM     19  C   UNL     1     137.176 124.472 143.032  1.00  0.00     0.009 C 
ATOM     20  C   UNL     1     136.198 125.472 143.728  1.00  0.00     0.021 C 
ATOM     21  C   UNL     1     134.060 124.583 144.784  1.00  0.00    -0.027 C 
ATOM     22  C   UNL     1     136.622 125.960 145.170  1.00  0.00    -0.023 C 
ATOM     23  C   UNL     1     134.560 124.817 146.178  1.00  0.00     0.031 C 
ATOM     24  C   UNL     1     136.090 124.939 146.225  1.00  0.00     0.002 C 
ATOM     25  C   UNL     1     138.176 126.073 145.327  1.00  0.00     0.010 C 
ATOM     26  C   UNL     1     136.006 127.375 145.379  1.00  0.00     0.012 C 
ATOM     27  C   UNL     1     136.552 125.251 147.663  1.00  0.00     0.036 C 
ATOM     28  C   UNL     1     138.617 126.396 146.763  1.00  0.00     0.032 C 
ATOM     29  C   UNL     1     138.080 125.349 147.752  1.00  0.00     0.114 C 
BRANCH  29  30
ATOM     30  O   UNL     1     138.436 125.700 149.062  1.00  0.00    -0.393 OA
ATOM     31  H   UNL     1     138.844 126.606 149.019  1.00  0.00     0.210 HD
ENDBRANCH  29  30
ENDBRANCH   1  11
TORSDOF 6
ENDMDL
