MODEL 1
REMARK VINA RESULT:    32.917      0.000      0.000
REMARK INTER + INTRA:          38.426
REMARK INTER:                  38.690
REMARK INTRA:                  -0.264
REMARK UNBOUND:                -0.264
REMARK SMILES O=c1cc(-c2ccc(O)c(O)c2)oc2cc(O)cc(O)c12
REMARK SMILES IDX 4 1 3 2 2 3 1 4 21 5 19 6 18 7 16 8 15 9 14 10 13 11 5 12
REMARK SMILES IDX 6 13 7 14 8 15 12 16 10 17 9 18 11 20 20 22 17 24
REMARK H PARENT 9 19 11 21 20 23 17 25
REMARK Flexibility Score: inf
ROOT
ATOM      1  C   UNL     1      16.020  49.757  58.889  1.00  0.00     0.138 A 
ATOM      2  C   UNL     1      15.060  50.651  58.393  1.00  0.00     0.100 A 
ATOM      3  C   UNL     1      14.939  51.919  58.963  1.00  0.00     0.197 A 
ATOM      4  O   UNL     1      14.113  52.721  58.456  1.00  0.00    -0.289 OA
ATOM      5  C   UNL     1      15.763  52.281  60.056  1.00  0.00     0.107 A 
ATOM      6  C   UNL     1      15.699  53.531  60.741  1.00  0.00     0.134 A 
ATOM      7  C   UNL     1      16.644  53.822  61.734  1.00  0.00     0.093 A 
ATOM      8  C   UNL     1      17.611  52.884  62.106  1.00  0.00     0.123 A 
ATOM      9  C   UNL     1      17.646  51.641  61.480  1.00  0.00     0.094 A 
ATOM     10  C   UNL     1      16.740  51.334  60.463  1.00  0.00     0.146 A 
ATOM     11  O   UNL     1      16.817  50.141  59.880  1.00  0.00    -0.456 OA
ENDROOT
BRANCH   1  12
ATOM     12  C   UNL     1      16.190  48.395  58.322  1.00  0.00     0.021 A 
ATOM     13  C   UNL     1      17.340  48.036  57.592  1.00  0.00     0.016 A 
ATOM     14  C   UNL     1      17.468  46.751  57.061  1.00  0.00     0.051 A 
ATOM     15  C   UNL     1      16.456  45.805  57.241  1.00  0.00     0.157 A 
ATOM     16  C   UNL     1      15.169  47.443  58.488  1.00  0.00     0.062 A 
ATOM     17  C   UNL     1      15.298  46.152  57.956  1.00  0.00     0.158 A 
BRANCH  15  18
ATOM     18  O   UNL     1      16.615  44.530  56.699  1.00  0.00    -0.504 OA
ATOM     19  H   UNL     1      15.992  44.166  55.988  1.00  0.00     0.293 HD
ENDBRANCH  15  18
BRANCH  17  20
ATOM     20  O   UNL     1      14.282  45.215  58.135  1.00  0.00    -0.504 OA
ATOM     21  H   UNL     1      14.004  44.903  59.059  1.00  0.00     0.293 HD
ENDBRANCH  17  20
ENDBRANCH   1  12
BRANCH   6  22
ATOM     22  O   UNL     1      14.722  54.503  60.506  1.00  0.00    -0.507 OA
ATOM     23  H   UNL     1      14.758  55.451  60.849  1.00  0.00     0.293 HD
ENDBRANCH   6  22
BRANCH   8  24
ATOM     24  O   UNL     1      18.537  53.177  63.106  1.00  0.00    -0.508 OA
ATOM     25  H   UNL     1      19.245  53.891  62.980  1.00  0.00     0.293 HD
ENDBRANCH   8  24
TORSDOF 5
ENDMDL
MODEL 2
REMARK VINA RESULT:    33.287      1.861      2.913
REMARK INTER + INTRA:          38.861
REMARK INTER:                  39.173
REMARK INTRA:                  -0.312
REMARK UNBOUND:                -0.264
REMARK SMILES O=c1cc(-c2ccc(O)c(O)c2)oc2cc(O)cc(O)c12
REMARK SMILES IDX 4 1 3 2 2 3 1 4 21 5 19 6 18 7 16 8 15 9 14 10 13 11 5 12
REMARK SMILES IDX 6 13 7 14 8 15 12 16 10 17 9 18 11 20 20 22 17 24
REMARK H PARENT 9 19 11 21 20 23 17 25
REMARK Flexibility Score: inf
ROOT
ATOM      1  C   UNL     1      15.851  49.190  59.326  1.00  0.00     0.138 A 
ATOM      2  C   UNL     1      15.503  48.958  60.665  1.00  0.00     0.100 A 
ATOM      3  C   UNL     1      15.161  50.033  61.485  1.00  0.00     0.197 A 
ATOM      4  O   UNL     1      14.793  49.788  62.663  1.00  0.00    -0.289 OA
ATOM      5  C   UNL     1      15.197  51.351  60.970  1.00  0.00     0.107 A 
ATOM      6  C   UNL     1      14.906  52.526  61.725  1.00  0.00     0.134 A 
ATOM      7  C   UNL     1      14.862  53.768  61.078  1.00  0.00     0.093 A 
ATOM      8  C   UNL     1      15.155  53.883  59.716  1.00  0.00     0.123 A 
ATOM      9  C   UNL     1      15.492  52.748  58.984  1.00  0.00     0.094 A 
ATOM     10  C   UNL     1      15.512  51.491  59.592  1.00  0.00     0.146 A 
ATOM     11  O   UNL     1      15.825  50.431  58.853  1.00  0.00    -0.456 OA
ENDROOT
BRANCH   1  12
ATOM     12  C   UNL     1      16.226  48.083  58.410  1.00  0.00     0.021 A 
ATOM     13  C   UNL     1      15.874  46.748  58.681  1.00  0.00     0.016 A 
ATOM     14  C   UNL     1      16.249  45.725  57.807  1.00  0.00     0.051 A 
ATOM     15  C   UNL     1      16.984  46.013  56.654  1.00  0.00     0.157 A 
ATOM     16  C   UNL     1      16.977  48.365  57.255  1.00  0.00     0.062 A 
ATOM     17  C   UNL     1      17.353  47.338  56.376  1.00  0.00     0.158 A 
BRANCH  15  18
ATOM     18  O   UNL     1      17.342  44.970  55.800  1.00  0.00    -0.504 OA
ATOM     19  H   UNL     1      16.872  44.814  54.916  1.00  0.00     0.293 HD
ENDBRANCH  15  18
BRANCH  17  20
ATOM     20  O   UNL     1      18.090  47.632  55.231  1.00  0.00    -0.504 OA
ATOM     21  H   UNL     1      18.163  46.974  54.462  1.00  0.00     0.293 HD
ENDBRANCH  17  20
ENDBRANCH   1  12
BRANCH   6  22
ATOM     22  O   UNL     1      14.683  52.534  63.105  1.00  0.00    -0.507 OA
ATOM     23  H   UNL     1      15.407  52.567  63.806  1.00  0.00     0.293 HD
ENDBRANCH   6  22
BRANCH   8  24
ATOM     24  O   UNL     1      15.122  55.125  59.085  1.00  0.00    -0.508 OA
ATOM     25  H   UNL     1      14.711  55.241  58.166  1.00  0.00     0.293 HD
ENDBRANCH   8  24
TORSDOF 5
ENDMDL
MODEL 3
REMARK VINA RESULT:    33.622      1.638      2.411
REMARK INTER + INTRA:          39.254
REMARK INTER:                  39.572
REMARK INTRA:                  -0.318
REMARK UNBOUND:                -0.264
REMARK SMILES O=c1cc(-c2ccc(O)c(O)c2)oc2cc(O)cc(O)c12
REMARK SMILES IDX 4 1 3 2 2 3 1 4 21 5 19 6 18 7 16 8 15 9 14 10 13 11 5 12
REMARK SMILES IDX 6 13 7 14 8 15 12 16 10 17 9 18 11 20 20 22 17 24
REMARK H PARENT 9 19 11 21 20 23 17 25
REMARK Flexibility Score: inf
ROOT
ATOM      1  C   UNL     1      16.549  49.321  59.369  1.00  0.00     0.138 A 
ATOM      2  C   UNL     1      17.675  50.154  59.420  1.00  0.00     0.100 A 
ATOM      3  C   UNL     1      17.646  51.305  60.209  1.00  0.00     0.197 A 
ATOM      4  O   UNL     1      18.693  51.999  60.285  1.00  0.00    -0.289 OA
ATOM      5  C   UNL     1      16.471  51.638  60.926  1.00  0.00     0.107 A 
ATOM      6  C   UNL     1      16.315  52.806  61.729  1.00  0.00     0.134 A 
ATOM      7  C   UNL     1      15.146  52.972  62.485  1.00  0.00     0.093 A 
ATOM      8  C   UNL     1      14.107  52.040  62.418  1.00  0.00     0.123 A 
ATOM      9  C   UNL     1      14.229  50.924  61.595  1.00  0.00     0.094 A 
ATOM     10  C   UNL     1      15.396  50.714  60.855  1.00  0.00     0.146 A 
ATOM     11  O   UNL     1      15.478  49.628  60.093  1.00  0.00    -0.456 OA
ENDROOT
BRANCH   1  12
ATOM     12  C   UNL     1      16.525  48.086  58.544  1.00  0.00     0.021 A 
ATOM     13  C   UNL     1      17.662  47.641  57.845  1.00  0.00     0.016 A 
ATOM     14  C   UNL     1      17.608  46.481  57.068  1.00  0.00     0.051 A 
ATOM     15  C   UNL     1      16.422  45.749  56.970  1.00  0.00     0.157 A 
ATOM     16  C   UNL     1      15.330  47.353  58.430  1.00  0.00     0.062 A 
ATOM     17  C   UNL     1      15.275  46.187  57.652  1.00  0.00     0.158 A 
BRANCH  15  18
ATOM     18  O   UNL     1      16.400  44.595  56.188  1.00  0.00    -0.504 OA
ATOM     19  H   UNL     1      16.677  43.692  56.555  1.00  0.00     0.293 HD
ENDBRANCH  15  18
BRANCH  17  20
ATOM     20  O   UNL     1      14.087  45.465  57.555  1.00  0.00    -0.504 OA
ATOM     21  H   UNL     1      13.200  45.923  57.373  1.00  0.00     0.293 HD
ENDBRANCH  17  20
ENDBRANCH   1  12
BRANCH   6  22
ATOM     22  O   UNL     1      17.254  53.839  61.801  1.00  0.00    -0.507 OA
ATOM     23  H   UNL     1      17.399  54.431  62.604  1.00  0.00     0.293 HD
ENDBRANCH   6  22
BRANCH   8  24
ATOM     24  O   UNL     1      12.942  52.221  63.162  1.00  0.00    -0.508 OA
ATOM     25  H   UNL     1      12.973  52.515  64.131  1.00  0.00     0.293 HD
ENDBRANCH   8  24
TORSDOF 5
ENDMDL
MODEL 4
REMARK VINA RESULT:    33.780      1.661      7.354
REMARK INTER + INTRA:          39.440
REMARK INTER:                  39.702
REMARK INTRA:                  -0.263
REMARK UNBOUND:                -0.264
REMARK SMILES O=c1cc(-c2ccc(O)c(O)c2)oc2cc(O)cc(O)c12
REMARK SMILES IDX 4 1 3 2 2 3 1 4 21 5 19 6 18 7 16 8 15 9 14 10 13 11 5 12
REMARK SMILES IDX 6 13 7 14 8 15 12 16 10 17 9 18 11 20 20 22 17 24
REMARK H PARENT 9 19 11 21 20 23 17 25
REMARK Flexibility Score: inf
ROOT
ATOM      1  C   UNL     1      15.952  48.022  58.603  1.00  0.00     0.138 A 
ATOM      2  C   UNL     1      14.851  47.187  58.368  1.00  0.00     0.100 A 
ATOM      3  C   UNL     1      15.022  46.009  57.640  1.00  0.00     0.197 A 
ATOM      4  O   UNL     1      14.029  45.249  57.500  1.00  0.00    -0.289 OA
ATOM      5  C   UNL     1      16.296  45.682  57.118  1.00  0.00     0.107 A 
ATOM      6  C   UNL     1      16.578  44.529  56.327  1.00  0.00     0.134 A 
ATOM      7  C   UNL     1      17.902  44.249  55.963  1.00  0.00     0.093 A 
ATOM      8  C   UNL     1      18.943  45.114  56.312  1.00  0.00     0.123 A 
ATOM      9  C   UNL     1      18.669  46.269  57.037  1.00  0.00     0.094 A 
ATOM     10  C   UNL     1      17.365  46.559  57.444  1.00  0.00     0.146 A 
ATOM     11  O   UNL     1      17.148  47.665  58.148  1.00  0.00    -0.456 OA
ENDROOT
BRANCH   1  12
ATOM     12  C   UNL     1      15.827  49.288  59.370  1.00  0.00     0.021 A 
ATOM     13  C   UNL     1      16.019  49.330  60.764  1.00  0.00     0.016 A 
ATOM     14  C   UNL     1      15.884  50.533  61.461  1.00  0.00     0.051 A 
ATOM     15  C   UNL     1      15.552  51.710  60.785  1.00  0.00     0.157 A 
ATOM     16  C   UNL     1      15.480  50.473  58.698  1.00  0.00     0.062 A 
ATOM     17  C   UNL     1      15.346  51.682  59.397  1.00  0.00     0.158 A 
BRANCH  15  18
ATOM     18  O   UNL     1      15.427  52.896  61.509  1.00  0.00    -0.504 OA
ATOM     19  H   UNL     1      16.142  53.613  61.493  1.00  0.00     0.293 HD
ENDBRANCH  15  18
BRANCH  17  20
ATOM     20  O   UNL     1      15.010  52.851  58.717  1.00  0.00    -0.504 OA
ATOM     21  H   UNL     1      14.051  53.177  58.663  1.00  0.00     0.293 HD
ENDBRANCH  17  20
ENDBRANCH   1  12
BRANCH   6  22
ATOM     22  O   UNL     1      15.602  43.647  55.854  1.00  0.00    -0.507 OA
ATOM     23  H   UNL     1      14.872  43.239  56.418  1.00  0.00     0.293 HD
ENDBRANCH   6  22
BRANCH   8  24
ATOM     24  O   UNL     1      20.255  44.834  55.933  1.00  0.00    -0.508 OA
ATOM     25  H   UNL     1      20.803  44.123  56.404  1.00  0.00     0.293 HD
ENDBRANCH   8  24
TORSDOF 5
ENDMDL
