MODEL 1
REMARK VINA RESULT:    -4.245      0.000      0.000
REMARK INTER + INTRA:          -5.429
REMARK INTER:                  -5.114
REMARK INTRA:                  -0.315
REMARK UNBOUND:                -0.315
REMARK SMILES O=c1c(O)c(-c2ccc(O)c(O)c2)oc2cc(O)cc(O)c12
REMARK SMILES IDX 5 1 3 2 2 3 1 4 22 5 20 6 19 7 17 8 16 9 15 10 14 11 6 12
REMARK SMILES IDX 7 13 8 14 9 15 13 16 11 17 10 18 12 20 4 22 21 24 18 26
REMARK H PARENT 10 19 12 21 4 23 21 25 18 27
REMARK Flexibility Score: inf
ROOT
ATOM      1  C   UNL     1      21.640  34.048  42.668  1.00  0.00     0.180 A 
ATOM      2  C   UNL     1      22.898  33.625  43.131  1.00  0.00     0.208 A 
ATOM      3  C   UNL     1      23.370  34.112  44.360  1.00  0.00     0.238 A 
ATOM      4  O   UNL     1      24.528  33.788  44.732  1.00  0.00    -0.285 OA
ATOM      5  C   UNL     1      22.557  34.971  45.139  1.00  0.00     0.111 A 
ATOM      6  C   UNL     1      22.915  35.488  46.420  1.00  0.00     0.134 A 
ATOM      7  C   UNL     1      22.074  36.415  47.051  1.00  0.00     0.093 A 
ATOM      8  C   UNL     1      20.858  36.793  46.476  1.00  0.00     0.123 A 
ATOM      9  C   UNL     1      20.475  36.251  45.251  1.00  0.00     0.094 A 
ATOM     10  C   UNL     1      21.310  35.355  44.580  1.00  0.00     0.146 A 
ATOM     11  O   UNL     1      20.913  34.880  43.405  1.00  0.00    -0.452 OA
ENDROOT
BRANCH   1  12
ATOM     12  C   UNL     1      21.080  33.591  41.376  1.00  0.00     0.025 A 
ATOM     13  C   UNL     1      20.387  32.371  41.317  1.00  0.00     0.016 A 
ATOM     14  C   UNL     1      19.832  31.930  40.114  1.00  0.00     0.051 A 
ATOM     15  C   UNL     1      19.947  32.709  38.954  1.00  0.00     0.157 A 
ATOM     16  C   UNL     1      21.176  34.380  40.215  1.00  0.00     0.062 A 
ATOM     17  C   UNL     1      20.619  33.942  39.008  1.00  0.00     0.158 A 
BRANCH  15  18
ATOM     18  O   UNL     1      19.395  32.265  37.754  1.00  0.00    -0.504 OA
ATOM     19  H   UNL     1      18.917  31.374  37.687  1.00  0.00     0.293 HD
ENDBRANCH  15  18
BRANCH  17  20
ATOM     20  O   UNL     1      20.739  34.747  37.875  1.00  0.00    -0.504 OA
ATOM     21  H   UNL     1      21.130  35.680  37.918  1.00  0.00     0.293 HD
ENDBRANCH  17  20
ENDBRANCH   1  12
BRANCH   2  22
ATOM     22  O   UNL     1      23.653  32.718  42.384  1.00  0.00    -0.502 OA
ATOM     23  H   UNL     1      24.223  31.999  42.814  1.00  0.00     0.293 HD
ENDBRANCH   2  22
BRANCH   6  24
ATOM     24  O   UNL     1      24.062  35.111  47.125  1.00  0.00    -0.507 OA
ATOM     25  H   UNL     1      24.600  35.720  47.721  1.00  0.00     0.293 HD
ENDBRANCH   6  24
BRANCH   8  26
ATOM     26  O   UNL     1      20.021  37.701  47.118  1.00  0.00    -0.508 OA
ATOM     27  H   UNL     1      20.211  38.023  48.060  1.00  0.00     0.293 HD
ENDBRANCH   8  26
TORSDOF 6
ENDMDL
MODEL 2
REMARK VINA RESULT:    -4.242      3.848      7.360
REMARK INTER + INTRA:          -5.424
REMARK INTER:                  -5.091
REMARK INTRA:                  -0.333
REMARK UNBOUND:                -0.315
REMARK SMILES O=c1c(O)c(-c2ccc(O)c(O)c2)oc2cc(O)cc(O)c12
REMARK SMILES IDX 5 1 3 2 2 3 1 4 22 5 20 6 19 7 17 8 16 9 15 10 14 11 6 12
REMARK SMILES IDX 7 13 8 14 9 15 13 16 11 17 10 18 12 20 4 22 21 24 18 26
REMARK H PARENT 10 19 12 21 4 23 21 25 18 27
REMARK Flexibility Score: inf
ROOT
ATOM      1  C   UNL     1      18.788  34.906  44.905  1.00  0.00     0.180 A 
ATOM      2  C   UNL     1      17.673  34.746  45.745  1.00  0.00     0.208 A 
ATOM      3  C   UNL     1      16.391  34.701  45.174  1.00  0.00     0.238 A 
ATOM      4  O   UNL     1      15.393  34.632  45.938  1.00  0.00    -0.285 OA
ATOM      5  C   UNL     1      16.242  34.759  43.767  1.00  0.00     0.111 A 
ATOM      6  C   UNL     1      14.995  34.676  43.077  1.00  0.00     0.134 A 
ATOM      7  C   UNL     1      14.960  34.852  41.688  1.00  0.00     0.093 A 
ATOM      8  C   UNL     1      16.135  35.043  40.956  1.00  0.00     0.123 A 
ATOM      9  C   UNL     1      17.362  35.070  41.614  1.00  0.00     0.094 A 
ATOM     10  C   UNL     1      17.425  34.937  43.004  1.00  0.00     0.146 A 
ATOM     11  O   UNL     1      18.615  34.990  43.591  1.00  0.00    -0.452 OA
ENDROOT
BRANCH   1  12
ATOM     12  C   UNL     1      20.169  34.977  45.432  1.00  0.00     0.025 A 
ATOM     13  C   UNL     1      20.950  33.811  45.480  1.00  0.00     0.016 A 
ATOM     14  C   UNL     1      22.263  33.859  45.954  1.00  0.00     0.051 A 
ATOM     15  C   UNL     1      22.821  35.075  46.371  1.00  0.00     0.157 A 
ATOM     16  C   UNL     1      20.739  36.199  45.832  1.00  0.00     0.062 A 
ATOM     17  C   UNL     1      22.055  36.251  46.305  1.00  0.00     0.158 A 
BRANCH  15  18
ATOM     18  O   UNL     1      24.131  35.119  46.846  1.00  0.00    -0.504 OA
ATOM     19  H   UNL     1      24.823  35.736  46.436  1.00  0.00     0.293 HD
ENDBRANCH  15  18
BRANCH  17  20
ATOM     20  O   UNL     1      22.586  37.480  46.699  1.00  0.00    -0.504 OA
ATOM     21  H   UNL     1      22.535  37.805  47.657  1.00  0.00     0.293 HD
ENDBRANCH  17  20
ENDBRANCH   1  12
BRANCH   2  22
ATOM     22  O   UNL     1      17.846  34.614  47.125  1.00  0.00    -0.502 OA
ATOM     23  H   UNL     1      17.205  35.023  47.795  1.00  0.00     0.293 HD
ENDBRANCH   2  22
BRANCH   6  24
ATOM     24  O   UNL     1      13.773  34.400  43.699  1.00  0.00    -0.507 OA
ATOM     25  H   UNL     1      12.967  34.005  43.239  1.00  0.00     0.293 HD
ENDBRANCH   6  24
BRANCH   8  26
ATOM     26  O   UNL     1      16.093  35.200  39.573  1.00  0.00    -0.508 OA
ATOM     27  H   UNL     1      16.862  35.618  39.063  1.00  0.00     0.293 HD
ENDBRANCH   8  26
TORSDOF 6
ENDMDL
MODEL 3
REMARK VINA RESULT:    -4.167      3.972      6.931
REMARK INTER + INTRA:          -5.334
REMARK INTER:                  -5.048
REMARK INTRA:                  -0.286
REMARK UNBOUND:                -0.315
REMARK SMILES O=c1c(O)c(-c2ccc(O)c(O)c2)oc2cc(O)cc(O)c12
REMARK SMILES IDX 5 1 3 2 2 3 1 4 22 5 20 6 19 7 17 8 16 9 15 10 14 11 6 12
REMARK SMILES IDX 7 13 8 14 9 15 13 16 11 17 10 18 12 20 4 22 21 24 18 26
REMARK H PARENT 10 19 12 21 4 23 21 25 18 27
REMARK Flexibility Score: inf
ROOT
ATOM      1  C   UNL     1      19.096  34.803  44.505  1.00  0.00     0.180 A 
ATOM      2  C   UNL     1      19.006  34.712  43.105  1.00  0.00     0.208 A 
ATOM      3  C   UNL     1      17.737  34.624  42.509  1.00  0.00     0.238 A 
ATOM      4  O   UNL     1      17.666  34.467  41.262  1.00  0.00    -0.285 OA
ATOM      5  C   UNL     1      16.573  34.684  43.314  1.00  0.00     0.111 A 
ATOM      6  C   UNL     1      15.237  34.650  42.814  1.00  0.00     0.134 A 
ATOM      7  C   UNL     1      14.163  34.609  43.713  1.00  0.00     0.093 A 
ATOM      8  C   UNL     1      14.376  34.668  45.093  1.00  0.00     0.123 A 
ATOM      9  C   UNL     1      15.675  34.757  45.589  1.00  0.00     0.094 A 
ATOM     10  C   UNL     1      16.767  34.760  44.718  1.00  0.00     0.146 A 
ATOM     11  O   UNL     1      17.988  34.825  45.236  1.00  0.00    -0.452 OA
ENDROOT
BRANCH   1  12
ATOM     12  C   UNL     1      20.397  34.885  45.207  1.00  0.00     0.025 A 
ATOM     13  C   UNL     1      21.157  33.719  45.391  1.00  0.00     0.016 A 
ATOM     14  C   UNL     1      22.396  33.777  46.032  1.00  0.00     0.051 A 
ATOM     15  C   UNL     1      22.903  35.002  46.483  1.00  0.00     0.157 A 
ATOM     16  C   UNL     1      20.918  36.117  45.643  1.00  0.00     0.062 A 
ATOM     17  C   UNL     1      22.161  36.179  46.283  1.00  0.00     0.158 A 
BRANCH  15  18
ATOM     18  O   UNL     1      24.140  35.057  47.125  1.00  0.00    -0.504 OA
ATOM     19  H   UNL     1      24.977  34.678  46.697  1.00  0.00     0.293 HD
ENDBRANCH  15  18
BRANCH  17  20
ATOM     20  O   UNL     1      22.644  37.417  46.707  1.00  0.00    -0.504 OA
ATOM     21  H   UNL     1      22.171  37.964  47.416  1.00  0.00     0.293 HD
ENDBRANCH  17  20
ENDBRANCH   1  12
BRANCH   2  22
ATOM     22  O   UNL     1      20.163  34.730  42.323  1.00  0.00    -0.502 OA
ATOM     23  H   UNL     1      20.290  34.119  41.525  1.00  0.00     0.293 HD
ENDBRANCH   2  22
BRANCH   6  24
ATOM     24  O   UNL     1      14.908  34.679  41.455  1.00  0.00    -0.507 OA
ATOM     25  H   UNL     1      13.970  34.633  41.087  1.00  0.00     0.293 HD
ENDBRANCH   6  24
BRANCH   8  26
ATOM     26  O   UNL     1      13.302  34.645  45.979  1.00  0.00    -0.508 OA
ATOM     27  H   UNL     1      12.498  35.249  45.853  1.00  0.00     0.293 HD
ENDBRANCH   8  26
TORSDOF 6
ENDMDL
MODEL 4
REMARK VINA RESULT:    -4.096      3.254      5.344
REMARK INTER + INTRA:          -5.249
REMARK INTER:                  -4.921
REMARK INTRA:                  -0.329
REMARK UNBOUND:                -0.315
REMARK SMILES O=c1c(O)c(-c2ccc(O)c(O)c2)oc2cc(O)cc(O)c12
REMARK SMILES IDX 5 1 3 2 2 3 1 4 22 5 20 6 19 7 17 8 16 9 15 10 14 11 6 12
REMARK SMILES IDX 7 13 8 14 9 15 13 16 11 17 10 18 12 20 4 22 21 24 18 26
REMARK H PARENT 10 19 12 21 4 23 21 25 18 27
REMARK Flexibility Score: inf
ROOT
ATOM      1  C   UNL     1      22.947  34.018  45.280  1.00  0.00     0.180 A 
ATOM      2  C   UNL     1      23.121  35.071  46.195  1.00  0.00     0.208 A 
ATOM      3  C   UNL     1      22.088  36.007  46.361  1.00  0.00     0.238 A 
ATOM      4  O   UNL     1      22.279  36.988  47.125  1.00  0.00    -0.285 OA
ATOM      5  C   UNL     1      20.871  35.847  45.653  1.00  0.00     0.111 A 
ATOM      6  C   UNL     1      19.740  36.709  45.778  1.00  0.00     0.134 A 
ATOM      7  C   UNL     1      18.628  36.514  44.948  1.00  0.00     0.093 A 
ATOM      8  C   UNL     1      18.581  35.450  44.044  1.00  0.00     0.123 A 
ATOM      9  C   UNL     1      19.658  34.571  43.954  1.00  0.00     0.094 A 
ATOM     10  C   UNL     1      20.797  34.762  44.741  1.00  0.00     0.146 A 
ATOM     11  O   UNL     1      21.808  33.913  44.607  1.00  0.00    -0.452 OA
ENDROOT
BRANCH   1  12
ATOM     12  C   UNL     1      23.996  33.001  45.040  1.00  0.00     0.025 A 
ATOM     13  C   UNL     1      23.928  31.769  45.709  1.00  0.00     0.016 A 
ATOM     14  C   UNL     1      24.895  30.786  45.481  1.00  0.00     0.051 A 
ATOM     15  C   UNL     1      25.934  31.015  44.569  1.00  0.00     0.157 A 
ATOM     16  C   UNL     1      25.029  33.219  44.110  1.00  0.00     0.062 A 
ATOM     17  C   UNL     1      25.998  32.236  43.877  1.00  0.00     0.158 A 
BRANCH  15  18
ATOM     18  O   UNL     1      26.900  30.034  44.346  1.00  0.00    -0.504 OA
ATOM     19  H   UNL     1      26.984  29.225  44.950  1.00  0.00     0.293 HD
ENDBRANCH  15  18
BRANCH  17  20
ATOM     20  O   UNL     1      27.011  32.489  42.953  1.00  0.00    -0.504 OA
ATOM     21  H   UNL     1      27.185  33.417  42.586  1.00  0.00     0.293 HD
ENDBRANCH  17  20
ENDBRANCH   1  12
BRANCH   2  22
ATOM     22  O   UNL     1      24.299  35.168  46.940  1.00  0.00    -0.502 OA
ATOM     23  H   UNL     1      25.058  35.787  46.680  1.00  0.00     0.293 HD
ENDBRANCH   2  22
BRANCH   6  24
ATOM     24  O   UNL     1      19.645  37.747  46.709  1.00  0.00    -0.507 OA
ATOM     25  H   UNL     1      20.151  38.618  46.656  1.00  0.00     0.293 HD
ENDBRANCH   6  24
BRANCH   8  26
ATOM     26  O   UNL     1      17.465  35.253  43.235  1.00  0.00    -0.508 OA
ATOM     27  H   UNL     1      16.543  35.564  43.520  1.00  0.00     0.293 HD
ENDBRANCH   8  26
TORSDOF 6
ENDMDL
MODEL 5
REMARK VINA RESULT:    -4.095      3.585      3.881
REMARK INTER + INTRA:          -5.248
REMARK INTER:                  -4.963
REMARK INTRA:                  -0.284
REMARK UNBOUND:                -0.315
REMARK SMILES O=c1c(O)c(-c2ccc(O)c(O)c2)oc2cc(O)cc(O)c12
REMARK SMILES IDX 5 1 3 2 2 3 1 4 22 5 20 6 19 7 17 8 16 9 15 10 14 11 6 12
REMARK SMILES IDX 7 13 8 14 9 15 13 16 11 17 10 18 12 20 4 22 21 24 18 26
REMARK H PARENT 10 19 12 21 4 23 21 25 18 27
REMARK Flexibility Score: inf
ROOT
ATOM      1  C   UNL     1      18.738  34.615  43.423  1.00  0.00     0.180 A 
ATOM      2  C   UNL     1      19.489  33.440  43.247  1.00  0.00     0.208 A 
ATOM      3  C   UNL     1      20.721  33.314  43.909  1.00  0.00     0.238 A 
ATOM      4  O   UNL     1      21.423  32.293  43.689  1.00  0.00    -0.285 OA
ATOM      5  C   UNL     1      21.161  34.338  44.783  1.00  0.00     0.111 A 
ATOM      6  C   UNL     1      22.370  34.297  45.540  1.00  0.00     0.134 A 
ATOM      7  C   UNL     1      22.755  35.416  46.290  1.00  0.00     0.093 A 
ATOM      8  C   UNL     1      21.941  36.550  46.362  1.00  0.00     0.123 A 
ATOM      9  C   UNL     1      20.733  36.578  45.671  1.00  0.00     0.094 A 
ATOM     10  C   UNL     1      20.341  35.493  44.883  1.00  0.00     0.146 A 
ATOM     11  O   UNL     1      19.191  35.572  44.224  1.00  0.00    -0.452 OA
ENDROOT
BRANCH   1  12
ATOM     12  C   UNL     1      17.437  34.827  42.749  1.00  0.00     0.025 A 
ATOM     13  C   UNL     1      16.252  34.757  43.497  1.00  0.00     0.016 A 
ATOM     14  C   UNL     1      15.015  34.975  42.886  1.00  0.00     0.051 A 
ATOM     15  C   UNL     1      14.946  35.284  41.521  1.00  0.00     0.157 A 
ATOM     16  C   UNL     1      17.365  35.158  41.383  1.00  0.00     0.062 A 
ATOM     17  C   UNL     1      16.128  35.379  40.768  1.00  0.00     0.158 A 
BRANCH  15  18
ATOM     18  O   UNL     1      13.710  35.499  40.912  1.00  0.00    -0.504 OA
ATOM     19  H   UNL     1      13.377  36.433  40.702  1.00  0.00     0.293 HD
ENDBRANCH  15  18
BRANCH  17  20
ATOM     20  O   UNL     1      16.094  35.698  39.410  1.00  0.00    -0.504 OA
ATOM     21  H   UNL     1      16.939  35.839  38.869  1.00  0.00     0.293 HD
ENDBRANCH  17  20
ENDBRANCH   1  12
BRANCH   2  22
ATOM     22  O   UNL     1      19.003  32.409  42.441  1.00  0.00    -0.502 OA
ATOM     23  H   UNL     1      18.019  32.308  42.220  1.00  0.00     0.293 HD
ENDBRANCH   2  22
BRANCH   6  24
ATOM     24  O   UNL     1      23.212  33.183  45.611  1.00  0.00    -0.507 OA
ATOM     25  H   UNL     1      23.258  32.542  46.389  1.00  0.00     0.293 HD
ENDBRANCH   6  24
BRANCH   8  26
ATOM     26  O   UNL     1      22.323  37.651  47.125  1.00  0.00    -0.508 OA
ATOM     27  H   UNL     1      21.657  38.155  47.698  1.00  0.00     0.293 HD
ENDBRANCH   8  26
TORSDOF 6
ENDMDL
MODEL 6
REMARK VINA RESULT:    -4.000      1.398      3.258
REMARK INTER + INTRA:          -5.133
REMARK INTER:                  -4.828
REMARK INTRA:                  -0.305
REMARK UNBOUND:                -0.315
REMARK SMILES O=c1c(O)c(-c2ccc(O)c(O)c2)oc2cc(O)cc(O)c12
REMARK SMILES IDX 5 1 3 2 2 3 1 4 22 5 20 6 19 7 17 8 16 9 15 10 14 11 6 12
REMARK SMILES IDX 7 13 8 14 9 15 13 16 11 17 10 18 12 20 4 22 21 24 18 26
REMARK H PARENT 10 19 12 21 4 23 21 25 18 27
REMARK Flexibility Score: inf
ROOT
ATOM      1  C   UNL     1      21.716  33.914  42.619  1.00  0.00     0.180 A 
ATOM      2  C   UNL     1      21.151  34.672  43.659  1.00  0.00     0.208 A 
ATOM      3  C   UNL     1      21.901  34.891  44.826  1.00  0.00     0.238 A 
ATOM      4  O   UNL     1      21.362  35.507  45.782  1.00  0.00    -0.285 OA
ATOM      5  C   UNL     1      23.226  34.400  44.916  1.00  0.00     0.111 A 
ATOM      6  C   UNL     1      24.093  34.602  46.032  1.00  0.00     0.134 A 
ATOM      7  C   UNL     1      25.347  33.977  46.055  1.00  0.00     0.093 A 
ATOM      8  C   UNL     1      25.791  33.212  44.974  1.00  0.00     0.123 A 
ATOM      9  C   UNL     1      24.974  33.054  43.857  1.00  0.00     0.094 A 
ATOM     10  C   UNL     1      23.702  33.632  43.821  1.00  0.00     0.146 A 
ATOM     11  O   UNL     1      22.949  33.438  42.746  1.00  0.00    -0.452 OA
ENDROOT
BRANCH   1  12
ATOM     12  C   UNL     1      20.983  33.627  41.364  1.00  0.00     0.025 A 
ATOM     13  C   UNL     1      20.055  32.575  41.333  1.00  0.00     0.016 A 
ATOM     14  C   UNL     1      19.337  32.300  40.166  1.00  0.00     0.051 A 
ATOM     15  C   UNL     1      19.524  33.084  39.020  1.00  0.00     0.157 A 
ATOM     16  C   UNL     1      21.154  34.424  40.218  1.00  0.00     0.062 A 
ATOM     17  C   UNL     1      20.434  34.154  39.049  1.00  0.00     0.158 A 
BRANCH  15  18
ATOM     18  O   UNL     1      18.808  32.806  37.856  1.00  0.00    -0.504 OA
ATOM     19  H   UNL     1      19.178  33.031  36.939  1.00  0.00     0.293 HD
ENDBRANCH  15  18
BRANCH  17  20
ATOM     20  O   UNL     1      20.633  34.961  37.929  1.00  0.00    -0.504 OA
ATOM     21  H   UNL     1      21.358  34.768  37.248  1.00  0.00     0.293 HD
ENDBRANCH  17  20
ENDBRANCH   1  12
BRANCH   2  22
ATOM     22  O   UNL     1      19.871  35.212  43.520  1.00  0.00    -0.502 OA
ATOM     23  H   UNL     1      19.460  35.824  44.215  1.00  0.00     0.293 HD
ENDBRANCH   2  22
BRANCH   6  24
ATOM     24  O   UNL     1      23.787  35.419  47.125  1.00  0.00    -0.507 OA
ATOM     25  H   UNL     1      24.163  36.342  47.279  1.00  0.00     0.293 HD
ENDBRANCH   6  24
BRANCH   8  26
ATOM     26  O   UNL     1      27.046  32.609  44.998  1.00  0.00    -0.508 OA
ATOM     27  H   UNL     1      27.846  33.067  45.420  1.00  0.00     0.293 HD
ENDBRANCH   8  26
TORSDOF 6
ENDMDL
MODEL 7
REMARK VINA RESULT:    -3.913      3.428      4.707
REMARK INTER + INTRA:          -5.029
REMARK INTER:                  -4.707
REMARK INTRA:                  -0.322
REMARK UNBOUND:                -0.315
REMARK SMILES O=c1c(O)c(-c2ccc(O)c(O)c2)oc2cc(O)cc(O)c12
REMARK SMILES IDX 5 1 3 2 2 3 1 4 22 5 20 6 19 7 17 8 16 9 15 10 14 11 6 12
REMARK SMILES IDX 7 13 8 14 9 15 13 16 11 17 10 18 12 20 4 22 21 24 18 26
REMARK H PARENT 10 19 12 21 4 23 21 25 18 27
REMARK Flexibility Score: inf
ROOT
ATOM      1  C   UNL     1      19.134  34.913  44.515  1.00  0.00     0.180 A 
ATOM      2  C   UNL     1      19.688  36.107  45.008  1.00  0.00     0.208 A 
ATOM      3  C   UNL     1      20.939  36.065  45.645  1.00  0.00     0.238 A 
ATOM      4  O   UNL     1      21.395  37.124  46.150  1.00  0.00    -0.285 OA
ATOM      5  C   UNL     1      21.646  34.841  45.732  1.00  0.00     0.111 A 
ATOM      6  C   UNL     1      22.941  34.690  46.315  1.00  0.00     0.134 A 
ATOM      7  C   UNL     1      23.497  33.411  46.440  1.00  0.00     0.093 A 
ATOM      8  C   UNL     1      22.835  32.285  45.944  1.00  0.00     0.123 A 
ATOM      9  C   UNL     1      21.596  32.429  45.324  1.00  0.00     0.094 A 
ATOM     10  C   UNL     1      20.997  33.687  45.220  1.00  0.00     0.146 A 
ATOM     11  O   UNL     1      19.807  33.775  44.640  1.00  0.00    -0.452 OA
ENDROOT
BRANCH   1  12
ATOM     12  C   UNL     1      17.815  34.874  43.845  1.00  0.00     0.025 A 
ATOM     13  C   UNL     1      16.657  34.673  44.612  1.00  0.00     0.016 A 
ATOM     14  C   UNL     1      15.399  34.653  44.003  1.00  0.00     0.051 A 
ATOM     15  C   UNL     1      15.280  34.852  42.621  1.00  0.00     0.157 A 
ATOM     16  C   UNL     1      17.689  35.094  42.461  1.00  0.00     0.062 A 
ATOM     17  C   UNL     1      16.431  35.078  41.848  1.00  0.00     0.158 A 
BRANCH  15  18
ATOM     18  O   UNL     1      14.024  34.830  42.015  1.00  0.00    -0.504 OA
ATOM     19  H   UNL     1      13.856  34.309  41.163  1.00  0.00     0.293 HD
ENDBRANCH  15  18
BRANCH  17  20
ATOM     20  O   UNL     1      16.345  35.293  40.473  1.00  0.00    -0.504 OA
ATOM     21  H   UNL     1      17.167  35.431  39.897  1.00  0.00     0.293 HD
ENDBRANCH  17  20
ENDBRANCH   1  12
BRANCH   2  22
ATOM     22  O   UNL     1      19.010  37.317  44.845  1.00  0.00    -0.502 OA
ATOM     23  H   UNL     1      19.468  38.216  44.941  1.00  0.00     0.293 HD
ENDBRANCH   2  22
BRANCH   6  24
ATOM     24  O   UNL     1      23.728  35.756  46.762  1.00  0.00    -0.507 OA
ATOM     25  H   UNL     1      24.122  35.835  47.687  1.00  0.00     0.293 HD
ENDBRANCH   6  24
BRANCH   8  26
ATOM     26  O   UNL     1      23.404  31.019  46.057  1.00  0.00    -0.508 OA
ATOM     27  H   UNL     1      23.091  30.244  45.484  1.00  0.00     0.293 HD
ENDBRANCH   8  26
TORSDOF 6
ENDMDL
MODEL 8
REMARK VINA RESULT:    -3.892      1.396      3.108
REMARK INTER + INTRA:          -5.003
REMARK INTER:                  -4.679
REMARK INTRA:                  -0.323
REMARK UNBOUND:                -0.315
REMARK SMILES O=c1c(O)c(-c2ccc(O)c(O)c2)oc2cc(O)cc(O)c12
REMARK SMILES IDX 5 1 3 2 2 3 1 4 22 5 20 6 19 7 17 8 16 9 15 10 14 11 6 12
REMARK SMILES IDX 7 13 8 14 9 15 13 16 11 17 10 18 12 20 4 22 21 24 18 26
REMARK H PARENT 10 19 12 21 4 23 21 25 18 27
REMARK Flexibility Score: inf
ROOT
ATOM      1  C   UNL     1      20.083  34.223  43.195  1.00  0.00     0.180 A 
ATOM      2  C   UNL     1      19.182  35.174  43.703  1.00  0.00     0.208 A 
ATOM      3  C   UNL     1      19.547  35.921  44.835  1.00  0.00     0.238 A 
ATOM      4  O   UNL     1      18.706  36.717  45.329  1.00  0.00    -0.285 OA
ATOM      5  C   UNL     1      20.829  35.748  45.412  1.00  0.00     0.111 A 
ATOM      6  C   UNL     1      21.322  36.482  46.533  1.00  0.00     0.134 A 
ATOM      7  C   UNL     1      22.566  36.150  47.083  1.00  0.00     0.093 A 
ATOM      8  C   UNL     1      23.364  35.155  46.513  1.00  0.00     0.123 A 
ATOM      9  C   UNL     1      22.916  34.470  45.386  1.00  0.00     0.094 A 
ATOM     10  C   UNL     1      21.662  34.752  44.838  1.00  0.00     0.146 A 
ATOM     11  O   UNL     1      21.266  34.060  43.776  1.00  0.00    -0.452 OA
ENDROOT
BRANCH   1  12
ATOM     12  C   UNL     1      19.766  33.388  42.014  1.00  0.00     0.025 A 
ATOM     13  C   UNL     1      19.108  32.161  42.193  1.00  0.00     0.016 A 
ATOM     14  C   UNL     1      18.780  31.368  41.091  1.00  0.00     0.051 A 
ATOM     15  C   UNL     1      19.089  31.796  39.793  1.00  0.00     0.157 A 
ATOM     16  C   UNL     1      20.056  33.826  40.708  1.00  0.00     0.062 A 
ATOM     17  C   UNL     1      19.726  33.034  39.602  1.00  0.00     0.158 A 
BRANCH  15  18
ATOM     18  O   UNL     1      18.762  31.001  38.695  1.00  0.00    -0.504 OA
ATOM     19  H   UNL     1      19.452  30.414  38.241  1.00  0.00     0.293 HD
ENDBRANCH  15  18
BRANCH  17  20
ATOM     20  O   UNL     1      20.034  33.496  38.323  1.00  0.00    -0.504 OA
ATOM     21  H   UNL     1      19.523  33.191  37.503  1.00  0.00     0.293 HD
ENDBRANCH  17  20
ENDBRANCH   1  12
BRANCH   2  22
ATOM     22  O   UNL     1      17.953  35.384  43.074  1.00  0.00    -0.502 OA
ATOM     23  H   UNL     1      17.169  35.822  43.544  1.00  0.00     0.293 HD
ENDBRANCH   2  22
BRANCH   6  24
ATOM     24  O   UNL     1      20.647  37.554  47.125  1.00  0.00    -0.507 OA
ATOM     25  H   UNL     1      19.749  37.906  46.829  1.00  0.00     0.293 HD
ENDBRANCH   6  24
BRANCH   8  26
ATOM     26  O   UNL     1      24.608  34.843  47.056  1.00  0.00    -0.508 OA
ATOM     27  H   UNL     1      24.699  34.220  47.850  1.00  0.00     0.293 HD
ENDBRANCH   8  26
TORSDOF 6
ENDMDL
MODEL 9
REMARK VINA RESULT:    -3.877      4.823      7.664
REMARK INTER + INTRA:          -4.986
REMARK INTER:                  -4.653
REMARK INTRA:                  -0.333
REMARK UNBOUND:                -0.315
REMARK SMILES O=c1c(O)c(-c2ccc(O)c(O)c2)oc2cc(O)cc(O)c12
REMARK SMILES IDX 5 1 3 2 2 3 1 4 22 5 20 6 19 7 17 8 16 9 15 10 14 11 6 12
REMARK SMILES IDX 7 13 8 14 9 15 13 16 11 17 10 18 12 20 4 22 21 24 18 26
REMARK H PARENT 10 19 12 21 4 23 21 25 18 27
REMARK Flexibility Score: inf
ROOT
ATOM      1  C   UNL     1      17.773  35.171  44.448  1.00  0.00     0.180 A 
ATOM      2  C   UNL     1      17.649  34.786  43.102  1.00  0.00     0.208 A 
ATOM      3  C   UNL     1      16.425  34.263  42.654  1.00  0.00     0.238 A 
ATOM      4  O   UNL     1      16.343  33.851  41.468  1.00  0.00    -0.285 OA
ATOM      5  C   UNL     1      15.324  34.186  43.541  1.00  0.00     0.111 A 
ATOM      6  C   UNL     1      14.024  33.716  43.183  1.00  0.00     0.134 A 
ATOM      7  C   UNL     1      13.040  33.583  44.172  1.00  0.00     0.093 A 
ATOM      8  C   UNL     1      13.290  33.966  45.493  1.00  0.00     0.123 A 
ATOM      9  C   UNL     1      14.538  34.477  45.840  1.00  0.00     0.094 A 
ATOM     10  C   UNL     1      15.552  34.584  44.884  1.00  0.00     0.146 A 
ATOM     11  O   UNL     1      16.732  35.057  45.264  1.00  0.00    -0.452 OA
ENDROOT
BRANCH   1  12
ATOM     12  C   UNL     1      19.035  35.717  44.998  1.00  0.00     0.025 A 
ATOM     13  C   UNL     1      19.215  37.108  45.062  1.00  0.00     0.016 A 
ATOM     14  C   UNL     1      20.388  37.645  45.597  1.00  0.00     0.051 A 
ATOM     15  C   UNL     1      21.391  36.801  46.092  1.00  0.00     0.157 A 
ATOM     16  C   UNL     1      20.035  34.873  45.514  1.00  0.00     0.062 A 
ATOM     17  C   UNL     1      21.210  35.408  46.053  1.00  0.00     0.158 A 
BRANCH  15  18
ATOM     18  O   UNL     1      22.563  37.339  46.623  1.00  0.00    -0.504 OA
ATOM     19  H   UNL     1      22.566  38.233  47.101  1.00  0.00     0.293 HD
ENDBRANCH  15  18
BRANCH  17  20
ATOM     20  O   UNL     1      22.184  34.541  46.550  1.00  0.00    -0.504 OA
ATOM     21  H   UNL     1      22.750  34.773  47.357  1.00  0.00     0.293 HD
ENDBRANCH  17  20
ENDBRANCH   1  12
BRANCH   2  22
ATOM     22  O   UNL     1      18.724  34.941  42.224  1.00  0.00    -0.502 OA
ATOM     23  H   UNL     1      19.354  35.733  42.269  1.00  0.00     0.293 HD
ENDBRANCH   2  22
BRANCH   6  24
ATOM     24  O   UNL     1      13.640  33.391  41.879  1.00  0.00    -0.507 OA
ATOM     25  H   UNL     1      13.289  32.491  41.587  1.00  0.00     0.293 HD
ENDBRANCH   6  24
BRANCH   8  26
ATOM     26  O   UNL     1      12.301  33.847  46.466  1.00  0.00    -0.508 OA
ATOM     27  H   UNL     1      11.783  34.653  46.796  1.00  0.00     0.293 HD
ENDBRANCH   8  26
TORSDOF 6
ENDMDL
