MODEL 1
REMARK VINA RESULT:    -3.917      0.000      0.000
REMARK INTER + INTRA:          -4.543
REMARK INTER:                  -4.833
REMARK INTRA:                   0.290
REMARK UNBOUND:                 0.290
REMARK SMILES Oc1cc(O)c2cc(O)c(-c3cc(O)c(O)c(O)c3)[o+]c2c1.[Cl-]
REMARK SMILES IDX 10 1 20 2 21 3 22 4 2 5 3 6 4 7 6 8 7 9 8 10 11 11 12 12
REMARK SMILES IDX 13 13 19 14 15 15 17 16 14 17 16 19 18 21 9 23 1 25 5 27
REMARK H PARENT 14 18 16 20 18 22 9 24 1 26 5 28
REMARK Flexibility Score: inf
ROOT
ATOM      1  C   UNL     1      47.824  47.054  41.751  1.00  0.00     0.402 A 
ATOM      2  O   UNL     1      48.745  47.954  41.416  1.00  0.00    -0.202 OA
ATOM      3  C   UNL     1      50.051  47.740  41.531  1.00  0.00     0.368 A 
ATOM      4  C   UNL     1      50.942  48.746  41.150  1.00  0.00     0.162 A 
ATOM      5  C   UNL     1      52.322  48.545  41.258  1.00  0.00     0.128 A 
ATOM      6  C   UNL     1      52.811  47.333  41.748  1.00  0.00     0.093 A 
ATOM      7  C   UNL     1      51.940  46.308  42.137  1.00  0.00     0.136 A 
ATOM      8  C   UNL     1      50.539  46.508  42.032  1.00  0.00     0.125 A 
ATOM      9  C   UNL     1      49.590  45.543  42.410  1.00  0.00     0.078 A 
ATOM     10  C   UNL     1      48.225  45.814  42.281  1.00  0.00     0.223 A 
ENDROOT
BRANCH   1  11
ATOM     11  C   UNL     1      46.399  47.409  41.566  1.00  0.00     0.091 A 
ATOM     12  C   UNL     1      45.397  46.424  41.536  1.00  0.00     0.068 A 
ATOM     13  C   UNL     1      44.055  46.777  41.338  1.00  0.00     0.162 A 
ATOM     14  C   UNL     1      46.042  48.751  41.361  1.00  0.00     0.068 A 
ATOM     15  C   UNL     1      43.706  48.127  41.156  1.00  0.00     0.200 A 
ATOM     16  C   UNL     1      44.706  49.113  41.164  1.00  0.00     0.162 A 
BRANCH  13  17
ATOM     17  O   UNL     1      43.069  45.792  41.316  1.00  0.00    -0.504 OA
ATOM     18  H   UNL     1      42.617  45.473  42.165  1.00  0.00     0.293 HD
ENDBRANCH  13  17
BRANCH  15  19
ATOM     19  O   UNL     1      42.374  48.496  40.963  1.00  0.00    -0.502 OA
ATOM     20  H   UNL     1      41.823  48.934  41.691  1.00  0.00     0.293 HD
ENDBRANCH  15  19
BRANCH  16  21
ATOM     21  O   UNL     1      44.392  50.459  40.979  1.00  0.00    -0.504 OA
ATOM     22  H   UNL     1      44.623  51.166  41.666  1.00  0.00     0.293 HD
ENDBRANCH  16  21
ENDBRANCH   1  11
BRANCH  10  23
ATOM     23  O   UNL     1      47.283  44.875  42.702  1.00  0.00    -0.500 OA
ATOM     24  H   UNL     1      47.550  44.051  43.227  1.00  0.00     0.294 HD
ENDBRANCH  10  23
BRANCH   5  25
ATOM     25  O   UNL     1      53.216  49.545  40.880  1.00  0.00    -0.507 OA
ATOM     26  H   UNL     1      53.148  50.485  41.254  1.00  0.00     0.293 HD
ENDBRANCH   5  25
BRANCH   7  27
ATOM     27  O   UNL     1      52.510  45.124  42.614  1.00  0.00    -0.507 OA
ATOM     28  H   UNL     1      53.063  45.057  43.456  1.00  0.00     0.293 HD
ENDBRANCH   7  27
TORSDOF 7
ENDMDL
MODEL 2
REMARK VINA RESULT:    -3.103      0.172      1.790
REMARK INTER + INTRA:          -3.539
REMARK INTER:                  -3.815
REMARK INTRA:                   0.276
REMARK UNBOUND:                 0.290
REMARK SMILES Oc1cc(O)c2cc(O)c(-c3cc(O)c(O)c(O)c3)[o+]c2c1.[Cl-]
REMARK SMILES IDX 10 1 20 2 21 3 22 4 2 5 3 6 4 7 6 8 7 9 8 10 11 11 12 12
REMARK SMILES IDX 13 13 19 14 15 15 17 16 14 17 16 19 18 21 9 23 1 25 5 27
REMARK H PARENT 14 18 16 20 18 22 9 24 1 26 5 28
REMARK Flexibility Score: inf
ROOT
ATOM      1  C   UNL     1      47.823  47.065  41.760  1.00  0.00     0.402 A 
ATOM      2  O   UNL     1      48.755  47.952  41.419  1.00  0.00    -0.202 OA
ATOM      3  C   UNL     1      50.058  47.724  41.536  1.00  0.00     0.368 A 
ATOM      4  C   UNL     1      50.961  48.717  41.150  1.00  0.00     0.162 A 
ATOM      5  C   UNL     1      52.338  48.502  41.259  1.00  0.00     0.128 A 
ATOM      6  C   UNL     1      52.814  47.287  41.757  1.00  0.00     0.093 A 
ATOM      7  C   UNL     1      51.931  46.275  42.152  1.00  0.00     0.136 A 
ATOM      8  C   UNL     1      50.532  46.489  42.045  1.00  0.00     0.125 A 
ATOM      9  C   UNL     1      49.573  45.538  42.429  1.00  0.00     0.078 A 
ATOM     10  C   UNL     1      48.210  45.824  42.299  1.00  0.00     0.223 A 
ENDROOT
BRANCH   1  11
ATOM     11  C   UNL     1      46.403  47.435  41.572  1.00  0.00     0.091 A 
ATOM     12  C   UNL     1      45.983  48.775  41.620  1.00  0.00     0.068 A 
ATOM     13  C   UNL     1      44.629  49.105  41.461  1.00  0.00     0.162 A 
ATOM     14  C   UNL     1      45.443  46.425  41.398  1.00  0.00     0.068 A 
ATOM     15  C   UNL     1      43.679  48.087  41.266  1.00  0.00     0.200 A 
ATOM     16  C   UNL     1      44.091  46.744  41.239  1.00  0.00     0.162 A 
BRANCH  13  17
ATOM     17  O   UNL     1      44.226  50.438  41.504  1.00  0.00    -0.504 OA
ATOM     18  H   UNL     1      44.670  51.147  40.932  1.00  0.00     0.293 HD
ENDBRANCH  13  17
BRANCH  15  19
ATOM     19  O   UNL     1      42.329  48.398  41.101  1.00  0.00    -0.502 OA
ATOM     20  H   UNL     1      42.005  49.042  40.390  1.00  0.00     0.293 HD
ENDBRANCH  15  19
BRANCH  16  21
ATOM     21  O   UNL     1      43.171  45.712  41.054  1.00  0.00    -0.504 OA
ATOM     22  H   UNL     1      42.633  45.327  41.820  1.00  0.00     0.293 HD
ENDBRANCH  16  21
ENDBRANCH   1  11
BRANCH  10  23
ATOM     23  O   UNL     1      47.258  44.898  42.725  1.00  0.00    -0.500 OA
ATOM     24  H   UNL     1      46.656  44.413  42.071  1.00  0.00     0.294 HD
ENDBRANCH  10  23
BRANCH   5  25
ATOM     25  O   UNL     1      53.244  49.489  40.875  1.00  0.00    -0.507 OA
ATOM     26  H   UNL     1      54.016  49.285  40.251  1.00  0.00     0.293 HD
ENDBRANCH   5  25
BRANCH   7  27
ATOM     27  O   UNL     1      52.487  45.088  42.638  1.00  0.00    -0.507 OA
ATOM     28  H   UNL     1      51.963  44.244  42.816  1.00  0.00     0.293 HD
ENDBRANCH   7  27
TORSDOF 7
ENDMDL
MODEL 3
REMARK VINA RESULT:    -2.215      1.592      7.153
REMARK INTER + INTRA:          -2.443
REMARK INTER:                  -2.063
REMARK INTRA:                  -0.380
REMARK UNBOUND:                 0.290
REMARK SMILES Oc1cc(O)c2cc(O)c(-c3cc(O)c(O)c(O)c3)[o+]c2c1.[Cl-]
REMARK SMILES IDX 10 1 20 2 21 3 22 4 2 5 3 6 4 7 6 8 7 9 8 10 11 11 12 12
REMARK SMILES IDX 13 13 19 14 15 15 17 16 14 17 16 19 18 21 9 23 1 25 5 27
REMARK H PARENT 14 18 16 20 18 22 9 24 1 26 5 28
REMARK Flexibility Score: inf
ROOT
ATOM      1  C   UNL     1      47.566  46.946  42.163  1.00  0.00     0.402 A 
ATOM      2  O   UNL     1      46.887  47.995  42.620  1.00  0.00    -0.202 OA
ATOM      3  C   UNL     1      45.581  48.156  42.439  1.00  0.00     0.368 A 
ATOM      4  C   UNL     1      44.956  49.291  42.960  1.00  0.00     0.162 A 
ATOM      5  C   UNL     1      43.582  49.483  42.787  1.00  0.00     0.128 A 
ATOM      6  C   UNL     1      42.831  48.535  42.089  1.00  0.00     0.093 A 
ATOM      7  C   UNL     1      43.432  47.388  41.557  1.00  0.00     0.136 A 
ATOM      8  C   UNL     1      44.827  47.190  41.728  1.00  0.00     0.125 A 
ATOM      9  C   UNL     1      45.518  46.078  41.218  1.00  0.00     0.078 A 
ATOM     10  C   UNL     1      46.896  45.954  41.423  1.00  0.00     0.223 A 
ENDROOT
BRANCH   1  11
ATOM     11  C   UNL     1      49.018  46.877  42.439  1.00  0.00     0.091 A 
ATOM     12  C   UNL     1      49.960  47.411  41.543  1.00  0.00     0.068 A 
ATOM     13  C   UNL     1      51.333  47.318  41.811  1.00  0.00     0.162 A 
ATOM     14  C   UNL     1      49.472  46.216  43.591  1.00  0.00     0.068 A 
ATOM     15  C   UNL     1      51.776  46.673  42.979  1.00  0.00     0.200 A 
ATOM     16  C   UNL     1      50.839  46.118  43.868  1.00  0.00     0.162 A 
BRANCH  13  17
ATOM     17  O   UNL     1      52.257  47.857  40.918  1.00  0.00    -0.504 OA
ATOM     18  H   UNL     1      53.237  47.598  40.946  1.00  0.00     0.293 HD
ENDBRANCH  13  17
BRANCH  15  19
ATOM     19  O   UNL     1      53.138  46.575  43.264  1.00  0.00    -0.502 OA
ATOM     20  H   UNL     1      53.584  47.141  43.975  1.00  0.00     0.293 HD
ENDBRANCH  15  19
BRANCH  16  21
ATOM     21  O   UNL     1      51.248  45.466  45.031  1.00  0.00    -0.504 OA
ATOM     22  H   UNL     1      50.774  45.596  45.916  1.00  0.00     0.293 HD
ENDBRANCH  16  21
ENDBRANCH   1  11
BRANCH  10  23
ATOM     23  O   UNL     1      47.590  44.875  40.875  1.00  0.00    -0.500 OA
ATOM     24  H   UNL     1      47.133  44.195  40.279  1.00  0.00     0.294 HD
ENDBRANCH  10  23
BRANCH   5  25
ATOM     25  O   UNL     1      42.953  50.614  43.303  1.00  0.00    -0.507 OA
ATOM     26  H   UNL     1      42.947  51.493  42.800  1.00  0.00     0.293 HD
ENDBRANCH   5  25
BRANCH   7  27
ATOM     27  O   UNL     1      42.610  46.486  40.875  1.00  0.00    -0.507 OA
ATOM     28  H   UNL     1      42.202  45.662  41.289  1.00  0.00     0.293 HD
ENDBRANCH   7  27
TORSDOF 7
ENDMDL
MODEL 4
REMARK VINA RESULT:    -2.066      0.980      6.833
REMARK INTER + INTRA:          -2.260
REMARK INTER:                  -2.645
REMARK INTRA:                   0.385
REMARK UNBOUND:                 0.290
REMARK SMILES Oc1cc(O)c2cc(O)c(-c3cc(O)c(O)c(O)c3)[o+]c2c1.[Cl-]
REMARK SMILES IDX 10 1 20 2 21 3 22 4 2 5 3 6 4 7 6 8 7 9 8 10 11 11 12 12
REMARK SMILES IDX 13 13 19 14 15 15 17 16 14 17 16 19 18 21 9 23 1 25 5 27
REMARK H PARENT 14 18 16 20 18 22 9 24 1 26 5 28
REMARK Flexibility Score: inf
ROOT
ATOM      1  C   UNL     1      48.187  47.295  41.463  1.00  0.00     0.402 A 
ATOM      2  O   UNL     1      47.545  48.441  41.248  1.00  0.00    -0.202 OA
ATOM      3  C   UNL     1      46.223  48.560  41.302  1.00  0.00     0.368 A 
ATOM      4  C   UNL     1      45.641  49.807  41.063  1.00  0.00     0.162 A 
ATOM      5  C   UNL     1      44.253  49.960  41.118  1.00  0.00     0.128 A 
ATOM      6  C   UNL     1      43.444  48.861  41.413  1.00  0.00     0.093 A 
ATOM      7  C   UNL     1      44.001  47.600  41.657  1.00  0.00     0.136 A 
ATOM      8  C   UNL     1      45.410  47.439  41.600  1.00  0.00     0.125 A 
ATOM      9  C   UNL     1      46.056  46.210  41.816  1.00  0.00     0.078 A 
ATOM     10  C   UNL     1      47.450  46.128  41.739  1.00  0.00     0.223 A 
ENDROOT
BRANCH   1  11
ATOM     11  C   UNL     1      49.665  47.294  41.383  1.00  0.00     0.091 A 
ATOM     12  C   UNL     1      50.408  46.116  41.575  1.00  0.00     0.068 A 
ATOM     13  C   UNL     1      51.808  46.139  41.517  1.00  0.00     0.162 A 
ATOM     14  C   UNL     1      50.345  48.502  41.167  1.00  0.00     0.068 A 
ATOM     15  C   UNL     1      52.479  47.351  41.278  1.00  0.00     0.200 A 
ATOM     16  C   UNL     1      51.742  48.535  41.107  1.00  0.00     0.162 A 
BRANCH  13  17
ATOM     17  O   UNL     1      52.534  44.964  41.703  1.00  0.00    -0.504 OA
ATOM     18  H   UNL     1      52.130  44.158  42.167  1.00  0.00     0.293 HD
ENDBRANCH  13  17
BRANCH  15  19
ATOM     19  O   UNL     1      53.873  47.390  41.212  1.00  0.00    -0.502 OA
ATOM     20  H   UNL     1      54.368  48.066  40.644  1.00  0.00     0.293 HD
ENDBRANCH  15  19
BRANCH  16  21
ATOM     21  O   UNL     1      52.380  49.753  40.875  1.00  0.00    -0.504 OA
ATOM     22  H   UNL     1      53.252  49.999  41.327  1.00  0.00     0.293 HD
ENDBRANCH  16  21
ENDBRANCH   1  11
BRANCH  10  23
ATOM     23  O   UNL     1      48.088  44.899  41.905  1.00  0.00    -0.500 OA
ATOM     24  H   UNL     1      47.923  44.319  42.719  1.00  0.00     0.294 HD
ENDBRANCH  10  23
BRANCH   5  25
ATOM     25  O   UNL     1      43.666  51.201  40.880  1.00  0.00    -0.507 OA
ATOM     26  H   UNL     1      43.779  51.973  41.527  1.00  0.00     0.293 HD
ENDBRANCH   5  25
BRANCH   7  27
ATOM     27  O   UNL     1      43.123  46.552  41.947  1.00  0.00    -0.507 OA
ATOM     28  H   UNL     1      43.144  45.649  41.498  1.00  0.00     0.293 HD
ENDBRANCH   7  27
TORSDOF 7
ENDMDL
MODEL 5
REMARK VINA RESULT:    -1.986     22.671     24.444
REMARK INTER + INTRA:          -2.161
REMARK INTER:                  -2.185
REMARK INTRA:                   0.024
REMARK UNBOUND:                 0.290
REMARK SMILES Oc1cc(O)c2cc(O)c(-c3cc(O)c(O)c(O)c3)[o+]c2c1.[Cl-]
REMARK SMILES IDX 10 1 20 2 21 3 22 4 2 5 3 6 4 7 6 8 7 9 8 10 11 11 12 12
REMARK SMILES IDX 13 13 19 14 15 15 17 16 14 17 16 19 18 21 9 23 1 25 5 27
REMARK H PARENT 14 18 16 20 18 22 9 24 1 26 5 28
REMARK Flexibility Score: inf
ROOT
ATOM      1  C   UNL     1      40.879  64.429  57.791  1.00  0.00     0.402 A 
ATOM      2  O   UNL     1      41.072  64.339  56.478  1.00  0.00    -0.202 OA
ATOM      3  C   UNL     1      42.262  64.477  55.903  1.00  0.00     0.368 A 
ATOM      4  C   UNL     1      42.365  64.363  54.514  1.00  0.00     0.162 A 
ATOM      5  C   UNL     1      43.605  64.501  53.885  1.00  0.00     0.128 A 
ATOM      6  C   UNL     1      44.747  64.754  54.647  1.00  0.00     0.093 A 
ATOM      7  C   UNL     1      44.672  64.872  56.040  1.00  0.00     0.136 A 
ATOM      8  C   UNL     1      43.415  64.735  56.684  1.00  0.00     0.125 A 
ATOM      9  C   UNL     1      43.242  64.853  58.073  1.00  0.00     0.078 A 
ATOM     10  C   UNL     1      41.969  64.710  58.636  1.00  0.00     0.223 A 
ENDROOT
BRANCH   1  11
ATOM     11  C   UNL     1      39.506  64.245  58.311  1.00  0.00     0.091 A 
ATOM     12  C   UNL     1      39.260  63.517  59.488  1.00  0.00     0.068 A 
ATOM     13  C   UNL     1      37.950  63.336  59.954  1.00  0.00     0.162 A 
ATOM     14  C   UNL     1      38.419  64.760  57.588  1.00  0.00     0.068 A 
ATOM     15  C   UNL     1      36.870  63.874  59.233  1.00  0.00     0.200 A 
ATOM     16  C   UNL     1      37.109  64.585  58.045  1.00  0.00     0.162 A 
BRANCH  13  17
ATOM     17  O   UNL     1      37.719  62.616  61.125  1.00  0.00    -0.504 OA
ATOM     18  H   UNL     1      38.190  61.739  61.312  1.00  0.00     0.293 HD
ENDBRANCH  13  17
BRANCH  15  19
ATOM     19  O   UNL     1      35.560  63.707  59.685  1.00  0.00    -0.502 OA
ATOM     20  H   UNL     1      34.875  63.169  59.169  1.00  0.00     0.293 HD
ENDBRANCH  15  19
BRANCH  16  21
ATOM     21  O   UNL     1      36.058  65.125  57.305  1.00  0.00    -0.504 OA
ATOM     22  H   UNL     1      35.155  65.323  57.717  1.00  0.00     0.293 HD
ENDBRANCH  16  21
ENDBRANCH   1  11
BRANCH  10  23
ATOM     23  O   UNL     1      41.789  64.874  60.009  1.00  0.00    -0.500 OA
ATOM     24  H   UNL     1      41.415  65.731  60.398  1.00  0.00     0.294 HD
ENDBRANCH  10  23
BRANCH   5  25
ATOM     25  O   UNL     1      43.715  64.389  52.500  1.00  0.00    -0.507 OA
ATOM     26  H   UNL     1      43.053  64.839  51.879  1.00  0.00     0.293 HD
ENDBRANCH   5  25
BRANCH   7  27
ATOM     27  O   UNL     1      45.862  65.123  56.731  1.00  0.00    -0.507 OA
ATOM     28  H   UNL     1      45.910  65.414  57.696  1.00  0.00     0.293 HD
ENDBRANCH   7  27
TORSDOF 7
ENDMDL
MODEL 6
REMARK VINA RESULT:    -1.167     23.073     24.764
REMARK INTER + INTRA:          -1.150
REMARK INTER:                  -1.610
REMARK INTRA:                   0.460
REMARK UNBOUND:                 0.290
REMARK SMILES Oc1cc(O)c2cc(O)c(-c3cc(O)c(O)c(O)c3)[o+]c2c1.[Cl-]
REMARK SMILES IDX 10 1 20 2 21 3 22 4 2 5 3 6 4 7 6 8 7 9 8 10 11 11 12 12
REMARK SMILES IDX 13 13 19 14 15 15 17 16 14 17 16 19 18 21 9 23 1 25 5 27
REMARK H PARENT 14 18 16 20 18 22 9 24 1 26 5 28
REMARK Flexibility Score: inf
ROOT
ATOM      1  C   UNL     1      41.255  65.056  57.193  1.00  0.00     0.402 A 
ATOM      2  O   UNL     1      42.308  64.998  58.005  1.00  0.00    -0.202 OA
ATOM      3  C   UNL     1      43.564  64.998  57.574  1.00  0.00     0.368 A 
ATOM      4  C   UNL     1      44.604  64.938  58.504  1.00  0.00     0.162 A 
ATOM      5  C   UNL     1      45.935  64.939  58.077  1.00  0.00     0.128 A 
ATOM      6  C   UNL     1      46.226  65.001  56.713  1.00  0.00     0.093 A 
ATOM      7  C   UNL     1      45.203  65.063  55.759  1.00  0.00     0.136 A 
ATOM      8  C   UNL     1      43.850  65.059  56.188  1.00  0.00     0.125 A 
ATOM      9  C   UNL     1      42.760  65.103  55.303  1.00  0.00     0.078 A 
ATOM     10  C   UNL     1      41.453  65.092  55.801  1.00  0.00     0.223 A 
ENDROOT
BRANCH   1  11
ATOM     11  C   UNL     1      39.904  65.060  57.798  1.00  0.00     0.091 A 
ATOM     12  C   UNL     1      39.724  64.978  59.190  1.00  0.00     0.068 A 
ATOM     13  C   UNL     1      38.436  64.962  59.743  1.00  0.00     0.162 A 
ATOM     14  C   UNL     1      38.774  65.091  56.965  1.00  0.00     0.068 A 
ATOM     15  C   UNL     1      37.312  65.015  58.901  1.00  0.00     0.200 A 
ATOM     16  C   UNL     1      37.486  65.076  57.508  1.00  0.00     0.162 A 
BRANCH  13  17
ATOM     17  O   UNL     1      38.271  64.886  61.125  1.00  0.00    -0.504 OA
ATOM     18  H   UNL     1      38.165  65.718  61.694  1.00  0.00     0.293 HD
ENDBRANCH  13  17
BRANCH  15  19
ATOM     19  O   UNL     1      36.023  65.004  59.436  1.00  0.00    -0.502 OA
ATOM     20  H   UNL     1      35.517  64.145  59.610  1.00  0.00     0.293 HD
ENDBRANCH  15  19
BRANCH  16  21
ATOM     21  O   UNL     1      36.390  65.122  56.647  1.00  0.00    -0.504 OA
ATOM     22  H   UNL     1      36.394  65.677  55.800  1.00  0.00     0.293 HD
ENDBRANCH  16  21
ENDBRANCH   1  11
BRANCH  10  23
ATOM     23  O   UNL     1      40.370  65.086  54.921  1.00  0.00    -0.500 OA
ATOM     24  H   UNL     1      39.556  64.505  55.082  1.00  0.00     0.294 HD
ENDBRANCH  10  23
BRANCH   5  25
ATOM     25  O   UNL     1      46.977  64.879  59.000  1.00  0.00    -0.507 OA
ATOM     26  H   UNL     1      46.890  64.355  59.863  1.00  0.00     0.293 HD
ENDBRANCH   5  25
BRANCH   7  27
ATOM     27  O   UNL     1      45.579  65.125  54.414  1.00  0.00    -0.507 OA
ATOM     28  H   UNL     1      45.276  65.840  53.770  1.00  0.00     0.293 HD
ENDBRANCH   7  27
TORSDOF 7
ENDMDL
MODEL 7
REMARK VINA RESULT:    -1.115     22.155     24.122
REMARK INTER + INTRA:          -1.086
REMARK INTER:                  -0.925
REMARK INTRA:                  -0.162
REMARK UNBOUND:                 0.290
REMARK SMILES Oc1cc(O)c2cc(O)c(-c3cc(O)c(O)c(O)c3)[o+]c2c1.[Cl-]
REMARK SMILES IDX 10 1 20 2 21 3 22 4 2 5 3 6 4 7 6 8 7 9 8 10 11 11 12 12
REMARK SMILES IDX 13 13 19 14 15 15 17 16 14 17 16 19 18 21 9 23 1 25 5 27
REMARK H PARENT 14 18 16 20 18 22 9 24 1 26 5 28
REMARK Flexibility Score: inf
ROOT
ATOM      1  C   UNL     1      45.066  64.067  57.808  1.00  0.00     0.402 A 
ATOM      2  O   UNL     1      45.184  64.029  56.483  1.00  0.00    -0.202 OA
ATOM      3  C   UNL     1      44.173  64.260  55.653  1.00  0.00     0.368 A 
ATOM      4  C   UNL     1      44.396  64.199  54.275  1.00  0.00     0.162 A 
ATOM      5  C   UNL     1      43.350  64.441  53.379  1.00  0.00     0.128 A 
ATOM      6  C   UNL     1      42.076  64.743  53.863  1.00  0.00     0.093 A 
ATOM      7  C   UNL     1      41.825  64.811  55.239  1.00  0.00     0.136 A 
ATOM      8  C   UNL     1      42.883  64.564  56.153  1.00  0.00     0.125 A 
ATOM      9  C   UNL     1      42.722  64.595  57.548  1.00  0.00     0.078 A 
ATOM     10  C   UNL     1      43.811  64.337  58.386  1.00  0.00     0.223 A 
ENDROOT
BRANCH   1  11
ATOM     11  C   UNL     1      46.270  63.803  58.626  1.00  0.00     0.091 A 
ATOM     12  C   UNL     1      47.422  64.601  58.514  1.00  0.00     0.068 A 
ATOM     13  C   UNL     1      48.561  64.322  59.282  1.00  0.00     0.162 A 
ATOM     14  C   UNL     1      46.287  62.699  59.494  1.00  0.00     0.068 A 
ATOM     15  C   UNL     1      48.560  63.227  60.163  1.00  0.00     0.200 A 
ATOM     16  C   UNL     1      47.419  62.413  60.264  1.00  0.00     0.162 A 
BRANCH  13  17
ATOM     17  O   UNL     1      49.694  65.124  59.166  1.00  0.00    -0.504 OA
ATOM     18  H   UNL     1      49.922  65.602  58.301  1.00  0.00     0.293 HD
ENDBRANCH  13  17
BRANCH  15  19
ATOM     19  O   UNL     1      49.684  62.938  60.938  1.00  0.00    -0.502 OA
ATOM     20  H   UNL     1      50.601  62.804  60.531  1.00  0.00     0.293 HD
ENDBRANCH  15  19
BRANCH  16  21
ATOM     21  O   UNL     1      47.390  61.316  61.124  1.00  0.00    -0.504 OA
ATOM     22  H   UNL     1      47.657  61.389  62.098  1.00  0.00     0.293 HD
ENDBRANCH  16  21
ENDBRANCH   1  11
BRANCH  10  23
ATOM     23  O   UNL     1      43.640  64.320  59.770  1.00  0.00    -0.500 OA
ATOM     24  H   UNL     1      43.863  65.124  60.344  1.00  0.00     0.294 HD
ENDBRANCH  10  23
BRANCH   5  25
ATOM     25  O   UNL     1      43.566  64.381  52.004  1.00  0.00    -0.507 OA
ATOM     26  H   UNL     1      43.599  63.497  51.510  1.00  0.00     0.293 HD
ENDBRANCH   5  25
BRANCH   7  27
ATOM     27  O   UNL     1      40.524  65.123  55.643  1.00  0.00    -0.507 OA
ATOM     28  H   UNL     1      40.240  65.249  56.603  1.00  0.00     0.293 HD
ENDBRANCH   7  27
TORSDOF 7
ENDMDL
