MODEL 1
REMARK VINA RESULT:    -6.700      0.000      0.000
REMARK INTER + INTRA:          -8.361
REMARK INTER:                  -8.070
REMARK INTRA:                  -0.291
REMARK UNBOUND:                -0.291
REMARK SMILES O=c1c(O)c(-c2ccc(O)c(O)c2)oc2cc(O)cc(O)c12
REMARK SMILES IDX 5 1 3 2 2 3 1 4 22 5 20 6 19 7 17 8 16 9 15 10 14 11 6 12
REMARK SMILES IDX 7 13 8 14 9 15 13 16 11 17 10 18 12 20 4 22 21 24 18 26
REMARK H PARENT 10 19 12 21 4 23 21 25 18 27
REMARK Flexibility Score: inf
ROOT
ATOM      1  C   UNL     1      15.897 -10.146  24.589  1.00  0.00     0.180 A 
ATOM      2  C   UNL     1      16.858  -9.442  23.843  1.00  0.00     0.208 A 
ATOM      3  C   UNL     1      16.513  -8.199  23.288  1.00  0.00     0.238 A 
ATOM      4  O   UNL     1      17.360  -7.599  22.577  1.00  0.00    -0.285 OA
ATOM      5  C   UNL     1      15.217  -7.668  23.499  1.00  0.00     0.111 A 
ATOM      6  C   UNL     1      14.772  -6.401  23.017  1.00  0.00     0.134 A 
ATOM      7  C   UNL     1      13.429  -6.036  23.174  1.00  0.00     0.093 A 
ATOM      8  C   UNL     1      12.531  -6.864  23.851  1.00  0.00     0.123 A 
ATOM      9  C   UNL     1      12.971  -8.076  24.376  1.00  0.00     0.094 A 
ATOM     10  C   UNL     1      14.296  -8.485  24.206  1.00  0.00     0.146 A 
ATOM     11  O   UNL     1      14.670  -9.653  24.713  1.00  0.00    -0.452 OA
ENDROOT
BRANCH   1  12
ATOM     12  C   UNL     1      16.194 -11.449  25.225  1.00  0.00     0.025 A 
ATOM     13  C   UNL     1      16.537 -11.492  26.586  1.00  0.00     0.016 A 
ATOM     14  C   UNL     1      16.841 -12.709  27.201  1.00  0.00     0.051 A 
ATOM     15  C   UNL     1      16.823 -13.899  26.461  1.00  0.00     0.157 A 
ATOM     16  C   UNL     1      16.197 -12.643  24.481  1.00  0.00     0.062 A 
ATOM     17  C   UNL     1      16.505 -13.865  25.098  1.00  0.00     0.158 A 
BRANCH  15  18
ATOM     18  O   UNL     1      17.125 -15.115  27.072  1.00  0.00    -0.504 OA
ATOM     19  H   UNL     1      17.608 -15.853  26.573  1.00  0.00     0.293 HD
ENDBRANCH  15  18
BRANCH  17  20
ATOM     20  O   UNL     1      16.501 -15.049  24.361  1.00  0.00    -0.504 OA
ATOM     21  H   UNL     1      15.717 -15.303  23.770  1.00  0.00     0.293 HD
ENDBRANCH  17  20
ENDBRANCH   1  12
BRANCH   2  22
ATOM     22  O   UNL     1      18.125  -9.993  23.629  1.00  0.00    -0.502 OA
ATOM     23  H   UNL     1      18.310 -10.983  23.729  1.00  0.00     0.293 HD
ENDBRANCH   2  22
BRANCH   6  24
ATOM     24  O   UNL     1      15.608  -5.459  22.409  1.00  0.00    -0.507 OA
ATOM     25  H   UNL     1      15.303  -4.571  22.043  1.00  0.00     0.293 HD
ENDBRANCH   6  24
BRANCH   8  26
ATOM     26  O   UNL     1      11.201  -6.486  24.016  1.00  0.00    -0.508 OA
ATOM     27  H   UNL     1      10.923  -5.511  24.013  1.00  0.00     0.293 HD
ENDBRANCH   8  26
TORSDOF 6
ENDMDL
MODEL 2
REMARK VINA RESULT:    -6.582      2.627      6.673
REMARK INTER + INTRA:          -8.219
REMARK INTER:                  -7.913
REMARK INTRA:                  -0.307
REMARK UNBOUND:                -0.291
REMARK SMILES O=c1c(O)c(-c2ccc(O)c(O)c2)oc2cc(O)cc(O)c12
REMARK SMILES IDX 5 1 3 2 2 3 1 4 22 5 20 6 19 7 17 8 16 9 15 10 14 11 6 12
REMARK SMILES IDX 7 13 8 14 9 15 13 16 11 17 10 18 12 20 4 22 21 24 18 26
REMARK H PARENT 10 19 12 21 4 23 21 25 18 27
REMARK Flexibility Score: inf
ROOT
ATOM      1  C   UNL     1      12.960  -8.640  25.390  1.00  0.00     0.180 A 
ATOM      2  C   UNL     1      13.942  -7.635  25.368  1.00  0.00     0.208 A 
ATOM      3  C   UNL     1      15.274  -7.989  25.095  1.00  0.00     0.238 A 
ATOM      4  O   UNL     1      16.156  -7.094  25.130  1.00  0.00    -0.285 OA
ATOM      5  C   UNL     1      15.603  -9.341  24.832  1.00  0.00     0.111 A 
ATOM      6  C   UNL     1      16.912  -9.808  24.505  1.00  0.00     0.134 A 
ATOM      7  C   UNL     1      17.146 -11.184  24.393  1.00  0.00     0.093 A 
ATOM      8  C   UNL     1      16.107 -12.106  24.533  1.00  0.00     0.123 A 
ATOM      9  C   UNL     1      14.814 -11.656  24.794  1.00  0.00     0.094 A 
ATOM     10  C   UNL     1      14.555 -10.292  24.946  1.00  0.00     0.146 A 
ATOM     11  O   UNL     1      13.311  -9.907  25.205  1.00  0.00    -0.452 OA
ENDROOT
BRANCH   1  12
ATOM     12  C   UNL     1      11.533  -8.341  25.646  1.00  0.00     0.025 A 
ATOM     13  C   UNL     1      10.727  -7.871  24.596  1.00  0.00     0.016 A 
ATOM     14  C   UNL     1       9.383  -7.562  24.820  1.00  0.00     0.051 A 
ATOM     15  C   UNL     1       8.829  -7.703  26.100  1.00  0.00     0.157 A 
ATOM     16  C   UNL     1      10.979  -8.460  26.933  1.00  0.00     0.062 A 
ATOM     17  C   UNL     1       9.630  -8.149  27.159  1.00  0.00     0.158 A 
BRANCH  15  18
ATOM     18  O   UNL     1       7.488  -7.398  26.327  1.00  0.00    -0.504 OA
ATOM     19  H   UNL     1       6.753  -7.773  25.739  1.00  0.00     0.293 HD
ENDBRANCH  15  18
BRANCH  17  20
ATOM     20  O   UNL     1       9.080  -8.275  28.434  1.00  0.00    -0.504 OA
ATOM     21  H   UNL     1       9.147  -9.141  28.956  1.00  0.00     0.293 HD
ENDBRANCH  17  20
ENDBRANCH   1  12
BRANCH   2  22
ATOM     22  O   UNL     1      13.599  -6.310  25.651  1.00  0.00    -0.502 OA
ATOM     23  H   UNL     1      12.756  -5.878  25.293  1.00  0.00     0.293 HD
ENDBRANCH   2  22
BRANCH   6  24
ATOM     24  O   UNL     1      18.000  -8.966  24.254  1.00  0.00    -0.507 OA
ATOM     25  H   UNL     1      18.038  -7.988  24.496  1.00  0.00     0.293 HD
ENDBRANCH   6  24
BRANCH   8  26
ATOM     26  O   UNL     1      16.346 -13.471  24.405  1.00  0.00    -0.508 OA
ATOM     27  H   UNL     1      15.873 -14.029  23.703  1.00  0.00     0.293 HD
ENDBRANCH   8  26
TORSDOF 6
ENDMDL
MODEL 3
REMARK VINA RESULT:    -6.385      1.263      2.905
REMARK INTER + INTRA:          -7.983
REMARK INTER:                  -7.650
REMARK INTRA:                  -0.333
REMARK UNBOUND:                -0.291
REMARK SMILES O=c1c(O)c(-c2ccc(O)c(O)c2)oc2cc(O)cc(O)c12
REMARK SMILES IDX 5 1 3 2 2 3 1 4 22 5 20 6 19 7 17 8 16 9 15 10 14 11 6 12
REMARK SMILES IDX 7 13 8 14 9 15 13 16 11 17 10 18 12 20 4 22 21 24 18 26
REMARK H PARENT 10 19 12 21 4 23 21 25 18 27
REMARK Flexibility Score: inf
ROOT
ATOM      1  C   UNL     1      14.921  -9.993  25.112  1.00  0.00     0.180 A 
ATOM      2  C   UNL     1      13.646  -9.774  25.661  1.00  0.00     0.208 A 
ATOM      3  C   UNL     1      12.923  -8.635  25.271  1.00  0.00     0.238 A 
ATOM      4  O   UNL     1      11.805  -8.417  25.805  1.00  0.00    -0.285 OA
ATOM      5  C   UNL     1      13.477  -7.738  24.326  1.00  0.00     0.111 A 
ATOM      6  C   UNL     1      12.818  -6.573  23.830  1.00  0.00     0.134 A 
ATOM      7  C   UNL     1      13.513  -5.688  22.996  1.00  0.00     0.093 A 
ATOM      8  C   UNL     1      14.822  -5.958  22.591  1.00  0.00     0.123 A 
ATOM      9  C   UNL     1      15.453  -7.122  23.022  1.00  0.00     0.094 A 
ATOM     10  C   UNL     1      14.799  -8.007  23.883  1.00  0.00     0.146 A 
ATOM     11  O   UNL     1      15.442  -9.099  24.279  1.00  0.00    -0.452 OA
ENDROOT
BRANCH   1  12
ATOM     12  C   UNL     1      15.732 -11.183  25.455  1.00  0.00     0.025 A 
ATOM     13  C   UNL     1      16.700 -11.091  26.469  1.00  0.00     0.016 A 
ATOM     14  C   UNL     1      17.491 -12.195  26.794  1.00  0.00     0.051 A 
ATOM     15  C   UNL     1      17.338 -13.403  26.100  1.00  0.00     0.157 A 
ATOM     16  C   UNL     1      15.596 -12.391  24.747  1.00  0.00     0.062 A 
ATOM     17  C   UNL     1      16.391 -13.499  25.073  1.00  0.00     0.158 A 
BRANCH  15  18
ATOM     18  O   UNL     1      18.124 -14.508  26.423  1.00  0.00    -0.504 OA
ATOM     19  H   UNL     1      18.071 -14.947  27.335  1.00  0.00     0.293 HD
ENDBRANCH  15  18
BRANCH  17  20
ATOM     20  O   UNL     1      16.250 -14.698  24.375  1.00  0.00    -0.504 OA
ATOM     21  H   UNL     1      15.881 -14.722  23.432  1.00  0.00     0.293 HD
ENDBRANCH  17  20
ENDBRANCH   1  12
BRANCH   2  22
ATOM     22  O   UNL     1      13.126 -10.661  26.607  1.00  0.00    -0.502 OA
ATOM     23  H   UNL     1      12.144 -10.679  26.853  1.00  0.00     0.293 HD
ENDBRANCH   2  22
BRANCH   6  24
ATOM     24  O   UNL     1      11.482  -6.259  24.099  1.00  0.00    -0.507 OA
ATOM     25  H   UNL     1      10.745  -6.243  23.411  1.00  0.00     0.293 HD
ENDBRANCH   6  24
BRANCH   8  26
ATOM     26  O   UNL     1      15.500  -5.080  21.749  1.00  0.00    -0.508 OA
ATOM     27  H   UNL     1      15.956  -5.402  20.903  1.00  0.00     0.293 HD
ENDBRANCH   8  26
TORSDOF 6
ENDMDL
MODEL 4
REMARK VINA RESULT:    -6.157      6.271     10.145
REMARK INTER + INTRA:          -7.707
REMARK INTER:                  -7.395
REMARK INTRA:                  -0.312
REMARK UNBOUND:                -0.291
REMARK SMILES O=c1c(O)c(-c2ccc(O)c(O)c2)oc2cc(O)cc(O)c12
REMARK SMILES IDX 5 1 3 2 2 3 1 4 22 5 20 6 19 7 17 8 16 9 15 10 14 11 6 12
REMARK SMILES IDX 7 13 8 14 9 15 13 16 11 17 10 18 12 20 4 22 21 24 18 26
REMARK H PARENT 10 19 12 21 4 23 21 25 18 27
REMARK Flexibility Score: inf
ROOT
ATOM      1  C   UNL     1      13.616 -14.154  30.641  1.00  0.00     0.180 A 
ATOM      2  C   UNL     1      13.253 -15.465  30.992  1.00  0.00     0.208 A 
ATOM      3  C   UNL     1      13.200 -15.817  32.351  1.00  0.00     0.238 A 
ATOM      4  O   UNL     1      12.928 -17.007  32.657  1.00  0.00    -0.285 OA
ATOM      5  C   UNL     1      13.495 -14.849  33.341  1.00  0.00     0.111 A 
ATOM      6  C   UNL     1      13.435 -15.084  34.748  1.00  0.00     0.134 A 
ATOM      7  C   UNL     1      13.874 -14.092  35.633  1.00  0.00     0.093 A 
ATOM      8  C   UNL     1      14.311 -12.851  35.165  1.00  0.00     0.123 A 
ATOM      9  C   UNL     1      14.317 -12.591  33.797  1.00  0.00     0.094 A 
ATOM     10  C   UNL     1      13.919 -13.573  32.886  1.00  0.00     0.146 A 
ATOM     11  O   UNL     1      13.951 -13.287  31.590  1.00  0.00    -0.452 OA
ENDROOT
BRANCH   1  12
ATOM     12  C   UNL     1      13.669 -13.702  29.233  1.00  0.00     0.025 A 
ATOM     13  C   UNL     1      12.542 -13.091  28.660  1.00  0.00     0.016 A 
ATOM     14  C   UNL     1      12.563 -12.676  27.326  1.00  0.00     0.051 A 
ATOM     15  C   UNL     1      13.706 -12.880  26.541  1.00  0.00     0.157 A 
ATOM     16  C   UNL     1      14.807 -13.922  28.436  1.00  0.00     0.062 A 
ATOM     17  C   UNL     1      14.828 -13.507  27.096  1.00  0.00     0.158 A 
BRANCH  15  18
ATOM     18  O   UNL     1      13.732 -12.465  25.210  1.00  0.00    -0.504 OA
ATOM     19  H   UNL     1      14.601 -12.232  24.744  1.00  0.00     0.293 HD
ENDBRANCH  15  18
BRANCH  17  20
ATOM     20  O   UNL     1      15.959 -13.720  26.309  1.00  0.00    -0.504 OA
ATOM     21  H   UNL     1      16.865 -13.907  26.723  1.00  0.00     0.293 HD
ENDBRANCH  17  20
ENDBRANCH   1  12
BRANCH   2  22
ATOM     22  O   UNL     1      12.987 -16.411  29.998  1.00  0.00    -0.502 OA
ATOM     23  H   UNL     1      12.483 -16.181  29.150  1.00  0.00     0.293 HD
ENDBRANCH   2  22
BRANCH   6  24
ATOM     24  O   UNL     1      12.929 -16.255  35.323  1.00  0.00    -0.507 OA
ATOM     25  H   UNL     1      13.243 -16.648  36.197  1.00  0.00     0.293 HD
ENDBRANCH   6  24
BRANCH   8  26
ATOM     26  O   UNL     1      14.731 -11.864  36.054  1.00  0.00    -0.508 OA
ATOM     27  H   UNL     1      15.636 -11.909  36.506  1.00  0.00     0.293 HD
ENDBRANCH   8  26
TORSDOF 6
ENDMDL
MODEL 5
REMARK VINA RESULT:    -6.037      2.779      3.921
REMARK INTER + INTRA:          -7.563
REMARK INTER:                  -7.255
REMARK INTRA:                  -0.309
REMARK UNBOUND:                -0.291
REMARK SMILES O=c1c(O)c(-c2ccc(O)c(O)c2)oc2cc(O)cc(O)c12
REMARK SMILES IDX 5 1 3 2 2 3 1 4 22 5 20 6 19 7 17 8 16 9 15 10 14 11 6 12
REMARK SMILES IDX 7 13 8 14 9 15 13 16 11 17 10 18 12 20 4 22 21 24 18 26
REMARK H PARENT 10 19 12 21 4 23 21 25 18 27
REMARK Flexibility Score: inf
ROOT
ATOM      1  C   UNL     1      15.774 -11.078  27.310  1.00  0.00     0.180 A 
ATOM      2  C   UNL     1      16.723 -10.283  27.975  1.00  0.00     0.208 A 
ATOM      3  C   UNL     1      17.237  -9.148  27.326  1.00  0.00     0.238 A 
ATOM      4  O   UNL     1      18.125  -8.471  27.905  1.00  0.00    -0.285 OA
ATOM      5  C   UNL     1      16.784  -8.814  26.027  1.00  0.00     0.111 A 
ATOM      6  C   UNL     1      17.206  -7.666  25.291  1.00  0.00     0.134 A 
ATOM      7  C   UNL     1      16.791  -7.506  23.963  1.00  0.00     0.093 A 
ATOM      8  C   UNL     1      15.918  -8.418  23.366  1.00  0.00     0.123 A 
ATOM      9  C   UNL     1      15.453  -9.510  24.095  1.00  0.00     0.094 A 
ATOM     10  C   UNL     1      15.877  -9.716  25.411  1.00  0.00     0.146 A 
ATOM     11  O   UNL     1      15.418 -10.776  26.066  1.00  0.00    -0.452 OA
ENDROOT
BRANCH   1  12
ATOM     12  C   UNL     1      15.170 -12.274  27.938  1.00  0.00     0.025 A 
ATOM     13  C   UNL     1      13.946 -12.154  28.617  1.00  0.00     0.016 A 
ATOM     14  C   UNL     1      13.368 -13.265  29.235  1.00  0.00     0.051 A 
ATOM     15  C   UNL     1      14.012 -14.510  29.197  1.00  0.00     0.157 A 
ATOM     16  C   UNL     1      15.823 -13.520  27.920  1.00  0.00     0.062 A 
ATOM     17  C   UNL     1      15.244 -14.635  28.542  1.00  0.00     0.158 A 
BRANCH  15  18
ATOM     18  O   UNL     1      13.438 -15.621  29.812  1.00  0.00    -0.504 OA
ATOM     19  H   UNL     1      13.528 -16.550  29.417  1.00  0.00     0.293 HD
ENDBRANCH  15  18
BRANCH  17  20
ATOM     20  O   UNL     1      15.889 -15.871  28.518  1.00  0.00    -0.504 OA
ATOM     21  H   UNL     1      16.660 -16.054  27.887  1.00  0.00     0.293 HD
ENDBRANCH  17  20
ENDBRANCH   1  12
BRANCH   2  22
ATOM     22  O   UNL     1      17.172 -10.642  29.249  1.00  0.00    -0.502 OA
ATOM     23  H   UNL     1      16.617 -11.203  29.883  1.00  0.00     0.293 HD
ENDBRANCH   2  22
BRANCH   6  24
ATOM     24  O   UNL     1      18.003  -6.648  25.823  1.00  0.00    -0.507 OA
ATOM     25  H   UNL     1      17.801  -5.663  25.750  1.00  0.00     0.293 HD
ENDBRANCH   6  24
BRANCH   8  26
ATOM     26  O   UNL     1      15.498  -8.242  22.050  1.00  0.00    -0.508 OA
ATOM     27  H   UNL     1      16.143  -7.965  21.320  1.00  0.00     0.293 HD
ENDBRANCH   8  26
TORSDOF 6
ENDMDL
MODEL 6
REMARK VINA RESULT:    -5.990      1.738      7.003
REMARK INTER + INTRA:          -7.506
REMARK INTER:                  -7.180
REMARK INTRA:                  -0.326
REMARK UNBOUND:                -0.291
REMARK SMILES O=c1c(O)c(-c2ccc(O)c(O)c2)oc2cc(O)cc(O)c12
REMARK SMILES IDX 5 1 3 2 2 3 1 4 22 5 20 6 19 7 17 8 16 9 15 10 14 11 6 12
REMARK SMILES IDX 7 13 8 14 9 15 13 16 11 17 10 18 12 20 4 22 21 24 18 26
REMARK H PARENT 10 19 12 21 4 23 21 25 18 27
REMARK Flexibility Score: inf
ROOT
ATOM      1  C   UNL     1      15.359  -8.772  25.009  1.00  0.00     0.180 A 
ATOM      2  C   UNL     1      15.979  -8.555  26.252  1.00  0.00     0.208 A 
ATOM      3  C   UNL     1      16.611  -9.632  26.895  1.00  0.00     0.238 A 
ATOM      4  O   UNL     1      17.117  -9.444  28.031  1.00  0.00    -0.285 OA
ATOM      5  C   UNL     1      16.629 -10.907  26.281  1.00  0.00     0.111 A 
ATOM      6  C   UNL     1      17.273 -12.060  26.823  1.00  0.00     0.134 A 
ATOM      7  C   UNL     1      17.115 -13.300  26.193  1.00  0.00     0.093 A 
ATOM      8  C   UNL     1      16.389 -13.418  25.006  1.00  0.00     0.123 A 
ATOM      9  C   UNL     1      15.806 -12.288  24.437  1.00  0.00     0.094 A 
ATOM     10  C   UNL     1      15.916 -11.043  25.060  1.00  0.00     0.146 A 
ATOM     11  O   UNL     1      15.336  -9.994  24.490  1.00  0.00    -0.452 OA
ENDROOT
BRANCH   1  12
ATOM     12  C   UNL     1      14.695  -7.682  24.259  1.00  0.00     0.025 A 
ATOM     13  C   UNL     1      13.301  -7.537  24.340  1.00  0.00     0.016 A 
ATOM     14  C   UNL     1      12.651  -6.529  23.624  1.00  0.00     0.051 A 
ATOM     15  C   UNL     1      13.385  -5.659  22.805  1.00  0.00     0.157 A 
ATOM     16  C   UNL     1      15.425  -6.820  23.420  1.00  0.00     0.062 A 
ATOM     17  C   UNL     1      14.773  -5.809  22.700  1.00  0.00     0.158 A 
BRANCH  15  18
ATOM     18  O   UNL     1      12.740  -4.651  22.090  1.00  0.00    -0.504 OA
ATOM     19  H   UNL     1      11.756  -4.712  21.858  1.00  0.00     0.293 HD
ENDBRANCH  15  18
BRANCH  17  20
ATOM     20  O   UNL     1      15.498  -4.951  21.873  1.00  0.00    -0.504 OA
ATOM     21  H   UNL     1      16.363  -5.244  21.435  1.00  0.00     0.293 HD
ENDBRANCH  17  20
ENDBRANCH   1  12
BRANCH   2  22
ATOM     22  O   UNL     1      15.932  -7.293  26.850  1.00  0.00    -0.502 OA
ATOM     23  H   UNL     1      16.486  -6.513  26.519  1.00  0.00     0.293 HD
ENDBRANCH   2  22
BRANCH   6  24
ATOM     24  O   UNL     1      18.097 -12.034  27.953  1.00  0.00    -0.507 OA
ATOM     25  H   UNL     1      18.183 -11.251  28.583  1.00  0.00     0.293 HD
ENDBRANCH   6  24
BRANCH   8  26
ATOM     26  O   UNL     1      16.250 -14.653  24.377  1.00  0.00    -0.508 OA
ATOM     27  H   UNL     1      17.039 -15.119  23.945  1.00  0.00     0.293 HD
ENDBRANCH   8  26
TORSDOF 6
ENDMDL
MODEL 7
REMARK VINA RESULT:    -5.981      3.076      6.885
REMARK INTER + INTRA:          -7.496
REMARK INTER:                  -7.222
REMARK INTRA:                  -0.274
REMARK UNBOUND:                -0.291
REMARK SMILES O=c1c(O)c(-c2ccc(O)c(O)c2)oc2cc(O)cc(O)c12
REMARK SMILES IDX 5 1 3 2 2 3 1 4 22 5 20 6 19 7 17 8 16 9 15 10 14 11 6 12
REMARK SMILES IDX 7 13 8 14 9 15 13 16 11 17 10 18 12 20 4 22 21 24 18 26
REMARK H PARENT 10 19 12 21 4 23 21 25 18 27
REMARK Flexibility Score: inf
ROOT
ATOM      1  C   UNL     1      15.115 -10.950  26.236  1.00  0.00     0.180 A 
ATOM      2  C   UNL     1      16.115 -11.874  26.585  1.00  0.00     0.208 A 
ATOM      3  C   UNL     1      15.776 -12.971  27.393  1.00  0.00     0.238 A 
ATOM      4  O   UNL     1      16.686 -13.765  27.746  1.00  0.00    -0.285 OA
ATOM      5  C   UNL     1      14.439 -13.140  27.828  1.00  0.00     0.111 A 
ATOM      6  C   UNL     1      13.975 -14.235  28.617  1.00  0.00     0.134 A 
ATOM      7  C   UNL     1      12.660 -14.231  29.098  1.00  0.00     0.093 A 
ATOM      8  C   UNL     1      11.775 -13.204  28.767  1.00  0.00     0.123 A 
ATOM      9  C   UNL     1      12.201 -12.160  27.949  1.00  0.00     0.094 A 
ATOM     10  C   UNL     1      13.517 -12.117  27.482  1.00  0.00     0.146 A 
ATOM     11  O   UNL     1      13.885 -11.099  26.714  1.00  0.00    -0.452 OA
ENDROOT
BRANCH   1  12
ATOM     12  C   UNL     1      15.390  -9.782  25.368  1.00  0.00     0.025 A 
ATOM     13  C   UNL     1      15.037  -9.832  24.010  1.00  0.00     0.016 A 
ATOM     14  C   UNL     1      15.307  -8.750  23.168  1.00  0.00     0.051 A 
ATOM     15  C   UNL     1      15.948  -7.609  23.668  1.00  0.00     0.157 A 
ATOM     16  C   UNL     1      16.052  -8.643  25.861  1.00  0.00     0.062 A 
ATOM     17  C   UNL     1      16.324  -7.557  25.016  1.00  0.00     0.158 A 
BRANCH  15  18
ATOM     18  O   UNL     1      16.216  -6.527  22.832  1.00  0.00    -0.504 OA
ATOM     19  H   UNL     1      16.028  -6.566  21.837  1.00  0.00     0.293 HD
ENDBRANCH  15  18
BRANCH  17  20
ATOM     20  O   UNL     1      16.974  -6.426  25.508  1.00  0.00    -0.504 OA
ATOM     21  H   UNL     1      17.370  -5.730  24.886  1.00  0.00     0.293 HD
ENDBRANCH  17  20
ENDBRANCH   1  12
BRANCH   2  22
ATOM     22  O   UNL     1      17.433 -11.677  26.162  1.00  0.00    -0.502 OA
ATOM     23  H   UNL     1      17.922 -12.345  25.579  1.00  0.00     0.293 HD
ENDBRANCH   2  22
BRANCH   6  24
ATOM     24  O   UNL     1      14.751 -15.357  28.928  1.00  0.00    -0.507 OA
ATOM     25  H   UNL     1      15.686 -15.522  28.586  1.00  0.00     0.293 HD
ENDBRANCH   6  24
BRANCH   8  26
ATOM     26  O   UNL     1      10.464 -13.215  29.238  1.00  0.00    -0.508 OA
ATOM     27  H   UNL     1      10.250 -13.431  30.204  1.00  0.00     0.293 HD
ENDBRANCH   8  26
TORSDOF 6
ENDMDL
MODEL 8
REMARK VINA RESULT:    -5.980      2.222      3.475
REMARK INTER + INTRA:          -7.495
REMARK INTER:                  -7.501
REMARK INTRA:                   0.006
REMARK UNBOUND:                -0.291
REMARK SMILES O=c1c(O)c(-c2ccc(O)c(O)c2)oc2cc(O)cc(O)c12
REMARK SMILES IDX 5 1 3 2 2 3 1 4 22 5 20 6 19 7 17 8 16 9 15 10 14 11 6 12
REMARK SMILES IDX 7 13 8 14 9 15 13 16 11 17 10 18 12 20 4 22 21 24 18 26
REMARK H PARENT 10 19 12 21 4 23 21 25 18 27
REMARK Flexibility Score: inf
ROOT
ATOM      1  C   UNL     1      13.963  -9.097  24.867  1.00  0.00     0.180 A 
ATOM      2  C   UNL     1      13.902  -8.050  23.931  1.00  0.00     0.208 A 
ATOM      3  C   UNL     1      12.872  -7.101  24.036  1.00  0.00     0.238 A 
ATOM      4  O   UNL     1      12.792  -6.198  23.164  1.00  0.00    -0.285 OA
ATOM      5  C   UNL     1      11.925  -7.202  25.084  1.00  0.00     0.111 A 
ATOM      6  C   UNL     1      10.864  -6.275  25.309  1.00  0.00     0.134 A 
ATOM      7  C   UNL     1       9.909  -6.545  26.298  1.00  0.00     0.093 A 
ATOM      8  C   UNL     1      10.014  -7.676  27.111  1.00  0.00     0.123 A 
ATOM      9  C   UNL     1      11.079  -8.556  26.938  1.00  0.00     0.094 A 
ATOM     10  C   UNL     1      12.029  -8.333  25.937  1.00  0.00     0.146 A 
ATOM     11  O   UNL     1      13.022  -9.202  25.799  1.00  0.00    -0.452 OA
ENDROOT
BRANCH   1  12
ATOM     12  C   UNL     1      15.032 -10.120  24.836  1.00  0.00     0.025 A 
ATOM     13  C   UNL     1      16.375  -9.714  24.765  1.00  0.00     0.016 A 
ATOM     14  C   UNL     1      17.399 -10.663  24.713  1.00  0.00     0.051 A 
ATOM     15  C   UNL     1      17.096 -12.031  24.717  1.00  0.00     0.157 A 
ATOM     16  C   UNL     1      14.731 -11.494  24.819  1.00  0.00     0.062 A 
ATOM     17  C   UNL     1      15.759 -12.447  24.766  1.00  0.00     0.158 A 
BRANCH  15  18
ATOM     18  O   UNL     1      18.115 -12.980  24.667  1.00  0.00    -0.504 OA
ATOM     19  H   UNL     1      18.932 -12.850  24.083  1.00  0.00     0.293 HD
ENDBRANCH  15  18
BRANCH  17  20
ATOM     20  O   UNL     1      15.460 -13.808  24.756  1.00  0.00    -0.504 OA
ATOM     21  H   UNL     1      16.116 -14.498  25.104  1.00  0.00     0.293 HD
ENDBRANCH  17  20
ENDBRANCH   1  12
BRANCH   2  22
ATOM     22  O   UNL     1      14.834  -7.981  22.892  1.00  0.00    -0.502 OA
ATOM     23  H   UNL     1      15.831  -8.072  23.049  1.00  0.00     0.293 HD
ENDBRANCH   2  22
BRANCH   6  24
ATOM     24  O   UNL     1      10.720  -5.069  24.615  1.00  0.00    -0.507 OA
ATOM     25  H   UNL     1      10.180  -4.282  24.938  1.00  0.00     0.293 HD
ENDBRANCH   6  24
BRANCH   8  26
ATOM     26  O   UNL     1       9.069  -7.929  28.102  1.00  0.00    -0.508 OA
ATOM     27  H   UNL     1       8.389  -8.675  28.008  1.00  0.00     0.293 HD
ENDBRANCH   8  26
TORSDOF 6
ENDMDL
MODEL 9
REMARK VINA RESULT:    -5.930      1.474      2.280
REMARK INTER + INTRA:          -7.434
REMARK INTER:                  -7.705
REMARK INTRA:                   0.270
REMARK UNBOUND:                -0.291
REMARK SMILES O=c1c(O)c(-c2ccc(O)c(O)c2)oc2cc(O)cc(O)c12
REMARK SMILES IDX 5 1 3 2 2 3 1 4 22 5 20 6 19 7 17 8 16 9 15 10 14 11 6 12
REMARK SMILES IDX 7 13 8 14 9 15 13 16 11 17 10 18 12 20 4 22 21 24 18 26
REMARK H PARENT 10 19 12 21 4 23 21 25 18 27
REMARK Flexibility Score: inf
ROOT
ATOM      1  C   UNL     1      14.927  -8.787  23.990  1.00  0.00     0.180 A 
ATOM      2  C   UNL     1      15.463  -7.703  23.274  1.00  0.00     0.208 A 
ATOM      3  C   UNL     1      14.637  -6.606  22.981  1.00  0.00     0.238 A 
ATOM      4  O   UNL     1      15.107  -5.663  22.294  1.00  0.00    -0.285 OA
ATOM      5  C   UNL     1      13.291  -6.599  23.421  1.00  0.00     0.111 A 
ATOM      6  C   UNL     1      12.376  -5.523  23.214  1.00  0.00     0.134 A 
ATOM      7  C   UNL     1      11.033  -5.679  23.579  1.00  0.00     0.093 A 
ATOM      8  C   UNL     1      10.586  -6.848  24.199  1.00  0.00     0.123 A 
ATOM      9  C   UNL     1      11.484  -7.880  24.459  1.00  0.00     0.094 A 
ATOM     10  C   UNL     1      12.823  -7.768  24.076  1.00  0.00     0.146 A 
ATOM     11  O   UNL     1      13.643  -8.781  24.332  1.00  0.00    -0.452 OA
ENDROOT
BRANCH   1  12
ATOM     12  C   UNL     1      15.741  -9.968  24.358  1.00  0.00     0.025 A 
ATOM     13  C   UNL     1      17.108  -9.806  24.632  1.00  0.00     0.016 A 
ATOM     14  C   UNL     1      17.900 -10.909  24.960  1.00  0.00     0.051 A 
ATOM     15  C   UNL     1      17.339 -12.193  25.004  1.00  0.00     0.157 A 
ATOM     16  C   UNL     1      15.186 -11.260  24.384  1.00  0.00     0.062 A 
ATOM     17  C   UNL     1      15.981 -12.369  24.712  1.00  0.00     0.158 A 
BRANCH  15  18
ATOM     18  O   UNL     1      18.125 -13.296  25.333  1.00  0.00    -0.504 OA
ATOM     19  H   UNL     1      19.136 -13.262  25.276  1.00  0.00     0.293 HD
ENDBRANCH  15  18
BRANCH  17  20
ATOM     20  O   UNL     1      15.428 -13.648  24.744  1.00  0.00    -0.504 OA
ATOM     21  H   UNL     1      15.490 -14.272  23.948  1.00  0.00     0.293 HD
ENDBRANCH  17  20
ENDBRANCH   1  12
BRANCH   2  22
ATOM     22  O   UNL     1      16.788  -7.740  22.831  1.00  0.00    -0.502 OA
ATOM     23  H   UNL     1      17.036  -7.976  21.878  1.00  0.00     0.293 HD
ENDBRANCH   2  22
BRANCH   6  24
ATOM     24  O   UNL     1      12.740  -4.280  22.687  1.00  0.00    -0.507 OA
ATOM     25  H   UNL     1      13.660  -3.874  22.755  1.00  0.00     0.293 HD
ENDBRANCH   6  24
BRANCH   8  26
ATOM     26  O   UNL     1       9.252  -6.989  24.572  1.00  0.00    -0.508 OA
ATOM     27  H   UNL     1       8.560  -7.365  23.935  1.00  0.00     0.293 HD
ENDBRANCH   8  26
TORSDOF 6
ENDMDL
