MODEL 1
REMARK VINA RESULT:    -3.506      0.000      0.000
REMARK INTER + INTRA:          -8.135
REMARK INTER:                  -7.604
REMARK INTRA:                  -0.530
REMARK UNBOUND:                -0.530
REMARK SMILES CCCCCCCCCCCCCCCCCCCCCC(=O)[O-]
REMARK SMILES IDX 12 1 11 2 10 3 9 4 8 5 7 6 6 7 5 8 4 9 3 10 2 11 1 12 13 13
REMARK SMILES IDX 14 14 15 15 16 16 17 17 18 18 19 19 20 20 21 21 22 22 23 23
REMARK SMILES IDX 24 24
REMARK H PARENT
REMARK Flexibility Score: inf
ROOT
ATOM      1  C   UNL     1      18.745  10.909 -13.377  1.00  0.00     0.000 C 
ENDROOT
BRANCH   1   2
ATOM      2  C   UNL     1      18.642  12.384 -13.802  1.00  0.00     0.000 C 
BRANCH   2   3
ATOM      3  C   UNL     1      20.007  12.984 -14.175  1.00  0.00     0.000 C 
BRANCH   3   4
ATOM      4  C   UNL     1      20.135  13.257 -15.684  1.00  0.00    -0.000 C 
BRANCH   4   5
ATOM      5  C   UNL     1      20.847  14.586 -15.985  1.00  0.00    -0.000 C 
BRANCH   5   6
ATOM      6  C   UNL     1      22.380  14.459 -15.946  1.00  0.00    -0.000 C 
BRANCH   6   7
ATOM      7  C   UNL     1      23.069  15.771 -15.538  1.00  0.00    -0.000 C 
BRANCH   7   8
ATOM      8  C   UNL     1      22.686  16.222 -14.118  1.00  0.00    -0.000 C 
BRANCH   8   9
ATOM      9  C   UNL     1      22.881  17.732 -13.908  1.00  0.00    -0.000 C 
BRANCH   9  10
ATOM     10  C   UNL     1      22.916  18.512 -15.234  1.00  0.00    -0.000 C 
BRANCH  10  11
ATOM     11  C   UNL     1      21.877  19.641 -15.280  1.00  0.00    -0.003 C 
ATOM     12  C   UNL     1      22.514  21.031 -15.271  1.00  0.00     0.004 C 
ENDBRANCH  10  11
ENDBRANCH   9  10
ENDBRANCH   8   9
ENDBRANCH   7   8
ENDBRANCH   6   7
ENDBRANCH   5   6
ENDBRANCH   4   5
ENDBRANCH   3   4
ENDBRANCH   2   3
ENDBRANCH   1   2
BRANCH   1  13
ATOM     13  C   UNL     1      19.814  10.132 -14.162  1.00  0.00     0.000 C 
BRANCH  13  14
ATOM     14  C   UNL     1      19.396   9.787 -15.607  1.00  0.00     0.000 C 
BRANCH  14  15
ATOM     15  C   UNL     1      18.107   8.946 -15.655  1.00  0.00     0.000 C 
BRANCH  15  16
ATOM     16  C   UNL     1      17.483   8.739 -14.267  1.00  0.00     0.000 C 
BRANCH  16  17
ATOM     17  C   UNL     1      15.954   8.565 -14.325  1.00  0.00     0.000 C 
BRANCH  17  18
ATOM     18  C   UNL     1      15.433   8.393 -15.761  1.00  0.00     0.000 C 
BRANCH  18  19
ATOM     19  C   UNL     1      13.958   8.802 -15.908  1.00  0.00     0.000 C 
BRANCH  19  20
ATOM     20  C   UNL     1      13.801  10.328 -15.827  1.00  0.00     0.006 C 
BRANCH  20  21
ATOM     21  C   UNL     1      15.114  11.063 -16.125  1.00  0.00     0.053 C 
BRANCH  21  22
ATOM     22  C   UNL     1      15.255  12.302 -15.294  1.00  0.00     0.041 C 
ATOM     23  O   UNL     1      15.431  13.421 -15.847  1.00  0.00    -0.550 OA
ATOM     24  O   UNL     1      15.160  12.226 -13.909  1.00  0.00    -0.550 OA
ENDBRANCH  21  22
ENDBRANCH  20  21
ENDBRANCH  19  20
ENDBRANCH  18  19
ENDBRANCH  17  18
ENDBRANCH  16  17
ENDBRANCH  15  16
ENDBRANCH  14  15
ENDBRANCH  13  14
ENDBRANCH   1  13
TORSDOF 20
ENDMDL
MODEL 2
REMARK VINA RESULT:    -3.389      2.930      8.614
REMARK INTER + INTRA:          -7.881
REMARK INTER:                  -5.662
REMARK INTRA:                  -2.220
REMARK UNBOUND:                -0.530
REMARK SMILES CCCCCCCCCCCCCCCCCCCCCC(=O)[O-]
REMARK SMILES IDX 12 1 11 2 10 3 9 4 8 5 7 6 6 7 5 8 4 9 3 10 2 11 1 12 13 13
REMARK SMILES IDX 14 14 15 15 16 16 17 17 18 18 19 19 20 20 21 21 22 22 23 23
REMARK SMILES IDX 24 24
REMARK H PARENT
REMARK Flexibility Score: inf
ROOT
ATOM      1  C   UNL     1      16.907  12.206 -15.857  1.00  0.00     0.000 C 
ENDROOT
BRANCH   1   2
ATOM      2  C   UNL     1      16.022  13.342 -15.314  1.00  0.00     0.000 C 
BRANCH   2   3
ATOM      3  C   UNL     1      15.229  12.924 -14.065  1.00  0.00     0.000 C 
BRANCH   3   4
ATOM      4  C   UNL     1      15.058  11.398 -13.964  1.00  0.00    -0.000 C 
BRANCH   4   5
ATOM      5  C   UNL     1      13.739  10.909 -14.583  1.00  0.00    -0.000 C 
BRANCH   5   6
ATOM      6  C   UNL     1      13.959   9.947 -15.764  1.00  0.00    -0.000 C 
BRANCH   6   7
ATOM      7  C   UNL     1      14.268   8.514 -15.306  1.00  0.00    -0.000 C 
BRANCH   7   8
ATOM      8  C   UNL     1      15.420   7.875 -16.102  1.00  0.00    -0.000 C 
BRANCH   8   9
ATOM      9  C   UNL     1      16.711   8.707 -16.039  1.00  0.00    -0.000 C 
BRANCH   9  10
ATOM     10  C   UNL     1      17.331   8.727 -14.631  1.00  0.00    -0.000 C 
BRANCH  10  11
ATOM     11  C   UNL     1      18.757   9.296 -14.624  1.00  0.00    -0.003 C 
ATOM     12  C   UNL     1      19.440   9.194 -15.989  1.00  0.00     0.004 C 
ENDBRANCH  10  11
ENDBRANCH   9  10
ENDBRANCH   8   9
ENDBRANCH   7   8
ENDBRANCH   6   7
ENDBRANCH   5   6
ENDBRANCH   4   5
ENDBRANCH   3   4
ENDBRANCH   2   3
ENDBRANCH   1   2
BRANCH   1  13
ATOM     13  C   UNL     1      18.410  12.491 -15.700  1.00  0.00     0.000 C 
BRANCH  13  14
ATOM     14  C   UNL     1      18.829  12.846 -14.258  1.00  0.00     0.000 C 
BRANCH  14  15
ATOM     15  C   UNL     1      20.228  13.488 -14.200  1.00  0.00     0.000 C 
BRANCH  15  16
ATOM     16  C   UNL     1      21.351  12.491 -14.520  1.00  0.00     0.000 C 
BRANCH  16  17
ATOM     17  C   UNL     1      21.847  12.603 -15.974  1.00  0.00     0.000 C 
BRANCH  17  18
ATOM     18  C   UNL     1      23.125  13.449 -16.098  1.00  0.00     0.000 C 
BRANCH  18  19
ATOM     19  C   UNL     1      23.121  14.668 -15.163  1.00  0.00     0.000 C 
BRANCH  19  20
ATOM     20  C   UNL     1      22.853  15.961 -15.949  1.00  0.00     0.006 C 
BRANCH  20  21
ATOM     21  C   UNL     1      21.637  16.726 -15.412  1.00  0.00     0.053 C 
BRANCH  21  22
ATOM     22  C   UNL     1      22.045  17.937 -14.630  1.00  0.00     0.041 C 
ATOM     23  O   UNL     1      22.871  17.833 -13.684  1.00  0.00    -0.550 OA
ATOM     24  O   UNL     1      21.539  19.186 -14.968  1.00  0.00    -0.550 OA
ENDBRANCH  21  22
ENDBRANCH  20  21
ENDBRANCH  19  20
ENDBRANCH  18  19
ENDBRANCH  17  18
ENDBRANCH  16  17
ENDBRANCH  15  16
ENDBRANCH  14  15
ENDBRANCH  13  14
ENDBRANCH   1  13
TORSDOF 20
ENDMDL
MODEL 3
REMARK VINA RESULT:    -3.224      2.647      7.450
REMARK INTER + INTRA:          -7.523
REMARK INTER:                  -6.458
REMARK INTRA:                  -1.065
REMARK UNBOUND:                -0.530
REMARK SMILES CCCCCCCCCCCCCCCCCCCCCC(=O)[O-]
REMARK SMILES IDX 12 1 11 2 10 3 9 4 8 5 7 6 6 7 5 8 4 9 3 10 2 11 1 12 13 13
REMARK SMILES IDX 14 14 15 15 16 16 17 17 18 18 19 19 20 20 21 21 22 22 23 23
REMARK SMILES IDX 24 24
REMARK H PARENT
REMARK Flexibility Score: inf
ROOT
ATOM      1  C   UNL     1      17.538   9.472 -15.614  1.00  0.00     0.000 C 
ENDROOT
BRANCH   1   2
ATOM      2  C   UNL     1      16.391   9.300 -14.602  1.00  0.00     0.000 C 
BRANCH   2   3
ATOM      3  C   UNL     1      15.315   8.319 -15.095  1.00  0.00     0.000 C 
BRANCH   3   4
ATOM      4  C   UNL     1      13.983   9.020 -15.410  1.00  0.00    -0.000 C 
BRANCH   4   5
ATOM      5  C   UNL     1      14.036  10.534 -15.146  1.00  0.00    -0.000 C 
BRANCH   5   6
ATOM      6  C   UNL     1      14.965  11.274 -16.124  1.00  0.00    -0.000 C 
BRANCH   6   7
ATOM      7  C   UNL     1      15.011  12.787 -15.861  1.00  0.00    -0.000 C 
BRANCH   7   8
ATOM      8  C   UNL     1      16.421  13.376 -16.044  1.00  0.00    -0.000 C 
BRANCH   8   9
ATOM      9  C   UNL     1      17.409  12.879 -14.977  1.00  0.00    -0.000 C 
BRANCH   9  10
ATOM     10  C   UNL     1      18.858  13.306 -15.272  1.00  0.00    -0.000 C 
BRANCH  10  11
ATOM     11  C   UNL     1      19.813  12.985 -14.113  1.00  0.00    -0.003 C 
ATOM     12  C   UNL     1      19.224  11.979 -13.123  1.00  0.00     0.004 C 
ENDBRANCH  10  11
ENDBRANCH   9  10
ENDBRANCH   8   9
ENDBRANCH   7   8
ENDBRANCH   6   7
ENDBRANCH   5   6
ENDBRANCH   4   5
ENDBRANCH   3   4
ENDBRANCH   2   3
ENDBRANCH   1   2
BRANCH   1  13
ATOM     13  C   UNL     1      18.928   9.287 -14.981  1.00  0.00     0.000 C 
BRANCH  13  14
ATOM     14  C   UNL     1      20.079   9.257 -16.008  1.00  0.00     0.000 C 
BRANCH  14  15
ATOM     15  C   UNL     1      21.413   9.729 -15.400  1.00  0.00     0.000 C 
BRANCH  15  16
ATOM     16  C   UNL     1      21.941  11.015 -16.055  1.00  0.00     0.000 C 
BRANCH  16  17
ATOM     17  C   UNL     1      22.562  11.987 -15.034  1.00  0.00     0.000 C 
BRANCH  17  18
ATOM     18  C   UNL     1      23.087  13.275 -15.689  1.00  0.00     0.000 C 
BRANCH  18  19
ATOM     19  C   UNL     1      23.125  14.461 -14.713  1.00  0.00     0.000 C 
BRANCH  19  20
ATOM     20  C   UNL     1      22.138  15.558 -15.144  1.00  0.00     0.006 C 
BRANCH  20  21
ATOM     21  C   UNL     1      22.491  16.925 -14.545  1.00  0.00     0.053 C 
BRANCH  21  22
ATOM     22  C   UNL     1      21.724  18.032 -15.201  1.00  0.00     0.041 C 
ATOM     23  O   UNL     1      20.765  17.768 -15.975  1.00  0.00    -0.550 OA
ATOM     24  O   UNL     1      22.048  19.356 -14.932  1.00  0.00    -0.550 OA
ENDBRANCH  21  22
ENDBRANCH  20  21
ENDBRANCH  19  20
ENDBRANCH  18  19
ENDBRANCH  17  18
ENDBRANCH  16  17
ENDBRANCH  15  16
ENDBRANCH  14  15
ENDBRANCH  13  14
ENDBRANCH   1  13
TORSDOF 20
ENDMDL
MODEL 4
REMARK VINA RESULT:    -3.130      2.996      8.470
REMARK INTER + INTRA:          -7.319
REMARK INTER:                  -6.369
REMARK INTRA:                  -0.950
REMARK UNBOUND:                -0.530
REMARK SMILES CCCCCCCCCCCCCCCCCCCCCC(=O)[O-]
REMARK SMILES IDX 12 1 11 2 10 3 9 4 8 5 7 6 6 7 5 8 4 9 3 10 2 11 1 12 13 13
REMARK SMILES IDX 14 14 15 15 16 16 17 17 18 18 19 19 20 20 21 21 22 22 23 23
REMARK SMILES IDX 24 24
REMARK H PARENT
REMARK Flexibility Score: inf
ROOT
ATOM      1  C   UNL     1      18.896  11.731 -13.998  1.00  0.00     0.000 C 
ENDROOT
BRANCH   1   2
ATOM      2  C   UNL     1      18.615  11.588 -15.504  1.00  0.00     0.000 C 
BRANCH   2   3
ATOM      3  C   UNL     1      19.323  10.371 -16.121  1.00  0.00     0.000 C 
BRANCH   3   4
ATOM      4  C   UNL     1      18.526   9.069 -15.928  1.00  0.00    -0.000 C 
BRANCH   4   5
ATOM      5  C   UNL     1      17.007   9.300 -15.933  1.00  0.00    -0.000 C 
BRANCH   5   6
ATOM      6  C   UNL     1      16.215   8.055 -15.498  1.00  0.00    -0.000 C 
BRANCH   6   7
ATOM      7  C   UNL     1      14.791   8.395 -15.033  1.00  0.00    -0.000 C 
BRANCH   7   8
ATOM      8  C   UNL     1      14.020   9.239 -16.062  1.00  0.00    -0.000 C 
BRANCH   8   9
ATOM      9  C   UNL     1      13.913  10.716 -15.650  1.00  0.00    -0.000 C 
BRANCH   9  10
ATOM     10  C   UNL     1      14.348  10.954 -14.193  1.00  0.00    -0.000 C 
BRANCH  10  11
ATOM     11  C   UNL     1      15.387  12.078 -14.066  1.00  0.00    -0.003 C 
ATOM     12  C   UNL     1      15.386  13.022 -15.269  1.00  0.00     0.004 C 
ENDBRANCH  10  11
ENDBRANCH   9  10
ENDBRANCH   8   9
ENDBRANCH   7   8
ENDBRANCH   6   7
ENDBRANCH   5   6
ENDBRANCH   4   5
ENDBRANCH   3   4
ENDBRANCH   2   3
ENDBRANCH   1   2
BRANCH   1  13
ATOM     13  C   UNL     1      20.093  10.887 -13.529  1.00  0.00     0.000 C 
BRANCH  13  14
ATOM     14  C   UNL     1      21.463  11.477 -13.925  1.00  0.00     0.000 C 
BRANCH  14  15
ATOM     15  C   UNL     1      21.814  12.733 -13.106  1.00  0.00     0.000 C 
BRANCH  15  16
ATOM     16  C   UNL     1      22.007  13.978 -13.984  1.00  0.00     0.000 C 
BRANCH  16  17
ATOM     17  C   UNL     1      22.490  13.632 -15.405  1.00  0.00     0.000 C 
BRANCH  17  18
ATOM     18  C   UNL     1      23.124  14.835 -16.122  1.00  0.00     0.000 C 
BRANCH  18  19
ATOM     19  C   UNL     1      22.668  16.181 -15.536  1.00  0.00     0.000 C 
BRANCH  19  20
ATOM     20  C   UNL     1      21.313  16.604 -16.124  1.00  0.00     0.006 C 
BRANCH  20  21
ATOM     21  C   UNL     1      20.734  17.836 -15.419  1.00  0.00     0.053 C 
BRANCH  21  22
ATOM     22  C   UNL     1      21.810  18.794 -15.006  1.00  0.00     0.041 C 
ATOM     23  O   UNL     1      21.898  19.925 -15.554  1.00  0.00    -0.550 OA
ATOM     24  O   UNL     1      22.697  18.449 -13.993  1.00  0.00    -0.550 OA
ENDBRANCH  21  22
ENDBRANCH  20  21
ENDBRANCH  19  20
ENDBRANCH  18  19
ENDBRANCH  17  18
ENDBRANCH  16  17
ENDBRANCH  15  16
ENDBRANCH  14  15
ENDBRANCH  13  14
ENDBRANCH   1  13
TORSDOF 20
ENDMDL
MODEL 5
REMARK VINA RESULT:    -2.815      1.984      4.059
REMARK INTER + INTRA:          -6.637
REMARK INTER:                  -6.086
REMARK INTRA:                  -0.551
REMARK UNBOUND:                -0.530
REMARK SMILES CCCCCCCCCCCCCCCCCCCCCC(=O)[O-]
REMARK SMILES IDX 12 1 11 2 10 3 9 4 8 5 7 6 6 7 5 8 4 9 3 10 2 11 1 12 13 13
REMARK SMILES IDX 14 14 15 15 16 16 17 17 18 18 19 19 20 20 21 21 22 22 23 23
REMARK SMILES IDX 24 24
REMARK H PARENT
REMARK Flexibility Score: inf
ROOT
ATOM      1  C   UNL     1      16.841   9.241 -14.340  1.00  0.00     0.000 C 
ENDROOT
BRANCH   1   2
ATOM      2  C   UNL     1      17.815   8.264 -15.022  1.00  0.00     0.000 C 
BRANCH   2   3
ATOM      3  C   UNL     1      18.835   8.983 -15.920  1.00  0.00     0.000 C 
BRANCH   3   4
ATOM      4  C   UNL     1      20.154   9.283 -15.185  1.00  0.00    -0.000 C 
BRANCH   4   5
ATOM      5  C   UNL     1      21.244   9.821 -16.125  1.00  0.00    -0.000 C 
BRANCH   5   6
ATOM      6  C   UNL     1      22.487  10.319 -15.367  1.00  0.00    -0.000 C 
BRANCH   6   7
ATOM      7  C   UNL     1      22.996  11.670 -15.893  1.00  0.00    -0.000 C 
BRANCH   7   8
ATOM      8  C   UNL     1      23.026  12.756 -14.803  1.00  0.00    -0.000 C 
BRANCH   8   9
ATOM      9  C   UNL     1      22.887  14.173 -15.380  1.00  0.00    -0.000 C 
BRANCH   9  10
ATOM     10  C   UNL     1      22.280  15.163 -14.370  1.00  0.00    -0.000 C 
BRANCH  10  11
ATOM     11  C   UNL     1      22.518  16.628 -14.766  1.00  0.00    -0.003 C 
ATOM     12  C   UNL     1      21.397  17.193 -15.640  1.00  0.00     0.004 C 
ENDBRANCH  10  11
ENDBRANCH   9  10
ENDBRANCH   8   9
ENDBRANCH   7   8
ENDBRANCH   6   7
ENDBRANCH   5   6
ENDBRANCH   4   5
ENDBRANCH   3   4
ENDBRANCH   2   3
ENDBRANCH   1   2
BRANCH   1  13
ATOM     13  C   UNL     1      15.444   8.637 -14.119  1.00  0.00     0.000 C 
BRANCH  13  14
ATOM     14  C   UNL     1      14.598   8.541 -15.406  1.00  0.00     0.000 C 
BRANCH  14  15
ATOM     15  C   UNL     1      14.466   9.899 -16.119  1.00  0.00     0.000 C 
BRANCH  15  16
ATOM     16  C   UNL     1      13.759  10.956 -15.256  1.00  0.00     0.000 C 
BRANCH  16  17
ATOM     17  C   UNL     1      14.433  11.148 -13.884  1.00  0.00     0.000 C 
BRANCH  17  18
ATOM     18  C   UNL     1      15.360  12.373 -13.848  1.00  0.00     0.000 C 
BRANCH  18  19
ATOM     19  C   UNL     1      15.424  13.106 -15.197  1.00  0.00     0.000 C 
BRANCH  19  20
ATOM     20  C   UNL     1      16.768  12.851 -15.897  1.00  0.00     0.006 C 
BRANCH  20  21
ATOM     21  C   UNL     1      17.809  12.243 -14.950  1.00  0.00     0.053 C 
BRANCH  21  22
ATOM     22  C   UNL     1      19.081  13.036 -14.943  1.00  0.00     0.041 C 
ATOM     23  O   UNL     1      19.457  13.642 -15.981  1.00  0.00    -0.550 OA
ATOM     24  O   UNL     1      19.833  13.133 -13.778  1.00  0.00    -0.550 OA
ENDBRANCH  21  22
ENDBRANCH  20  21
ENDBRANCH  19  20
ENDBRANCH  18  19
ENDBRANCH  17  18
ENDBRANCH  16  17
ENDBRANCH  15  16
ENDBRANCH  14  15
ENDBRANCH  13  14
ENDBRANCH   1  13
TORSDOF 20
ENDMDL
MODEL 6
REMARK VINA RESULT:    -2.730      2.949      7.717
REMARK INTER + INTRA:          -6.453
REMARK INTER:                  -4.939
REMARK INTRA:                  -1.514
REMARK UNBOUND:                -0.530
REMARK SMILES CCCCCCCCCCCCCCCCCCCCCC(=O)[O-]
REMARK SMILES IDX 12 1 11 2 10 3 9 4 8 5 7 6 6 7 5 8 4 9 3 10 2 11 1 12 13 13
REMARK SMILES IDX 14 14 15 15 16 16 17 17 18 18 19 19 20 20 21 21 22 22 23 23
REMARK SMILES IDX 24 24
REMARK H PARENT
REMARK Flexibility Score: inf
ROOT
ATOM      1  C   UNL     1      15.847  12.394 -14.431  1.00  0.00     0.000 C 
ENDROOT
BRANCH   1   2
ATOM      2  C   UNL     1      14.905  11.235 -14.802  1.00  0.00     0.000 C 
BRANCH   2   3
ATOM      3  C   UNL     1      15.111  10.002 -13.908  1.00  0.00     0.000 C 
BRANCH   3   4
ATOM      4  C   UNL     1      15.819   8.853 -14.648  1.00  0.00    -0.000 C 
BRANCH   4   5
ATOM      5  C   UNL     1      16.576   9.333 -15.896  1.00  0.00    -0.000 C 
BRANCH   5   6
ATOM      6  C   UNL     1      17.925   8.617 -16.082  1.00  0.00    -0.000 C 
BRANCH   6   7
ATOM      7  C   UNL     1      18.897   8.879 -14.921  1.00  0.00    -0.000 C 
BRANCH   7   8
ATOM      8  C   UNL     1      20.330   9.162 -15.403  1.00  0.00    -0.000 C 
BRANCH   8   9
ATOM      9  C   UNL     1      21.061  10.178 -14.511  1.00  0.00    -0.000 C 
BRANCH   9  10
ATOM     10  C   UNL     1      22.316  10.759 -15.187  1.00  0.00    -0.000 C 
BRANCH  10  11
ATOM     11  C   UNL     1      23.125  11.665 -14.246  1.00  0.00    -0.003 C 
ATOM     12  C   UNL     1      22.256  12.333 -13.179  1.00  0.00     0.004 C 
ENDBRANCH  10  11
ENDBRANCH   9  10
ENDBRANCH   8   9
ENDBRANCH   7   8
ENDBRANCH   6   7
ENDBRANCH   5   6
ENDBRANCH   4   5
ENDBRANCH   3   4
ENDBRANCH   2   3
ENDBRANCH   1   2
BRANCH   1  13
ATOM     13  C   UNL     1      16.505  13.047 -15.658  1.00  0.00     0.000 C 
BRANCH  13  14
ATOM     14  C   UNL     1      17.970  13.474 -15.423  1.00  0.00     0.000 C 
BRANCH  14  15
ATOM     15  C   UNL     1      18.970  12.402 -15.894  1.00  0.00     0.000 C 
BRANCH  15  16
ATOM     16  C   UNL     1      20.392  12.954 -16.071  1.00  0.00     0.000 C 
BRANCH  16  17
ATOM     17  C   UNL     1      20.428  14.493 -16.125  1.00  0.00     0.000 C 
BRANCH  17  18
ATOM     18  C   UNL     1      21.429  15.096 -15.126  1.00  0.00     0.000 C 
BRANCH  18  19
ATOM     19  C   UNL     1      22.821  15.310 -15.741  1.00  0.00     0.000 C 
BRANCH  19  20
ATOM     20  C   UNL     1      23.076  16.800 -16.017  1.00  0.00     0.006 C 
BRANCH  20  21
ATOM     21  C   UNL     1      22.682  17.686 -14.829  1.00  0.00     0.053 C 
BRANCH  21  22
ATOM     22  C   UNL     1      22.075  18.980 -15.281  1.00  0.00     0.041 C 
ATOM     23  O   UNL     1      22.811  19.970 -15.539  1.00  0.00    -0.550 OA
ATOM     24  O   UNL     1      20.699  19.082 -15.448  1.00  0.00    -0.550 OA
ENDBRANCH  21  22
ENDBRANCH  20  21
ENDBRANCH  19  20
ENDBRANCH  18  19
ENDBRANCH  17  18
ENDBRANCH  16  17
ENDBRANCH  15  16
ENDBRANCH  14  15
ENDBRANCH  13  14
ENDBRANCH   1  13
TORSDOF 20
ENDMDL
MODEL 7
REMARK VINA RESULT:    -2.486      2.893      6.880
REMARK INTER + INTRA:          -5.923
REMARK INTER:                  -4.725
REMARK INTRA:                  -1.198
REMARK UNBOUND:                -0.530
REMARK SMILES CCCCCCCCCCCCCCCCCCCCCC(=O)[O-]
REMARK SMILES IDX 12 1 11 2 10 3 9 4 8 5 7 6 6 7 5 8 4 9 3 10 2 11 1 12 13 13
REMARK SMILES IDX 14 14 15 15 16 16 17 17 18 18 19 19 20 20 21 21 22 22 23 23
REMARK SMILES IDX 24 24
REMARK H PARENT
REMARK Flexibility Score: inf
ROOT
ATOM      1  C   UNL     1      13.865   9.512 -14.821  1.00  0.00     0.000 C 
ENDROOT
BRANCH   1   2
ATOM      2  C   UNL     1      14.370   8.656 -15.996  1.00  0.00     0.000 C 
BRANCH   2   3
ATOM      3  C   UNL     1      15.737   8.014 -15.710  1.00  0.00     0.000 C 
BRANCH   3   4
ATOM      4  C   UNL     1      16.372   8.542 -14.412  1.00  0.00    -0.000 C 
BRANCH   4   5
ATOM      5  C   UNL     1      17.870   8.850 -14.570  1.00  0.00    -0.000 C 
BRANCH   5   6
ATOM      6  C   UNL     1      18.423   8.419 -15.939  1.00  0.00    -0.000 C 
BRANCH   6   7
ATOM      7  C   UNL     1      19.901   8.797 -16.123  1.00  0.00    -0.000 C 
BRANCH   7   8
ATOM      8  C   UNL     1      20.307  10.019 -15.281  1.00  0.00    -0.000 C 
BRANCH   8   9
ATOM      9  C   UNL     1      21.816  10.304 -15.346  1.00  0.00    -0.000 C 
BRANCH   9  10
ATOM     10  C   UNL     1      22.170  11.717 -14.850  1.00  0.00    -0.000 C 
BRANCH  10  11
ATOM     11  C   UNL     1      23.081  11.696 -13.614  1.00  0.00    -0.003 C 
ATOM     12  C   UNL     1      22.932  12.949 -12.749  1.00  0.00     0.004 C 
ENDBRANCH  10  11
ENDBRANCH   9  10
ENDBRANCH   8   9
ENDBRANCH   7   8
ENDBRANCH   6   7
ENDBRANCH   5   6
ENDBRANCH   4   5
ENDBRANCH   3   4
ENDBRANCH   2   3
ENDBRANCH   1   2
BRANCH   1  13
ATOM     13  C   UNL     1      14.568  10.877 -14.728  1.00  0.00     0.000 C 
BRANCH  13  14
ATOM     14  C   UNL     1      15.026  11.434 -16.092  1.00  0.00     0.000 C 
BRANCH  14  15
ATOM     15  C   UNL     1      16.534  11.745 -16.117  1.00  0.00     0.000 C 
BRANCH  15  16
ATOM     16  C   UNL     1      16.900  12.975 -15.272  1.00  0.00     0.000 C 
BRANCH  16  17
ATOM     17  C   UNL     1      18.051  12.695 -14.287  1.00  0.00     0.000 C 
BRANCH  17  18
ATOM     18  C   UNL     1      19.416  13.149 -14.828  1.00  0.00     0.000 C 
BRANCH  18  19
ATOM     19  C   UNL     1      19.360  14.539 -15.483  1.00  0.00     0.000 C 
BRANCH  19  20
ATOM     20  C   UNL     1      20.711  14.901 -16.119  1.00  0.00     0.006 C 
BRANCH  20  21
ATOM     21  C   UNL     1      21.253  16.241 -15.606  1.00  0.00     0.053 C 
BRANCH  21  22
ATOM     22  C   UNL     1      22.364  16.047 -14.619  1.00  0.00     0.041 C 
ATOM     23  O   UNL     1      23.106  15.031 -14.690  1.00  0.00    -0.550 OA
ATOM     24  O   UNL     1      22.599  17.005 -13.640  1.00  0.00    -0.550 OA
ENDBRANCH  21  22
ENDBRANCH  20  21
ENDBRANCH  19  20
ENDBRANCH  18  19
ENDBRANCH  17  18
ENDBRANCH  16  17
ENDBRANCH  15  16
ENDBRANCH  14  15
ENDBRANCH  13  14
ENDBRANCH   1  13
TORSDOF 20
ENDMDL
MODEL 8
REMARK VINA RESULT:    -2.405      1.604      2.984
REMARK INTER + INTRA:          -5.747
REMARK INTER:                  -5.482
REMARK INTRA:                  -0.265
REMARK UNBOUND:                -0.530
REMARK SMILES CCCCCCCCCCCCCCCCCCCCCC(=O)[O-]
REMARK SMILES IDX 12 1 11 2 10 3 9 4 8 5 7 6 6 7 5 8 4 9 3 10 2 11 1 12 13 13
REMARK SMILES IDX 14 14 15 15 16 16 17 17 18 18 19 19 20 20 21 21 22 22 23 23
REMARK SMILES IDX 24 24
REMARK H PARENT
REMARK Flexibility Score: inf
ROOT
ATOM      1  C   UNL     1      16.954  12.595 -15.831  1.00  0.00     0.000 C 
ENDROOT
BRANCH   1   2
ATOM      2  C   UNL     1      17.615  13.953 -16.125  1.00  0.00     0.000 C 
BRANCH   2   3
ATOM      3  C   UNL     1      19.137  13.924 -15.907  1.00  0.00     0.000 C 
BRANCH   3   4
ATOM      4  C   UNL     1      19.714  12.500 -15.991  1.00  0.00    -0.000 C 
BRANCH   4   5
ATOM      5  C   UNL     1      21.159  12.417 -15.475  1.00  0.00    -0.000 C 
BRANCH   5   6
ATOM      6  C   UNL     1      22.013  13.623 -15.904  1.00  0.00    -0.000 C 
BRANCH   6   7
ATOM      7  C   UNL     1      21.470  14.953 -15.357  1.00  0.00    -0.000 C 
BRANCH   7   8
ATOM      8  C   UNL     1      22.581  15.859 -14.799  1.00  0.00    -0.000 C 
BRANCH   8   9
ATOM      9  C   UNL     1      22.836  17.090 -15.683  1.00  0.00    -0.000 C 
BRANCH   9  10
ATOM     10  C   UNL     1      21.614  18.022 -15.763  1.00  0.00    -0.000 C 
BRANCH  10  11
ATOM     11  C   UNL     1      21.675  19.161 -14.734  1.00  0.00    -0.003 C 
ATOM     12  C   UNL     1      22.781  20.172 -15.038  1.00  0.00     0.004 C 
ENDBRANCH  10  11
ENDBRANCH   9  10
ENDBRANCH   8   9
ENDBRANCH   7   8
ENDBRANCH   6   7
ENDBRANCH   5   6
ENDBRANCH   4   5
ENDBRANCH   3   4
ENDBRANCH   2   3
ENDBRANCH   1   2
BRANCH   1  13
ATOM     13  C   UNL     1      15.968  12.652 -14.652  1.00  0.00     0.000 C 
BRANCH  13  14
ATOM     14  C   UNL     1      16.598  12.272 -13.295  1.00  0.00     0.000 C 
BRANCH  14  15
ATOM     15  C   UNL     1      18.064  11.824 -13.440  1.00  0.00     0.000 C 
BRANCH  15  16
ATOM     16  C   UNL     1      18.344  10.480 -12.749  1.00  0.00     0.000 C 
BRANCH  16  17
ATOM     17  C   UNL     1      18.874   9.412 -13.724  1.00  0.00     0.000 C 
BRANCH  17  18
ATOM     18  C   UNL     1      18.715   9.825 -15.196  1.00  0.00     0.000 C 
BRANCH  18  19
ATOM     19  C   UNL     1      18.478   8.624 -16.125  1.00  0.00     0.000 C 
BRANCH  19  20
ATOM     20  C   UNL     1      17.003   8.193 -16.098  1.00  0.00     0.006 C 
BRANCH  20  21
ATOM     21  C   UNL     1      16.048   9.393 -16.097  1.00  0.00     0.053 C 
BRANCH  21  22
ATOM     22  C   UNL     1      14.873   9.164 -15.196  1.00  0.00     0.041 C 
ATOM     23  O   UNL     1      14.992   8.445 -14.168  1.00  0.00    -0.550 OA
ATOM     24  O   UNL     1      13.654   9.771 -15.474  1.00  0.00    -0.550 OA
ENDBRANCH  21  22
ENDBRANCH  20  21
ENDBRANCH  19  20
ENDBRANCH  18  19
ENDBRANCH  17  18
ENDBRANCH  16  17
ENDBRANCH  15  16
ENDBRANCH  14  15
ENDBRANCH  13  14
ENDBRANCH   1  13
TORSDOF 20
ENDMDL
