MODEL 1
REMARK VINA RESULT:    -6.379      0.000      0.000
REMARK INTER + INTRA:          -7.786
REMARK INTER:                  -7.497
REMARK INTRA:                  -0.289
REMARK UNBOUND:                -0.289
REMARK SMILES O=c1c(O)c(-c2ccc(O)cc2)oc2cc(O)cc(O)c12
REMARK SMILES IDX 5 1 3 2 2 3 1 4 21 5 19 6 18 7 16 8 15 9 14 10 13 11 6 12
REMARK SMILES IDX 7 13 8 14 9 15 12 16 11 17 10 18 4 20 20 22 17 24
REMARK H PARENT 10 19 4 21 20 23 17 25
REMARK Flexibility Score: inf
ROOT
ATOM      1  C   UNL     1      48.651 -27.357   5.539  1.00  0.00     0.180 A 
ATOM      2  C   UNL     1      49.725 -28.236   5.312  1.00  0.00     0.208 A 
ATOM      3  C   UNL     1      50.660 -27.924   4.312  1.00  0.00     0.238 A 
ATOM      4  O   UNL     1      51.588 -28.741   4.077  1.00  0.00    -0.285 OA
ATOM      5  C   UNL     1      50.520 -26.730   3.564  1.00  0.00     0.111 A 
ATOM      6  C   UNL     1      51.431 -26.295   2.555  1.00  0.00     0.134 A 
ATOM      7  C   UNL     1      51.123 -25.164   1.789  1.00  0.00     0.093 A 
ATOM      8  C   UNL     1      49.970 -24.416   2.038  1.00  0.00     0.123 A 
ATOM      9  C   UNL     1      49.105 -24.800   3.060  1.00  0.00     0.094 A 
ATOM     10  C   UNL     1      49.366 -25.944   3.818  1.00  0.00     0.146 A 
ATOM     11  O   UNL     1      48.510 -26.279   4.776  1.00  0.00    -0.452 OA
ENDROOT
BRANCH   1  12
ATOM     12  C   UNL     1      47.639 -27.606   6.591  1.00  0.00     0.021 A 
ATOM     13  C   UNL     1      46.477 -28.354   6.329  1.00  0.00     0.016 A 
ATOM     14  C   UNL     1      45.547 -28.596   7.344  1.00  0.00     0.047 A 
ATOM     15  C   UNL     1      45.770 -28.107   8.635  1.00  0.00     0.115 A 
ATOM     16  C   UNL     1      47.867 -27.135   7.895  1.00  0.00     0.016 A 
ATOM     17  C   UNL     1      46.935 -27.378   8.909  1.00  0.00     0.047 A 
BRANCH  15  18
ATOM     18  O   UNL     1      44.835 -28.355   9.636  1.00  0.00    -0.508 OA
ATOM     19  H   UNL     1      44.921 -27.937  10.556  1.00  0.00     0.293 HD
ENDBRANCH  15  18
ENDBRANCH   1  12
BRANCH   2  20
ATOM     20  O   UNL     1      49.831 -29.420   6.047  1.00  0.00    -0.502 OA
ATOM     21  H   UNL     1      50.080 -30.304   5.620  1.00  0.00     0.293 HD
ENDBRANCH   2  20
BRANCH   6  22
ATOM     22  O   UNL     1      52.654 -26.915   2.288  1.00  0.00    -0.507 OA
ATOM     23  H   UNL     1      52.795 -27.914   2.241  1.00  0.00     0.293 HD
ENDBRANCH   6  22
BRANCH   8  24
ATOM     24  O   UNL     1      49.679 -23.283   1.281  1.00  0.00    -0.508 OA
ATOM     25  H   UNL     1      48.860 -22.716   1.470  1.00  0.00     0.293 HD
ENDBRANCH   8  24
TORSDOF 5
ENDMDL
MODEL 2
REMARK VINA RESULT:    -6.206     12.605     14.251
REMARK INTER + INTRA:          -7.583
REMARK INTER:                  -7.331
REMARK INTRA:                  -0.252
REMARK UNBOUND:                -0.289
REMARK SMILES O=c1c(O)c(-c2ccc(O)cc2)oc2cc(O)cc(O)c12
REMARK SMILES IDX 5 1 3 2 2 3 1 4 21 5 19 6 18 7 16 8 15 9 14 10 13 11 6 12
REMARK SMILES IDX 7 13 8 14 9 15 12 16 11 17 10 18 4 20 20 22 17 24
REMARK H PARENT 10 19 4 21 20 23 17 25
REMARK Flexibility Score: inf
ROOT
ATOM      1  C   UNL     1      39.297 -24.302  -4.187  1.00  0.00     0.180 A 
ATOM      2  C   UNL     1      38.368 -23.520  -4.896  1.00  0.00     0.208 A 
ATOM      3  C   UNL     1      38.466 -23.447  -6.294  1.00  0.00     0.238 A 
ATOM      4  O   UNL     1      37.665 -22.703  -6.919  1.00  0.00    -0.285 OA
ATOM      5  C   UNL     1      39.480 -24.169  -6.969  1.00  0.00     0.111 A 
ATOM      6  C   UNL     1      39.648 -24.199  -8.386  1.00  0.00     0.134 A 
ATOM      7  C   UNL     1      40.765 -24.841  -8.935  1.00  0.00     0.093 A 
ATOM      8  C   UNL     1      41.685 -25.508  -8.123  1.00  0.00     0.123 A 
ATOM      9  C   UNL     1      41.498 -25.534  -6.743  1.00  0.00     0.094 A 
ATOM     10  C   UNL     1      40.412 -24.872  -6.162  1.00  0.00     0.146 A 
ATOM     11  O   UNL     1      40.277 -24.914  -4.842  1.00  0.00    -0.452 OA
ENDROOT
BRANCH   1  12
ATOM     12  C   UNL     1      39.243 -24.448  -2.714  1.00  0.00     0.021 A 
ATOM     13  C   UNL     1      38.288 -25.275  -2.094  1.00  0.00     0.016 A 
ATOM     14  C   UNL     1      38.272 -25.415  -0.703  1.00  0.00     0.047 A 
ATOM     15  C   UNL     1      39.215 -24.747   0.083  1.00  0.00     0.115 A 
ATOM     16  C   UNL     1      40.201 -23.796  -1.920  1.00  0.00     0.016 A 
ATOM     17  C   UNL     1      40.182 -23.938  -0.529  1.00  0.00     0.047 A 
BRANCH  15  18
ATOM     18  O   UNL     1      39.186 -24.896   1.468  1.00  0.00    -0.508 OA
ATOM     19  H   UNL     1      39.502 -25.750   1.914  1.00  0.00     0.293 HD
ENDBRANCH  15  18
ENDBRANCH   1  12
BRANCH   2  20
ATOM     20  O   UNL     1      37.388 -22.798  -4.209  1.00  0.00    -0.502 OA
ATOM     21  H   UNL     1      36.398 -22.961  -4.345  1.00  0.00     0.293 HD
ENDBRANCH   2  20
BRANCH   6  22
ATOM     22  O   UNL     1      38.740 -23.644  -9.291  1.00  0.00    -0.507 OA
ATOM     23  H   UNL     1      38.280 -22.753  -9.172  1.00  0.00     0.293 HD
ENDBRANCH   6  22
BRANCH   8  24
ATOM     24  O   UNL     1      42.785 -26.158  -8.679  1.00  0.00    -0.508 OA
ATOM     25  H   UNL     1      43.571 -25.640  -9.054  1.00  0.00     0.293 HD
ENDBRANCH   8  24
TORSDOF 5
ENDMDL
MODEL 3
REMARK VINA RESULT:    -6.014     11.680     14.057
REMARK INTER + INTRA:          -7.357
REMARK INTER:                  -7.105
REMARK INTRA:                  -0.252
REMARK UNBOUND:                -0.289
REMARK SMILES O=c1c(O)c(-c2ccc(O)cc2)oc2cc(O)cc(O)c12
REMARK SMILES IDX 5 1 3 2 2 3 1 4 21 5 19 6 18 7 16 8 15 9 14 10 13 11 6 12
REMARK SMILES IDX 7 13 8 14 9 15 12 16 11 17 10 18 4 20 20 22 17 24
REMARK H PARENT 10 19 4 21 20 23 17 25
REMARK Flexibility Score: inf
ROOT
ATOM      1  C   UNL     1      52.597 -33.693  -5.168  1.00  0.00     0.180 A 
ATOM      2  C   UNL     1      53.828 -34.297  -5.475  1.00  0.00     0.208 A 
ATOM      3  C   UNL     1      53.834 -35.523  -6.157  1.00  0.00     0.238 A 
ATOM      4  O   UNL     1      54.938 -36.086  -6.382  1.00  0.00    -0.285 OA
ATOM      5  C   UNL     1      52.610 -36.124  -6.538  1.00  0.00     0.111 A 
ATOM      6  C   UNL     1      52.498 -37.346  -7.268  1.00  0.00     0.134 A 
ATOM      7  C   UNL     1      51.235 -37.913  -7.476  1.00  0.00     0.093 A 
ATOM      8  C   UNL     1      50.075 -37.270  -7.037  1.00  0.00     0.123 A 
ATOM      9  C   UNL     1      50.170 -36.048  -6.376  1.00  0.00     0.094 A 
ATOM     10  C   UNL     1      51.419 -35.474  -6.121  1.00  0.00     0.146 A 
ATOM     11  O   UNL     1      51.464 -34.313  -5.479  1.00  0.00    -0.452 OA
ENDROOT
BRANCH   1  12
ATOM     12  C   UNL     1      52.510 -32.388  -4.472  1.00  0.00     0.021 A 
ATOM     13  C   UNL     1      52.244 -32.308  -3.093  1.00  0.00     0.016 A 
ATOM     14  C   UNL     1      52.191 -31.066  -2.455  1.00  0.00     0.047 A 
ATOM     15  C   UNL     1      52.416 -29.891  -3.178  1.00  0.00     0.115 A 
ATOM     16  C   UNL     1      52.757 -31.205  -5.190  1.00  0.00     0.016 A 
ATOM     17  C   UNL     1      52.703 -29.964  -4.548  1.00  0.00     0.047 A 
BRANCH  15  18
ATOM     18  O   UNL     1      52.359 -28.661  -2.528  1.00  0.00    -0.508 OA
ATOM     19  H   UNL     1      52.292 -27.792  -3.045  1.00  0.00     0.293 HD
ENDBRANCH  15  18
ENDBRANCH   1  12
BRANCH   2  20
ATOM     20  O   UNL     1      55.025 -33.698  -5.071  1.00  0.00    -0.502 OA
ATOM     21  H   UNL     1      55.802 -33.555  -5.704  1.00  0.00     0.293 HD
ENDBRANCH   2  20
BRANCH   6  22
ATOM     22  O   UNL     1      53.585 -38.021  -7.829  1.00  0.00    -0.507 OA
ATOM     23  H   UNL     1      54.467 -38.179  -7.364  1.00  0.00     0.293 HD
ENDBRANCH   6  22
BRANCH   8  24
ATOM     24  O   UNL     1      48.820 -37.833  -7.262  1.00  0.00    -0.508 OA
ATOM     25  H   UNL     1      48.668 -38.833  -7.187  1.00  0.00     0.293 HD
ENDBRANCH   8  24
TORSDOF 5
ENDMDL
MODEL 4
REMARK VINA RESULT:    -5.941      1.905      6.729
REMARK INTER + INTRA:          -7.272
REMARK INTER:                  -7.024
REMARK INTRA:                  -0.248
REMARK UNBOUND:                -0.289
REMARK SMILES O=c1c(O)c(-c2ccc(O)cc2)oc2cc(O)cc(O)c12
REMARK SMILES IDX 5 1 3 2 2 3 1 4 21 5 19 6 18 7 16 8 15 9 14 10 13 11 6 12
REMARK SMILES IDX 7 13 8 14 9 15 12 16 11 17 10 18 4 20 20 22 17 24
REMARK H PARENT 10 19 4 21 20 23 17 25
REMARK Flexibility Score: inf
ROOT
ATOM      1  C   UNL     1      49.046 -26.942   5.090  1.00  0.00     0.180 A 
ATOM      2  C   UNL     1      49.725 -26.292   6.136  1.00  0.00     0.208 A 
ATOM      3  C   UNL     1      49.163 -26.301   7.422  1.00  0.00     0.238 A 
ATOM      4  O   UNL     1      49.747 -25.671   8.342  1.00  0.00    -0.285 OA
ATOM      5  C   UNL     1      47.938 -26.973   7.651  1.00  0.00     0.111 A 
ATOM      6  C   UNL     1      47.297 -27.079   8.922  1.00  0.00     0.134 A 
ATOM      7  C   UNL     1      46.024 -27.655   9.007  1.00  0.00     0.093 A 
ATOM      8  C   UNL     1      45.395 -28.185   7.878  1.00  0.00     0.123 A 
ATOM      9  C   UNL     1      46.038 -28.139   6.643  1.00  0.00     0.094 A 
ATOM     10  C   UNL     1      47.294 -27.538   6.520  1.00  0.00     0.146 A 
ATOM     11  O   UNL     1      47.866 -27.507   5.323  1.00  0.00    -0.452 OA
ENDROOT
BRANCH   1  12
ATOM     12  C   UNL     1      49.588 -26.997   3.713  1.00  0.00     0.021 A 
ATOM     13  C   UNL     1      50.651 -27.855   3.377  1.00  0.00     0.016 A 
ATOM     14  C   UNL     1      51.129 -27.907   2.064  1.00  0.00     0.047 A 
ATOM     15  C   UNL     1      50.546 -27.116   1.070  1.00  0.00     0.115 A 
ATOM     16  C   UNL     1      48.992 -26.221   2.704  1.00  0.00     0.016 A 
ATOM     17  C   UNL     1      49.473 -26.274   1.392  1.00  0.00     0.047 A 
BRANCH  15  18
ATOM     18  O   UNL     1      51.034 -27.178  -0.233  1.00  0.00    -0.508 OA
ATOM     19  H   UNL     1      51.850 -27.733  -0.466  1.00  0.00     0.293 HD
ENDBRANCH  15  18
ENDBRANCH   1  12
BRANCH   2  20
ATOM     20  O   UNL     1      50.922 -25.616   5.883  1.00  0.00    -0.502 OA
ATOM     21  H   UNL     1      51.805 -26.099   5.771  1.00  0.00     0.293 HD
ENDBRANCH   2  20
BRANCH   6  22
ATOM     22  O   UNL     1      47.877 -26.666  10.125  1.00  0.00    -0.507 OA
ATOM     23  H   UNL     1      48.216 -27.287  10.843  1.00  0.00     0.293 HD
ENDBRANCH   6  22
BRANCH   8  24
ATOM     24  O   UNL     1      44.134 -28.770   7.974  1.00  0.00    -0.508 OA
ATOM     25  H   UNL     1      43.689 -29.203   7.173  1.00  0.00     0.293 HD
ENDBRANCH   8  24
TORSDOF 5
ENDMDL
MODEL 5
REMARK VINA RESULT:    -5.928      1.628      3.529
REMARK INTER + INTRA:          -7.256
REMARK INTER:                  -6.965
REMARK INTRA:                  -0.291
REMARK UNBOUND:                -0.289
REMARK SMILES O=c1c(O)c(-c2ccc(O)cc2)oc2cc(O)cc(O)c12
REMARK SMILES IDX 5 1 3 2 2 3 1 4 21 5 19 6 18 7 16 8 15 9 14 10 13 11 6 12
REMARK SMILES IDX 7 13 8 14 9 15 12 16 11 17 10 18 4 20 20 22 17 24
REMARK H PARENT 10 19 4 21 20 23 17 25
REMARK Flexibility Score: inf
ROOT
ATOM      1  C   UNL     1      49.023 -27.929   5.558  1.00  0.00     0.180 A 
ATOM      2  C   UNL     1      49.128 -26.946   4.559  1.00  0.00     0.208 A 
ATOM      3  C   UNL     1      50.171 -27.034   3.624  1.00  0.00     0.238 A 
ATOM      4  O   UNL     1      50.292 -26.122   2.765  1.00  0.00    -0.285 OA
ATOM      5  C   UNL     1      51.086 -28.112   3.689  1.00  0.00     0.111 A 
ATOM      6  C   UNL     1      52.158 -28.322   2.769  1.00  0.00     0.134 A 
ATOM      7  C   UNL     1      53.080 -29.349   3.007  1.00  0.00     0.093 A 
ATOM      8  C   UNL     1      52.933 -30.212   4.095  1.00  0.00     0.123 A 
ATOM      9  C   UNL     1      51.857 -30.052   4.964  1.00  0.00     0.094 A 
ATOM     10  C   UNL     1      50.941 -29.014   4.774  1.00  0.00     0.146 A 
ATOM     11  O   UNL     1      49.936 -28.891   5.633  1.00  0.00    -0.452 OA
ENDROOT
BRANCH   1  12
ATOM     12  C   UNL     1      47.936 -27.917   6.564  1.00  0.00     0.021 A 
ATOM     13  C   UNL     1      46.742 -28.634   6.362  1.00  0.00     0.016 A 
ATOM     14  C   UNL     1      45.740 -28.627   7.337  1.00  0.00     0.047 A 
ATOM     15  C   UNL     1      45.921 -27.920   8.528  1.00  0.00     0.115 A 
ATOM     16  C   UNL     1      48.120 -27.225   7.773  1.00  0.00     0.016 A 
ATOM     17  C   UNL     1      47.116 -27.220   8.746  1.00  0.00     0.047 A 
BRANCH  15  18
ATOM     18  O   UNL     1      44.913 -27.922   9.490  1.00  0.00    -0.508 OA
ATOM     19  H   UNL     1      43.951 -27.714   9.248  1.00  0.00     0.293 HD
ENDBRANCH  15  18
ENDBRANCH   1  12
BRANCH   2  20
ATOM     20  O   UNL     1      48.226 -25.878   4.526  1.00  0.00    -0.502 OA
ATOM     21  H   UNL     1      47.223 -26.014   4.519  1.00  0.00     0.293 HD
ENDBRANCH   2  20
BRANCH   6  22
ATOM     22  O   UNL     1      52.342 -27.576   1.602  1.00  0.00    -0.507 OA
ATOM     23  H   UNL     1      52.425 -27.968   0.676  1.00  0.00     0.293 HD
ENDBRANCH   6  22
BRANCH   8  24
ATOM     24  O   UNL     1      53.847 -31.241   4.315  1.00  0.00    -0.508 OA
ATOM     25  H   UNL     1      53.678 -31.959   5.010  1.00  0.00     0.293 HD
ENDBRANCH   8  24
TORSDOF 5
ENDMDL
MODEL 6
REMARK VINA RESULT:    -5.565     13.165     14.947
REMARK INTER + INTRA:          -6.830
REMARK INTER:                  -6.653
REMARK INTRA:                  -0.177
REMARK UNBOUND:                -0.289
REMARK SMILES O=c1c(O)c(-c2ccc(O)cc2)oc2cc(O)cc(O)c12
REMARK SMILES IDX 5 1 3 2 2 3 1 4 21 5 19 6 18 7 16 8 15 9 14 10 13 11 6 12
REMARK SMILES IDX 7 13 8 14 9 15 12 16 11 17 10 18 4 20 20 22 17 24
REMARK H PARENT 10 19 4 21 20 23 17 25
REMARK Flexibility Score: inf
ROOT
ATOM      1  C   UNL     1      38.678 -23.093  -3.392  1.00  0.00     0.180 A 
ATOM      2  C   UNL     1      38.504 -21.703  -3.508  1.00  0.00     0.208 A 
ATOM      3  C   UNL     1      38.094 -21.169  -4.739  1.00  0.00     0.238 A 
ATOM      4  O   UNL     1      37.992 -19.919  -4.852  1.00  0.00    -0.285 OA
ATOM      5  C   UNL     1      37.847 -22.030  -5.835  1.00  0.00     0.111 A 
ATOM      6  C   UNL     1      37.390 -21.601  -7.117  1.00  0.00     0.134 A 
ATOM      7  C   UNL     1      37.305 -22.526  -8.165  1.00  0.00     0.093 A 
ATOM      8  C   UNL     1      37.600 -23.876  -7.961  1.00  0.00     0.123 A 
ATOM      9  C   UNL     1      37.990 -24.315  -6.698  1.00  0.00     0.094 A 
ATOM     10  C   UNL     1      38.119 -23.410  -5.641  1.00  0.00     0.146 A 
ATOM     11  O   UNL     1      38.503 -23.869  -4.456  1.00  0.00    -0.452 OA
ENDROOT
BRANCH   1  12
ATOM     12  C   UNL     1      39.085 -23.734  -2.120  1.00  0.00     0.021 A 
ATOM     13  C   UNL     1      40.379 -23.563  -1.594  1.00  0.00     0.016 A 
ATOM     14  C   UNL     1      40.732 -24.158  -0.379  1.00  0.00     0.047 A 
ATOM     15  C   UNL     1      39.797 -24.917   0.332  1.00  0.00     0.115 A 
ATOM     16  C   UNL     1      38.144 -24.480  -1.390  1.00  0.00     0.016 A 
ATOM     17  C   UNL     1      38.500 -25.074  -0.175  1.00  0.00     0.047 A 
BRANCH  15  18
ATOM     18  O   UNL     1      40.164 -25.504   1.540  1.00  0.00    -0.508 OA
ATOM     19  H   UNL     1      40.790 -25.037   2.187  1.00  0.00     0.293 HD
ENDBRANCH  15  18
ENDBRANCH   1  12
BRANCH   2  20
ATOM     20  O   UNL     1      38.774 -20.868  -2.420  1.00  0.00    -0.502 OA
ATOM     21  H   UNL     1      39.648 -20.365  -2.325  1.00  0.00     0.293 HD
ENDBRANCH   2  20
BRANCH   6  22
ATOM     22  O   UNL     1      36.982 -20.295  -7.403  1.00  0.00    -0.507 OA
ATOM     23  H   UNL     1      36.937 -19.897  -8.329  1.00  0.00     0.293 HD
ENDBRANCH   6  22
BRANCH   8  24
ATOM     24  O   UNL     1      37.497 -24.793  -9.005  1.00  0.00    -0.508 OA
ATOM     25  H   UNL     1      36.642 -24.893  -9.540  1.00  0.00     0.293 HD
ENDBRANCH   8  24
TORSDOF 5
ENDMDL
MODEL 7
REMARK VINA RESULT:    -5.548     13.562     16.091
REMARK INTER + INTRA:          -6.809
REMARK INTER:                  -6.581
REMARK INTRA:                  -0.229
REMARK UNBOUND:                -0.289
REMARK SMILES O=c1c(O)c(-c2ccc(O)cc2)oc2cc(O)cc(O)c12
REMARK SMILES IDX 5 1 3 2 2 3 1 4 21 5 19 6 18 7 16 8 15 9 14 10 13 11 6 12
REMARK SMILES IDX 7 13 8 14 9 15 12 16 11 17 10 18 4 20 20 22 17 24
REMARK H PARENT 10 19 4 21 20 23 17 25
REMARK Flexibility Score: inf
ROOT
ATOM      1  C   UNL     1      38.004 -22.511  -4.793  1.00  0.00     0.180 A 
ATOM      2  C   UNL     1      38.129 -21.191  -4.324  1.00  0.00     0.208 A 
ATOM      3  C   UNL     1      38.519 -20.976  -2.993  1.00  0.00     0.238 A 
ATOM      4  O   UNL     1      38.577 -19.794  -2.564  1.00  0.00    -0.285 OA
ATOM      5  C   UNL     1      38.795 -22.081  -2.152  1.00  0.00     0.111 A 
ATOM      6  C   UNL     1      39.237 -21.978  -0.798  1.00  0.00     0.134 A 
ATOM      7  C   UNL     1      39.353 -23.137  -0.021  1.00  0.00     0.093 A 
ATOM      8  C   UNL     1      39.106 -24.399  -0.567  1.00  0.00     0.123 A 
ATOM      9  C   UNL     1      38.732 -24.514  -1.904  1.00  0.00     0.094 A 
ATOM     10  C   UNL     1      38.573 -23.373  -2.695  1.00  0.00     0.146 A 
ATOM     11  O   UNL     1      38.205 -23.526  -3.961  1.00  0.00    -0.452 OA
ENDROOT
BRANCH   1  12
ATOM     12  C   UNL     1      37.620 -22.817  -6.191  1.00  0.00     0.021 A 
ATOM     13  C   UNL     1      38.564 -23.285  -7.124  1.00  0.00     0.016 A 
ATOM     14  C   UNL     1      38.174 -23.590  -8.431  1.00  0.00     0.047 A 
ATOM     15  C   UNL     1      36.838 -23.448  -8.819  1.00  0.00     0.115 A 
ATOM     16  C   UNL     1      36.276 -22.697  -6.581  1.00  0.00     0.016 A 
ATOM     17  C   UNL     1      35.889 -23.003  -7.890  1.00  0.00     0.047 A 
BRANCH  15  18
ATOM     18  O   UNL     1      36.465 -23.756 -10.125  1.00  0.00    -0.508 OA
ATOM     19  H   UNL     1      36.507 -23.064 -10.865  1.00  0.00     0.293 HD
ENDBRANCH  15  18
ENDBRANCH   1  12
BRANCH   2  20
ATOM     20  O   UNL     1      37.830 -20.115  -5.165  1.00  0.00    -0.502 OA
ATOM     21  H   UNL     1      36.892 -19.744  -5.260  1.00  0.00     0.293 HD
ENDBRANCH   2  20
BRANCH   6  22
ATOM     22  O   UNL     1      39.598 -20.776  -0.184  1.00  0.00    -0.507 OA
ATOM     23  H   UNL     1      38.995 -20.233   0.415  1.00  0.00     0.293 HD
ENDBRANCH   6  22
BRANCH   8  24
ATOM     24  O   UNL     1      39.240 -25.549   0.209  1.00  0.00    -0.508 OA
ATOM     25  H   UNL     1      38.687 -26.378   0.027  1.00  0.00     0.293 HD
ENDBRANCH   8  24
TORSDOF 5
ENDMDL
MODEL 8
REMARK VINA RESULT:    -5.543     13.908     16.242
REMARK INTER + INTRA:          -6.804
REMARK INTER:                  -6.530
REMARK INTRA:                  -0.274
REMARK UNBOUND:                -0.289
REMARK SMILES O=c1c(O)c(-c2ccc(O)cc2)oc2cc(O)cc(O)c12
REMARK SMILES IDX 5 1 3 2 2 3 1 4 21 5 19 6 18 7 16 8 15 9 14 10 13 11 6 12
REMARK SMILES IDX 7 13 8 14 9 15 12 16 11 17 10 18 4 20 20 22 17 24
REMARK H PARENT 10 19 4 21 20 23 17 25
REMARK Flexibility Score: inf
ROOT
ATOM      1  C   UNL     1      53.206 -34.186  -7.502  1.00  0.00     0.180 A 
ATOM      2  C   UNL     1      53.089 -34.821  -8.751  1.00  0.00     0.208 A 
ATOM      3  C   UNL     1      52.347 -36.009  -8.843  1.00  0.00     0.238 A 
ATOM      4  O   UNL     1      52.290 -36.602  -9.952  1.00  0.00    -0.285 OA
ATOM      5  C   UNL     1      51.717 -36.538  -7.691  1.00  0.00     0.111 A 
ATOM      6  C   UNL     1      50.908 -37.714  -7.677  1.00  0.00     0.134 A 
ATOM      7  C   UNL     1      50.443 -38.218  -6.456  1.00  0.00     0.093 A 
ATOM      8  C   UNL     1      50.705 -37.554  -5.255  1.00  0.00     0.123 A 
ATOM      9  C   UNL     1      51.444 -36.373  -5.265  1.00  0.00     0.094 A 
ATOM     10  C   UNL     1      51.952 -35.865  -6.464  1.00  0.00     0.146 A 
ATOM     11  O   UNL     1      52.660 -34.743  -6.427  1.00  0.00    -0.452 OA
ENDROOT
BRANCH   1  12
ATOM     12  C   UNL     1      53.952 -32.918  -7.330  1.00  0.00     0.021 A 
ATOM     13  C   UNL     1      53.383 -31.680  -7.679  1.00  0.00     0.016 A 
ATOM     14  C   UNL     1      54.097 -30.494  -7.485  1.00  0.00     0.047 A 
ATOM     15  C   UNL     1      55.379 -30.526  -6.929  1.00  0.00     0.115 A 
ATOM     16  C   UNL     1      55.232 -32.942  -6.751  1.00  0.00     0.016 A 
ATOM     17  C   UNL     1      55.944 -31.754  -6.559  1.00  0.00     0.047 A 
BRANCH  15  18
ATOM     18  O   UNL     1      56.078 -29.336  -6.742  1.00  0.00    -0.508 OA
ATOM     19  H   UNL     1      55.642 -28.527  -6.314  1.00  0.00     0.293 HD
ENDBRANCH  15  18
ENDBRANCH   1  12
BRANCH   2  20
ATOM     20  O   UNL     1      53.736 -34.293  -9.871  1.00  0.00    -0.502 OA
ATOM     21  H   UNL     1      54.613 -33.789  -9.805  1.00  0.00     0.293 HD
ENDBRANCH   2  20
BRANCH   6  22
ATOM     22  O   UNL     1      50.511 -38.401  -8.827  1.00  0.00    -0.507 OA
ATOM     23  H   UNL     1      50.839 -39.318  -9.091  1.00  0.00     0.293 HD
ENDBRANCH   6  22
BRANCH   8  24
ATOM     24  O   UNL     1      50.226 -38.053  -4.046  1.00  0.00    -0.508 OA
ATOM     25  H   UNL     1      50.672 -37.826  -3.165  1.00  0.00     0.293 HD
ENDBRANCH   8  24
TORSDOF 5
ENDMDL
MODEL 9
REMARK VINA RESULT:    -5.505      1.902      2.439
REMARK INTER + INTRA:          -6.759
REMARK INTER:                  -6.473
REMARK INTRA:                  -0.285
REMARK UNBOUND:                -0.289
REMARK SMILES O=c1c(O)c(-c2ccc(O)cc2)oc2cc(O)cc(O)c12
REMARK SMILES IDX 5 1 3 2 2 3 1 4 21 5 19 6 18 7 16 8 15 9 14 10 13 11 6 12
REMARK SMILES IDX 7 13 8 14 9 15 12 16 11 17 10 18 4 20 20 22 17 24
REMARK H PARENT 10 19 4 21 20 23 17 25
REMARK Flexibility Score: inf
ROOT
ATOM      1  C   UNL     1      50.344 -28.049   5.489  1.00  0.00     0.180 A 
ATOM      2  C   UNL     1      50.912 -29.329   5.368  1.00  0.00     0.208 A 
ATOM      3  C   UNL     1      51.841 -29.567   4.344  1.00  0.00     0.238 A 
ATOM      4  O   UNL     1      52.306 -30.730   4.207  1.00  0.00    -0.285 OA
ATOM      5  C   UNL     1      52.204 -28.520   3.463  1.00  0.00     0.111 A 
ATOM      6  C   UNL     1      53.165 -28.639   2.414  1.00  0.00     0.134 A 
ATOM      7  C   UNL     1      53.348 -27.576   1.522  1.00  0.00     0.093 A 
ATOM      8  C   UNL     1      52.652 -26.375   1.679  1.00  0.00     0.123 A 
ATOM      9  C   UNL     1      51.756 -26.228   2.735  1.00  0.00     0.094 A 
ATOM     10  C   UNL     1      51.524 -27.284   3.620  1.00  0.00     0.146 A 
ATOM     11  O   UNL     1      50.654 -27.105   4.606  1.00  0.00    -0.452 OA
ENDROOT
BRANCH   1  12
ATOM     12  C   UNL     1      49.375 -27.713   6.558  1.00  0.00     0.021 A 
ATOM     13  C   UNL     1      47.989 -27.837   6.357  1.00  0.00     0.016 A 
ATOM     14  C   UNL     1      47.095 -27.538   7.390  1.00  0.00     0.047 A 
ATOM     15  C   UNL     1      47.572 -27.126   8.637  1.00  0.00     0.115 A 
ATOM     16  C   UNL     1      49.849 -27.319   7.821  1.00  0.00     0.016 A 
ATOM     17  C   UNL     1      48.953 -27.020   8.852  1.00  0.00     0.047 A 
BRANCH  15  18
ATOM     18  O   UNL     1      46.670 -26.830   9.656  1.00  0.00    -0.508 OA
ATOM     19  H   UNL     1      46.057 -27.540  10.042  1.00  0.00     0.293 HD
ENDBRANCH  15  18
ENDBRANCH   1  12
BRANCH   2  20
ATOM     20  O   UNL     1      50.523 -30.354   6.235  1.00  0.00    -0.502 OA
ATOM     21  H   UNL     1      50.820 -30.390   7.203  1.00  0.00     0.293 HD
ENDBRANCH   2  20
BRANCH   6  22
ATOM     22  O   UNL     1      53.978 -29.759   2.225  1.00  0.00    -0.507 OA
ATOM     23  H   UNL     1      54.981 -29.730   2.113  1.00  0.00     0.293 HD
ENDBRANCH   6  22
BRANCH   8  24
ATOM     24  O   UNL     1      52.852 -25.315   0.796  1.00  0.00    -0.508 OA
ATOM     25  H   UNL     1      53.783 -25.034   0.509  1.00  0.00     0.293 HD
ENDBRANCH   8  24
TORSDOF 5
ENDMDL
