MODEL 1
REMARK VINA RESULT:    -4.508      0.000      0.000
REMARK INTER + INTRA:          -9.441
REMARK INTER:                  -8.198
REMARK INTRA:                  -1.243
REMARK UNBOUND:                -1.243
REMARK SMILES CCCCCCCCCCCCCCCC(=O)[O-]
REMARK SMILES IDX 9 1 10 2 11 3 12 4 13 5 14 6 15 7 16 8 17 9 18 10 8 11 7 12
REMARK SMILES IDX 6 13 5 14 4 15 3 16 2 17 1 18
REMARK H PARENT
REMARK Flexibility Score: inf
ROOT
ATOM      1  C   UNL     1      33.689  33.790  22.764  1.00  0.00     0.000 C 
ENDROOT
BRANCH   1   2
ATOM      2  C   UNL     1      33.154  32.383  22.433  1.00  0.00     0.000 C 
BRANCH   2   3
ATOM      3  C   UNL     1      34.158  31.535  21.635  1.00  0.00     0.000 C 
BRANCH   3   4
ATOM      4  C   UNL     1      34.339  30.120  22.214  1.00  0.00     0.000 C 
BRANCH   4   5
ATOM      5  C   UNL     1      33.069  29.245  22.227  1.00  0.00     0.000 C 
BRANCH   5   6
ATOM      6  C   UNL     1      32.391  29.058  20.858  1.00  0.00     0.006 C 
BRANCH   6   7
ATOM      7  C   UNL     1      33.347  28.512  19.791  1.00  0.00     0.053 C 
BRANCH   7   8
ATOM      8  C   UNL     1      33.221  29.301  18.525  1.00  0.00     0.041 C 
ATOM      9  O   UNL     1      32.726  30.458  18.548  1.00  0.00    -0.550 OA
ATOM     10  O   UNL     1      33.603  28.737  17.314  1.00  0.00    -0.550 OA
ENDBRANCH   7   8
ENDBRANCH   6   7
ENDBRANCH   5   6
ENDBRANCH   4   5
ENDBRANCH   3   4
ENDBRANCH   2   3
ENDBRANCH   1   2
BRANCH   1  11
ATOM     11  C   UNL     1      33.997  34.039  24.252  1.00  0.00     0.000 C 
BRANCH  11  12
ATOM     12  C   UNL     1      33.812  32.818  25.174  1.00  0.00    -0.000 C 
BRANCH  12  13
ATOM     13  C   UNL     1      35.138  32.159  25.609  1.00  0.00    -0.000 C 
BRANCH  13  14
ATOM     14  C   UNL     1      36.292  33.168  25.709  1.00  0.00    -0.000 C 
BRANCH  14  15
ATOM     15  C   UNL     1      36.693  33.404  27.170  1.00  0.00    -0.000 C 
BRANCH  15  16
ATOM     16  C   UNL     1      36.259  34.796  27.642  1.00  0.00    -0.000 C 
BRANCH  16  17
ATOM     17  C   UNL     1      36.878  35.133  29.004  1.00  0.00    -0.003 C 
ATOM     18  C   UNL     1      36.056  36.190  29.736  1.00  0.00     0.004 C 
ENDBRANCH  16  17
ENDBRANCH  15  16
ENDBRANCH  14  15
ENDBRANCH  13  14
ENDBRANCH  12  13
ENDBRANCH  11  12
ENDBRANCH   1  11
TORSDOF 14
ENDMDL
MODEL 2
REMARK VINA RESULT:    -4.463      3.083      4.752
REMARK INTER + INTRA:          -9.359
REMARK INTER:                  -6.990
REMARK INTRA:                  -2.369
REMARK UNBOUND:                -1.243
REMARK SMILES CCCCCCCCCCCCCCCC(=O)[O-]
REMARK SMILES IDX 9 1 10 2 11 3 12 4 13 5 14 6 15 7 16 8 17 9 18 10 8 11 7 12
REMARK SMILES IDX 6 13 5 14 4 15 3 16 2 17 1 18
REMARK H PARENT
REMARK Flexibility Score: inf
ROOT
ATOM      1  C   UNL     1      37.236  34.851  25.731  1.00  0.00     0.000 C 
ENDROOT
BRANCH   1   2
ATOM      2  C   UNL     1      37.202  33.557  26.567  1.00  0.00     0.000 C 
BRANCH   2   3
ATOM      3  C   UNL     1      37.299  32.287  25.706  1.00  0.00     0.000 C 
BRANCH   3   4
ATOM      4  C   UNL     1      36.045  32.051  24.845  1.00  0.00     0.000 C 
BRANCH   4   5
ATOM      5  C   UNL     1      34.703  32.100  25.604  1.00  0.00     0.000 C 
BRANCH   5   6
ATOM      6  C   UNL     1      33.594  32.917  24.918  1.00  0.00     0.006 C 
BRANCH   6   7
ATOM      7  C   UNL     1      34.083  33.644  23.659  1.00  0.00     0.053 C 
BRANCH   7   8
ATOM      8  C   UNL     1      33.385  33.113  22.446  1.00  0.00     0.041 C 
ATOM      9  O   UNL     1      32.775  32.013  22.497  1.00  0.00    -0.550 OA
ATOM     10  O   UNL     1      33.450  33.811  21.247  1.00  0.00    -0.550 OA
ENDBRANCH   7   8
ENDBRANCH   6   7
ENDBRANCH   5   6
ENDBRANCH   4   5
ENDBRANCH   3   4
ENDBRANCH   2   3
ENDBRANCH   1   2
BRANCH   1  11
ATOM     11  C   UNL     1      36.083  35.836  26.002  1.00  0.00     0.000 C 
BRANCH  11  12
ATOM     12  C   UNL     1      35.128  35.429  27.141  1.00  0.00    -0.000 C 
BRANCH  12  13
ATOM     13  C   UNL     1      35.172  36.376  28.358  1.00  0.00    -0.000 C 
BRANCH  13  14
ATOM     14  C   UNL     1      35.926  35.768  29.550  1.00  0.00    -0.000 C 
BRANCH  14  15
ATOM     15  C   UNL     1      37.436  35.995  29.422  1.00  0.00    -0.000 C 
BRANCH  15  16
ATOM     16  C   UNL     1      37.765  37.491  29.364  1.00  0.00    -0.000 C 
BRANCH  16  17
ATOM     17  C   UNL     1      38.568  37.830  28.102  1.00  0.00    -0.003 C 
ATOM     18  C   UNL     1      37.849  38.875  27.255  1.00  0.00     0.004 C 
ENDBRANCH  16  17
ENDBRANCH  15  16
ENDBRANCH  14  15
ENDBRANCH  13  14
ENDBRANCH  12  13
ENDBRANCH  11  12
ENDBRANCH   1  11
TORSDOF 14
ENDMDL
MODEL 3
REMARK VINA RESULT:    -4.436      1.943      4.214
REMARK INTER + INTRA:          -9.309
REMARK INTER:                  -7.706
REMARK INTRA:                  -1.603
REMARK UNBOUND:                -1.243
REMARK SMILES CCCCCCCCCCCCCCCC(=O)[O-]
REMARK SMILES IDX 9 1 10 2 11 3 12 4 13 5 14 6 15 7 16 8 17 9 18 10 8 11 7 12
REMARK SMILES IDX 6 13 5 14 4 15 3 16 2 17 1 18
REMARK H PARENT
REMARK Flexibility Score: inf
ROOT
ATOM      1  C   UNL     1      37.257  32.540  26.058  1.00  0.00     0.000 C 
ENDROOT
BRANCH   1   2
ATOM      2  C   UNL     1      36.082  32.220  25.115  1.00  0.00     0.000 C 
BRANCH   2   3
ATOM      3  C   UNL     1      34.722  32.223  25.833  1.00  0.00     0.000 C 
BRANCH   3   4
ATOM      4  C   UNL     1      33.649  33.028  25.078  1.00  0.00     0.000 C 
BRANCH   4   5
ATOM      5  C   UNL     1      34.166  33.867  23.891  1.00  0.00     0.000 C 
BRANCH   5   6
ATOM      6  C   UNL     1      33.740  33.361  22.500  1.00  0.00     0.006 C 
BRANCH   6   7
ATOM      7  C   UNL     1      32.939  32.055  22.563  1.00  0.00     0.053 C 
BRANCH   7   8
ATOM      8  C   UNL     1      33.774  30.908  22.085  1.00  0.00     0.041 C 
ATOM      9  O   UNL     1      34.283  30.108  22.914  1.00  0.00    -0.550 OA
ATOM     10  O   UNL     1      34.029  30.751  20.729  1.00  0.00    -0.550 OA
ENDBRANCH   7   8
ENDBRANCH   6   7
ENDBRANCH   5   6
ENDBRANCH   4   5
ENDBRANCH   3   4
ENDBRANCH   2   3
ENDBRANCH   1   2
BRANCH   1  11
ATOM     11  C   UNL     1      37.502  34.038  26.315  1.00  0.00     0.000 C 
BRANCH  11  12
ATOM     12  C   UNL     1      36.921  34.580  27.637  1.00  0.00    -0.000 C 
BRANCH  12  13
ATOM     13  C   UNL     1      35.698  35.501  27.449  1.00  0.00    -0.000 C 
BRANCH  13  14
ATOM     14  C   UNL     1      35.310  36.236  28.740  1.00  0.00    -0.000 C 
BRANCH  14  15
ATOM     15  C   UNL     1      36.546  36.543  29.593  1.00  0.00    -0.000 C 
BRANCH  15  16
ATOM     16  C   UNL     1      37.112  37.929  29.261  1.00  0.00    -0.000 C 
BRANCH  16  17
ATOM     17  C   UNL     1      38.606  38.008  29.599  1.00  0.00    -0.003 C 
ATOM     18  C   UNL     1      39.308  36.685  29.308  1.00  0.00     0.004 C 
ENDBRANCH  16  17
ENDBRANCH  15  16
ENDBRANCH  14  15
ENDBRANCH  13  14
ENDBRANCH  12  13
ENDBRANCH  11  12
ENDBRANCH   1  11
TORSDOF 14
ENDMDL
MODEL 4
REMARK VINA RESULT:    -4.432      4.453      8.654
REMARK INTER + INTRA:          -9.302
REMARK INTER:                  -7.679
REMARK INTRA:                  -1.623
REMARK UNBOUND:                -1.243
REMARK SMILES CCCCCCCCCCCCCCCC(=O)[O-]
REMARK SMILES IDX 9 1 10 2 11 3 12 4 13 5 14 6 15 7 16 8 17 9 18 10 8 11 7 12
REMARK SMILES IDX 6 13 5 14 4 15 3 16 2 17 1 18
REMARK H PARENT
REMARK Flexibility Score: inf
ROOT
ATOM      1  C   UNL     1      35.406  31.954  22.324  1.00  0.00     0.000 C 
ENDROOT
BRANCH   1   2
ATOM      2  C   UNL     1      35.403  33.114  23.338  1.00  0.00     0.000 C 
BRANCH   2   3
ATOM      3  C   UNL     1      34.116  33.169  24.177  1.00  0.00     0.000 C 
BRANCH   3   4
ATOM      4  C   UNL     1      34.359  32.860  25.666  1.00  0.00     0.000 C 
BRANCH   4   5
ATOM      5  C   UNL     1      35.822  32.547  26.045  1.00  0.00     0.000 C 
BRANCH   5   6
ATOM      6  C   UNL     1      36.438  33.486  27.098  1.00  0.00     0.006 C 
BRANCH   6   7
ATOM      7  C   UNL     1      35.837  34.897  27.060  1.00  0.00     0.053 C 
BRANCH   7   8
ATOM      8  C   UNL     1      35.981  35.561  28.394  1.00  0.00     0.041 C 
ATOM      9  O   UNL     1      35.149  36.432  28.760  1.00  0.00    -0.550 OA
ATOM     10  O   UNL     1      37.062  35.254  29.210  1.00  0.00    -0.550 OA
ENDBRANCH   7   8
ENDBRANCH   6   7
ENDBRANCH   5   6
ENDBRANCH   4   5
ENDBRANCH   3   4
ENDBRANCH   2   3
ENDBRANCH   1   2
BRANCH   1  11
ATOM     11  C   UNL     1      35.300  30.546  22.938  1.00  0.00     0.000 C 
BRANCH  11  12
ATOM     12  C   UNL     1      33.986  29.798  22.641  1.00  0.00    -0.000 C 
BRANCH  12  13
ATOM     13  C   UNL     1      32.986  30.610  21.791  1.00  0.00    -0.000 C 
BRANCH  13  14
ATOM     14  C   UNL     1      32.069  29.715  20.944  1.00  0.00    -0.000 C 
BRANCH  14  15
ATOM     15  C   UNL     1      32.859  28.569  20.300  1.00  0.00    -0.000 C 
BRANCH  15  16
ATOM     16  C   UNL     1      33.472  29.006  18.965  1.00  0.00    -0.000 C 
BRANCH  16  17
ATOM     17  C   UNL     1      34.889  28.443  18.800  1.00  0.00    -0.003 C 
ATOM     18  C   UNL     1      35.926  29.370  19.425  1.00  0.00     0.004 C 
ENDBRANCH  16  17
ENDBRANCH  15  16
ENDBRANCH  14  15
ENDBRANCH  13  14
ENDBRANCH  12  13
ENDBRANCH  11  12
ENDBRANCH   1  11
TORSDOF 14
ENDMDL
MODEL 5
REMARK VINA RESULT:    -4.392      4.890      9.560
REMARK INTER + INTRA:          -9.230
REMARK INTER:                  -8.441
REMARK INTRA:                  -0.789
REMARK UNBOUND:                -1.243
REMARK SMILES CCCCCCCCCCCCCCCC(=O)[O-]
REMARK SMILES IDX 9 1 10 2 11 3 12 4 13 5 14 6 15 7 16 8 17 9 18 10 8 11 7 12
REMARK SMILES IDX 6 13 5 14 4 15 3 16 2 17 1 18
REMARK H PARENT
REMARK Flexibility Score: inf
ROOT
ATOM      1  C   UNL     1      34.596  32.743  24.129  1.00  0.00     0.000 C 
ENDROOT
BRANCH   1   2
ATOM      2  C   UNL     1      34.522  32.901  25.659  1.00  0.00     0.000 C 
BRANCH   2   3
ATOM      3  C   UNL     1      35.893  32.763  26.341  1.00  0.00     0.000 C 
BRANCH   3   4
ATOM      4  C   UNL     1      36.307  34.028  27.114  1.00  0.00     0.000 C 
BRANCH   4   5
ATOM      5  C   UNL     1      35.346  35.227  26.981  1.00  0.00     0.000 C 
BRANCH   5   6
ATOM      6  C   UNL     1      35.133  36.040  28.271  1.00  0.00     0.006 C 
BRANCH   6   7
ATOM      7  C   UNL     1      36.208  35.767  29.329  1.00  0.00     0.053 C 
BRANCH   7   8
ATOM      8  C   UNL     1      37.280  36.810  29.265  1.00  0.00     0.041 C 
ATOM      9  O   UNL     1      38.488  36.484  29.396  1.00  0.00    -0.550 OA
ATOM     10  O   UNL     1      36.939  38.148  29.110  1.00  0.00    -0.550 OA
ENDBRANCH   7   8
ENDBRANCH   6   7
ENDBRANCH   5   6
ENDBRANCH   4   5
ENDBRANCH   3   4
ENDBRANCH   2   3
ENDBRANCH   1   2
BRANCH   1  11
ATOM     11  C   UNL     1      33.246  32.847  23.394  1.00  0.00     0.000 C 
BRANCH  11  12
ATOM     12  C   UNL     1      33.045  31.837  22.247  1.00  0.00    -0.000 C 
BRANCH  12  13
ATOM     13  C   UNL     1      33.859  30.537  22.412  1.00  0.00    -0.000 C 
BRANCH  13  14
ATOM     14  C   UNL     1      33.113  29.304  21.881  1.00  0.00    -0.000 C 
BRANCH  14  15
ATOM     15  C   UNL     1      32.153  29.685  20.748  1.00  0.00    -0.000 C 
BRANCH  15  16
ATOM     16  C   UNL     1      32.881  29.724  19.399  1.00  0.00    -0.000 C 
BRANCH  16  17
ATOM     17  C   UNL     1      33.684  28.438  19.170  1.00  0.00    -0.003 C 
ATOM     18  C   UNL     1      33.496  27.917  17.749  1.00  0.00     0.004 C 
ENDBRANCH  16  17
ENDBRANCH  15  16
ENDBRANCH  14  15
ENDBRANCH  13  14
ENDBRANCH  12  13
ENDBRANCH  11  12
ENDBRANCH   1  11
TORSDOF 14
ENDMDL
MODEL 6
REMARK VINA RESULT:    -4.387      1.502      2.328
REMARK INTER + INTRA:          -9.221
REMARK INTER:                  -7.348
REMARK INTRA:                  -1.873
REMARK UNBOUND:                -1.243
REMARK SMILES CCCCCCCCCCCCCCCC(=O)[O-]
REMARK SMILES IDX 9 1 10 2 11 3 12 4 13 5 14 6 15 7 16 8 17 9 18 10 8 11 7 12
REMARK SMILES IDX 6 13 5 14 4 15 3 16 2 17 1 18
REMARK H PARENT
REMARK Flexibility Score: inf
ROOT
ATOM      1  C   UNL     1      35.472  31.573  22.001  1.00  0.00     0.000 C 
ENDROOT
BRANCH   1   2
ATOM      2  C   UNL     1      35.157  30.142  22.478  1.00  0.00     0.000 C 
BRANCH   2   3
ATOM      3  C   UNL     1      33.666  29.930  22.786  1.00  0.00     0.000 C 
BRANCH   3   4
ATOM      4  C   UNL     1      32.986  28.956  21.808  1.00  0.00     0.000 C 
BRANCH   4   5
ATOM      5  C   UNL     1      32.178  29.617  20.672  1.00  0.00     0.000 C 
BRANCH   5   6
ATOM      6  C   UNL     1      33.021  30.161  19.503  1.00  0.00     0.006 C 
BRANCH   6   7
ATOM      7  C   UNL     1      33.146  29.162  18.346  1.00  0.00     0.053 C 
BRANCH   7   8
ATOM      8  C   UNL     1      34.403  28.362  18.481  1.00  0.00     0.041 C 
ATOM      9  O   UNL     1      34.454  27.184  18.039  1.00  0.00    -0.550 OA
ATOM     10  O   UNL     1      35.502  28.900  19.140  1.00  0.00    -0.550 OA
ENDBRANCH   7   8
ENDBRANCH   6   7
ENDBRANCH   5   6
ENDBRANCH   4   5
ENDBRANCH   3   4
ENDBRANCH   2   3
ENDBRANCH   1   2
BRANCH   1  11
ATOM     11  C   UNL     1      34.336  32.594  22.200  1.00  0.00     0.000 C 
BRANCH  11  12
ATOM     12  C   UNL     1      34.485  33.507  23.433  1.00  0.00    -0.000 C 
BRANCH  12  13
ATOM     13  C   UNL     1      33.628  33.070  24.639  1.00  0.00    -0.000 C 
BRANCH  13  14
ATOM     14  C   UNL     1      34.411  32.200  25.634  1.00  0.00    -0.000 C 
BRANCH  14  15
ATOM     15  C   UNL     1      35.904  32.550  25.616  1.00  0.00    -0.000 C 
BRANCH  15  16
ATOM     16  C   UNL     1      36.305  33.313  26.884  1.00  0.00    -0.000 C 
BRANCH  16  17
ATOM     17  C   UNL     1      36.415  34.817  26.609  1.00  0.00    -0.003 C 
ATOM     18  C   UNL     1      35.162  35.555  27.071  1.00  0.00     0.004 C 
ENDBRANCH  16  17
ENDBRANCH  15  16
ENDBRANCH  14  15
ENDBRANCH  13  14
ENDBRANCH  12  13
ENDBRANCH  11  12
ENDBRANCH   1  11
TORSDOF 14
ENDMDL
MODEL 7
REMARK VINA RESULT:    -4.371      3.953      8.329
REMARK INTER + INTRA:          -9.192
REMARK INTER:                  -7.210
REMARK INTRA:                  -1.982
REMARK UNBOUND:                -1.243
REMARK SMILES CCCCCCCCCCCCCCCC(=O)[O-]
REMARK SMILES IDX 9 1 10 2 11 3 12 4 13 5 14 6 15 7 16 8 17 9 18 10 8 11 7 12
REMARK SMILES IDX 6 13 5 14 4 15 3 16 2 17 1 18
REMARK H PARENT
REMARK Flexibility Score: inf
ROOT
ATOM      1  C   UNL     1      36.564  30.882  23.516  1.00  0.00     0.000 C 
ENDROOT
BRANCH   1   2
ATOM      2  C   UNL     1      36.267  32.146  24.345  1.00  0.00     0.000 C 
BRANCH   2   3
ATOM      3  C   UNL     1      35.031  31.994  25.245  1.00  0.00     0.000 C 
BRANCH   3   4
ATOM      4  C   UNL     1      34.105  33.223  25.202  1.00  0.00     0.000 C 
BRANCH   4   5
ATOM      5  C   UNL     1      34.818  34.583  25.053  1.00  0.00     0.000 C 
BRANCH   5   6
ATOM      6  C   UNL     1      35.020  35.361  26.366  1.00  0.00     0.006 C 
BRANCH   6   7
ATOM      7  C   UNL     1      36.489  35.716  26.626  1.00  0.00     0.053 C 
BRANCH   7   8
ATOM      8  C   UNL     1      37.223  34.530  27.171  1.00  0.00     0.041 C 
ATOM      9  O   UNL     1      38.294  34.147  26.631  1.00  0.00    -0.550 OA
ATOM     10  O   UNL     1      36.698  33.820  28.243  1.00  0.00    -0.550 OA
ENDBRANCH   7   8
ENDBRANCH   6   7
ENDBRANCH   5   6
ENDBRANCH   4   5
ENDBRANCH   3   4
ENDBRANCH   2   3
ENDBRANCH   1   2
BRANCH   1  11
ATOM     11  C   UNL     1      35.475  30.497  22.497  1.00  0.00     0.000 C 
BRANCH  11  12
ATOM     12  C   UNL     1      35.143  31.580  21.452  1.00  0.00    -0.000 C 
BRANCH  12  13
ATOM     13  C   UNL     1      33.654  31.985  21.425  1.00  0.00    -0.000 C 
BRANCH  13  14
ATOM     14  C   UNL     1      32.738  30.901  22.011  1.00  0.00    -0.000 C 
BRANCH  14  15
ATOM     15  C   UNL     1      32.084  30.072  20.899  1.00  0.00    -0.000 C 
BRANCH  15  16
ATOM     16  C   UNL     1      32.753  28.699  20.769  1.00  0.00    -0.000 C 
BRANCH  16  17
ATOM     17  C   UNL     1      33.551  28.598  19.463  1.00  0.00    -0.003 C 
ATOM     18  C   UNL     1      33.116  29.669  18.468  1.00  0.00     0.004 C 
ENDBRANCH  16  17
ENDBRANCH  15  16
ENDBRANCH  14  15
ENDBRANCH  13  14
ENDBRANCH  12  13
ENDBRANCH  11  12
ENDBRANCH   1  11
TORSDOF 14
ENDMDL
MODEL 8
REMARK VINA RESULT:    -4.325      1.937      3.193
REMARK INTER + INTRA:          -9.108
REMARK INTER:                  -6.943
REMARK INTRA:                  -2.165
REMARK UNBOUND:                -1.243
REMARK SMILES CCCCCCCCCCCCCCCC(=O)[O-]
REMARK SMILES IDX 9 1 10 2 11 3 12 4 13 5 14 6 15 7 16 8 17 9 18 10 8 11 7 12
REMARK SMILES IDX 6 13 5 14 4 15 3 16 2 17 1 18
REMARK H PARENT
REMARK Flexibility Score: inf
ROOT
ATOM      1  C   UNL     1      33.652  34.495  22.925  1.00  0.00     0.000 C 
ENDROOT
BRANCH   1   2
ATOM      2  C   UNL     1      33.948  34.180  21.446  1.00  0.00     0.000 C 
BRANCH   2   3
ATOM      3  C   UNL     1      33.634  32.722  21.071  1.00  0.00     0.000 C 
BRANCH   3   4
ATOM      4  C   UNL     1      33.022  31.924  22.236  1.00  0.00     0.000 C 
BRANCH   4   5
ATOM      5  C   UNL     1      33.305  30.407  22.218  1.00  0.00     0.000 C 
BRANCH   5   6
ATOM      6  C   UNL     1      32.244  29.554  21.500  1.00  0.00     0.006 C 
BRANCH   6   7
ATOM      7  C   UNL     1      32.849  28.610  20.454  1.00  0.00     0.053 C 
BRANCH   7   8
ATOM      8  C   UNL     1      33.493  29.395  19.354  1.00  0.00     0.041 C 
ATOM      9  O   UNL     1      32.790  30.098  18.582  1.00  0.00    -0.550 OA
ATOM     10  O   UNL     1      34.865  29.310  19.151  1.00  0.00    -0.550 OA
ENDBRANCH   7   8
ENDBRANCH   6   7
ENDBRANCH   5   6
ENDBRANCH   4   5
ENDBRANCH   3   4
ENDBRANCH   2   3
ENDBRANCH   1   2
BRANCH   1  11
ATOM     11  C   UNL     1      34.875  34.907  23.764  1.00  0.00     0.000 C 
BRANCH  11  12
ATOM     12  C   UNL     1      34.775  34.588  25.269  1.00  0.00    -0.000 C 
BRANCH  12  13
ATOM     13  C   UNL     1      33.989  33.298  25.581  1.00  0.00    -0.000 C 
BRANCH  13  14
ATOM     14  C   UNL     1      34.864  32.039  25.495  1.00  0.00    -0.000 C 
BRANCH  14  15
ATOM     15  C   UNL     1      36.328  32.361  25.817  1.00  0.00    -0.000 C 
BRANCH  15  16
ATOM     16  C   UNL     1      37.273  31.672  24.826  1.00  0.00    -0.000 C 
BRANCH  16  17
ATOM     17  C   UNL     1      36.614  31.522  23.450  1.00  0.00    -0.003 C 
ATOM     18  C   UNL     1      36.905  30.151  22.847  1.00  0.00     0.004 C 
ENDBRANCH  16  17
ENDBRANCH  15  16
ENDBRANCH  14  15
ENDBRANCH  13  14
ENDBRANCH  12  13
ENDBRANCH  11  12
ENDBRANCH   1  11
TORSDOF 14
ENDMDL
MODEL 9
REMARK VINA RESULT:    -4.321      3.570      9.422
REMARK INTER + INTRA:          -9.100
REMARK INTER:                  -8.154
REMARK INTRA:                  -0.946
REMARK UNBOUND:                -1.243
REMARK SMILES CCCCCCCCCCCCCCCC(=O)[O-]
REMARK SMILES IDX 9 1 10 2 11 3 12 4 13 5 14 6 15 7 16 8 17 9 18 10 8 11 7 12
REMARK SMILES IDX 6 13 5 14 4 15 3 16 2 17 1 18
REMARK H PARENT
REMARK Flexibility Score: inf
ROOT
ATOM      1  C   UNL     1      32.816  29.597  21.906  1.00  0.00     0.000 C 
ENDROOT
BRANCH   1   2
ATOM      2  C   UNL     1      32.518  31.088  21.657  1.00  0.00     0.000 C 
BRANCH   2   3
ATOM      3  C   UNL     1      33.298  32.019  22.599  1.00  0.00     0.000 C 
BRANCH   3   4
ATOM      4  C   UNL     1      34.505  31.327  23.259  1.00  0.00     0.000 C 
BRANCH   4   5
ATOM      5  C   UNL     1      34.703  31.631  24.758  1.00  0.00     0.000 C 
BRANCH   5   6
ATOM      6  C   UNL     1      33.895  32.827  25.294  1.00  0.00     0.006 C 
BRANCH   6   7
ATOM      7  C   UNL     1      34.768  33.856  26.023  1.00  0.00     0.053 C 
BRANCH   7   8
ATOM      8  C   UNL     1      34.863  35.118  25.224  1.00  0.00     0.041 C 
ATOM      9  O   UNL     1      35.211  36.193  25.780  1.00  0.00    -0.550 OA
ATOM     10  O   UNL     1      34.521  35.117  23.878  1.00  0.00    -0.550 OA
ENDBRANCH   7   8
ENDBRANCH   6   7
ENDBRANCH   5   6
ENDBRANCH   4   5
ENDBRANCH   3   4
ENDBRANCH   2   3
ENDBRANCH   1   2
BRANCH   1  11
ATOM     11  C   UNL     1      32.497  28.659  20.727  1.00  0.00     0.000 C 
BRANCH  11  12
ATOM     12  C   UNL     1      33.595  28.564  19.649  1.00  0.00    -0.000 C 
BRANCH  12  13
ATOM     13  C   UNL     1      33.311  29.415  18.394  1.00  0.00    -0.000 C 
BRANCH  13  14
ATOM     14  C   UNL     1      33.769  28.726  17.100  1.00  0.00    -0.000 C 
BRANCH  14  15
ATOM     15  C   UNL     1      33.956  27.219  17.313  1.00  0.00    -0.000 C 
BRANCH  15  16
ATOM     16  C   UNL     1      32.904  26.420  16.536  1.00  0.00    -0.000 C 
BRANCH  16  17
ATOM     17  C   UNL     1      33.529  25.185  15.875  1.00  0.00    -0.003 C 
ATOM     18  C   UNL     1      35.026  25.109  16.155  1.00  0.00     0.004 C 
ENDBRANCH  16  17
ENDBRANCH  15  16
ENDBRANCH  14  15
ENDBRANCH  13  14
ENDBRANCH  12  13
ENDBRANCH  11  12
ENDBRANCH   1  11
TORSDOF 14
ENDMDL
