MODEL 1
REMARK VINA RESULT:    -2.208      0.000      0.000
REMARK INTER + INTRA:         -10.695
REMARK INTER:                  -5.822
REMARK INTRA:                  -4.873
REMARK UNBOUND:                -4.873
REMARK SMILES CCCCCCCCCCCCCCCCCCCCCCCCCCCCCC(=O)[O-]
REMARK SMILES IDX 16 1 17 2 18 3 19 4 20 5 21 6 22 7 23 8 24 9 25 10 26 11
REMARK SMILES IDX 27 12 28 13 29 14 30 15 31 16 32 17 15 18 14 19 13 20 12 21
REMARK SMILES IDX 11 22 10 23 9 24 8 25 7 26 6 27 5 28 4 29 3 30 2 31 1 32
REMARK H PARENT
REMARK Flexibility Score: inf
ROOT
ATOM      1  C   UNL     1     164.725 199.670 184.957  1.00  0.00     0.000 C 
ENDROOT
BRANCH   1   2
ATOM      2  C   UNL     1     164.207 198.220 185.025  1.00  0.00     0.000 C 
BRANCH   2   3
ATOM      3  C   UNL     1     163.895 197.599 183.646  1.00  0.00     0.000 C 
BRANCH   3   4
ATOM      4  C   UNL     1     162.642 196.706 183.668  1.00  0.00     0.000 C 
BRANCH   4   5
ATOM      5  C   UNL     1     161.921 196.718 185.026  1.00  0.00     0.000 C 
BRANCH   5   6
ATOM      6  C   UNL     1     161.242 195.389 185.417  1.00  0.00     0.000 C 
BRANCH   6   7
ATOM      7  C   UNL     1     161.397 194.249 184.391  1.00  0.00     0.000 C 
BRANCH   7   8
ATOM      8  C   UNL     1     161.895 192.915 184.974  1.00  0.00     0.000 C 
BRANCH   8   9
ATOM      9  C   UNL     1     163.192 193.065 185.787  1.00  0.00     0.000 C 
BRANCH   9  10
ATOM     10  C   UNL     1     164.448 192.985 184.893  1.00  0.00     0.000 C 
BRANCH  10  11
ATOM     11  C   UNL     1     165.207 194.318 184.778  1.00  0.00     0.000 C 
BRANCH  11  12
ATOM     12  C   UNL     1     165.493 194.961 186.146  1.00  0.00     0.000 C 
BRANCH  12  13
ATOM     13  C   UNL     1     166.743 195.855 186.122  1.00  0.00     0.006 C 
BRANCH  13  14
ATOM     14  C   UNL     1     167.351 195.976 184.717  1.00  0.00     0.053 C 
BRANCH  14  15
ATOM     15  C   UNL     1     167.688 197.402 184.413  1.00  0.00     0.041 C 
ATOM     16  O   UNL     1     167.950 198.204 185.348  1.00  0.00    -0.550 OA
ATOM     17  O   UNL     1     167.740 197.839 183.095  1.00  0.00    -0.550 OA
ENDBRANCH  14  15
ENDBRANCH  13  14
ENDBRANCH  12  13
ENDBRANCH  11  12
ENDBRANCH  10  11
ENDBRANCH   9  10
ENDBRANCH   8   9
ENDBRANCH   7   8
ENDBRANCH   6   7
ENDBRANCH   5   6
ENDBRANCH   4   5
ENDBRANCH   3   4
ENDBRANCH   2   3
ENDBRANCH   1   2
BRANCH   1  18
ATOM     18  C   UNL     1     165.152 200.154 183.558  1.00  0.00     0.000 C 
BRANCH  18  19
ATOM     19  C   UNL     1     166.344 201.130 183.541  1.00  0.00     0.000 C 
BRANCH  19  20
ATOM     20  C   UNL     1     165.936 202.559 183.158  1.00  0.00     0.000 C 
BRANCH  20  21
ATOM     21  C   UNL     1     166.419 203.575 184.204  1.00  0.00     0.000 C 
BRANCH  21  22
ATOM     22  C   UNL     1     165.645 204.901 184.132  1.00  0.00     0.000 C 
BRANCH  22  23
ATOM     23  C   UNL     1     164.655 204.940 182.952  1.00  0.00     0.000 C 
BRANCH  23  24
ATOM     24  C   UNL     1     163.321 205.606 183.323  1.00  0.00    -0.000 C 
BRANCH  24  25
ATOM     25  C   UNL     1     163.404 206.388 184.645  1.00  0.00    -0.000 C 
BRANCH  25  26
ATOM     26  C   UNL     1     162.332 205.963 185.663  1.00  0.00    -0.000 C 
BRANCH  26  27
ATOM     27  C   UNL     1     161.757 204.553 185.410  1.00  0.00    -0.000 C 
BRANCH  27  28
ATOM     28  C   UNL     1     162.093 203.573 186.545  1.00  0.00    -0.000 C 
BRANCH  28  29
ATOM     29  C   UNL     1     163.368 202.784 186.229  1.00  0.00    -0.000 C 
BRANCH  29  30
ATOM     30  C   UNL     1     164.459 203.060 187.269  1.00  0.00    -0.000 C 
BRANCH  30  31
ATOM     31  C   UNL     1     163.846 203.467 188.615  1.00  0.00    -0.003 C 
ATOM     32  C   UNL     1     164.519 202.732 189.771  1.00  0.00     0.004 C 
ENDBRANCH  30  31
ENDBRANCH  29  30
ENDBRANCH  28  29
ENDBRANCH  27  28
ENDBRANCH  26  27
ENDBRANCH  25  26
ENDBRANCH  24  25
ENDBRANCH  23  24
ENDBRANCH  22  23
ENDBRANCH  21  22
ENDBRANCH  20  21
ENDBRANCH  19  20
ENDBRANCH  18  19
ENDBRANCH   1  18
TORSDOF 28
ENDMDL
MODEL 2
REMARK VINA RESULT:    -2.149      2.276      8.241
REMARK INTER + INTRA:         -10.540
REMARK INTER:                  -4.592
REMARK INTRA:                  -5.947
REMARK UNBOUND:                -4.873
REMARK SMILES CCCCCCCCCCCCCCCCCCCCCCCCCCCCCC(=O)[O-]
REMARK SMILES IDX 16 1 17 2 18 3 19 4 20 5 21 6 22 7 23 8 24 9 25 10 26 11
REMARK SMILES IDX 27 12 28 13 29 14 30 15 31 16 32 17 15 18 14 19 13 20 12 21
REMARK SMILES IDX 11 22 10 23 9 24 8 25 7 26 6 27 5 28 4 29 3 30 2 31 1 32
REMARK H PARENT
REMARK Flexibility Score: inf
ROOT
ATOM      1  C   UNL     1     163.249 201.784 188.299  1.00  0.00     0.000 C 
ENDROOT
BRANCH   1   2
ATOM      2  C   UNL     1     162.163 202.861 188.491  1.00  0.00     0.000 C 
BRANCH   2   3
ATOM      3  C   UNL     1     162.296 204.065 187.534  1.00  0.00     0.000 C 
BRANCH   3   4
ATOM      4  C   UNL     1     161.509 203.872 186.225  1.00  0.00     0.000 C 
BRANCH   4   5
ATOM      5  C   UNL     1     161.768 204.991 185.201  1.00  0.00     0.000 C 
BRANCH   5   6
ATOM      6  C   UNL     1     162.442 206.255 185.771  1.00  0.00     0.000 C 
BRANCH   6   7
ATOM      7  C   UNL     1     163.429 206.957 184.818  1.00  0.00     0.000 C 
BRANCH   7   8
ATOM      8  C   UNL     1     163.825 206.138 183.577  1.00  0.00     0.000 C 
BRANCH   8   9
ATOM      9  C   UNL     1     165.134 205.352 183.772  1.00  0.00     0.000 C 
BRANCH   9  10
ATOM     10  C   UNL     1     164.894 203.828 183.800  1.00  0.00     0.000 C 
BRANCH  10  11
ATOM     11  C   UNL     1     165.190 203.183 185.165  1.00  0.00     0.000 C 
BRANCH  11  12
ATOM     12  C   UNL     1     165.665 204.202 186.215  1.00  0.00     0.000 C 
BRANCH  12  13
ATOM     13  C   UNL     1     166.291 203.525 187.444  1.00  0.00     0.006 C 
BRANCH  13  14
ATOM     14  C   UNL     1     166.944 202.178 187.103  1.00  0.00     0.053 C 
BRANCH  14  15
ATOM     15  C   UNL     1     168.425 202.334 186.962  1.00  0.00     0.041 C 
ATOM     16  O   UNL     1     169.144 201.338 186.681  1.00  0.00    -0.550 OA
ATOM     17  O   UNL     1     169.010 203.586 187.111  1.00  0.00    -0.550 OA
ENDBRANCH  14  15
ENDBRANCH  13  14
ENDBRANCH  12  13
ENDBRANCH  11  12
ENDBRANCH  10  11
ENDBRANCH   9  10
ENDBRANCH   8   9
ENDBRANCH   7   8
ENDBRANCH   6   7
ENDBRANCH   5   6
ENDBRANCH   4   5
ENDBRANCH   3   4
ENDBRANCH   2   3
ENDBRANCH   1   2
BRANCH   1  18
ATOM     18  C   UNL     1     162.866 200.620 187.364  1.00  0.00     0.000 C 
BRANCH  18  19
ATOM     19  C   UNL     1     164.036 200.013 186.567  1.00  0.00     0.000 C 
BRANCH  19  20
ATOM     20  C   UNL     1     164.477 198.645 187.108  1.00  0.00     0.000 C 
BRANCH  20  21
ATOM     21  C   UNL     1     163.331 197.947 187.855  1.00  0.00     0.000 C 
BRANCH  21  22
ATOM     22  C   UNL     1     162.778 196.741 187.079  1.00  0.00     0.000 C 
BRANCH  22  23
ATOM     23  C   UNL     1     161.864 197.160 185.913  1.00  0.00     0.000 C 
BRANCH  23  24
ATOM     24  C   UNL     1     161.990 196.227 184.699  1.00  0.00    -0.000 C 
BRANCH  24  25
ATOM     25  C   UNL     1     162.868 196.825 183.587  1.00  0.00    -0.000 C 
BRANCH  25  26
ATOM     26  C   UNL     1     164.373 196.708 183.879  1.00  0.00    -0.000 C 
BRANCH  26  27
ATOM     27  C   UNL     1     165.241 197.713 183.092  1.00  0.00    -0.000 C 
BRANCH  27  28
ATOM     28  C   UNL     1     164.540 199.067 182.901  1.00  0.00    -0.000 C 
BRANCH  28  29
ATOM     29  C   UNL     1     165.535 200.224 183.039  1.00  0.00    -0.000 C 
BRANCH  29  30
ATOM     30  C   UNL     1     166.665 199.866 184.010  1.00  0.00    -0.000 C 
BRANCH  30  31
ATOM     31  C   UNL     1     168.023 200.331 183.469  1.00  0.00    -0.003 C 
ATOM     32  C   UNL     1     168.027 201.834 183.207  1.00  0.00     0.004 C 
ENDBRANCH  30  31
ENDBRANCH  29  30
ENDBRANCH  28  29
ENDBRANCH  27  28
ENDBRANCH  26  27
ENDBRANCH  25  26
ENDBRANCH  24  25
ENDBRANCH  23  24
ENDBRANCH  22  23
ENDBRANCH  21  22
ENDBRANCH  20  21
ENDBRANCH  19  20
ENDBRANCH  18  19
ENDBRANCH   1  18
TORSDOF 28
ENDMDL
MODEL 3
REMARK VINA RESULT:    -2.106      2.582      5.499
REMARK INTER + INTRA:         -10.425
REMARK INTER:                  -4.035
REMARK INTRA:                  -6.390
REMARK UNBOUND:                -4.873
REMARK SMILES CCCCCCCCCCCCCCCCCCCCCCCCCCCCCC(=O)[O-]
REMARK SMILES IDX 16 1 17 2 18 3 19 4 20 5 21 6 22 7 23 8 24 9 25 10 26 11
REMARK SMILES IDX 27 12 28 13 29 14 30 15 31 16 32 17 15 18 14 19 13 20 12 21
REMARK SMILES IDX 11 22 10 23 9 24 8 25 7 26 6 27 5 28 4 29 3 30 2 31 1 32
REMARK H PARENT
REMARK Flexibility Score: inf
ROOT
ATOM      1  C   UNL     1     161.810 202.435 186.978  1.00  0.00     0.000 C 
ENDROOT
BRANCH   1   2
ATOM      2  C   UNL     1     162.452 202.651 188.363  1.00  0.00     0.000 C 
BRANCH   2   3
ATOM      3  C   UNL     1     163.457 201.552 188.768  1.00  0.00     0.000 C 
BRANCH   3   4
ATOM      4  C   UNL     1     163.271 200.253 187.964  1.00  0.00     0.000 C 
BRANCH   4   5
ATOM      5  C   UNL     1     164.489 199.910 187.089  1.00  0.00     0.000 C 
BRANCH   5   6
ATOM      6  C   UNL     1     165.804 199.682 187.862  1.00  0.00     0.000 C 
BRANCH   6   7
ATOM      7  C   UNL     1     167.059 199.513 186.983  1.00  0.00     0.000 C 
BRANCH   7   8
ATOM      8  C   UNL     1     167.523 200.791 186.264  1.00  0.00     0.000 C 
BRANCH   8   9
ATOM      9  C   UNL     1     168.377 200.500 185.018  1.00  0.00     0.000 C 
BRANCH   9  10
ATOM     10  C   UNL     1     167.548 199.858 183.885  1.00  0.00     0.000 C 
BRANCH  10  11
ATOM     11  C   UNL     1     166.224 200.589 183.602  1.00  0.00     0.000 C 
BRANCH  11  12
ATOM     12  C   UNL     1     165.012 199.643 183.590  1.00  0.00     0.000 C 
BRANCH  12  13
ATOM     13  C   UNL     1     165.421 198.172 183.415  1.00  0.00     0.006 C 
BRANCH  13  14
ATOM     14  C   UNL     1     164.757 197.251 184.448  1.00  0.00     0.053 C 
BRANCH  14  15
ATOM     15  C   UNL     1     163.268 197.283 184.298  1.00  0.00     0.041 C 
ATOM     16  O   UNL     1     162.536 197.524 185.295  1.00  0.00    -0.550 OA
ATOM     17  O   UNL     1     162.689 197.075 183.052  1.00  0.00    -0.550 OA
ENDBRANCH  14  15
ENDBRANCH  13  14
ENDBRANCH  12  13
ENDBRANCH  11  12
ENDBRANCH  10  11
ENDBRANCH   9  10
ENDBRANCH   8   9
ENDBRANCH   7   8
ENDBRANCH   6   7
ENDBRANCH   5   6
ENDBRANCH   4   5
ENDBRANCH   3   4
ENDBRANCH   2   3
ENDBRANCH   1   2
BRANCH   1  18
ATOM     18  C   UNL     1     161.165 203.684 186.347  1.00  0.00     0.000 C 
BRANCH  18  19
ATOM     19  C   UNL     1     161.537 205.020 187.018  1.00  0.00     0.000 C 
BRANCH  19  20
ATOM     20  C   UNL     1     162.033 206.070 186.014  1.00  0.00     0.000 C 
BRANCH  20  21
ATOM     21  C   UNL     1     162.437 205.420 184.682  1.00  0.00     0.000 C 
BRANCH  21  22
ATOM     22  C   UNL     1     163.699 206.056 184.079  1.00  0.00     0.000 C 
BRANCH  22  23
ATOM     23  C   UNL     1     164.937 205.151 184.218  1.00  0.00     0.000 C 
BRANCH  23  24
ATOM     24  C   UNL     1     164.575 203.716 184.632  1.00  0.00    -0.000 C 
BRANCH  24  25
ATOM     25  C   UNL     1     165.251 203.298 185.949  1.00  0.00    -0.000 C 
BRANCH  25  26
ATOM     26  C   UNL     1     165.937 204.470 186.672  1.00  0.00    -0.000 C 
BRANCH  26  27
ATOM     27  C   UNL     1     165.206 204.925 187.953  1.00  0.00    -0.000 C 
BRANCH  27  28
ATOM     28  C   UNL     1     165.056 206.453 188.027  1.00  0.00    -0.000 C 
BRANCH  28  29
ATOM     29  C   UNL     1     164.046 206.853 189.109  1.00  0.00    -0.000 C 
BRANCH  29  30
ATOM     30  C   UNL     1     163.771 205.686 190.064  1.00  0.00    -0.000 C 
BRANCH  30  31
ATOM     31  C   UNL     1     162.328 205.729 190.584  1.00  0.00    -0.003 C 
ATOM     32  C   UNL     1     161.627 207.015 190.157  1.00  0.00     0.004 C 
ENDBRANCH  30  31
ENDBRANCH  29  30
ENDBRANCH  28  29
ENDBRANCH  27  28
ENDBRANCH  26  27
ENDBRANCH  25  26
ENDBRANCH  24  25
ENDBRANCH  23  24
ENDBRANCH  22  23
ENDBRANCH  21  22
ENDBRANCH  20  21
ENDBRANCH  19  20
ENDBRANCH  18  19
ENDBRANCH   1  18
TORSDOF 28
ENDMDL
MODEL 4
REMARK VINA RESULT:    -2.054      2.242      5.056
REMARK INTER + INTRA:         -10.289
REMARK INTER:                  -4.198
REMARK INTRA:                  -6.091
REMARK UNBOUND:                -4.873
REMARK SMILES CCCCCCCCCCCCCCCCCCCCCCCCCCCCCC(=O)[O-]
REMARK SMILES IDX 16 1 17 2 18 3 19 4 20 5 21 6 22 7 23 8 24 9 25 10 26 11
REMARK SMILES IDX 27 12 28 13 29 14 30 15 31 16 32 17 15 18 14 19 13 20 12 21
REMARK SMILES IDX 11 22 10 23 9 24 8 25 7 26 6 27 5 28 4 29 3 30 2 31 1 32
REMARK H PARENT
REMARK Flexibility Score: inf
ROOT
ATOM      1  C   UNL     1     162.944 198.089 186.828  1.00  0.00     0.000 C 
ENDROOT
BRANCH   1   2
ATOM      2  C   UNL     1     162.229 196.829 186.301  1.00  0.00     0.000 C 
BRANCH   2   3
ATOM      3  C   UNL     1     161.920 196.868 184.790  1.00  0.00     0.000 C 
BRANCH   3   4
ATOM      4  C   UNL     1     162.671 195.779 184.003  1.00  0.00     0.000 C 
BRANCH   4   5
ATOM      5  C   UNL     1     163.781 195.103 184.825  1.00  0.00     0.000 C 
BRANCH   5   6
ATOM      6  C   UNL     1     165.219 195.435 184.378  1.00  0.00     0.000 C 
BRANCH   6   7
ATOM      7  C   UNL     1     165.344 196.626 183.406  1.00  0.00     0.000 C 
BRANCH   7   8
ATOM      8  C   UNL     1     165.651 197.978 184.072  1.00  0.00     0.000 C 
BRANCH   8   9
ATOM      9  C   UNL     1     164.622 199.066 183.720  1.00  0.00     0.000 C 
BRANCH   9  10
ATOM     10  C   UNL     1     165.295 200.350 183.192  1.00  0.00     0.000 C 
BRANCH  10  11
ATOM     11  C   UNL     1     165.491 201.430 184.270  1.00  0.00     0.000 C 
BRANCH  11  12
ATOM     12  C   UNL     1     164.582 201.223 185.493  1.00  0.00     0.000 C 
BRANCH  12  13
ATOM     13  C   UNL     1     165.344 201.372 186.820  1.00  0.00     0.006 C 
BRANCH  13  14
ATOM     14  C   UNL     1     166.864 201.259 186.638  1.00  0.00     0.053 C 
BRANCH  14  15
ATOM     15  C   UNL     1     167.389 200.054 187.353  1.00  0.00     0.041 C 
ATOM     16  O   UNL     1     167.716 199.025 186.703  1.00  0.00    -0.550 OA
ATOM     17  O   UNL     1     167.545 200.076 188.733  1.00  0.00    -0.550 OA
ENDBRANCH  14  15
ENDBRANCH  13  14
ENDBRANCH  12  13
ENDBRANCH  11  12
ENDBRANCH  10  11
ENDBRANCH   9  10
ENDBRANCH   8   9
ENDBRANCH   7   8
ENDBRANCH   6   7
ENDBRANCH   5   6
ENDBRANCH   4   5
ENDBRANCH   3   4
ENDBRANCH   2   3
ENDBRANCH   1   2
BRANCH   1  18
ATOM     18  C   UNL     1     164.270 197.835 187.570  1.00  0.00     0.000 C 
BRANCH  18  19
ATOM     19  C   UNL     1     164.399 198.538 188.935  1.00  0.00     0.000 C 
BRANCH  19  20
ATOM     20  C   UNL     1     163.053 198.676 189.661  1.00  0.00     0.000 C 
BRANCH  20  21
ATOM     21  C   UNL     1     162.805 200.126 190.102  1.00  0.00     0.000 C 
BRANCH  21  22
ATOM     22  C   UNL     1     162.385 201.029 188.931  1.00  0.00     0.000 C 
BRANCH  22  23
ATOM     23  C   UNL     1     162.702 202.513 189.190  1.00  0.00     0.000 C 
BRANCH  23  24
ATOM     24  C   UNL     1     161.761 203.459 188.429  1.00  0.00    -0.000 C 
BRANCH  24  25
ATOM     25  C   UNL     1     161.033 202.756 187.271  1.00  0.00    -0.000 C 
BRANCH  25  26
ATOM     26  C   UNL     1     161.078 203.557 185.959  1.00  0.00    -0.000 C 
BRANCH  26  27
ATOM     27  C   UNL     1     161.941 204.835 186.037  1.00  0.00    -0.000 C 
BRANCH  27  28
ATOM     28  C   UNL     1     163.293 204.671 185.327  1.00  0.00    -0.000 C 
BRANCH  28  29
ATOM     29  C   UNL     1     164.455 204.961 186.284  1.00  0.00    -0.000 C 
BRANCH  29  30
ATOM     30  C   UNL     1     165.800 204.906 185.551  1.00  0.00    -0.000 C 
BRANCH  30  31
ATOM     31  C   UNL     1     166.969 205.026 186.536  1.00  0.00    -0.003 C 
ATOM     32  C   UNL     1     166.513 204.761 187.968  1.00  0.00     0.004 C 
ENDBRANCH  30  31
ENDBRANCH  29  30
ENDBRANCH  28  29
ENDBRANCH  27  28
ENDBRANCH  26  27
ENDBRANCH  25  26
ENDBRANCH  24  25
ENDBRANCH  23  24
ENDBRANCH  22  23
ENDBRANCH  21  22
ENDBRANCH  20  21
ENDBRANCH  19  20
ENDBRANCH  18  19
ENDBRANCH   1  18
TORSDOF 28
ENDMDL
MODEL 5
REMARK VINA RESULT:    -2.053     16.109     20.458
REMARK INTER + INTRA:         -10.286
REMARK INTER:                  -4.259
REMARK INTRA:                  -6.028
REMARK UNBOUND:                -4.873
REMARK SMILES CCCCCCCCCCCCCCCCCCCCCCCCCCCCCC(=O)[O-]
REMARK SMILES IDX 16 1 17 2 18 3 19 4 20 5 21 6 22 7 23 8 24 9 25 10 26 11
REMARK SMILES IDX 27 12 28 13 29 14 30 15 31 16 32 17 15 18 14 19 13 20 12 21
REMARK SMILES IDX 11 22 10 23 9 24 8 25 7 26 6 27 5 28 4 29 3 30 2 31 1 32
REMARK H PARENT
REMARK Flexibility Score: inf
ROOT
ATOM      1  C   UNL     1     178.230 203.731 200.629  1.00  0.00     0.000 C 
ENDROOT
BRANCH   1   2
ATOM      2  C   UNL     1     179.743 203.972 200.797  1.00  0.00     0.000 C 
BRANCH   2   3
ATOM      3  C   UNL     1     180.114 204.785 202.055  1.00  0.00     0.000 C 
BRANCH   3   4
ATOM      4  C   UNL     1     180.904 206.064 201.724  1.00  0.00     0.000 C 
BRANCH   4   5
ATOM      5  C   UNL     1     180.732 206.513 200.262  1.00  0.00     0.000 C 
BRANCH   5   6
ATOM      6  C   UNL     1     179.488 207.383 199.989  1.00  0.00     0.000 C 
BRANCH   6   7
ATOM      7  C   UNL     1     178.985 207.367 198.532  1.00  0.00     0.000 C 
BRANCH   7   8
ATOM      8  C   UNL     1     179.905 206.638 197.537  1.00  0.00     0.000 C 
BRANCH   8   9
ATOM      9  C   UNL     1     179.868 207.254 196.127  1.00  0.00     0.000 C 
BRANCH   9  10
ATOM     10  C   UNL     1     178.433 207.624 195.695  1.00  0.00     0.000 C 
BRANCH  10  11
ATOM     11  C   UNL     1     177.768 206.565 194.800  1.00  0.00     0.000 C 
BRANCH  11  12
ATOM     12  C   UNL     1     178.622 206.196 193.576  1.00  0.00     0.000 C 
BRANCH  12  13
ATOM     13  C   UNL     1     178.781 204.676 193.411  1.00  0.00     0.006 C 
BRANCH  13  14
ATOM     14  C   UNL     1     177.433 203.959 193.250  1.00  0.00     0.053 C 
BRANCH  14  15
ATOM     15  C   UNL     1     177.433 203.114 192.014  1.00  0.00     0.041 C 
ATOM     16  O   UNL     1     176.355 202.886 191.403  1.00  0.00    -0.550 OA
ATOM     17  O   UNL     1     178.627 202.603 191.521  1.00  0.00    -0.550 OA
ENDBRANCH  14  15
ENDBRANCH  13  14
ENDBRANCH  12  13
ENDBRANCH  11  12
ENDBRANCH  10  11
ENDBRANCH   9  10
ENDBRANCH   8   9
ENDBRANCH   7   8
ENDBRANCH   6   7
ENDBRANCH   5   6
ENDBRANCH   4   5
ENDBRANCH   3   4
ENDBRANCH   2   3
ENDBRANCH   1   2
BRANCH   1  18
ATOM     18  C   UNL     1     177.350 204.218 201.796  1.00  0.00     0.000 C 
BRANCH  18  19
ATOM     19  C   UNL     1     176.324 205.307 201.429  1.00  0.00     0.000 C 
BRANCH  19  20
ATOM     20  C   UNL     1     176.568 206.628 202.173  1.00  0.00     0.000 C 
BRANCH  20  21
ATOM     21  C   UNL     1     176.123 207.832 201.329  1.00  0.00     0.000 C 
BRANCH  21  22
ATOM     22  C   UNL     1     174.594 207.932 201.214  1.00  0.00     0.000 C 
BRANCH  22  23
ATOM     23  C   UNL     1     174.111 207.895 199.752  1.00  0.00     0.000 C 
BRANCH  23  24
ATOM     24  C   UNL     1     173.360 206.599 199.411  1.00  0.00    -0.000 C 
BRANCH  24  25
ATOM     25  C   UNL     1     173.799 206.004 198.063  1.00  0.00    -0.000 C 
BRANCH  25  26
ATOM     26  C   UNL     1     175.210 206.446 197.641  1.00  0.00    -0.000 C 
BRANCH  26  27
ATOM     27  C   UNL     1     176.295 205.372 197.871  1.00  0.00    -0.000 C 
BRANCH  27  28
ATOM     28  C   UNL     1     175.715 203.949 197.874  1.00  0.00    -0.000 C 
BRANCH  28  29
ATOM     29  C   UNL     1     176.705 202.952 197.260  1.00  0.00    -0.000 C 
BRANCH  29  30
ATOM     30  C   UNL     1     178.034 203.634 196.919  1.00  0.00    -0.000 C 
BRANCH  30  31
ATOM     31  C   UNL     1     179.215 202.681 197.141  1.00  0.00    -0.003 C 
ATOM     32  C   UNL     1     178.742 201.333 197.677  1.00  0.00     0.004 C 
ENDBRANCH  30  31
ENDBRANCH  29  30
ENDBRANCH  28  29
ENDBRANCH  27  28
ENDBRANCH  26  27
ENDBRANCH  25  26
ENDBRANCH  24  25
ENDBRANCH  23  24
ENDBRANCH  22  23
ENDBRANCH  21  22
ENDBRANCH  20  21
ENDBRANCH  19  20
ENDBRANCH  18  19
ENDBRANCH   1  18
TORSDOF 28
ENDMDL
MODEL 6
REMARK VINA RESULT:    -2.052     17.473     20.733
REMARK INTER + INTRA:         -10.285
REMARK INTER:                  -3.697
REMARK INTRA:                  -6.589
REMARK UNBOUND:                -4.873
REMARK SMILES CCCCCCCCCCCCCCCCCCCCCCCCCCCCCC(=O)[O-]
REMARK SMILES IDX 16 1 17 2 18 3 19 4 20 5 21 6 22 7 23 8 24 9 25 10 26 11
REMARK SMILES IDX 27 12 28 13 29 14 30 15 31 16 32 17 15 18 14 19 13 20 12 21
REMARK SMILES IDX 11 22 10 23 9 24 8 25 7 26 6 27 5 28 4 29 3 30 2 31 1 32
REMARK H PARENT
REMARK Flexibility Score: inf
ROOT
ATOM      1  C   UNL     1     177.949 203.762 198.154  1.00  0.00     0.000 C 
ENDROOT
BRANCH   1   2
ATOM      2  C   UNL     1     176.648 204.478 197.741  1.00  0.00     0.000 C 
BRANCH   2   3
ATOM      3  C   UNL     1     175.462 204.226 198.697  1.00  0.00     0.000 C 
BRANCH   3   4
ATOM      4  C   UNL     1     175.382 202.763 199.170  1.00  0.00     0.000 C 
BRANCH   4   5
ATOM      5  C   UNL     1     174.274 202.530 200.211  1.00  0.00     0.000 C 
BRANCH   5   6
ATOM      6  C   UNL     1     174.733 202.607 201.681  1.00  0.00     0.000 C 
BRANCH   6   7
ATOM      7  C   UNL     1     174.107 203.751 202.503  1.00  0.00     0.000 C 
BRANCH   7   8
ATOM      8  C   UNL     1     172.577 203.868 202.392  1.00  0.00     0.000 C 
BRANCH   8   9
ATOM      9  C   UNL     1     172.105 205.307 202.120  1.00  0.00     0.000 C 
BRANCH   9  10
ATOM     10  C   UNL     1     173.287 206.260 201.841  1.00  0.00     0.000 C 
BRANCH  10  11
ATOM     11  C   UNL     1     172.855 207.708 201.550  1.00  0.00     0.000 C 
BRANCH  11  12
ATOM     12  C   UNL     1     173.019 208.092 200.070  1.00  0.00     0.000 C 
BRANCH  12  13
ATOM     13  C   UNL     1     172.976 206.868 199.140  1.00  0.00     0.006 C 
BRANCH  13  14
ATOM     14  C   UNL     1     172.686 207.249 197.682  1.00  0.00     0.053 C 
BRANCH  14  15
ATOM     15  C   UNL     1     173.945 207.228 196.874  1.00  0.00     0.041 C 
ATOM     16  O   UNL     1     174.816 208.124 197.035  1.00  0.00    -0.550 OA
ATOM     17  O   UNL     1     174.171 206.203 195.964  1.00  0.00    -0.550 OA
ENDBRANCH  14  15
ENDBRANCH  13  14
ENDBRANCH  12  13
ENDBRANCH  11  12
ENDBRANCH  10  11
ENDBRANCH   9  10
ENDBRANCH   8   9
ENDBRANCH   7   8
ENDBRANCH   6   7
ENDBRANCH   5   6
ENDBRANCH   4   5
ENDBRANCH   3   4
ENDBRANCH   2   3
ENDBRANCH   1   2
BRANCH   1  18
ATOM     18  C   UNL     1     179.251 204.520 197.830  1.00  0.00     0.000 C 
BRANCH  18  19
ATOM     19  C   UNL     1     180.345 204.429 198.911  1.00  0.00     0.000 C 
BRANCH  19  20
ATOM     20  C   UNL     1     180.670 205.790 199.542  1.00  0.00     0.000 C 
BRANCH  20  21
ATOM     21  C   UNL     1     179.940 206.929 198.815  1.00  0.00     0.000 C 
BRANCH  21  22
ATOM     22  C   UNL     1     178.977 207.690 199.741  1.00  0.00     0.000 C 
BRANCH  22  23
ATOM     23  C   UNL     1     177.534 207.706 199.202  1.00  0.00     0.000 C 
BRANCH  23  24
ATOM     24  C   UNL     1     176.494 207.401 200.291  1.00  0.00    -0.000 C 
BRANCH  24  25
ATOM     25  C   UNL     1     177.131 206.815 201.562  1.00  0.00    -0.000 C 
BRANCH  25  26
ATOM     26  C   UNL     1     177.219 205.280 201.539  1.00  0.00    -0.000 C 
BRANCH  26  27
ATOM     27  C   UNL     1     178.458 204.715 202.265  1.00  0.00    -0.000 C 
BRANCH  27  28
ATOM     28  C   UNL     1     178.302 203.227 202.615  1.00  0.00    -0.000 C 
BRANCH  28  29
ATOM     29  C   UNL     1     178.895 202.340 201.515  1.00  0.00    -0.000 C 
BRANCH  29  30
ATOM     30  C   UNL     1     177.999 201.126 201.243  1.00  0.00    -0.000 C 
BRANCH  30  31
ATOM     31  C   UNL     1     178.413 200.416 199.947  1.00  0.00    -0.003 C 
ATOM     32  C   UNL     1     179.845 200.771 199.558  1.00  0.00     0.004 C 
ENDBRANCH  30  31
ENDBRANCH  29  30
ENDBRANCH  28  29
ENDBRANCH  27  28
ENDBRANCH  26  27
ENDBRANCH  25  26
ENDBRANCH  24  25
ENDBRANCH  23  24
ENDBRANCH  22  23
ENDBRANCH  21  22
ENDBRANCH  20  21
ENDBRANCH  19  20
ENDBRANCH  18  19
ENDBRANCH   1  18
TORSDOF 28
ENDMDL
MODEL 7
REMARK VINA RESULT:    -2.020     16.671     19.948
REMARK INTER + INTRA:         -10.200
REMARK INTER:                  -3.874
REMARK INTRA:                  -6.326
REMARK UNBOUND:                -4.873
REMARK SMILES CCCCCCCCCCCCCCCCCCCCCCCCCCCCCC(=O)[O-]
REMARK SMILES IDX 16 1 17 2 18 3 19 4 20 5 21 6 22 7 23 8 24 9 25 10 26 11
REMARK SMILES IDX 27 12 28 13 29 14 30 15 31 16 32 17 15 18 14 19 13 20 12 21
REMARK SMILES IDX 11 22 10 23 9 24 8 25 7 26 6 27 5 28 4 29 3 30 2 31 1 32
REMARK H PARENT
REMARK Flexibility Score: inf
ROOT
ATOM      1  C   UNL     1     177.465 206.967 198.466  1.00  0.00     0.000 C 
ENDROOT
BRANCH   1   2
ATOM      2  C   UNL     1     177.054 207.756 197.207  1.00  0.00     0.000 C 
BRANCH   2   3
ATOM      3  C   UNL     1     177.527 207.116 195.884  1.00  0.00     0.000 C 
BRANCH   3   4
ATOM      4  C   UNL     1     178.788 206.252 196.060  1.00  0.00     0.000 C 
BRANCH   4   5
ATOM      5  C   UNL     1     178.554 204.773 195.708  1.00  0.00     0.000 C 
BRANCH   5   6
ATOM      6  C   UNL     1     178.902 203.772 196.829  1.00  0.00     0.000 C 
BRANCH   6   7
ATOM      7  C   UNL     1     177.741 203.427 197.782  1.00  0.00     0.000 C 
BRANCH   7   8
ATOM      8  C   UNL     1     176.769 202.355 197.260  1.00  0.00     0.000 C 
BRANCH   8   9
ATOM      9  C   UNL     1     175.649 202.024 198.262  1.00  0.00     0.000 C 
BRANCH   9  10
ATOM     10  C   UNL     1     175.951 202.577 199.671  1.00  0.00     0.000 C 
BRANCH  10  11
ATOM     11  C   UNL     1     174.881 203.551 200.192  1.00  0.00     0.000 C 
BRANCH  11  12
ATOM     12  C   UNL     1     173.933 202.902 201.215  1.00  0.00     0.000 C 
BRANCH  12  13
ATOM     13  C   UNL     1     172.719 202.237 200.546  1.00  0.00     0.006 C 
BRANCH  13  14
ATOM     14  C   UNL     1     171.534 203.201 200.390  1.00  0.00     0.053 C 
BRANCH  14  15
ATOM     15  C   UNL     1     170.529 202.976 201.476  1.00  0.00     0.041 C 
ATOM     16  O   UNL     1     170.412 201.839 202.006  1.00  0.00    -0.550 OA
ATOM     17  O   UNL     1     169.741 204.029 201.924  1.00  0.00    -0.550 OA
ENDBRANCH  14  15
ENDBRANCH  13  14
ENDBRANCH  12  13
ENDBRANCH  11  12
ENDBRANCH  10  11
ENDBRANCH   9  10
ENDBRANCH   8   9
ENDBRANCH   7   8
ENDBRANCH   6   7
ENDBRANCH   5   6
ENDBRANCH   4   5
ENDBRANCH   3   4
ENDBRANCH   2   3
ENDBRANCH   1   2
BRANCH   1  18
ATOM     18  C   UNL     1     178.441 207.693 199.411  1.00  0.00     0.000 C 
BRANCH  18  19
ATOM     19  C   UNL     1     179.846 207.066 199.505  1.00  0.00     0.000 C 
BRANCH  19  20
ATOM     20  C   UNL     1     179.820 205.631 200.051  1.00  0.00     0.000 C 
BRANCH  20  21
ATOM     21  C   UNL     1     179.378 205.603 201.521  1.00  0.00     0.000 C 
BRANCH  21  22
ATOM     22  C   UNL     1     178.359 204.488 201.804  1.00  0.00     0.000 C 
BRANCH  22  23
ATOM     23  C   UNL     1     177.207 204.960 202.711  1.00  0.00     0.000 C 
BRANCH  23  24
ATOM     24  C   UNL     1     176.810 206.421 202.448  1.00  0.00    -0.000 C 
BRANCH  24  25
ATOM     25  C   UNL     1     175.441 206.541 201.757  1.00  0.00    -0.000 C 
BRANCH  25  26
ATOM     26  C   UNL     1     175.170 207.949 201.202  1.00  0.00    -0.000 C 
BRANCH  26  27
ATOM     27  C   UNL     1     173.859 208.059 200.394  1.00  0.00    -0.000 C 
BRANCH  27  28
ATOM     28  C   UNL     1     173.932 207.305 199.057  1.00  0.00    -0.000 C 
BRANCH  28  29
ATOM     29  C   UNL     1     172.698 206.418 198.858  1.00  0.00    -0.000 C 
BRANCH  29  30
ATOM     30  C   UNL     1     172.877 205.487 197.654  1.00  0.00    -0.000 C 
BRANCH  30  31
ATOM     31  C   UNL     1     174.358 205.352 197.278  1.00  0.00    -0.003 C 
ATOM     32  C   UNL     1     174.520 204.974 195.808  1.00  0.00     0.004 C 
ENDBRANCH  30  31
ENDBRANCH  29  30
ENDBRANCH  28  29
ENDBRANCH  27  28
ENDBRANCH  26  27
ENDBRANCH  25  26
ENDBRANCH  24  25
ENDBRANCH  23  24
ENDBRANCH  22  23
ENDBRANCH  21  22
ENDBRANCH  20  21
ENDBRANCH  19  20
ENDBRANCH  18  19
ENDBRANCH   1  18
TORSDOF 28
ENDMDL
MODEL 8
REMARK VINA RESULT:    -1.992     17.361     20.635
REMARK INTER + INTRA:         -10.126
REMARK INTER:                  -3.532
REMARK INTRA:                  -6.594
REMARK UNBOUND:                -4.873
REMARK SMILES CCCCCCCCCCCCCCCCCCCCCCCCCCCCCC(=O)[O-]
REMARK SMILES IDX 16 1 17 2 18 3 19 4 20 5 21 6 22 7 23 8 24 9 25 10 26 11
REMARK SMILES IDX 27 12 28 13 29 14 30 15 31 16 32 17 15 18 14 19 13 20 12 21
REMARK SMILES IDX 11 22 10 23 9 24 8 25 7 26 6 27 5 28 4 29 3 30 2 31 1 32
REMARK H PARENT
REMARK Flexibility Score: inf
ROOT
ATOM      1  C   UNL     1     174.240 204.413 201.245  1.00  0.00     0.000 C 
ENDROOT
BRANCH   1   2
ATOM      2  C   UNL     1     174.398 203.193 200.317  1.00  0.00     0.000 C 
BRANCH   2   3
ATOM      3  C   UNL     1     175.135 203.501 198.996  1.00  0.00     0.000 C 
BRANCH   3   4
ATOM      4  C   UNL     1     176.664 203.384 199.128  1.00  0.00     0.000 C 
BRANCH   4   5
ATOM      5  C   UNL     1     177.391 203.480 197.776  1.00  0.00     0.000 C 
BRANCH   5   6
ATOM      6  C   UNL     1     178.875 203.892 197.861  1.00  0.00     0.000 C 
BRANCH   6   7
ATOM      7  C   UNL     1     179.885 202.756 197.605  1.00  0.00     0.000 C 
BRANCH   7   8
ATOM      8  C   UNL     1     180.184 201.867 198.824  1.00  0.00     0.000 C 
BRANCH   8   9
ATOM      9  C   UNL     1     180.011 200.367 198.527  1.00  0.00     0.000 C 
BRANCH   9  10
ATOM     10  C   UNL     1     179.233 199.642 199.645  1.00  0.00     0.000 C 
BRANCH  10  11
ATOM     11  C   UNL     1     178.454 200.593 200.570  1.00  0.00     0.000 C 
BRANCH  11  12
ATOM     12  C   UNL     1     177.002 200.143 200.802  1.00  0.00     0.000 C 
BRANCH  12  13
ATOM     13  C   UNL     1     176.487 199.229 199.678  1.00  0.00     0.006 C 
BRANCH  13  14
ATOM     14  C   UNL     1     175.340 199.867 198.882  1.00  0.00     0.053 C 
BRANCH  14  15
ATOM     15  C   UNL     1     175.729 200.035 197.447  1.00  0.00     0.041 C 
ATOM     16  O   UNL     1     176.731 199.427 196.986  1.00  0.00    -0.550 OA
ATOM     17  O   UNL     1     174.967 200.841 196.609  1.00  0.00    -0.550 OA
ENDBRANCH  14  15
ENDBRANCH  13  14
ENDBRANCH  12  13
ENDBRANCH  11  12
ENDBRANCH  10  11
ENDBRANCH   9  10
ENDBRANCH   8   9
ENDBRANCH   7   8
ENDBRANCH   6   7
ENDBRANCH   5   6
ENDBRANCH   4   5
ENDBRANCH   3   4
ENDBRANCH   2   3
ENDBRANCH   1   2
BRANCH   1  18
ATOM     18  C   UNL     1     175.146 204.416 202.492  1.00  0.00     0.000 C 
BRANCH  18  19
ATOM     19  C   UNL     1     175.881 205.743 202.760  1.00  0.00     0.000 C 
BRANCH  19  20
ATOM     20  C   UNL     1     177.409 205.587 202.754  1.00  0.00     0.000 C 
BRANCH  20  21
ATOM     21  C   UNL     1     177.817 204.122 202.541  1.00  0.00     0.000 C 
BRANCH  21  22
ATOM     22  C   UNL     1     179.081 203.988 201.677  1.00  0.00     0.000 C 
BRANCH  22  23
ATOM     23  C   UNL     1     180.083 205.132 201.919  1.00  0.00     0.000 C 
BRANCH  23  24
ATOM     24  C   UNL     1     180.892 205.484 200.661  1.00  0.00    -0.000 C 
BRANCH  24  25
ATOM     25  C   UNL     1     180.713 206.953 200.240  1.00  0.00    -0.000 C 
BRANCH  25  26
ATOM     26  C   UNL     1     180.164 207.107 198.812  1.00  0.00    -0.000 C 
BRANCH  26  27
ATOM     27  C   UNL     1     178.651 207.408 198.755  1.00  0.00    -0.000 C 
BRANCH  27  28
ATOM     28  C   UNL     1     178.140 208.076 200.041  1.00  0.00    -0.000 C 
BRANCH  28  29
ATOM     29  C   UNL     1     176.608 208.107 200.071  1.00  0.00    -0.000 C 
BRANCH  29  30
ATOM     30  C   UNL     1     176.017 206.952 199.256  1.00  0.00    -0.000 C 
BRANCH  30  31
ATOM     31  C   UNL     1     174.663 207.341 198.651  1.00  0.00    -0.003 C 
ATOM     32  C   UNL     1     173.661 207.717 199.738  1.00  0.00     0.004 C 
ENDBRANCH  30  31
ENDBRANCH  29  30
ENDBRANCH  28  29
ENDBRANCH  27  28
ENDBRANCH  26  27
ENDBRANCH  25  26
ENDBRANCH  24  25
ENDBRANCH  23  24
ENDBRANCH  22  23
ENDBRANCH  21  22
ENDBRANCH  20  21
ENDBRANCH  19  20
ENDBRANCH  18  19
ENDBRANCH   1  18
TORSDOF 28
ENDMDL
MODEL 9
REMARK VINA RESULT:    -1.530     15.818     19.842
REMARK INTER + INTRA:          -8.907
REMARK INTER:                  -3.079
REMARK INTRA:                  -5.828
REMARK UNBOUND:                -4.873
REMARK SMILES CCCCCCCCCCCCCCCCCCCCCCCCCCCCCC(=O)[O-]
REMARK SMILES IDX 16 1 17 2 18 3 19 4 20 5 21 6 22 7 23 8 24 9 25 10 26 11
REMARK SMILES IDX 27 12 28 13 29 14 30 15 31 16 32 17 15 18 14 19 13 20 12 21
REMARK SMILES IDX 11 22 10 23 9 24 8 25 7 26 6 27 5 28 4 29 3 30 2 31 1 32
REMARK H PARENT
REMARK Flexibility Score: inf
ROOT
ATOM      1  C   UNL     1     175.273 204.211 199.523  1.00  0.00     0.000 C 
ENDROOT
BRANCH   1   2
ATOM      2  C   UNL     1     174.016 204.060 200.403  1.00  0.00     0.000 C 
BRANCH   2   3
ATOM      3  C   UNL     1     174.320 203.797 201.893  1.00  0.00     0.000 C 
BRANCH   3   4
ATOM      4  C   UNL     1     173.406 204.600 202.835  1.00  0.00     0.000 C 
BRANCH   4   5
ATOM      5  C   UNL     1     172.859 205.885 202.189  1.00  0.00     0.000 C 
BRANCH   5   6
ATOM      6  C   UNL     1     171.343 206.106 202.359  1.00  0.00     0.000 C 
BRANCH   6   7
ATOM      7  C   UNL     1     170.650 206.821 201.182  1.00  0.00     0.000 C 
BRANCH   7   8
ATOM      8  C   UNL     1     170.998 206.266 199.790  1.00  0.00     0.000 C 
BRANCH   8   9
ATOM      9  C   UNL     1     171.702 207.299 198.892  1.00  0.00     0.000 C 
BRANCH   9  10
ATOM     10  C   UNL     1     171.443 207.035 197.394  1.00  0.00     0.000 C 
BRANCH  10  11
ATOM     11  C   UNL     1     172.728 206.817 196.577  1.00  0.00     0.000 C 
BRANCH  11  12
ATOM     12  C   UNL     1     173.301 208.125 196.006  1.00  0.00     0.000 C 
BRANCH  12  13
ATOM     13  C   UNL     1     174.019 207.911 194.663  1.00  0.00     0.006 C 
BRANCH  13  14
ATOM     14  C   UNL     1     175.036 206.762 194.718  1.00  0.00     0.053 C 
BRANCH  14  15
ATOM     15  C   UNL     1     175.199 206.141 193.367  1.00  0.00     0.041 C 
ATOM     16  O   UNL     1     175.877 205.088 193.231  1.00  0.00    -0.550 OA
ATOM     17  O   UNL     1     174.578 206.708 192.261  1.00  0.00    -0.550 OA
ENDBRANCH  14  15
ENDBRANCH  13  14
ENDBRANCH  12  13
ENDBRANCH  11  12
ENDBRANCH  10  11
ENDBRANCH   9  10
ENDBRANCH   8   9
ENDBRANCH   7   8
ENDBRANCH   6   7
ENDBRANCH   5   6
ENDBRANCH   4   5
ENDBRANCH   3   4
ENDBRANCH   2   3
ENDBRANCH   1   2
BRANCH   1  18
ATOM     18  C   UNL     1     175.211 205.332 198.468  1.00  0.00     0.000 C 
BRANCH  18  19
ATOM     19  C   UNL     1     175.993 206.610 198.827  1.00  0.00     0.000 C 
BRANCH  19  20
ATOM     20  C   UNL     1     175.083 207.742 199.324  1.00  0.00     0.000 C 
BRANCH  20  21
ATOM     21  C   UNL     1     175.413 208.125 200.775  1.00  0.00     0.000 C 
BRANCH  21  22
ATOM     22  C   UNL     1     176.764 207.554 201.236  1.00  0.00     0.000 C 
BRANCH  22  23
ATOM     23  C   UNL     1     176.609 206.523 202.369  1.00  0.00     0.000 C 
BRANCH  23  24
ATOM     24  C   UNL     1     177.752 205.496 202.394  1.00  0.00    -0.000 C 
BRANCH  24  25
ATOM     25  C   UNL     1     178.781 205.737 201.276  1.00  0.00    -0.000 C 
BRANCH  25  26
ATOM     26  C   UNL     1     178.848 204.584 200.262  1.00  0.00    -0.000 C 
BRANCH  26  27
ATOM     27  C   UNL     1     179.345 205.011 198.864  1.00  0.00    -0.000 C 
BRANCH  27  28
ATOM     28  C   UNL     1     179.759 206.490 198.818  1.00  0.00    -0.000 C 
BRANCH  28  29
ATOM     29  C   UNL     1     179.975 206.955 197.374  1.00  0.00    -0.000 C 
BRANCH  29  30
ATOM     30  C   UNL     1     178.646 207.339 196.714  1.00  0.00    -0.000 C 
BRANCH  30  31
ATOM     31  C   UNL     1     178.606 206.883 195.250  1.00  0.00    -0.003 C 
ATOM     32  C   UNL     1     178.926 205.396 195.127  1.00  0.00     0.004 C 
ENDBRANCH  30  31
ENDBRANCH  29  30
ENDBRANCH  28  29
ENDBRANCH  27  28
ENDBRANCH  26  27
ENDBRANCH  25  26
ENDBRANCH  24  25
ENDBRANCH  23  24
ENDBRANCH  22  23
ENDBRANCH  21  22
ENDBRANCH  20  21
ENDBRANCH  19  20
ENDBRANCH  18  19
ENDBRANCH   1  18
TORSDOF 28
ENDMDL
