MODEL 1
REMARK VINA RESULT:    -6.711      0.000      0.000
REMARK INTER + INTRA:          -8.504
REMARK INTER:                  -8.085
REMARK INTRA:                  -0.419
REMARK UNBOUND:                -0.419
REMARK SMILES O=c1c(O)c(-c2ccc(O)cc2O)oc2cc(O)cc(O)c12
REMARK SMILES IDX 5 1 3 2 2 3 1 4 22 5 20 6 19 7 17 8 16 9 15 10 14 11 6 12
REMARK SMILES IDX 8 13 7 14 9 15 11 16 12 17 10 18 13 20 4 22 21 24 18 26
REMARK H PARENT 10 19 13 21 4 23 21 25 18 27
REMARK Flexibility Score: inf
ROOT
ATOM      1  C   UNL     1     135.537 101.713  94.200  1.00  0.00     0.184 A 
ATOM      2  C   UNL     1     136.205 102.904  93.872  1.00  0.00     0.208 A 
ATOM      3  C   UNL     1     135.489 104.111  93.883  1.00  0.00     0.238 A 
ATOM      4  O   UNL     1     136.106 105.180  93.642  1.00  0.00    -0.285 OA
ATOM      5  C   UNL     1     134.111 104.108  94.206  1.00  0.00     0.111 A 
ATOM      6  C   UNL     1     133.277 105.267  94.210  1.00  0.00     0.134 A 
ATOM      7  C   UNL     1     131.959 105.168  94.671  1.00  0.00     0.093 A 
ATOM      8  C   UNL     1     131.424 103.942  95.066  1.00  0.00     0.123 A 
ATOM      9  C   UNL     1     132.212 102.792  95.011  1.00  0.00     0.094 A 
ATOM     10  C   UNL     1     133.542 102.864  94.590  1.00  0.00     0.146 A 
ATOM     11  O   UNL     1     134.261 101.749  94.562  1.00  0.00    -0.451 OA
ENDROOT
BRANCH   1  12
ATOM     12  C   UNL     1     136.228 100.407  94.191  1.00  0.00     0.063 A 
ATOM     13  C   UNL     1     137.736  98.847  95.287  1.00  0.00     0.047 A 
ATOM     14  C   UNL     1     137.072 100.075  95.261  1.00  0.00     0.020 A 
ATOM     15  C   UNL     1     137.553  97.926  94.247  1.00  0.00     0.119 A 
ATOM     16  C   UNL     1     136.695  98.238  93.189  1.00  0.00     0.093 A 
ATOM     17  C   UNL     1     136.021  99.468  93.158  1.00  0.00     0.130 A 
BRANCH  15  18
ATOM     18  O   UNL     1     138.212  96.700  94.261  1.00  0.00    -0.508 OA
ATOM     19  H   UNL     1     137.742  95.848  94.543  1.00  0.00     0.293 HD
ENDBRANCH  15  18
BRANCH  17  20
ATOM     20  O   UNL     1     135.130  99.745  92.121  1.00  0.00    -0.507 OA
ATOM     21  H   UNL     1     134.670 100.645  92.042  1.00  0.00     0.293 HD
ENDBRANCH  17  20
ENDBRANCH   1  12
BRANCH   2  22
ATOM     22  O   UNL     1     137.571 102.879  93.575  1.00  0.00    -0.502 OA
ATOM     23  H   UNL     1     138.089 102.015  93.477  1.00  0.00     0.293 HD
ENDBRANCH   2  22
BRANCH   6  24
ATOM     24  O   UNL     1     133.684 106.522  93.749  1.00  0.00    -0.507 OA
ATOM     25  H   UNL     1     134.609 106.738  93.412  1.00  0.00     0.293 HD
ENDBRANCH   6  24
BRANCH   8  26
ATOM     26  O   UNL     1     130.103 103.878  95.506  1.00  0.00    -0.508 OA
ATOM     27  H   UNL     1     129.491 103.116  95.236  1.00  0.00     0.293 HD
ENDBRANCH   8  26
TORSDOF 6
ENDMDL
MODEL 2
REMARK VINA RESULT:    -6.516      1.506      6.387
REMARK INTER + INTRA:          -8.269
REMARK INTER:                  -7.971
REMARK INTRA:                  -0.298
REMARK UNBOUND:                -0.419
REMARK SMILES O=c1c(O)c(-c2ccc(O)cc2O)oc2cc(O)cc(O)c12
REMARK SMILES IDX 5 1 3 2 2 3 1 4 22 5 20 6 19 7 17 8 16 9 15 10 14 11 6 12
REMARK SMILES IDX 8 13 7 14 9 15 11 16 12 17 10 18 13 20 4 22 21 24 18 26
REMARK H PARENT 10 19 13 21 4 23 21 25 18 27
REMARK Flexibility Score: inf
ROOT
ATOM      1  C   UNL     1     134.850 102.657  94.600  1.00  0.00     0.184 A 
ATOM      2  C   UNL     1     135.828 103.636  94.363  1.00  0.00     0.208 A 
ATOM      3  C   UNL     1     137.176 103.251  94.305  1.00  0.00     0.238 A 
ATOM      4  O   UNL     1     138.042 104.123  94.038  1.00  0.00    -0.285 OA
ATOM      5  C   UNL     1     137.529 101.894  94.501  1.00  0.00     0.111 A 
ATOM      6  C   UNL     1     138.868 101.396  94.503  1.00  0.00     0.134 A 
ATOM      7  C   UNL     1     139.091 100.016  94.578  1.00  0.00     0.093 A 
ATOM      8  C   UNL     1     138.032  99.121  94.716  1.00  0.00     0.123 A 
ATOM      9  C   UNL     1     136.722  99.601  94.775  1.00  0.00     0.094 A 
ATOM     10  C   UNL     1     136.464 100.969  94.666  1.00  0.00     0.146 A 
ATOM     11  O   UNL     1     135.204 101.383  94.715  1.00  0.00    -0.451 OA
ENDROOT
BRANCH   1  12
ATOM     12  C   UNL     1     133.415 102.998  94.690  1.00  0.00     0.063 A 
ATOM     13  C   UNL     1     131.169 102.786  93.784  1.00  0.00     0.047 A 
ATOM     14  C   UNL     1     132.532 102.488  93.726  1.00  0.00     0.020 A 
ATOM     15  C   UNL     1     130.668 103.588  94.818  1.00  0.00     0.119 A 
ATOM     16  C   UNL     1     131.536 104.081  95.796  1.00  0.00     0.093 A 
ATOM     17  C   UNL     1     132.906 103.781  95.747  1.00  0.00     0.130 A 
BRANCH  15  18
ATOM     18  O   UNL     1     129.311 103.895  94.884  1.00  0.00    -0.508 OA
ATOM     19  H   UNL     1     128.987 104.789  95.233  1.00  0.00     0.293 HD
ENDBRANCH  15  18
BRANCH  17  20
ATOM     20  O   UNL     1     133.752 104.239  96.757  1.00  0.00    -0.507 OA
ATOM     21  H   UNL     1     134.349 105.047  96.624  1.00  0.00     0.293 HD
ENDBRANCH  17  20
ENDBRANCH   1  12
BRANCH   2  22
ATOM     22  O   UNL     1     135.449 104.965  94.154  1.00  0.00    -0.502 OA
ATOM     23  H   UNL     1     134.490 105.277  94.247  1.00  0.00     0.293 HD
ENDBRANCH   2  22
BRANCH   6  24
ATOM     24  O   UNL     1     140.003 102.211  94.463  1.00  0.00    -0.507 OA
ATOM     25  H   UNL     1     140.718 102.166  93.753  1.00  0.00     0.293 HD
ENDBRANCH   6  24
BRANCH   8  26
ATOM     26  O   UNL     1     138.293  97.755  94.803  1.00  0.00    -0.508 OA
ATOM     27  H   UNL     1     138.264  97.157  93.984  1.00  0.00     0.293 HD
ENDBRANCH   8  26
TORSDOF 6
ENDMDL
MODEL 3
REMARK VINA RESULT:    -6.052      1.912      2.601
REMARK INTER + INTRA:          -7.709
REMARK INTER:                  -7.284
REMARK INTRA:                  -0.425
REMARK UNBOUND:                -0.419
REMARK SMILES O=c1c(O)c(-c2ccc(O)cc2O)oc2cc(O)cc(O)c12
REMARK SMILES IDX 5 1 3 2 2 3 1 4 22 5 20 6 19 7 17 8 16 9 15 10 14 11 6 12
REMARK SMILES IDX 8 13 7 14 9 15 11 16 12 17 10 18 13 20 4 22 21 24 18 26
REMARK H PARENT 10 19 13 21 4 23 21 25 18 27
REMARK Flexibility Score: inf
ROOT
ATOM      1  C   UNL     1     135.245 101.223  93.726  1.00  0.00     0.184 A 
ATOM      2  C   UNL     1     135.144 101.471  92.347  1.00  0.00     0.208 A 
ATOM      3  C   UNL     1     134.016 102.149  91.858  1.00  0.00     0.238 A 
ATOM      4  O   UNL     1     133.958 102.415  90.630  1.00  0.00    -0.285 OA
ATOM      5  C   UNL     1     132.997 102.555  92.753  1.00  0.00     0.111 A 
ATOM      6  C   UNL     1     131.792 103.214  92.363  1.00  0.00     0.134 A 
ATOM      7  C   UNL     1     130.914 103.685  93.347  1.00  0.00     0.093 A 
ATOM      8  C   UNL     1     131.163 103.466  94.701  1.00  0.00     0.123 A 
ATOM      9  C   UNL     1     132.310 102.771  95.091  1.00  0.00     0.094 A 
ATOM     10  C   UNL     1     133.223 102.320  94.136  1.00  0.00     0.146 A 
ATOM     11  O   UNL     1     134.306 101.673  94.549  1.00  0.00    -0.451 OA
ENDROOT
BRANCH   1  12
ATOM     12  C   UNL     1     136.397 100.500  94.303  1.00  0.00     0.063 A 
ATOM     13  C   UNL     1     137.537  98.391  94.701  1.00  0.00     0.047 A 
ATOM     14  C   UNL     1     136.460  99.104  94.172  1.00  0.00     0.020 A 
ATOM     15  C   UNL     1     138.575  99.066  95.356  1.00  0.00     0.119 A 
ATOM     16  C   UNL     1     138.533 100.458  95.470  1.00  0.00     0.093 A 
ATOM     17  C   UNL     1     137.456 101.183  94.936  1.00  0.00     0.130 A 
BRANCH  15  18
ATOM     18  O   UNL     1     139.653  98.364  95.891  1.00  0.00    -0.508 OA
ATOM     19  H   UNL     1     140.459  98.843  96.275  1.00  0.00     0.293 HD
ENDBRANCH  15  18
BRANCH  17  20
ATOM     20  O   UNL     1     137.451 102.576  95.014  1.00  0.00    -0.507 OA
ATOM     21  H   UNL     1     138.208 103.086  95.456  1.00  0.00     0.293 HD
ENDBRANCH  17  20
ENDBRANCH   1  12
BRANCH   2  22
ATOM     22  O   UNL     1     136.174 101.074  91.489  1.00  0.00    -0.502 OA
ATOM     23  H   UNL     1     136.457 100.107  91.392  1.00  0.00     0.293 HD
ENDBRANCH   2  22
BRANCH   6  24
ATOM     24  O   UNL     1     131.400 103.403  91.035  1.00  0.00    -0.507 OA
ATOM     25  H   UNL     1     130.622 103.972  90.741  1.00  0.00     0.293 HD
ENDBRANCH   6  24
BRANCH   8  26
ATOM     26  O   UNL     1     130.260 103.936  95.652  1.00  0.00    -0.508 OA
ATOM     27  H   UNL     1     129.890 103.331  96.376  1.00  0.00     0.293 HD
ENDBRANCH   8  26
TORSDOF 6
ENDMDL
MODEL 4
REMARK VINA RESULT:    -5.680      1.562      6.568
REMARK INTER + INTRA:          -7.262
REMARK INTER:                  -6.924
REMARK INTRA:                  -0.338
REMARK UNBOUND:                -0.419
REMARK SMILES O=c1c(O)c(-c2ccc(O)cc2O)oc2cc(O)cc(O)c12
REMARK SMILES IDX 5 1 3 2 2 3 1 4 22 5 20 6 19 7 17 8 16 9 15 10 14 11 6 12
REMARK SMILES IDX 8 13 7 14 9 15 11 16 12 17 10 18 13 20 4 22 21 24 18 26
REMARK H PARENT 10 19 13 21 4 23 21 25 18 27
REMARK Flexibility Score: inf
ROOT
ATOM      1  C   UNL     1     134.334 102.525  94.133  1.00  0.00     0.184 A 
ATOM      2  C   UNL     1     135.556 102.670  94.809  1.00  0.00     0.208 A 
ATOM      3  C   UNL     1     136.594 101.764  94.541  1.00  0.00     0.238 A 
ATOM      4  O   UNL     1     137.703 101.931  95.109  1.00  0.00    -0.285 OA
ATOM      5  C   UNL     1     136.389 100.715  93.612  1.00  0.00     0.111 A 
ATOM      6  C   UNL     1     137.357  99.715  93.292  1.00  0.00     0.134 A 
ATOM      7  C   UNL     1     137.092  98.802  92.263  1.00  0.00     0.093 A 
ATOM      8  C   UNL     1     135.873  98.811  91.588  1.00  0.00     0.123 A 
ATOM      9  C   UNL     1     134.896  99.747  91.933  1.00  0.00     0.094 A 
ATOM     10  C   UNL     1     135.143 100.693  92.930  1.00  0.00     0.146 A 
ATOM     11  O   UNL     1     134.192 101.572  93.220  1.00  0.00    -0.451 OA
ENDROOT
BRANCH   1  12
ATOM     12  C   UNL     1     133.196 103.434  94.382  1.00  0.00     0.063 A 
ATOM     13  C   UNL     1     131.008 103.800  95.377  1.00  0.00     0.047 A 
ATOM     14  C   UNL     1     132.098 102.965  95.119  1.00  0.00     0.020 A 
ATOM     15  C   UNL     1     131.009 105.121  94.913  1.00  0.00     0.119 A 
ATOM     16  C   UNL     1     132.109 105.605  94.198  1.00  0.00     0.093 A 
ATOM     17  C   UNL     1     133.209 104.774  93.939  1.00  0.00     0.130 A 
BRANCH  15  18
ATOM     18  O   UNL     1     129.926 105.961  95.161  1.00  0.00    -0.508 OA
ATOM     19  H   UNL     1     129.983 106.960  95.000  1.00  0.00     0.293 HD
ENDBRANCH  15  18
BRANCH  17  20
ATOM     20  O   UNL     1     134.320 105.283  93.267  1.00  0.00    -0.507 OA
ATOM     21  H   UNL     1     135.235 104.856  93.354  1.00  0.00     0.293 HD
ENDBRANCH  17  20
ENDBRANCH   1  12
BRANCH   2  22
ATOM     22  O   UNL     1     135.736 103.726  95.708  1.00  0.00    -0.502 OA
ATOM     23  H   UNL     1     134.965 104.149  96.209  1.00  0.00     0.293 HD
ENDBRANCH   2  22
BRANCH   6  24
ATOM     24  O   UNL     1     138.570  99.560  93.968  1.00  0.00    -0.507 OA
ATOM     25  H   UNL     1     139.001 100.265  94.546  1.00  0.00     0.293 HD
ENDBRANCH   6  24
BRANCH   8  26
ATOM     26  O   UNL     1     135.639  97.878  90.580  1.00  0.00    -0.508 OA
ATOM     27  H   UNL     1     134.774  97.350  90.537  1.00  0.00     0.293 HD
ENDBRANCH   8  26
TORSDOF 6
ENDMDL
MODEL 5
REMARK VINA RESULT:    -5.590      1.573      6.816
REMARK INTER + INTRA:          -7.153
REMARK INTER:                  -6.747
REMARK INTRA:                  -0.407
REMARK UNBOUND:                -0.419
REMARK SMILES O=c1c(O)c(-c2ccc(O)cc2O)oc2cc(O)cc(O)c12
REMARK SMILES IDX 5 1 3 2 2 3 1 4 22 5 20 6 19 7 17 8 16 9 15 10 14 11 6 12
REMARK SMILES IDX 8 13 7 14 9 15 11 16 12 17 10 18 13 20 4 22 21 24 18 26
REMARK H PARENT 10 19 13 21 4 23 21 25 18 27
REMARK Flexibility Score: inf
ROOT
ATOM      1  C   UNL     1     133.977 101.811  93.506  1.00  0.00     0.184 A 
ATOM      2  C   UNL     1     133.820 101.163  92.270  1.00  0.00     0.208 A 
ATOM      3  C   UNL     1     134.756 100.190  91.888  1.00  0.00     0.238 A 
ATOM      4  O   UNL     1     134.580  99.575  90.805  1.00  0.00    -0.285 OA
ATOM      5  C   UNL     1     135.847  99.890  92.740  1.00  0.00     0.111 A 
ATOM      6  C   UNL     1     136.878  98.950  92.436  1.00  0.00     0.134 A 
ATOM      7  C   UNL     1     137.836  98.639  93.408  1.00  0.00     0.093 A 
ATOM      8  C   UNL     1     137.840  99.279  94.647  1.00  0.00     0.123 A 
ATOM      9  C   UNL     1     136.872 100.242  94.932  1.00  0.00     0.094 A 
ATOM     10  C   UNL     1     135.881 100.549  93.998  1.00  0.00     0.146 A 
ATOM     11  O   UNL     1     134.972 101.463  94.313  1.00  0.00    -0.451 OA
ENDROOT
BRANCH   1  12
ATOM     12  C   UNL     1     133.037 102.856  93.960  1.00  0.00     0.063 A 
ATOM     13  C   UNL     1     131.098 103.468  95.293  1.00  0.00     0.047 A 
ATOM     14  C   UNL     1     132.001 102.505  94.839  1.00  0.00     0.020 A 
ATOM     15  C   UNL     1     131.228 104.802  94.883  1.00  0.00     0.119 A 
ATOM     16  C   UNL     1     132.270 105.166  94.027  1.00  0.00     0.093 A 
ATOM     17  C   UNL     1     133.185 104.204  93.571  1.00  0.00     0.130 A 
BRANCH  15  18
ATOM     18  O   UNL     1     130.331 105.771  95.326  1.00  0.00    -0.508 OA
ATOM     19  H   UNL     1     130.243 106.002  96.309  1.00  0.00     0.293 HD
ENDBRANCH  15  18
BRANCH  17  20
ATOM     20  O   UNL     1     134.249 104.590  92.756  1.00  0.00    -0.507 OA
ATOM     21  H   UNL     1     135.207 104.568  93.087  1.00  0.00     0.293 HD
ENDBRANCH  17  20
ENDBRANCH   1  12
BRANCH   2  22
ATOM     22  O   UNL     1     132.723 101.466  91.457  1.00  0.00    -0.502 OA
ATOM     23  H   UNL     1     132.775 101.441  90.446  1.00  0.00     0.293 HD
ENDBRANCH   2  22
BRANCH   6  24
ATOM     24  O   UNL     1     137.021  98.323  91.195  1.00  0.00    -0.507 OA
ATOM     25  H   UNL     1     137.847  98.369  90.620  1.00  0.00     0.293 HD
ENDBRANCH   6  24
BRANCH   8  26
ATOM     26  O   UNL     1     138.819  98.954  95.585  1.00  0.00    -0.508 OA
ATOM     27  H   UNL     1     138.922  99.480  96.446  1.00  0.00     0.293 HD
ENDBRANCH   8  26
TORSDOF 6
ENDMDL
MODEL 6
REMARK VINA RESULT:    -5.469      2.401      3.989
REMARK INTER + INTRA:          -7.007
REMARK INTER:                  -6.699
REMARK INTRA:                  -0.308
REMARK UNBOUND:                -0.419
REMARK SMILES O=c1c(O)c(-c2ccc(O)cc2O)oc2cc(O)cc(O)c12
REMARK SMILES IDX 5 1 3 2 2 3 1 4 22 5 20 6 19 7 17 8 16 9 15 10 14 11 6 12
REMARK SMILES IDX 8 13 7 14 9 15 11 16 12 17 10 18 13 20 4 22 21 24 18 26
REMARK H PARENT 10 19 13 21 4 23 21 25 18 27
REMARK Flexibility Score: inf
ROOT
ATOM      1  C   UNL     1     133.951 102.297  94.166  1.00  0.00     0.184 A 
ATOM      2  C   UNL     1     133.226 103.049  95.105  1.00  0.00     0.208 A 
ATOM      3  C   UNL     1     131.849 103.236  94.909  1.00  0.00     0.238 A 
ATOM      4  O   UNL     1     131.195 103.864  95.781  1.00  0.00    -0.285 OA
ATOM      5  C   UNL     1     131.219 102.683  93.768  1.00  0.00     0.111 A 
ATOM      6  C   UNL     1     129.836 102.844  93.448  1.00  0.00     0.134 A 
ATOM      7  C   UNL     1     129.293 102.145  92.363  1.00  0.00     0.093 A 
ATOM      8  C   UNL     1     130.093 101.344  91.549  1.00  0.00     0.123 A 
ATOM      9  C   UNL     1     131.457 101.227  91.817  1.00  0.00     0.094 A 
ATOM     10  C   UNL     1     132.022 101.882  92.914  1.00  0.00     0.146 A 
ATOM     11  O   UNL     1     133.322 101.736  93.141  1.00  0.00    -0.451 OA
ENDROOT
BRANCH   1  12
ATOM     12  C   UNL     1     135.405 102.076  94.303  1.00  0.00     0.063 A 
ATOM     13  C   UNL     1     137.245 100.533  94.680  1.00  0.00     0.047 A 
ATOM     14  C   UNL     1     135.877 100.778  94.550  1.00  0.00     0.020 A 
ATOM     15  C   UNL     1     138.163 101.583  94.551  1.00  0.00     0.119 A 
ATOM     16  C   UNL     1     137.705 102.875  94.282  1.00  0.00     0.093 A 
ATOM     17  C   UNL     1     136.331 103.128  94.144  1.00  0.00     0.130 A 
BRANCH  15  18
ATOM     18  O   UNL     1     139.530 101.351  94.682  1.00  0.00    -0.508 OA
ATOM     19  H   UNL     1     139.899 100.415  94.808  1.00  0.00     0.293 HD
ENDBRANCH  15  18
BRANCH  17  20
ATOM     20  O   UNL     1     135.891 104.414  93.828  1.00  0.00    -0.507 OA
ATOM     21  H   UNL     1     135.346 104.598  92.993  1.00  0.00     0.293 HD
ENDBRANCH  17  20
ENDBRANCH   1  12
BRANCH   2  22
ATOM     22  O   UNL     1     133.871 103.568  96.231  1.00  0.00    -0.502 OA
ATOM     23  H   UNL     1     134.575 104.292  96.168  1.00  0.00     0.293 HD
ENDBRANCH   2  22
BRANCH   6  24
ATOM     24  O   UNL     1     128.969 103.693  94.141  1.00  0.00    -0.507 OA
ATOM     25  H   UNL     1     129.095 103.987  95.097  1.00  0.00     0.293 HD
ENDBRANCH   6  24
BRANCH   8  26
ATOM     26  O   UNL     1     129.521 100.675  90.469  1.00  0.00    -0.508 OA
ATOM     27  H   UNL     1     128.526 100.482  90.431  1.00  0.00     0.293 HD
ENDBRANCH   8  26
TORSDOF 6
ENDMDL
MODEL 7
REMARK VINA RESULT:    -5.345      2.398      3.756
REMARK INTER + INTRA:          -6.858
REMARK INTER:                  -6.436
REMARK INTRA:                  -0.422
REMARK UNBOUND:                -0.419
REMARK SMILES O=c1c(O)c(-c2ccc(O)cc2O)oc2cc(O)cc(O)c12
REMARK SMILES IDX 5 1 3 2 2 3 1 4 22 5 20 6 19 7 17 8 16 9 15 10 14 11 6 12
REMARK SMILES IDX 8 13 7 14 9 15 11 16 12 17 10 18 13 20 4 22 21 24 18 26
REMARK H PARENT 10 19 13 21 4 23 21 25 18 27
REMARK Flexibility Score: inf
ROOT
ATOM      1  C   UNL     1     135.104 102.959  94.254  1.00  0.00     0.184 A 
ATOM      2  C   UNL     1     134.495 103.663  95.305  1.00  0.00     0.208 A 
ATOM      3  C   UNL     1     133.094 103.721  95.363  1.00  0.00     0.238 A 
ATOM      4  O   UNL     1     132.553 104.306  96.336  1.00  0.00    -0.285 OA
ATOM      5  C   UNL     1     132.322 103.088  94.359  1.00  0.00     0.111 A 
ATOM      6  C   UNL     1     130.895 103.116  94.296  1.00  0.00     0.134 A 
ATOM      7  C   UNL     1     130.232 102.347  93.331  1.00  0.00     0.093 A 
ATOM      8  C   UNL     1     130.942 101.604  92.389  1.00  0.00     0.123 A 
ATOM      9  C   UNL     1     132.337 101.616  92.405  1.00  0.00     0.094 A 
ATOM     10  C   UNL     1     133.028 102.344  93.377  1.00  0.00     0.146 A 
ATOM     11  O   UNL     1     134.355 102.321  93.364  1.00  0.00    -0.451 OA
ENDROOT
BRANCH   1  12
ATOM     12  C   UNL     1     136.574 102.873  94.125  1.00  0.00     0.063 A 
ATOM     13  C   UNL     1     138.678 103.961  93.578  1.00  0.00     0.047 A 
ATOM     14  C   UNL     1     137.288 104.006  93.705  1.00  0.00     0.020 A 
ATOM     15  C   UNL     1     139.375 102.785  93.884  1.00  0.00     0.119 A 
ATOM     16  C   UNL     1     138.674 101.660  94.327  1.00  0.00     0.093 A 
ATOM     17  C   UNL     1     137.278 101.699  94.462  1.00  0.00     0.130 A 
BRANCH  15  18
ATOM     18  O   UNL     1     140.760 102.728  93.758  1.00  0.00    -0.508 OA
ATOM     19  H   UNL     1     141.231 101.878  93.470  1.00  0.00     0.293 HD
ENDBRANCH  15  18
BRANCH  17  20
ATOM     20  O   UNL     1     136.598 100.584  94.952  1.00  0.00    -0.507 OA
ATOM     21  H   UNL     1     136.475  99.748  94.391  1.00  0.00     0.293 HD
ENDBRANCH  17  20
ENDBRANCH   1  12
BRANCH   2  22
ATOM     22  O   UNL     1     135.282 104.263  96.293  1.00  0.00    -0.502 OA
ATOM     23  H   UNL     1     135.536 103.784  97.148  1.00  0.00     0.293 HD
ENDBRANCH   2  22
BRANCH   6  24
ATOM     24  O   UNL     1     130.092 103.898  95.130  1.00  0.00    -0.507 OA
ATOM     25  H   UNL     1     129.523 103.539  95.881  1.00  0.00     0.293 HD
ENDBRANCH   6  24
BRANCH   8  26
ATOM     26  O   UNL     1     130.248 100.862  91.435  1.00  0.00    -0.508 OA
ATOM     27  H   UNL     1     129.294 100.558  91.591  1.00  0.00     0.293 HD
ENDBRANCH   8  26
TORSDOF 6
ENDMDL
MODEL 8
REMARK VINA RESULT:    -5.301      2.831      6.652
REMARK INTER + INTRA:          -6.805
REMARK INTER:                  -6.509
REMARK INTRA:                  -0.296
REMARK UNBOUND:                -0.419
REMARK SMILES O=c1c(O)c(-c2ccc(O)cc2O)oc2cc(O)cc(O)c12
REMARK SMILES IDX 5 1 3 2 2 3 1 4 22 5 20 6 19 7 17 8 16 9 15 10 14 11 6 12
REMARK SMILES IDX 8 13 7 14 9 15 11 16 12 17 10 18 13 20 4 22 21 24 18 26
REMARK H PARENT 10 19 13 21 4 23 21 25 18 27
REMARK Flexibility Score: inf
ROOT
ATOM      1  C   UNL     1     136.410 102.617  94.354  1.00  0.00     0.184 A 
ATOM      2  C   UNL     1     137.029 101.365  94.498  1.00  0.00     0.208 A 
ATOM      3  C   UNL     1     138.409 101.257  94.262  1.00  0.00     0.238 A 
ATOM      4  O   UNL     1     138.968 100.145  94.446  1.00  0.00    -0.285 OA
ATOM      5  C   UNL     1     139.146 102.400  93.869  1.00  0.00     0.111 A 
ATOM      6  C   UNL     1     140.541 102.399  93.565  1.00  0.00     0.134 A 
ATOM      7  C   UNL     1     141.194 103.611  93.312  1.00  0.00     0.093 A 
ATOM      8  C   UNL     1     140.492 104.816  93.289  1.00  0.00     0.123 A 
ATOM      9  C   UNL     1     139.117 104.822  93.526  1.00  0.00     0.094 A 
ATOM     10  C   UNL     1     138.444 103.633  93.817  1.00  0.00     0.146 A 
ATOM     11  O   UNL     1     137.138 103.683  94.048  1.00  0.00    -0.451 OA
ENDROOT
BRANCH   1  12
ATOM     12  C   UNL     1     134.959 102.795  94.571  1.00  0.00     0.063 A 
ATOM     13  C   UNL     1     132.681 102.153  94.015  1.00  0.00     0.047 A 
ATOM     14  C   UNL     1     134.058 102.014  93.831  1.00  0.00     0.020 A 
ATOM     15  C   UNL     1     132.186 103.067  94.954  1.00  0.00     0.119 A 
ATOM     16  C   UNL     1     133.076 103.832  95.713  1.00  0.00     0.093 A 
ATOM     17  C   UNL     1     134.461 103.694  95.537  1.00  0.00     0.130 A 
BRANCH  15  18
ATOM     18  O   UNL     1     130.814 103.217  95.143  1.00  0.00    -0.508 OA
ATOM     19  H   UNL     1     130.150 102.971  94.419  1.00  0.00     0.293 HD
ENDBRANCH  15  18
BRANCH  17  20
ATOM     20  O   UNL     1     135.338 104.429  96.335  1.00  0.00    -0.507 OA
ATOM     21  H   UNL     1     135.124 104.641  97.303  1.00  0.00     0.293 HD
ENDBRANCH  17  20
ENDBRANCH   1  12
BRANCH   2  22
ATOM     22  O   UNL     1     136.280 100.257  94.906  1.00  0.00    -0.502 OA
ATOM     23  H   UNL     1     136.656  99.543  95.517  1.00  0.00     0.293 HD
ENDBRANCH   2  22
BRANCH   6  24
ATOM     24  O   UNL     1     141.318 101.241  93.471  1.00  0.00    -0.507 OA
ATOM     25  H   UNL     1     142.275 101.215  93.152  1.00  0.00     0.293 HD
ENDBRANCH   6  24
BRANCH   8  26
ATOM     26  O   UNL     1     141.172 106.002  93.019  1.00  0.00    -0.508 OA
ATOM     27  H   UNL     1     140.678 106.850  92.764  1.00  0.00     0.293 HD
ENDBRANCH   8  26
TORSDOF 6
ENDMDL
MODEL 9
REMARK VINA RESULT:    -5.297     13.715     16.015
REMARK INTER + INTRA:          -6.800
REMARK INTER:                  -6.403
REMARK INTRA:                  -0.398
REMARK UNBOUND:                -0.419
REMARK SMILES O=c1c(O)c(-c2ccc(O)cc2O)oc2cc(O)cc(O)c12
REMARK SMILES IDX 5 1 3 2 2 3 1 4 22 5 20 6 19 7 17 8 16 9 15 10 14 11 6 12
REMARK SMILES IDX 8 13 7 14 9 15 11 16 12 17 10 18 13 20 4 22 21 24 18 26
REMARK H PARENT 10 19 13 21 4 23 21 25 18 27
REMARK Flexibility Score: inf
ROOT
ATOM      1  C   UNL     1     132.275  94.599 106.344  1.00  0.00     0.184 A 
ATOM      2  C   UNL     1     130.888  94.444 106.187  1.00  0.00     0.208 A 
ATOM      3  C   UNL     1     130.338  93.153 106.226  1.00  0.00     0.238 A 
ATOM      4  O   UNL     1     129.090  93.026 106.140  1.00  0.00    -0.285 OA
ATOM      5  C   UNL     1     131.185  92.033 106.406  1.00  0.00     0.111 A 
ATOM      6  C   UNL     1     130.742  90.676 106.423  1.00  0.00     0.134 A 
ATOM      7  C   UNL     1     131.649  89.657 106.737  1.00  0.00     0.093 A 
ATOM      8  C   UNL     1     132.994  89.937 106.971  1.00  0.00     0.123 A 
ATOM      9  C   UNL     1     133.451  91.254 106.900  1.00  0.00     0.094 A 
ATOM     10  C   UNL     1     132.564  92.297 106.625  1.00  0.00     0.146 A 
ATOM     11  O   UNL     1     133.036  93.536 106.576  1.00  0.00    -0.451 OA
ENDROOT
BRANCH   1  12
ATOM     12  C   UNL     1     132.919  95.927 106.295  1.00  0.00     0.063 A 
ATOM     13  C   UNL     1     133.625  97.937 107.467  1.00  0.00     0.047 A 
ATOM     14  C   UNL     1     133.018  96.680 107.476  1.00  0.00     0.020 A 
ATOM     15  C   UNL     1     134.157  98.453 106.278  1.00  0.00     0.119 A 
ATOM     16  C   UNL     1     134.084  97.701 105.102  1.00  0.00     0.093 A 
ATOM     17  C   UNL     1     133.480  96.434 105.105  1.00  0.00     0.130 A 
BRANCH  15  18
ATOM     18  O   UNL     1     134.761  99.707 106.256  1.00  0.00    -0.508 OA
ATOM     19  H   UNL     1     135.667  99.851 105.825  1.00  0.00     0.293 HD
ENDBRANCH  15  18
BRANCH  17  20
ATOM     20  O   UNL     1     133.459  95.674 103.935  1.00  0.00    -0.507 OA
ATOM     21  H   UNL     1     134.154  94.959 103.754  1.00  0.00     0.293 HD
ENDBRANCH  17  20
ENDBRANCH   1  12
BRANCH   2  22
ATOM     22  O   UNL     1     130.074  95.569 106.029  1.00  0.00    -0.502 OA
ATOM     23  H   UNL     1     130.325  96.340 105.422  1.00  0.00     0.293 HD
ENDBRANCH   2  22
BRANCH   6  24
ATOM     24  O   UNL     1     129.439  90.278 106.112  1.00  0.00    -0.507 OA
ATOM     25  H   UNL     1     128.927  90.573 105.294  1.00  0.00     0.293 HD
ENDBRANCH   6  24
BRANCH   8  26
ATOM     26  O   UNL     1     133.872  88.896 107.267  1.00  0.00    -0.508 OA
ATOM     27  H   UNL     1     134.302  88.809 108.181  1.00  0.00     0.293 HD
ENDBRANCH   8  26
TORSDOF 6
ENDMDL
