MODEL 1
REMARK VINA RESULT:     2.599      0.000      0.000
REMARK INTER + INTRA:           4.556
REMARK INTER:                   5.638
REMARK INTRA:                  -1.082
REMARK UNBOUND:                -1.082
REMARK SMILES CCCCCCCCCCCCCCCCCCCCCC(=O)[O-]
REMARK SMILES IDX 12 1 11 2 10 3 9 4 8 5 7 6 6 7 5 8 4 9 3 10 2 11 1 12 13 13
REMARK SMILES IDX 14 14 15 15 16 16 17 17 18 18 19 19 20 20 21 21 22 22 23 23
REMARK SMILES IDX 24 24
REMARK H PARENT
REMARK Flexibility Score: inf
ROOT
ATOM      1  C   UNL     1       0.997  60.561  -4.864  1.00  0.00     0.000 C 
ENDROOT
BRANCH   1   2
ATOM      2  C   UNL     1      -0.504  60.231  -4.784  1.00  0.00     0.000 C 
BRANCH   2   3
ATOM      3  C   UNL     1      -0.852  58.907  -5.484  1.00  0.00     0.000 C 
BRANCH   3   4
ATOM      4  C   UNL     1      -1.739  59.101  -6.727  1.00  0.00    -0.000 C 
BRANCH   4   5
ATOM      5  C   UNL     1      -2.640  60.346  -6.637  1.00  0.00    -0.000 C 
BRANCH   5   6
ATOM      6  C   UNL     1      -3.967  60.162  -5.872  1.00  0.00    -0.000 C 
BRANCH   6   7
ATOM      7  C   UNL     1      -4.042  58.887  -5.010  1.00  0.00    -0.000 C 
BRANCH   7   8
ATOM      8  C   UNL     1      -4.806  59.091  -3.689  1.00  0.00    -0.000 C 
BRANCH   8   9
ATOM      9  C   UNL     1      -3.891  58.996  -2.453  1.00  0.00    -0.000 C 
BRANCH   9  10
ATOM     10  C   UNL     1      -2.475  59.579  -2.646  1.00  0.00    -0.000 C 
BRANCH  10  11
ATOM     11  C   UNL     1      -1.481  59.175  -1.537  1.00  0.00    -0.003 C 
ATOM     12  C   UNL     1      -2.173  58.877  -0.206  1.00  0.00     0.004 C 
ENDBRANCH  10  11
ENDBRANCH   9  10
ENDBRANCH   8   9
ENDBRANCH   7   8
ENDBRANCH   6   7
ENDBRANCH   5   6
ENDBRANCH   4   5
ENDBRANCH   3   4
ENDBRANCH   2   3
ENDBRANCH   1   2
BRANCH   1  13
ATOM     13  C   UNL     1       1.886  59.357  -4.510  1.00  0.00     0.000 C 
BRANCH  13  14
ATOM     14  C   UNL     1       2.882  59.015  -5.633  1.00  0.00     0.000 C 
BRANCH  14  15
ATOM     15  C   UNL     1       2.212  58.877  -7.014  1.00  0.00     0.000 C 
BRANCH  15  16
ATOM     16  C   UNL     1       2.758  59.796  -8.125  1.00  0.00     0.000 C 
BRANCH  16  17
ATOM     17  C   UNL     1       3.430  61.104  -7.657  1.00  0.00     0.000 C 
BRANCH  17  18
ATOM     18  C   UNL     1       4.944  60.994  -7.389  1.00  0.00     0.000 C 
BRANCH  18  19
ATOM     19  C   UNL     1       5.557  59.673  -7.882  1.00  0.00     0.000 C 
BRANCH  19  20
ATOM     20  C   UNL     1       6.746  59.215  -7.018  1.00  0.00     0.006 C 
BRANCH  20  21
ATOM     21  C   UNL     1       8.012  58.978  -7.850  1.00  0.00     0.053 C 
BRANCH  21  22
ATOM     22  C   UNL     1       9.165  59.753  -7.293  1.00  0.00     0.041 C 
ATOM     23  O   UNL     1       9.499  59.613  -6.087  1.00  0.00    -0.550 OA
ATOM     24  O   UNL     1       9.878  60.627  -8.107  1.00  0.00    -0.550 OA
ENDBRANCH  21  22
ENDBRANCH  20  21
ENDBRANCH  19  20
ENDBRANCH  18  19
ENDBRANCH  17  18
ENDBRANCH  16  17
ENDBRANCH  15  16
ENDBRANCH  14  15
ENDBRANCH  13  14
ENDBRANCH   1  13
TORSDOF 20
ENDMDL
MODEL 2
REMARK VINA RESULT:     2.911      1.224      3.348
REMARK INTER + INTRA:           5.232
REMARK INTER:                   3.759
REMARK INTRA:                   1.473
REMARK UNBOUND:                -1.082
REMARK SMILES CCCCCCCCCCCCCCCCCCCCCC(=O)[O-]
REMARK SMILES IDX 12 1 11 2 10 3 9 4 8 5 7 6 6 7 5 8 4 9 3 10 2 11 1 12 13 13
REMARK SMILES IDX 14 14 15 15 16 16 17 17 18 18 19 19 20 20 21 21 22 22 23 23
REMARK SMILES IDX 24 24
REMARK H PARENT
REMARK Flexibility Score: inf
ROOT
ATOM      1  C   UNL     1       0.958  60.851  -4.192  1.00  0.00     0.000 C 
ENDROOT
BRANCH   1   2
ATOM      2  C   UNL     1      -0.244  60.724  -3.238  1.00  0.00     0.000 C 
BRANCH   2   3
ATOM      3  C   UNL     1       0.186  60.541  -1.773  1.00  0.00     0.000 C 
BRANCH   3   4
ATOM      4  C   UNL     1      -0.681  59.518  -1.017  1.00  0.00    -0.000 C 
BRANCH   4   5
ATOM      5  C   UNL     1      -1.829  58.951  -1.872  1.00  0.00    -0.000 C 
BRANCH   5   6
ATOM      6  C   UNL     1      -2.838  59.984  -2.414  1.00  0.00    -0.000 C 
BRANCH   6   7
ATOM      7  C   UNL     1      -2.605  60.406  -3.878  1.00  0.00    -0.000 C 
BRANCH   7   8
ATOM      8  C   UNL     1      -2.727  59.237  -4.873  1.00  0.00    -0.000 C 
BRANCH   8   9
ATOM      9  C   UNL     1      -1.881  59.448  -6.143  1.00  0.00    -0.000 C 
BRANCH   9  10
ATOM     10  C   UNL     1      -2.649  59.283  -7.472  1.00  0.00    -0.000 C 
BRANCH  10  11
ATOM     11  C   UNL     1      -4.167  59.071  -7.288  1.00  0.00    -0.003 C 
ATOM     12  C   UNL     1      -5.001  60.146  -7.988  1.00  0.00     0.004 C 
ENDBRANCH  10  11
ENDBRANCH   9  10
ENDBRANCH   8   9
ENDBRANCH   7   8
ENDBRANCH   6   7
ENDBRANCH   5   6
ENDBRANCH   4   5
ENDBRANCH   3   4
ENDBRANCH   2   3
ENDBRANCH   1   2
BRANCH   1  13
ATOM     13  C   UNL     1       2.077  59.846  -3.870  1.00  0.00     0.000 C 
BRANCH  13  14
ATOM     14  C   UNL     1       2.658  59.191  -5.136  1.00  0.00     0.000 C 
BRANCH  14  15
ATOM     15  C   UNL     1       1.614  59.004  -6.254  1.00  0.00     0.000 C 
BRANCH  15  16
ATOM     16  C   UNL     1       2.095  59.315  -7.686  1.00  0.00     0.000 C 
BRANCH  16  17
ATOM     17  C   UNL     1       3.128  60.453  -7.826  1.00  0.00     0.000 C 
BRANCH  17  18
ATOM     18  C   UNL     1       4.418  60.260  -7.006  1.00  0.00     0.000 C 
BRANCH  18  19
ATOM     19  C   UNL     1       5.068  58.881  -7.205  1.00  0.00     0.000 C 
BRANCH  19  20
ATOM     20  C   UNL     1       6.302  58.936  -8.124  1.00  0.00     0.006 C 
BRANCH  20  21
ATOM     21  C   UNL     1       7.071  60.255  -7.985  1.00  0.00     0.053 C 
BRANCH  21  22
ATOM     22  C   UNL     1       8.500  60.000  -7.623  1.00  0.00     0.041 C 
ATOM     23  O   UNL     1       8.832  58.912  -7.082  1.00  0.00    -0.550 OA
ATOM     24  O   UNL     1       9.471  60.960  -7.888  1.00  0.00    -0.550 OA
ENDBRANCH  21  22
ENDBRANCH  20  21
ENDBRANCH  19  20
ENDBRANCH  18  19
ENDBRANCH  17  18
ENDBRANCH  16  17
ENDBRANCH  15  16
ENDBRANCH  14  15
ENDBRANCH  13  14
ENDBRANCH   1  13
TORSDOF 20
ENDMDL
MODEL 3
REMARK VINA RESULT:     3.055      7.196      9.251
REMARK INTER + INTRA:           5.545
REMARK INTER:                   6.725
REMARK INTRA:                  -1.180
REMARK UNBOUND:                -1.082
REMARK SMILES CCCCCCCCCCCCCCCCCCCCCC(=O)[O-]
REMARK SMILES IDX 12 1 11 2 10 3 9 4 8 5 7 6 6 7 5 8 4 9 3 10 2 11 1 12 13 13
REMARK SMILES IDX 14 14 15 15 16 16 17 17 18 18 19 19 20 20 21 21 22 22 23 23
REMARK SMILES IDX 24 24
REMARK H PARENT
REMARK Flexibility Score: inf
ROOT
ATOM      1  C   UNL     1       2.875  62.622  -7.642  1.00  0.00     0.000 C 
ENDROOT
BRANCH   1   2
ATOM      2  C   UNL     1       2.819  61.112  -7.350  1.00  0.00     0.000 C 
BRANCH   2   3
ATOM      3  C   UNL     1       2.345  60.808  -5.919  1.00  0.00     0.000 C 
BRANCH   3   4
ATOM      4  C   UNL     1       1.603  59.463  -5.807  1.00  0.00    -0.000 C 
BRANCH   4   5
ATOM      5  C   UNL     1       0.089  59.626  -5.580  1.00  0.00    -0.000 C 
BRANCH   5   6
ATOM      6  C   UNL     1      -0.322  60.338  -4.274  1.00  0.00    -0.000 C 
BRANCH   6   7
ATOM      7  C   UNL     1      -1.725  59.968  -3.754  1.00  0.00    -0.000 C 
BRANCH   7   8
ATOM      8  C   UNL     1      -2.851  60.790  -4.407  1.00  0.00    -0.000 C 
BRANCH   8   9
ATOM      9  C   UNL     1      -3.793  59.929  -5.269  1.00  0.00    -0.000 C 
BRANCH   9  10
ATOM     10  C   UNL     1      -4.405  60.653  -6.487  1.00  0.00    -0.000 C 
BRANCH  10  11
ATOM     11  C   UNL     1      -4.074  59.983  -7.838  1.00  0.00    -0.003 C 
ATOM     12  C   UNL     1      -2.824  59.105  -7.769  1.00  0.00     0.004 C 
ENDBRANCH  10  11
ENDBRANCH   9  10
ENDBRANCH   8   9
ENDBRANCH   7   8
ENDBRANCH   6   7
ENDBRANCH   5   6
ENDBRANCH   4   5
ENDBRANCH   3   4
ENDBRANCH   2   3
ENDBRANCH   1   2
BRANCH   1  13
ATOM     13  C   UNL     1       2.405  63.472  -6.450  1.00  0.00     0.000 C 
BRANCH  13  14
ATOM     14  C   UNL     1       2.462  64.981  -6.749  1.00  0.00     0.000 C 
BRANCH  14  15
ATOM     15  C   UNL     1       2.973  65.815  -5.558  1.00  0.00     0.000 C 
BRANCH  15  16
ATOM     16  C   UNL     1       2.312  67.196  -5.366  1.00  0.00     0.000 C 
BRANCH  16  17
ATOM     17  C   UNL     1       1.039  67.463  -6.198  1.00  0.00     0.000 C 
BRANCH  17  18
ATOM     18  C   UNL     1       0.174  68.635  -5.698  1.00  0.00     0.000 C 
BRANCH  18  19
ATOM     19  C   UNL     1      -1.131  68.813  -6.491  1.00  0.00     0.000 C 
BRANCH  19  20
ATOM     20  C   UNL     1      -2.349  69.046  -5.579  1.00  0.00     0.006 C 
BRANCH  20  21
ATOM     21  C   UNL     1      -2.729  70.530  -5.484  1.00  0.00     0.053 C 
BRANCH  21  22
ATOM     22  C   UNL     1      -4.112  70.758  -6.009  1.00  0.00     0.041 C 
ATOM     23  O   UNL     1      -4.635  71.901  -5.940  1.00  0.00    -0.550 OA
ATOM     24  O   UNL     1      -4.823  69.709  -6.583  1.00  0.00    -0.550 OA
ENDBRANCH  21  22
ENDBRANCH  20  21
ENDBRANCH  19  20
ENDBRANCH  18  19
ENDBRANCH  17  18
ENDBRANCH  16  17
ENDBRANCH  15  16
ENDBRANCH  14  15
ENDBRANCH  13  14
ENDBRANCH   1  13
TORSDOF 20
ENDMDL
MODEL 4
REMARK VINA RESULT:     3.456      6.668      9.392
REMARK INTER + INTRA:           6.414
REMARK INTER:                   7.555
REMARK INTRA:                  -1.140
REMARK UNBOUND:                -1.082
REMARK SMILES CCCCCCCCCCCCCCCCCCCCCC(=O)[O-]
REMARK SMILES IDX 12 1 11 2 10 3 9 4 8 5 7 6 6 7 5 8 4 9 3 10 2 11 1 12 13 13
REMARK SMILES IDX 14 14 15 15 16 16 17 17 18 18 19 19 20 20 21 21 22 22 23 23
REMARK SMILES IDX 24 24
REMARK H PARENT
REMARK Flexibility Score: inf
ROOT
ATOM      1  C   UNL     1       2.945  62.787  -7.897  1.00  0.00     0.000 C 
ENDROOT
BRANCH   1   2
ATOM      2  C   UNL     1       2.433  63.482  -6.623  1.00  0.00     0.000 C 
BRANCH   2   3
ATOM      3  C   UNL     1       2.441  65.015  -6.746  1.00  0.00     0.000 C 
BRANCH   3   4
ATOM      4  C   UNL     1       3.161  65.706  -5.574  1.00  0.00    -0.000 C 
BRANCH   4   5
ATOM      5  C   UNL     1       2.623  67.119  -5.284  1.00  0.00    -0.000 C 
BRANCH   5   6
ATOM      6  C   UNL     1       1.409  67.562  -6.126  1.00  0.00    -0.000 C 
BRANCH   6   7
ATOM      7  C   UNL     1       0.268  68.212  -5.318  1.00  0.00    -0.000 C 
BRANCH   7   8
ATOM      8  C   UNL     1      -0.877  68.741  -6.202  1.00  0.00    -0.000 C 
BRANCH   8   9
ATOM      9  C   UNL     1      -2.176  68.981  -5.410  1.00  0.00    -0.000 C 
BRANCH   9  10
ATOM     10  C   UNL     1      -2.489  70.462  -5.106  1.00  0.00    -0.000 C 
BRANCH  10  11
ATOM     11  C   UNL     1      -3.669  71.027  -5.925  1.00  0.00    -0.003 C 
ATOM     12  C   UNL     1      -4.545  69.928  -6.530  1.00  0.00     0.004 C 
ENDBRANCH  10  11
ENDBRANCH   9  10
ENDBRANCH   8   9
ENDBRANCH   7   8
ENDBRANCH   6   7
ENDBRANCH   5   6
ENDBRANCH   4   5
ENDBRANCH   3   4
ENDBRANCH   2   3
ENDBRANCH   1   2
BRANCH   1  13
ATOM     13  C   UNL     1       3.121  61.270  -7.712  1.00  0.00     0.000 C 
BRANCH  13  14
ATOM     14  C   UNL     1       2.961  60.836  -6.244  1.00  0.00     0.000 C 
BRANCH  14  15
ATOM     15  C   UNL     1       2.259  59.474  -6.088  1.00  0.00     0.000 C 
BRANCH  15  16
ATOM     16  C   UNL     1       0.770  59.521  -5.689  1.00  0.00     0.000 C 
BRANCH  16  17
ATOM     17  C   UNL     1       0.416  60.420  -4.486  1.00  0.00     0.000 C 
BRANCH  17  18
ATOM     18  C   UNL     1      -1.000  60.211  -3.916  1.00  0.00     0.000 C 
BRANCH  18  19
ATOM     19  C   UNL     1      -1.838  59.200  -4.717  1.00  0.00     0.000 C 
BRANCH  19  20
ATOM     20  C   UNL     1      -3.307  59.156  -4.258  1.00  0.00     0.006 C 
BRANCH  20  21
ATOM     21  C   UNL     1      -4.283  59.093  -5.439  1.00  0.00     0.053 C 
BRANCH  21  22
ATOM     22  C   UNL     1      -4.321  60.402  -6.165  1.00  0.00     0.041 C 
ATOM     23  O   UNL     1      -4.246  61.483  -5.526  1.00  0.00    -0.550 OA
ATOM     24  O   UNL     1      -4.433  60.429  -7.552  1.00  0.00    -0.550 OA
ENDBRANCH  21  22
ENDBRANCH  20  21
ENDBRANCH  19  20
ENDBRANCH  18  19
ENDBRANCH  17  18
ENDBRANCH  16  17
ENDBRANCH  15  16
ENDBRANCH  14  15
ENDBRANCH  13  14
ENDBRANCH   1  13
TORSDOF 20
ENDMDL
MODEL 5
REMARK VINA RESULT:     3.761      3.721      9.189
REMARK INTER + INTRA:           7.076
REMARK INTER:                   4.992
REMARK INTRA:                   2.084
REMARK UNBOUND:                -1.082
REMARK SMILES CCCCCCCCCCCCCCCCCCCCCC(=O)[O-]
REMARK SMILES IDX 12 1 11 2 10 3 9 4 8 5 7 6 6 7 5 8 4 9 3 10 2 11 1 12 13 13
REMARK SMILES IDX 14 14 15 15 16 16 17 17 18 18 19 19 20 20 21 21 22 22 23 23
REMARK SMILES IDX 24 24
REMARK H PARENT
REMARK Flexibility Score: inf
ROOT
ATOM      1  C   UNL     1       1.219  60.604  -4.477  1.00  0.00     0.000 C 
ENDROOT
BRANCH   1   2
ATOM      2  C   UNL     1       2.562  60.016  -4.946  1.00  0.00     0.000 C 
BRANCH   2   3
ATOM      3  C   UNL     1       2.410  59.123  -6.188  1.00  0.00     0.000 C 
BRANCH   3   4
ATOM      4  C   UNL     1       2.678  59.876  -7.504  1.00  0.00    -0.000 C 
BRANCH   4   5
ATOM      5  C   UNL     1       2.646  61.407  -7.341  1.00  0.00    -0.000 C 
BRANCH   5   6
ATOM      6  C   UNL     1       3.905  62.160  -7.818  1.00  0.00    -0.000 C 
BRANCH   6   7
ATOM      7  C   UNL     1       5.117  61.259  -8.124  1.00  0.00    -0.000 C 
BRANCH   7   8
ATOM      8  C   UNL     1       4.932  59.807  -7.644  1.00  0.00    -0.000 C 
BRANCH   8   9
ATOM      9  C   UNL     1       6.062  58.875  -8.121  1.00  0.00    -0.000 C 
BRANCH   9  10
ATOM     10  C   UNL     1       7.334  58.895  -7.248  1.00  0.00    -0.000 C 
BRANCH  10  11
ATOM     11  C   UNL     1       8.635  59.110  -8.051  1.00  0.00    -0.003 C 
ATOM     12  C   UNL     1       9.863  59.263  -7.152  1.00  0.00     0.004 C 
ENDBRANCH  10  11
ENDBRANCH   9  10
ENDBRANCH   8   9
ENDBRANCH   7   8
ENDBRANCH   6   7
ENDBRANCH   5   6
ENDBRANCH   4   5
ENDBRANCH   3   4
ENDBRANCH   2   3
ENDBRANCH   1   2
BRANCH   1  13
ATOM     13  C   UNL     1       0.105  60.442  -5.524  1.00  0.00     0.000 C 
BRANCH  13  14
ATOM     14  C   UNL     1      -1.029  59.523  -5.035  1.00  0.00     0.000 C 
BRANCH  14  15
ATOM     15  C   UNL     1      -2.038  59.165  -6.142  1.00  0.00     0.000 C 
BRANCH  15  16
ATOM     16  C   UNL     1      -3.528  59.340  -5.782  1.00  0.00     0.000 C 
BRANCH  16  17
ATOM     17  C   UNL     1      -3.831  60.198  -4.536  1.00  0.00     0.000 C 
BRANCH  17  18
ATOM     18  C   UNL     1      -4.291  59.403  -3.299  1.00  0.00     0.000 C 
BRANCH  18  19
ATOM     19  C   UNL     1      -3.130  58.936  -2.406  1.00  0.00     0.000 C 
BRANCH  19  20
ATOM     20  C   UNL     1      -2.051  60.019  -2.226  1.00  0.00     0.006 C 
BRANCH  20  21
ATOM     21  C   UNL     1      -0.770  59.463  -1.591  1.00  0.00     0.053 C 
BRANCH  21  22
ATOM     22  C   UNL     1      -0.970  59.208  -0.130  1.00  0.00     0.041 C 
ATOM     23  O   UNL     1       0.023  59.128   0.640  1.00  0.00    -0.550 OA
ATOM     24  O   UNL     1      -2.254  59.067   0.385  1.00  0.00    -0.550 OA
ENDBRANCH  21  22
ENDBRANCH  20  21
ENDBRANCH  19  20
ENDBRANCH  18  19
ENDBRANCH  17  18
ENDBRANCH  16  17
ENDBRANCH  15  16
ENDBRANCH  14  15
ENDBRANCH  13  14
ENDBRANCH   1  13
TORSDOF 20
ENDMDL
MODEL 6
REMARK VINA RESULT:     4.006      7.016      9.114
REMARK INTER + INTRA:           7.608
REMARK INTER:                   8.801
REMARK INTRA:                  -1.193
REMARK UNBOUND:                -1.082
REMARK SMILES CCCCCCCCCCCCCCCCCCCCCC(=O)[O-]
REMARK SMILES IDX 12 1 11 2 10 3 9 4 8 5 7 6 6 7 5 8 4 9 3 10 2 11 1 12 13 13
REMARK SMILES IDX 14 14 15 15 16 16 17 17 18 18 19 19 20 20 21 21 22 22 23 23
REMARK SMILES IDX 24 24
REMARK H PARENT
REMARK Flexibility Score: inf
ROOT
ATOM      1  C   UNL     1       1.990  63.109  -6.821  1.00  0.00     0.000 C 
ENDROOT
BRANCH   1   2
ATOM      2  C   UNL     1       2.451  64.569  -6.665  1.00  0.00     0.000 C 
BRANCH   2   3
ATOM      3  C   UNL     1       1.483  65.564  -7.328  1.00  0.00     0.000 C 
BRANCH   3   4
ATOM      4  C   UNL     1       1.178  66.784  -6.440  1.00  0.00    -0.000 C 
BRANCH   4   5
ATOM      5  C   UNL     1      -0.031  67.601  -6.932  1.00  0.00    -0.000 C 
BRANCH   5   6
ATOM      6  C   UNL     1      -0.245  68.965  -6.246  1.00  0.00    -0.000 C 
BRANCH   6   7
ATOM      7  C   UNL     1      -1.146  68.923  -4.996  1.00  0.00    -0.000 C 
BRANCH   7   8
ATOM      8  C   UNL     1      -2.487  69.656  -5.188  1.00  0.00    -0.000 C 
BRANCH   8   9
ATOM      9  C   UNL     1      -3.095  69.424  -6.584  1.00  0.00    -0.000 C 
BRANCH   9  10
ATOM     10  C   UNL     1      -4.538  69.942  -6.760  1.00  0.00    -0.000 C 
BRANCH  10  11
ATOM     11  C   UNL     1      -4.957  70.984  -5.700  1.00  0.00    -0.003 C 
ATOM     12  C   UNL     1      -4.924  72.416  -6.238  1.00  0.00     0.004 C 
ENDBRANCH  10  11
ENDBRANCH   9  10
ENDBRANCH   8   9
ENDBRANCH   7   8
ENDBRANCH   6   7
ENDBRANCH   5   6
ENDBRANCH   4   5
ENDBRANCH   3   4
ENDBRANCH   2   3
ENDBRANCH   1   2
BRANCH   1  13
ATOM     13  C   UNL     1       2.805  62.342  -7.876  1.00  0.00     0.000 C 
BRANCH  13  14
ATOM     14  C   UNL     1       3.922  61.489  -7.246  1.00  0.00     0.000 C 
BRANCH  14  15
ATOM     15  C   UNL     1       3.727  59.977  -7.468  1.00  0.00     0.000 C 
BRANCH  15  16
ATOM     16  C   UNL     1       2.304  59.528  -7.859  1.00  0.00     0.000 C 
BRANCH  16  17
ATOM     17  C   UNL     1       1.317  59.305  -6.695  1.00  0.00     0.000 C 
BRANCH  17  18
ATOM     18  C   UNL     1       1.862  59.679  -5.303  1.00  0.00     0.000 C 
BRANCH  18  19
ATOM     19  C   UNL     1       0.848  60.442  -4.434  1.00  0.00     0.000 C 
BRANCH  19  20
ATOM     20  C   UNL     1      -0.609  60.080  -4.772  1.00  0.00     0.006 C 
BRANCH  20  21
ATOM     21  C   UNL     1      -1.542  60.233  -3.564  1.00  0.00     0.053 C 
BRANCH  21  22
ATOM     22  C   UNL     1      -2.873  59.609  -3.840  1.00  0.00     0.041 C 
ATOM     23  O   UNL     1      -3.412  59.739  -4.970  1.00  0.00    -0.550 OA
ATOM     24  O   UNL     1      -3.520  58.875  -2.850  1.00  0.00    -0.550 OA
ENDBRANCH  21  22
ENDBRANCH  20  21
ENDBRANCH  19  20
ENDBRANCH  18  19
ENDBRANCH  17  18
ENDBRANCH  16  17
ENDBRANCH  15  16
ENDBRANCH  14  15
ENDBRANCH  13  14
ENDBRANCH   1  13
TORSDOF 20
ENDMDL
MODEL 7
REMARK VINA RESULT:     4.217      7.347      9.543
REMARK INTER + INTRA:           8.066
REMARK INTER:                   8.288
REMARK INTRA:                  -0.222
REMARK UNBOUND:                -1.082
REMARK SMILES CCCCCCCCCCCCCCCCCCCCCC(=O)[O-]
REMARK SMILES IDX 12 1 11 2 10 3 9 4 8 5 7 6 6 7 5 8 4 9 3 10 2 11 1 12 13 13
REMARK SMILES IDX 14 14 15 15 16 16 17 17 18 18 19 19 20 20 21 21 22 22 23 23
REMARK SMILES IDX 24 24
REMARK H PARENT
REMARK Flexibility Score: inf
ROOT
ATOM      1  C   UNL     1       2.460  63.639  -6.659  1.00  0.00     0.000 C 
ENDROOT
BRANCH   1   2
ATOM      2  C   UNL     1       3.139  62.946  -7.854  1.00  0.00     0.000 C 
BRANCH   2   3
ATOM      3  C   UNL     1       2.622  61.514  -8.074  1.00  0.00     0.000 C 
BRANCH   3   4
ATOM      4  C   UNL     1       3.668  60.439  -7.727  1.00  0.00    -0.000 C 
BRANCH   4   5
ATOM      5  C   UNL     1       3.039  59.089  -7.339  1.00  0.00    -0.000 C 
BRANCH   5   6
ATOM      6  C   UNL     1       1.927  59.145  -6.273  1.00  0.00    -0.000 C 
BRANCH   6   7
ATOM      7  C   UNL     1       2.021  60.343  -5.307  1.00  0.00    -0.000 C 
BRANCH   7   8
ATOM      8  C   UNL     1       0.977  60.295  -4.176  1.00  0.00    -0.000 C 
BRANCH   8   9
ATOM      9  C   UNL     1      -0.458  60.099  -4.701  1.00  0.00    -0.000 C 
BRANCH   9  10
ATOM     10  C   UNL     1      -1.573  60.424  -3.685  1.00  0.00    -0.000 C 
BRANCH  10  11
ATOM     11  C   UNL     1      -2.907  60.842  -4.340  1.00  0.00    -0.003 C 
ATOM     12  C   UNL     1      -3.659  59.657  -4.950  1.00  0.00     0.004 C 
ENDBRANCH  10  11
ENDBRANCH   9  10
ENDBRANCH   8   9
ENDBRANCH   7   8
ENDBRANCH   6   7
ENDBRANCH   5   6
ENDBRANCH   4   5
ENDBRANCH   3   4
ENDBRANCH   2   3
ENDBRANCH   1   2
BRANCH   1  13
ATOM     13  C   UNL     1       2.593  65.170  -6.711  1.00  0.00     0.000 C 
BRANCH  13  14
ATOM     14  C   UNL     1       3.278  65.740  -5.455  1.00  0.00     0.000 C 
BRANCH  14  15
ATOM     15  C   UNL     1       2.928  67.218  -5.193  1.00  0.00     0.000 C 
BRANCH  15  16
ATOM     16  C   UNL     1       1.444  67.520  -4.903  1.00  0.00     0.000 C 
BRANCH  16  17
ATOM     17  C   UNL     1       0.800  68.639  -5.748  1.00  0.00     0.000 C 
BRANCH  17  18
ATOM     18  C   UNL     1      -0.291  68.164  -6.727  1.00  0.00     0.000 C 
BRANCH  18  19
ATOM     19  C   UNL     1      -1.612  68.939  -6.593  1.00  0.00     0.000 C 
BRANCH  19  20
ATOM     20  C   UNL     1      -1.856  69.448  -5.161  1.00  0.00     0.006 C 
BRANCH  20  21
ATOM     21  C   UNL     1      -2.545  70.818  -5.140  1.00  0.00     0.053 C 
BRANCH  21  22
ATOM     22  C   UNL     1      -3.874  70.754  -5.826  1.00  0.00     0.041 C 
ATOM     23  O   UNL     1      -4.607  71.775  -5.883  1.00  0.00    -0.550 OA
ATOM     24  O   UNL     1      -4.301  69.566  -6.411  1.00  0.00    -0.550 OA
ENDBRANCH  21  22
ENDBRANCH  20  21
ENDBRANCH  19  20
ENDBRANCH  18  19
ENDBRANCH  17  18
ENDBRANCH  16  17
ENDBRANCH  15  16
ENDBRANCH  14  15
ENDBRANCH  13  14
ENDBRANCH   1  13
TORSDOF 20
ENDMDL
MODEL 8
REMARK VINA RESULT:     4.986      6.161      7.548
REMARK INTER + INTRA:           9.734
REMARK INTER:                  11.375
REMARK INTRA:                  -1.642
REMARK UNBOUND:                -1.082
REMARK SMILES CCCCCCCCCCCCCCCCCCCCCC(=O)[O-]
REMARK SMILES IDX 12 1 11 2 10 3 9 4 8 5 7 6 6 7 5 8 4 9 3 10 2 11 1 12 13 13
REMARK SMILES IDX 14 14 15 15 16 16 17 17 18 18 19 19 20 20 21 21 22 22 23 23
REMARK SMILES IDX 24 24
REMARK H PARENT
REMARK Flexibility Score: inf
ROOT
ATOM      1  C   UNL     1       2.152  60.753  -5.907  1.00  0.00     0.000 C 
ENDROOT
BRANCH   1   2
ATOM      2  C   UNL     1       1.660  59.299  -6.013  1.00  0.00     0.000 C 
BRANCH   2   3
ATOM      3  C   UNL     1       0.611  59.113  -7.123  1.00  0.00     0.000 C 
BRANCH   3   4
ATOM      4  C   UNL     1      -0.812  58.909  -6.573  1.00  0.00    -0.000 C 
BRANCH   4   5
ATOM      5  C   UNL     1      -1.886  58.877  -7.676  1.00  0.00    -0.000 C 
BRANCH   5   6
ATOM      6  C   UNL     1      -3.156  59.708  -7.403  1.00  0.00    -0.000 C 
BRANCH   6   7
ATOM      7  C   UNL     1      -4.156  59.055  -6.428  1.00  0.00    -0.000 C 
BRANCH   7   8
ATOM      8  C   UNL     1      -4.361  59.867  -5.135  1.00  0.00    -0.000 C 
BRANCH   8   9
ATOM      9  C   UNL     1      -4.007  59.065  -3.869  1.00  0.00    -0.000 C 
BRANCH   9  10
ATOM     10  C   UNL     1      -2.510  59.074  -3.491  1.00  0.00    -0.000 C 
BRANCH  10  11
ATOM     11  C   UNL     1      -1.874  60.480  -3.509  1.00  0.00    -0.003 C 
ATOM     12  C   UNL     1      -0.414  60.472  -3.052  1.00  0.00     0.004 C 
ENDBRANCH  10  11
ENDBRANCH   9  10
ENDBRANCH   8   9
ENDBRANCH   7   8
ENDBRANCH   6   7
ENDBRANCH   5   6
ENDBRANCH   4   5
ENDBRANCH   3   4
ENDBRANCH   2   3
ENDBRANCH   1   2
BRANCH   1  13
ATOM     13  C   UNL     1       2.897  61.218  -7.169  1.00  0.00     0.000 C 
BRANCH  13  14
ATOM     14  C   UNL     1       2.583  62.682  -7.529  1.00  0.00     0.000 C 
BRANCH  14  15
ATOM     15  C   UNL     1       2.325  63.567  -6.295  1.00  0.00     0.000 C 
BRANCH  15  16
ATOM     16  C   UNL     1       2.364  65.090  -6.534  1.00  0.00     0.000 C 
BRANCH  16  17
ATOM     17  C   UNL     1       1.064  65.729  -7.066  1.00  0.00     0.000 C 
BRANCH  17  18
ATOM     18  C   UNL     1       0.837  67.190  -6.632  1.00  0.00     0.000 C 
BRANCH  18  19
ATOM     19  C   UNL     1      -0.186  67.935  -7.507  1.00  0.00     0.000 C 
BRANCH  19  20
ATOM     20  C   UNL     1      -1.091  68.873  -6.688  1.00  0.00     0.006 C 
BRANCH  20  21
ATOM     21  C   UNL     1      -0.609  69.028  -5.240  1.00  0.00     0.053 C 
BRANCH  21  22
ATOM     22  C   UNL     1      -1.715  69.530  -4.365  1.00  0.00     0.041 C 
ATOM     23  O   UNL     1      -1.500  69.769  -3.148  1.00  0.00    -0.550 OA
ATOM     24  O   UNL     1      -2.983  69.742  -4.894  1.00  0.00    -0.550 OA
ENDBRANCH  21  22
ENDBRANCH  20  21
ENDBRANCH  19  20
ENDBRANCH  18  19
ENDBRANCH  17  18
ENDBRANCH  16  17
ENDBRANCH  15  16
ENDBRANCH  14  15
ENDBRANCH  13  14
ENDBRANCH   1  13
TORSDOF 20
ENDMDL
