MODEL 1
REMARK VINA RESULT:    -4.286      0.000      0.000
REMARK INTER + INTRA:          -4.727
REMARK INTER:                  -4.662
REMARK INTRA:                  -0.065
REMARK UNBOUND:                -0.065
REMARK SMILES COc1cc2ccc(=O)oc2cc1O
REMARK SMILES IDX 3 1 13 2 12 3 11 4 5 5 4 6 6 7 7 8 8 9 9 10 10 11 2 12 1 13
REMARK SMILES IDX 14 14
REMARK H PARENT 14 15
REMARK Flexibility Score: inf
ROOT
ATOM      1  C   UNL     1       3.643   9.607  12.204  1.00  0.00     0.161 A 
ATOM      2  C   UNL     1       3.613   9.603  13.608  1.00  0.00     0.161 A 
ATOM      3  C   UNL     1       4.311   8.623  14.328  1.00  0.00     0.098 A 
ATOM      4  C   UNL     1       5.044   7.642  13.655  1.00  0.00     0.142 A 
ATOM      5  C   UNL     1       5.079   7.640  12.244  1.00  0.00     0.022 A 
ATOM      6  C   UNL     1       4.381   8.618  11.524  1.00  0.00     0.062 A 
ATOM      7  C   UNL     1       5.820   6.644  11.598  1.00  0.00     0.019 A 
ATOM      8  C   UNL     1       6.498   5.693  12.360  1.00  0.00     0.094 A 
ATOM      9  C   UNL     1       6.416   5.758  13.754  1.00  0.00     0.336 A 
ATOM     10  O   UNL     1       7.021   4.907  14.459  1.00  0.00    -0.246 OA
ATOM     11  O   UNL     1       5.704   6.714  14.344  1.00  0.00    -0.423 OA
ENDROOT
BRANCH   1  12
ATOM     12  O   UNL     1       2.929  10.607  11.525  1.00  0.00    -0.493 OA
ATOM     13  C   UNL     1       3.527  11.724  10.875  1.00  0.00     0.278 C 
ENDBRANCH   1  12
BRANCH   2  14
ATOM     14  O   UNL     1       2.883  10.580  14.283  1.00  0.00    -0.504 OA
ATOM     15  H   UNL     1       2.192  10.337  14.983  1.00  0.00     0.293 HD
ENDBRANCH   2  14
TORSDOF 2
ENDMDL
MODEL 2
REMARK VINA RESULT:    -4.097      1.362      2.433
REMARK INTER + INTRA:          -4.522
REMARK INTER:                  -4.607
REMARK INTRA:                   0.086
REMARK UNBOUND:                -0.065
REMARK SMILES COc1cc2ccc(=O)oc2cc1O
REMARK SMILES IDX 3 1 13 2 12 3 11 4 5 5 4 6 6 7 7 8 8 9 9 10 10 11 2 12 1 13
REMARK SMILES IDX 14 14
REMARK H PARENT 14 15
REMARK Flexibility Score: inf
ROOT
ATOM      1  C   UNL     1       3.594   9.410  13.151  1.00  0.00     0.161 A 
ATOM      2  C   UNL     1       3.792   9.249  11.771  1.00  0.00     0.161 A 
ATOM      3  C   UNL     1       4.741   8.333  11.293  1.00  0.00     0.098 A 
ATOM      4  C   UNL     1       5.496   7.571  12.189  1.00  0.00     0.142 A 
ATOM      5  C   UNL     1       5.302   7.727  13.578  1.00  0.00     0.022 A 
ATOM      6  C   UNL     1       4.355   8.642  14.055  1.00  0.00     0.062 A 
ATOM      7  C   UNL     1       6.074   6.950  14.449  1.00  0.00     0.019 A 
ATOM      8  C   UNL     1       7.004   6.053  13.924  1.00  0.00     0.094 A 
ATOM      9  C   UNL     1       7.141   5.953  12.537  1.00  0.00     0.336 A 
ATOM     10  O   UNL     1       7.975   5.148  12.044  1.00  0.00    -0.246 OA
ATOM     11  O   UNL     1       6.395   6.704  11.730  1.00  0.00    -0.423 OA
ENDROOT
BRANCH   1  12
ATOM     12  O   UNL     1       2.634  10.339  13.583  1.00  0.00    -0.493 OA
ATOM     13  C   UNL     1       1.227  10.139  13.505  1.00  0.00     0.278 C 
ENDBRANCH   1  12
BRANCH   2  14
ATOM     14  O   UNL     1       3.040  10.008  10.875  1.00  0.00    -0.504 OA
ATOM     15  H   UNL     1       2.086   9.760  10.640  1.00  0.00     0.293 HD
ENDBRANCH   2  14
TORSDOF 2
ENDMDL
MODEL 3
REMARK VINA RESULT:    -4.097      1.387      5.389
REMARK INTER + INTRA:          -4.521
REMARK INTER:                  -4.649
REMARK INTRA:                   0.127
REMARK UNBOUND:                -0.065
REMARK SMILES COc1cc2ccc(=O)oc2cc1O
REMARK SMILES IDX 3 1 13 2 12 3 11 4 5 5 4 6 6 7 7 8 8 9 9 10 10 11 2 12 1 13
REMARK SMILES IDX 14 14
REMARK H PARENT 14 15
REMARK Flexibility Score: inf
ROOT
ATOM      1  C   UNL     1       5.944   7.137  13.593  1.00  0.00     0.161 A 
ATOM      2  C   UNL     1       6.096   7.112  12.197  1.00  0.00     0.161 A 
ATOM      3  C   UNL     1       5.308   7.940  11.384  1.00  0.00     0.098 A 
ATOM      4  C   UNL     1       4.364   8.797  11.957  1.00  0.00     0.142 A 
ATOM      5  C   UNL     1       4.206   8.828  13.358  1.00  0.00     0.022 A 
ATOM      6  C   UNL     1       4.993   8.002  14.171  1.00  0.00     0.062 A 
ATOM      7  C   UNL     1       3.253   9.697  13.902  1.00  0.00     0.019 A 
ATOM      8  C   UNL     1       2.495  10.500  13.051  1.00  0.00     0.094 A 
ATOM      9  C   UNL     1       2.707  10.415  11.671  1.00  0.00     0.336 A 
ATOM     10  O   UNL     1       2.032  11.132  10.886  1.00  0.00    -0.246 OA
ATOM     11  O   UNL     1       3.619   9.580  11.180  1.00  0.00    -0.423 OA
ENDROOT
BRANCH   1  12
ATOM     12  O   UNL     1       6.754   6.292  14.367  1.00  0.00    -0.493 OA
ATOM     13  C   UNL     1       6.622   4.875  14.418  1.00  0.00     0.278 C 
ENDBRANCH   1  12
BRANCH   2  14
ATOM     14  O   UNL     1       7.035   6.257  11.623  1.00  0.00    -0.504 OA
ATOM     15  H   UNL     1       7.043   5.264  11.825  1.00  0.00     0.293 HD
ENDBRANCH   2  14
TORSDOF 2
ENDMDL
MODEL 4
REMARK VINA RESULT:    -3.076      1.364      4.861
REMARK INTER + INTRA:          -3.411
REMARK INTER:                  -3.870
REMARK INTRA:                   0.459
REMARK UNBOUND:                -0.065
REMARK SMILES COc1cc2ccc(=O)oc2cc1O
REMARK SMILES IDX 3 1 13 2 12 3 11 4 5 5 4 6 6 7 7 8 8 9 9 10 10 11 2 12 1 13
REMARK SMILES IDX 14 14
REMARK H PARENT 14 15
REMARK Flexibility Score: inf
ROOT
ATOM      1  C   UNL     1       6.471   7.021  12.355  1.00  0.00     0.161 A 
ATOM      2  C   UNL     1       6.238   7.045  13.739  1.00  0.00     0.161 A 
ATOM      3  C   UNL     1       5.193   7.818  14.268  1.00  0.00     0.098 A 
ATOM      4  C   UNL     1       4.375   8.569  13.420  1.00  0.00     0.142 A 
ATOM      5  C   UNL     1       4.603   8.549  12.028  1.00  0.00     0.022 A 
ATOM      6  C   UNL     1       5.646   7.778  11.499  1.00  0.00     0.062 A 
ATOM      7  C   UNL     1       3.767   9.312  11.205  1.00  0.00     0.019 A 
ATOM      8  C   UNL     1       2.742  10.063  11.779  1.00  0.00     0.094 A 
ATOM      9  C   UNL     1       2.576  10.034  13.167  1.00  0.00     0.336 A 
ATOM     10  O   UNL     1       1.656  10.705  13.705  1.00  0.00    -0.246 OA
ATOM     11  O   UNL     1       3.386   9.300  13.927  1.00  0.00    -0.423 OA
ENDROOT
BRANCH   1  12
ATOM     12  O   UNL     1       7.528   6.234  11.871  1.00  0.00    -0.493 OA
ATOM     13  C   UNL     1       7.757   4.877  12.238  1.00  0.00     0.278 C 
ENDBRANCH   1  12
BRANCH   2  14
ATOM     14  O   UNL     1       7.053   6.297  14.587  1.00  0.00    -0.504 OA
ATOM     15  H   UNL     1       7.467   6.703  15.418  1.00  0.00     0.293 HD
ENDBRANCH   2  14
TORSDOF 2
ENDMDL
