MODEL 1
REMARK VINA RESULT:    -6.114      0.000      0.000
REMARK INTER + INTRA:          -7.314
REMARK INTER:                  -7.186
REMARK INTRA:                  -0.128
REMARK UNBOUND:                -0.128
REMARK SMILES O=C([O-])C=Cc1ccc(O)c(O)c1
REMARK SMILES IDX 6 1 13 2 7 3 11 4 8 5 9 6 5 7 4 8 2 9 1 10 3 11 12 12 10 14
REMARK H PARENT 12 13 10 15
REMARK Flexibility Score: inf
ROOT
ATOM      1  C   UNL     1       7.094 -55.757 -29.127  1.00  0.00    -0.022 A 
ATOM      2  C   UNL     1       6.407 -55.588 -30.339  1.00  0.00     0.058 A 
ATOM      3  C   UNL     1       8.401 -55.248 -29.011  1.00  0.00     0.012 A 
ATOM      4  C   UNL     1       6.989 -54.903 -31.413  1.00  0.00     0.157 A 
ATOM      5  C   UNL     1       8.988 -54.564 -30.076  1.00  0.00     0.051 A 
ATOM      6  C   UNL     1       8.297 -54.381 -31.279  1.00  0.00     0.157 A 
ENDROOT
BRANCH   1   7
ATOM      7  C   UNL     1       6.428 -56.502 -28.029  1.00  0.00     0.010 C 
ATOM      8  C   UNL     1       5.245 -56.153 -27.502  1.00  0.00     0.025 C 
BRANCH   8   9
ATOM      9  C   UNL     1       4.608 -56.923 -26.421  1.00  0.00     0.064 C 
ATOM     10  O   UNL     1       3.506 -56.566 -25.928  1.00  0.00    -0.545 OA
ATOM     11  O   UNL     1       5.234 -58.065 -25.938  1.00  0.00    -0.545 OA
ENDBRANCH   8   9
ENDBRANCH   1   7
BRANCH   4  12
ATOM     12  O   UNL     1       6.240 -54.767 -32.583  1.00  0.00    -0.504 OA
ATOM     13  H   UNL     1       6.515 -55.146 -33.477  1.00  0.00     0.293 HD
ENDBRANCH   4  12
BRANCH   6  14
ATOM     14  O   UNL     1       8.941 -53.684 -32.304  1.00  0.00    -0.504 OA
ATOM     15  H   UNL     1       9.634 -54.092 -32.915  1.00  0.00     0.293 HD
ENDBRANCH   6  14
TORSDOF 4
ENDMDL
MODEL 2
REMARK VINA RESULT:    -6.053      1.322      2.036
REMARK INTER + INTRA:          -7.243
REMARK INTER:                  -7.105
REMARK INTRA:                  -0.137
REMARK UNBOUND:                -0.128
REMARK SMILES O=C([O-])C=Cc1ccc(O)c(O)c1
REMARK SMILES IDX 6 1 13 2 7 3 11 4 8 5 9 6 5 7 4 8 2 9 1 10 3 11 12 12 10 14
REMARK H PARENT 12 13 10 15
REMARK Flexibility Score: inf
ROOT
ATOM      1  C   UNL     1       6.953 -55.833 -29.888  1.00  0.00    -0.022 A 
ATOM      2  C   UNL     1       8.284 -56.095 -30.248  1.00  0.00     0.058 A 
ATOM      3  C   UNL     1       6.090 -55.266 -30.844  1.00  0.00     0.012 A 
ATOM      4  C   UNL     1       8.751 -55.828 -31.542  1.00  0.00     0.157 A 
ATOM      5  C   UNL     1       6.547 -54.997 -32.135  1.00  0.00     0.051 A 
ATOM      6  C   UNL     1       7.869 -55.274 -32.499  1.00  0.00     0.157 A 
ENDROOT
BRANCH   1   7
ATOM      7  C   UNL     1       6.521 -56.128 -28.499  1.00  0.00     0.010 C 
ATOM      8  C   UNL     1       5.237 -56.204 -28.118  1.00  0.00     0.025 C 
BRANCH   8   9
ATOM      9  C   UNL     1       4.846 -56.511 -26.732  1.00  0.00     0.064 C 
ATOM     10  O   UNL     1       4.110 -55.730 -26.073  1.00  0.00    -0.545 OA
ATOM     11  O   UNL     1       5.297 -57.684 -26.140  1.00  0.00    -0.545 OA
ENDBRANCH   8   9
ENDBRANCH   1   7
BRANCH   4  12
ATOM     12  O   UNL     1      10.085 -56.125 -31.827  1.00  0.00    -0.504 OA
ATOM     13  H   UNL     1      10.855 -55.915 -31.210  1.00  0.00     0.293 HD
ENDBRANCH   4  12
BRANCH   6  14
ATOM     14  O   UNL     1       8.262 -54.983 -33.808  1.00  0.00    -0.504 OA
ATOM     15  H   UNL     1       9.099 -55.347 -34.240  1.00  0.00     0.293 HD
ENDBRANCH   6  14
TORSDOF 4
ENDMDL
MODEL 3
REMARK VINA RESULT:    -5.965      1.231      2.244
REMARK INTER + INTRA:          -7.140
REMARK INTER:                  -7.007
REMARK INTRA:                  -0.133
REMARK UNBOUND:                -0.128
REMARK SMILES O=C([O-])C=Cc1ccc(O)c(O)c1
REMARK SMILES IDX 6 1 13 2 7 3 11 4 8 5 9 6 5 7 4 8 2 9 1 10 3 11 12 12 10 14
REMARK H PARENT 12 13 10 15
REMARK Flexibility Score: inf
ROOT
ATOM      1  C   UNL     1       6.817 -55.683 -29.980  1.00  0.00    -0.022 A 
ATOM      2  C   UNL     1       8.169 -55.756 -29.611  1.00  0.00     0.058 A 
ATOM      3  C   UNL     1       6.482 -55.108 -31.220  1.00  0.00     0.012 A 
ATOM      4  C   UNL     1       9.180 -55.294 -30.464  1.00  0.00     0.157 A 
ATOM      5  C   UNL     1       7.483 -54.646 -32.077  1.00  0.00     0.051 A 
ATOM      6  C   UNL     1       8.832 -54.733 -31.716  1.00  0.00     0.157 A 
ENDROOT
BRANCH   1   7
ATOM      7  C   UNL     1       5.792 -56.180 -29.029  1.00  0.00     0.010 C 
ATOM      8  C   UNL     1       6.056 -56.517 -27.758  1.00  0.00     0.025 C 
BRANCH   8   9
ATOM      9  C   UNL     1       5.010 -56.995 -26.838  1.00  0.00     0.064 C 
ATOM     10  O   UNL     1       5.183 -58.024 -26.132  1.00  0.00    -0.545 OA
ATOM     11  O   UNL     1       3.811 -56.300 -26.748  1.00  0.00    -0.545 OA
ENDBRANCH   8   9
ENDBRANCH   1   7
BRANCH   4  12
ATOM     12  O   UNL     1      10.502 -55.409 -30.031  1.00  0.00    -0.504 OA
ATOM     13  H   UNL     1      10.769 -55.727 -29.112  1.00  0.00     0.293 HD
ENDBRANCH   4  12
BRANCH   6  14
ATOM     14  O   UNL     1       9.783 -54.255 -32.619  1.00  0.00    -0.504 OA
ATOM     15  H   UNL     1      10.780 -54.350 -32.493  1.00  0.00     0.293 HD
ENDBRANCH   6  14
TORSDOF 4
ENDMDL
MODEL 4
REMARK VINA RESULT:    -5.923      1.551      1.788
REMARK INTER + INTRA:          -7.090
REMARK INTER:                  -6.956
REMARK INTRA:                  -0.134
REMARK UNBOUND:                -0.128
REMARK SMILES O=C([O-])C=Cc1ccc(O)c(O)c1
REMARK SMILES IDX 6 1 13 2 7 3 11 4 8 5 9 6 5 7 4 8 2 9 1 10 3 11 12 12 10 14
REMARK H PARENT 12 13 10 15
REMARK Flexibility Score: inf
ROOT
ATOM      1  C   UNL     1       7.819 -55.468 -30.086  1.00  0.00    -0.022 A 
ATOM      2  C   UNL     1       7.411 -55.407 -31.428  1.00  0.00     0.058 A 
ATOM      3  C   UNL     1       9.180 -55.286 -29.781  1.00  0.00     0.012 A 
ATOM      4  C   UNL     1       8.329 -55.144 -32.453  1.00  0.00     0.157 A 
ATOM      5  C   UNL     1      10.101 -55.023 -30.796  1.00  0.00     0.051 A 
ATOM      6  C   UNL     1       9.693 -54.946 -32.132  1.00  0.00     0.157 A 
ENDROOT
BRANCH   1   7
ATOM      7  C   UNL     1       6.800 -55.762 -29.047  1.00  0.00     0.010 C 
ATOM      8  C   UNL     1       5.480 -55.776 -29.280  1.00  0.00     0.025 C 
BRANCH   8   9
ATOM      9  C   UNL     1       4.499 -56.083 -28.225  1.00  0.00     0.064 C 
ATOM     10  O   UNL     1       3.269 -56.170 -28.484  1.00  0.00    -0.545 OA
ATOM     11  O   UNL     1       4.938 -56.282 -26.923  1.00  0.00    -0.545 OA
ENDBRANCH   8   9
ENDBRANCH   1   7
BRANCH   4  12
ATOM     12  O   UNL     1       7.848 -55.089 -33.762  1.00  0.00    -0.504 OA
ATOM     13  H   UNL     1       7.175 -54.412 -34.088  1.00  0.00     0.293 HD
ENDBRANCH   4  12
BRANCH   6  14
ATOM     14  O   UNL     1      10.665 -54.676 -33.098  1.00  0.00    -0.504 OA
ATOM     15  H   UNL     1      11.146 -55.387 -33.629  1.00  0.00     0.293 HD
ENDBRANCH   6  14
TORSDOF 4
ENDMDL
MODEL 5
REMARK VINA RESULT:    -5.803      1.782      5.858
REMARK INTER + INTRA:          -6.949
REMARK INTER:                  -6.812
REMARK INTRA:                  -0.137
REMARK UNBOUND:                -0.128
REMARK SMILES O=C([O-])C=Cc1ccc(O)c(O)c1
REMARK SMILES IDX 6 1 13 2 7 3 11 4 8 5 9 6 5 7 4 8 2 9 1 10 3 11 12 12 10 14
REMARK H PARENT 12 13 10 15
REMARK Flexibility Score: inf
ROOT
ATOM      1  C   UNL     1       6.517 -56.017 -29.921  1.00  0.00    -0.022 A 
ATOM      2  C   UNL     1       6.425 -56.373 -28.567  1.00  0.00     0.058 A 
ATOM      3  C   UNL     1       5.366 -55.546 -30.579  1.00  0.00     0.012 A 
ATOM      4  C   UNL     1       5.221 -56.242 -27.863  1.00  0.00     0.157 A 
ATOM      5  C   UNL     1       4.162 -55.411 -29.885  1.00  0.00     0.051 A 
ATOM      6  C   UNL     1       4.075 -55.751 -28.531  1.00  0.00     0.157 A 
ENDROOT
BRANCH   1   7
ATOM      7  C   UNL     1       7.818 -56.190 -30.615  1.00  0.00     0.010 C 
ATOM      8  C   UNL     1       8.208 -55.450 -31.663  1.00  0.00     0.025 C 
BRANCH   8   9
ATOM      9  C   UNL     1       9.512 -55.642 -32.319  1.00  0.00     0.064 C 
ATOM     10  O   UNL     1      10.438 -54.797 -32.190  1.00  0.00    -0.545 OA
ATOM     11  O   UNL     1       9.726 -56.776 -33.092  1.00  0.00    -0.545 OA
ENDBRANCH   8   9
ENDBRANCH   1   7
BRANCH   4  12
ATOM     12  O   UNL     1       5.210 -56.608 -26.516  1.00  0.00    -0.504 OA
ATOM     13  H   UNL     1       4.516 -56.297 -25.852  1.00  0.00     0.293 HD
ENDBRANCH   4  12
BRANCH   6  14
ATOM     14  O   UNL     1       2.842 -55.590 -27.895  1.00  0.00    -0.504 OA
ATOM     15  H   UNL     1       1.970 -55.953 -28.252  1.00  0.00     0.293 HD
ENDBRANCH   6  14
TORSDOF 4
ENDMDL
MODEL 6
REMARK VINA RESULT:    -5.756      2.142      5.855
REMARK INTER + INTRA:          -6.894
REMARK INTER:                  -6.757
REMARK INTRA:                  -0.137
REMARK UNBOUND:                -0.128
REMARK SMILES O=C([O-])C=Cc1ccc(O)c(O)c1
REMARK SMILES IDX 6 1 13 2 7 3 11 4 8 5 9 6 5 7 4 8 2 9 1 10 3 11 12 12 10 14
REMARK H PARENT 12 13 10 15
REMARK Flexibility Score: inf
ROOT
ATOM      1  C   UNL     1       7.281 -55.739 -30.596  1.00  0.00    -0.022 A 
ATOM      2  C   UNL     1       5.900 -55.492 -30.568  1.00  0.00     0.058 A 
ATOM      3  C   UNL     1       7.922 -56.144 -29.411  1.00  0.00     0.012 A 
ATOM      4  C   UNL     1       5.155 -55.668 -29.394  1.00  0.00     0.157 A 
ATOM      5  C   UNL     1       7.189 -56.323 -28.237  1.00  0.00     0.051 A 
ATOM      6  C   UNL     1       5.809 -56.092 -28.213  1.00  0.00     0.157 A 
ENDROOT
BRANCH   1   7
ATOM      7  C   UNL     1       8.016 -55.524 -31.868  1.00  0.00     0.010 C 
ATOM      8  C   UNL     1       9.175 -56.125 -32.170  1.00  0.00     0.025 C 
BRANCH   8   9
ATOM      9  C   UNL     1       9.870 -55.896 -33.448  1.00  0.00     0.064 C 
ATOM     10  O   UNL     1       9.292 -56.096 -34.549  1.00  0.00    -0.545 OA
ATOM     11  O   UNL     1      11.186 -55.451 -33.438  1.00  0.00    -0.545 OA
ENDBRANCH   8   9
ENDBRANCH   1   7
BRANCH   4  12
ATOM     12  O   UNL     1       3.785 -55.412 -29.446  1.00  0.00    -0.504 OA
ATOM     13  H   UNL     1       3.085 -56.116 -29.625  1.00  0.00     0.293 HD
ENDBRANCH   4  12
BRANCH   6  14
ATOM     14  O   UNL     1       5.134 -56.293 -27.007  1.00  0.00    -0.504 OA
ATOM     15  H   UNL     1       5.592 -56.388 -26.112  1.00  0.00     0.293 HD
ENDBRANCH   6  14
TORSDOF 4
ENDMDL
MODEL 7
REMARK VINA RESULT:    -5.696      2.445      3.617
REMARK INTER + INTRA:          -6.823
REMARK INTER:                  -6.695
REMARK INTRA:                  -0.127
REMARK UNBOUND:                -0.128
REMARK SMILES O=C([O-])C=Cc1ccc(O)c(O)c1
REMARK SMILES IDX 6 1 13 2 7 3 11 4 8 5 9 6 5 7 4 8 2 9 1 10 3 11 12 12 10 14
REMARK H PARENT 12 13 10 15
REMARK Flexibility Score: inf
ROOT
ATOM      1  C   UNL     1       4.389 -55.721 -28.889  1.00  0.00    -0.022 A 
ATOM      2  C   UNL     1       5.523 -56.189 -28.209  1.00  0.00     0.058 A 
ATOM      3  C   UNL     1       4.499 -55.402 -30.255  1.00  0.00     0.012 A 
ATOM      4  C   UNL     1       6.745 -56.366 -28.872  1.00  0.00     0.157 A 
ATOM      5  C   UNL     1       5.712 -55.576 -30.924  1.00  0.00     0.051 A 
ATOM      6  C   UNL     1       6.839 -56.057 -30.249  1.00  0.00     0.157 A 
ENDROOT
BRANCH   1   7
ATOM      7  C   UNL     1       3.126 -55.545 -28.128  1.00  0.00     0.010 C 
ATOM      8  C   UNL     1       3.019 -54.788 -27.026  1.00  0.00     0.025 C 
BRANCH   8   9
ATOM      9  C   UNL     1       1.746 -54.627 -26.304  1.00  0.00     0.064 C 
ATOM     10  O   UNL     1       1.180 -55.609 -25.753  1.00  0.00    -0.545 OA
ATOM     11  O   UNL     1       1.159 -53.371 -26.229  1.00  0.00    -0.545 OA
ENDBRANCH   8   9
ENDBRANCH   1   7
BRANCH   4  12
ATOM     12  O   UNL     1       7.826 -56.844 -28.131  1.00  0.00    -0.504 OA
ATOM     13  H   UNL     1       8.593 -57.370 -28.524  1.00  0.00     0.293 HD
ENDBRANCH   4  12
BRANCH   6  14
ATOM     14  O   UNL     1       8.021 -56.211 -30.978  1.00  0.00    -0.504 OA
ATOM     15  H   UNL     1       8.945 -56.149 -30.575  1.00  0.00     0.293 HD
ENDBRANCH   6  14
TORSDOF 4
ENDMDL
MODEL 8
REMARK VINA RESULT:    -5.619      2.071      2.780
REMARK INTER + INTRA:          -6.733
REMARK INTER:                  -6.609
REMARK INTRA:                  -0.124
REMARK UNBOUND:                -0.128
REMARK SMILES O=C([O-])C=Cc1ccc(O)c(O)c1
REMARK SMILES IDX 6 1 13 2 7 3 11 4 8 5 9 6 5 7 4 8 2 9 1 10 3 11 12 12 10 14
REMARK H PARENT 12 13 10 15
REMARK Flexibility Score: inf
ROOT
ATOM      1  C   UNL     1       4.505 -55.761 -28.882  1.00  0.00    -0.022 A 
ATOM      2  C   UNL     1       4.438 -55.346 -30.221  1.00  0.00     0.058 A 
ATOM      3  C   UNL     1       5.745 -56.172 -28.361  1.00  0.00     0.012 A 
ATOM      4  C   UNL     1       5.583 -55.312 -31.029  1.00  0.00     0.157 A 
ATOM      5  C   UNL     1       6.891 -56.142 -29.158  1.00  0.00     0.051 A 
ATOM      6  C   UNL     1       6.827 -55.713 -30.488  1.00  0.00     0.157 A 
ENDROOT
BRANCH   1   7
ATOM      7  C   UNL     1       3.255 -55.784 -28.082  1.00  0.00     0.010 C 
ATOM      8  C   UNL     1       3.018 -54.967 -27.046  1.00  0.00     0.025 C 
BRANCH   8   9
ATOM      9  C   UNL     1       1.760 -55.011 -26.282  1.00  0.00     0.064 C 
ATOM     10  O   UNL     1       0.926 -54.069 -26.343  1.00  0.00    -0.545 OA
ATOM     11  O   UNL     1       1.488 -56.113 -25.481  1.00  0.00    -0.545 OA
ENDBRANCH   8   9
ENDBRANCH   1   7
BRANCH   4  12
ATOM     12  O   UNL     1       5.438 -54.880 -32.348  1.00  0.00    -0.504 OA
ATOM     13  H   UNL     1       4.724 -54.237 -32.656  1.00  0.00     0.293 HD
ENDBRANCH   4  12
BRANCH   6  14
ATOM     14  O   UNL     1       8.011 -55.703 -31.229  1.00  0.00    -0.504 OA
ATOM     15  H   UNL     1       8.797 -55.101 -31.031  1.00  0.00     0.293 HD
ENDBRANCH   6  14
TORSDOF 4
ENDMDL
