MODEL 1
REMARK VINA RESULT:    -7.368      0.000      0.000
REMARK INTER + INTRA:          -9.046
REMARK INTER:                  -8.876
REMARK INTRA:                  -0.170
REMARK UNBOUND:                -0.170
REMARK SMILES O=c1c(O)c(-c2ccc(O)c(O)c2)oc2cc(O)cc(O)c12
REMARK SMILES IDX 5 1 3 2 2 3 1 4 22 5 20 6 19 7 17 8 16 9 15 10 14 11 6 12
REMARK SMILES IDX 7 13 8 14 9 15 13 16 11 17 10 18 12 20 4 22 21 24 18 26
REMARK H PARENT 10 19 12 21 4 23 21 25 18 27
REMARK Flexibility Score: inf
ROOT
ATOM      1  C   UNL     1      94.243 -62.422 103.525  1.00  0.00     0.180 A 
ATOM      2  C   UNL     1      93.675 -62.007 102.308  1.00  0.00     0.208 A 
ATOM      3  C   UNL     1      92.570 -62.707 101.798  1.00  0.00     0.238 A 
ATOM      4  O   UNL     1      92.100 -62.364 100.683  1.00  0.00    -0.285 OA
ATOM      5  C   UNL     1      92.036 -63.802 102.520  1.00  0.00     0.111 A 
ATOM      6  C   UNL     1      90.894 -64.559 102.116  1.00  0.00     0.134 A 
ATOM      7  C   UNL     1      90.534 -65.703 102.839  1.00  0.00     0.093 A 
ATOM      8  C   UNL     1      91.232 -66.081 103.985  1.00  0.00     0.123 A 
ATOM      9  C   UNL     1      92.315 -65.314 104.421  1.00  0.00     0.094 A 
ATOM     10  C   UNL     1      92.720 -64.189 103.702  1.00  0.00     0.146 A 
ATOM     11  O   UNL     1      93.761 -63.493 104.145  1.00  0.00    -0.452 OA
ENDROOT
BRANCH   1  12
ATOM     12  C   UNL     1      95.392 -61.719 104.138  1.00  0.00     0.025 A 
ATOM     13  C   UNL     1      96.587 -62.419 104.368  1.00  0.00     0.016 A 
ATOM     14  C   UNL     1      97.679 -61.780 104.963  1.00  0.00     0.051 A 
ATOM     15  C   UNL     1      97.584 -60.438 105.354  1.00  0.00     0.157 A 
ATOM     16  C   UNL     1      95.296 -60.377 104.550  1.00  0.00     0.062 A 
ATOM     17  C   UNL     1      96.390 -59.737 105.150  1.00  0.00     0.158 A 
BRANCH  15  18
ATOM     18  O   UNL     1      98.670 -59.798 105.946  1.00  0.00    -0.504 OA
ATOM     19  H   UNL     1      98.777 -59.755 106.953  1.00  0.00     0.293 HD
ENDBRANCH  15  18
BRANCH  17  20
ATOM     20  O   UNL     1      96.294 -58.406 105.552  1.00  0.00    -0.504 OA
ATOM     21  H   UNL     1      97.058 -57.939 106.026  1.00  0.00     0.293 HD
ENDBRANCH  17  20
ENDBRANCH   1  12
BRANCH   2  22
ATOM     22  O   UNL     1      94.230 -60.937 101.602  1.00  0.00    -0.502 OA
ATOM     23  H   UNL     1      93.673 -60.312 101.032  1.00  0.00     0.293 HD
ENDBRANCH   2  22
BRANCH   6  24
ATOM     24  O   UNL     1      90.071 -64.215 101.040  1.00  0.00    -0.507 OA
ATOM     25  H   UNL     1      89.096 -63.969 101.118  1.00  0.00     0.293 HD
ENDBRANCH   6  24
BRANCH   8  26
ATOM     26  O   UNL     1      90.837 -67.217 104.688  1.00  0.00    -0.508 OA
ATOM     27  H   UNL     1      91.473 -67.706 105.307  1.00  0.00     0.293 HD
ENDBRANCH   8  26
TORSDOF 6
ENDMDL
MODEL 2
REMARK VINA RESULT:    -7.283      2.263      7.571
REMARK INTER + INTRA:          -8.943
REMARK INTER:                  -8.835
REMARK INTRA:                  -0.108
REMARK UNBOUND:                -0.170
REMARK SMILES O=c1c(O)c(-c2ccc(O)c(O)c2)oc2cc(O)cc(O)c12
REMARK SMILES IDX 5 1 3 2 2 3 1 4 22 5 20 6 19 7 17 8 16 9 15 10 14 11 6 12
REMARK SMILES IDX 7 13 8 14 9 15 13 16 11 17 10 18 12 20 4 22 21 24 18 26
REMARK H PARENT 10 19 12 21 4 23 21 25 18 27
REMARK Flexibility Score: inf
ROOT
ATOM      1  C   UNL     1      91.546 -64.525 103.026  1.00  0.00     0.180 A 
ATOM      2  C   UNL     1      92.573 -64.576 103.984  1.00  0.00     0.208 A 
ATOM      3  C   UNL     1      93.484 -63.510 104.064  1.00  0.00     0.238 A 
ATOM      4  O   UNL     1      94.432 -63.586 104.887  1.00  0.00    -0.285 OA
ATOM      5  C   UNL     1      93.346 -62.399 103.196  1.00  0.00     0.111 A 
ATOM      6  C   UNL     1      94.188 -61.246 103.216  1.00  0.00     0.134 A 
ATOM      7  C   UNL     1      94.040 -60.267 102.226  1.00  0.00     0.093 A 
ATOM      8  C   UNL     1      93.043 -60.365 101.257  1.00  0.00     0.123 A 
ATOM      9  C   UNL     1      92.177 -61.461 101.265  1.00  0.00     0.094 A 
ATOM     10  C   UNL     1      92.321 -62.471 102.217  1.00  0.00     0.146 A 
ATOM     11  O   UNL     1      91.483 -63.500 102.182  1.00  0.00    -0.452 OA
ENDROOT
BRANCH   1  12
ATOM     12  C   UNL     1      90.534 -65.598 102.898  1.00  0.00     0.025 A 
ATOM     13  C   UNL     1      90.331 -66.210 101.651  1.00  0.00     0.016 A 
ATOM     14  C   UNL     1      89.367 -67.212 101.503  1.00  0.00     0.051 A 
ATOM     15  C   UNL     1      88.581 -67.602 102.595  1.00  0.00     0.157 A 
ATOM     16  C   UNL     1      89.728 -65.979 103.986  1.00  0.00     0.062 A 
ATOM     17  C   UNL     1      88.760 -66.982 103.838  1.00  0.00     0.158 A 
BRANCH  15  18
ATOM     18  O   UNL     1      87.620 -68.600 102.452  1.00  0.00    -0.504 OA
ATOM     19  H   UNL     1      87.261 -68.865 101.542  1.00  0.00     0.293 HD
ENDBRANCH  15  18
BRANCH  17  20
ATOM     20  O   UNL     1      87.967 -67.362 104.919  1.00  0.00    -0.504 OA
ATOM     21  H   UNL     1      88.207 -67.105 105.869  1.00  0.00     0.293 HD
ENDBRANCH  17  20
ENDBRANCH   1  12
BRANCH   2  22
ATOM     22  O   UNL     1      92.704 -65.691 104.815  1.00  0.00    -0.502 OA
ATOM     23  H   UNL     1      91.983 -65.971 105.470  1.00  0.00     0.293 HD
ENDBRANCH   2  22
BRANCH   6  24
ATOM     24  O   UNL     1      95.155 -61.003 104.196  1.00  0.00    -0.507 OA
ATOM     25  H   UNL     1      95.909 -60.340 104.107  1.00  0.00     0.293 HD
ENDBRANCH   6  24
BRANCH   8  26
ATOM     26  O   UNL     1      92.916 -59.365 100.297  1.00  0.00    -0.508 OA
ATOM     27  H   UNL     1      92.081 -58.794 100.233  1.00  0.00     0.293 HD
ENDBRANCH   8  26
TORSDOF 6
ENDMDL
MODEL 3
REMARK VINA RESULT:    -7.276      2.623      4.477
REMARK INTER + INTRA:          -8.935
REMARK INTER:                  -8.891
REMARK INTRA:                  -0.044
REMARK UNBOUND:                -0.170
REMARK SMILES O=c1c(O)c(-c2ccc(O)c(O)c2)oc2cc(O)cc(O)c12
REMARK SMILES IDX 5 1 3 2 2 3 1 4 22 5 20 6 19 7 17 8 16 9 15 10 14 11 6 12
REMARK SMILES IDX 7 13 8 14 9 15 13 16 11 17 10 18 12 20 4 22 21 24 18 26
REMARK H PARENT 10 19 12 21 4 23 21 25 18 27
REMARK Flexibility Score: inf
ROOT
ATOM      1  C   UNL     1      94.450 -62.008 103.287  1.00  0.00     0.180 A 
ATOM      2  C   UNL     1      93.944 -62.966 102.392  1.00  0.00     0.208 A 
ATOM      3  C   UNL     1      93.029 -62.561 101.406  1.00  0.00     0.238 A 
ATOM      4  O   UNL     1      92.538 -63.433 100.643  1.00  0.00    -0.285 OA
ATOM      5  C   UNL     1      92.645 -61.201 101.318  1.00  0.00     0.111 A 
ATOM      6  C   UNL     1      91.756 -60.673 100.333  1.00  0.00     0.134 A 
ATOM      7  C   UNL     1      91.345 -59.337 100.421  1.00  0.00     0.093 A 
ATOM      8  C   UNL     1      91.839 -58.494 101.415  1.00  0.00     0.123 A 
ATOM      9  C   UNL     1      92.755 -58.986 102.348  1.00  0.00     0.094 A 
ATOM     10  C   UNL     1      93.156 -60.323 102.308  1.00  0.00     0.146 A 
ATOM     11  O   UNL     1      94.021 -60.753 103.219  1.00  0.00    -0.452 OA
ENDROOT
BRANCH   1  12
ATOM     12  C   UNL     1      95.437 -62.354 104.335  1.00  0.00     0.025 A 
ATOM     13  C   UNL     1      96.672 -61.687 104.367  1.00  0.00     0.016 A 
ATOM     14  C   UNL     1      97.626 -62.010 105.336  1.00  0.00     0.051 A 
ATOM     15  C   UNL     1      97.365 -63.016 106.276  1.00  0.00     0.157 A 
ATOM     16  C   UNL     1      95.188 -63.377 105.268  1.00  0.00     0.062 A 
ATOM     17  C   UNL     1      96.145 -63.703 106.239  1.00  0.00     0.158 A 
BRANCH  15  18
ATOM     18  O   UNL     1      98.312 -63.340 107.244  1.00  0.00    -0.504 OA
ATOM     19  H   UNL     1      98.881 -62.629 107.689  1.00  0.00     0.293 HD
ENDBRANCH  15  18
BRANCH  17  20
ATOM     20  O   UNL     1      95.894 -64.712 107.166  1.00  0.00    -0.504 OA
ATOM     21  H   UNL     1      95.235 -65.458 106.973  1.00  0.00     0.293 HD
ENDBRANCH  17  20
ENDBRANCH   1  12
BRANCH   2  22
ATOM     22  O   UNL     1      94.318 -64.307 102.511  1.00  0.00    -0.502 OA
ATOM     23  H   UNL     1      94.919 -64.767 101.836  1.00  0.00     0.293 HD
ENDBRANCH   2  22
BRANCH   6  24
ATOM     24  O   UNL     1      91.275 -61.404  99.243  1.00  0.00    -0.507 OA
ATOM     25  H   UNL     1      91.851 -61.791  98.511  1.00  0.00     0.293 HD
ENDBRANCH   6  24
BRANCH   8  26
ATOM     26  O   UNL     1      91.420 -57.167 101.463  1.00  0.00    -0.508 OA
ATOM     27  H   UNL     1      90.484 -56.896 101.184  1.00  0.00     0.293 HD
ENDBRANCH   8  26
TORSDOF 6
ENDMDL
MODEL 4
REMARK VINA RESULT:    -7.232      2.768      4.593
REMARK INTER + INTRA:          -8.882
REMARK INTER:                  -8.588
REMARK INTRA:                  -0.294
REMARK UNBOUND:                -0.170
REMARK SMILES O=c1c(O)c(-c2ccc(O)c(O)c2)oc2cc(O)cc(O)c12
REMARK SMILES IDX 5 1 3 2 2 3 1 4 22 5 20 6 19 7 17 8 16 9 15 10 14 11 6 12
REMARK SMILES IDX 7 13 8 14 9 15 13 16 11 17 10 18 12 20 4 22 21 24 18 26
REMARK H PARENT 10 19 12 21 4 23 21 25 18 27
REMARK Flexibility Score: inf
ROOT
ATOM      1  C   UNL     1      95.206 -61.668 104.142  1.00  0.00     0.180 A 
ATOM      2  C   UNL     1      95.119 -60.297 104.438  1.00  0.00     0.208 A 
ATOM      3  C   UNL     1      94.232 -59.495 103.701  1.00  0.00     0.238 A 
ATOM      4  O   UNL     1      94.198 -58.260 103.934  1.00  0.00    -0.285 OA
ATOM      5  C   UNL     1      93.431 -60.078 102.690  1.00  0.00     0.111 A 
ATOM      6  C   UNL     1      92.469 -59.369 101.908  1.00  0.00     0.134 A 
ATOM      7  C   UNL     1      91.828 -60.019 100.847  1.00  0.00     0.093 A 
ATOM      8  C   UNL     1      92.063 -61.367 100.578  1.00  0.00     0.123 A 
ATOM      9  C   UNL     1      92.958 -62.085 101.374  1.00  0.00     0.094 A 
ATOM     10  C   UNL     1      93.639 -61.456 102.417  1.00  0.00     0.146 A 
ATOM     11  O   UNL     1      94.489 -62.172 103.143  1.00  0.00    -0.452 OA
ENDROOT
BRANCH   1  12
ATOM     12  C   UNL     1      96.098 -62.581 104.892  1.00  0.00     0.025 A 
ATOM     13  C   UNL     1      97.461 -62.641 104.560  1.00  0.00     0.016 A 
ATOM     14  C   UNL     1      98.318 -63.510 105.242  1.00  0.00     0.051 A 
ATOM     15  C   UNL     1      97.821 -64.343 106.252  1.00  0.00     0.157 A 
ATOM     16  C   UNL     1      95.600 -63.434 105.894  1.00  0.00     0.062 A 
ATOM     17  C   UNL     1      96.459 -64.307 106.576  1.00  0.00     0.158 A 
BRANCH  15  18
ATOM     18  O   UNL     1      98.672 -65.209 106.935  1.00  0.00    -0.504 OA
ATOM     19  H   UNL     1      98.429 -65.586 107.844  1.00  0.00     0.293 HD
ENDBRANCH  15  18
BRANCH  17  20
ATOM     20  O   UNL     1      95.964 -65.147 107.572  1.00  0.00    -0.504 OA
ATOM     21  H   UNL     1      95.286 -65.872 107.367  1.00  0.00     0.293 HD
ENDBRANCH  17  20
ENDBRANCH   1  12
BRANCH   2  22
ATOM     22  O   UNL     1      95.934 -59.738 105.426  1.00  0.00    -0.502 OA
ATOM     23  H   UNL     1      96.768 -60.200 105.770  1.00  0.00     0.293 HD
ENDBRANCH   2  22
BRANCH   6  24
ATOM     24  O   UNL     1      92.091 -58.045 102.150  1.00  0.00    -0.507 OA
ATOM     25  H   UNL     1      92.229 -57.557 103.021  1.00  0.00     0.293 HD
ENDBRANCH   6  24
BRANCH   8  26
ATOM     26  O   UNL     1      91.396 -61.985  99.524  1.00  0.00    -0.508 OA
ATOM     27  H   UNL     1      91.163 -62.971  99.548  1.00  0.00     0.293 HD
ENDBRANCH   8  26
TORSDOF 6
ENDMDL
MODEL 5
REMARK VINA RESULT:    -7.130      1.873      7.157
REMARK INTER + INTRA:          -8.760
REMARK INTER:                  -8.442
REMARK INTRA:                  -0.318
REMARK UNBOUND:                -0.170
REMARK SMILES O=c1c(O)c(-c2ccc(O)c(O)c2)oc2cc(O)cc(O)c12
REMARK SMILES IDX 5 1 3 2 2 3 1 4 22 5 20 6 19 7 17 8 16 9 15 10 14 11 6 12
REMARK SMILES IDX 7 13 8 14 9 15 13 16 11 17 10 18 12 20 4 22 21 24 18 26
REMARK H PARENT 10 19 12 21 4 23 21 25 18 27
REMARK Flexibility Score: inf
ROOT
ATOM      1  C   UNL     1      91.647 -65.016 103.015  1.00  0.00     0.180 A 
ATOM      2  C   UNL     1      91.330 -64.039 102.055  1.00  0.00     0.208 A 
ATOM      3  C   UNL     1      92.137 -62.894 101.957  1.00  0.00     0.238 A 
ATOM      4  O   UNL     1      91.818 -61.998 101.134  1.00  0.00    -0.285 OA
ATOM      5  C   UNL     1      93.261 -62.750 102.807  1.00  0.00     0.111 A 
ATOM      6  C   UNL     1      94.171 -61.650 102.768  1.00  0.00     0.134 A 
ATOM      7  C   UNL     1      95.170 -61.546 103.743  1.00  0.00     0.093 A 
ATOM      8  C   UNL     1      95.335 -62.532 104.715  1.00  0.00     0.123 A 
ATOM      9  C   UNL     1      94.487 -63.641 104.726  1.00  0.00     0.094 A 
ATOM     10  C   UNL     1      93.458 -63.755 103.789  1.00  0.00     0.146 A 
ATOM     11  O   UNL     1      92.668 -64.821 103.842  1.00  0.00    -0.452 OA
ENDROOT
BRANCH   1  12
ATOM     12  C   UNL     1      90.858 -66.261 103.161  1.00  0.00     0.025 A 
ATOM     13  C   UNL     1      91.237 -67.406 102.442  1.00  0.00     0.016 A 
ATOM     14  C   UNL     1      90.496 -68.587 102.550  1.00  0.00     0.051 A 
ATOM     15  C   UNL     1      89.357 -68.633 103.364  1.00  0.00     0.157 A 
ATOM     16  C   UNL     1      89.702 -66.307 103.961  1.00  0.00     0.062 A 
ATOM     17  C   UNL     1      88.958 -67.491 104.068  1.00  0.00     0.158 A 
BRANCH  15  18
ATOM     18  O   UNL     1      88.618 -69.808 103.475  1.00  0.00    -0.504 OA
ATOM     19  H   UNL     1      88.971 -70.693 103.131  1.00  0.00     0.293 HD
ENDBRANCH  15  18
BRANCH  17  20
ATOM     20  O   UNL     1      87.817 -67.536 104.866  1.00  0.00    -0.504 OA
ATOM     21  H   UNL     1      87.358 -66.690 105.186  1.00  0.00     0.293 HD
ENDBRANCH  17  20
ENDBRANCH   1  12
BRANCH   2  22
ATOM     22  O   UNL     1      90.205 -64.191 101.242  1.00  0.00    -0.502 OA
ATOM     23  H   UNL     1      89.472 -64.861 101.445  1.00  0.00     0.293 HD
ENDBRANCH   2  22
BRANCH   6  24
ATOM     24  O   UNL     1      94.153 -60.658 101.783  1.00  0.00    -0.507 OA
ATOM     25  H   UNL     1      93.325 -60.180 101.463  1.00  0.00     0.293 HD
ENDBRANCH   6  24
BRANCH   8  26
ATOM     26  O   UNL     1      96.350 -62.403 105.660  1.00  0.00    -0.508 OA
ATOM     27  H   UNL     1      96.222 -61.858 106.505  1.00  0.00     0.293 HD
ENDBRANCH   8  26
TORSDOF 6
ENDMDL
MODEL 6
REMARK VINA RESULT:    -7.067      2.673      4.494
REMARK INTER + INTRA:          -8.684
REMARK INTER:                  -8.399
REMARK INTRA:                  -0.285
REMARK UNBOUND:                -0.170
REMARK SMILES O=c1c(O)c(-c2ccc(O)c(O)c2)oc2cc(O)cc(O)c12
REMARK SMILES IDX 5 1 3 2 2 3 1 4 22 5 20 6 19 7 17 8 16 9 15 10 14 11 6 12
REMARK SMILES IDX 7 13 8 14 9 15 13 16 11 17 10 18 12 20 4 22 21 24 18 26
REMARK H PARENT 10 19 12 21 4 23 21 25 18 27
REMARK Flexibility Score: inf
ROOT
ATOM      1  C   UNL     1      96.072 -61.687 104.445  1.00  0.00     0.180 A 
ATOM      2  C   UNL     1      95.826 -60.341 104.764  1.00  0.00     0.208 A 
ATOM      3  C   UNL     1      94.757 -59.677 104.141  1.00  0.00     0.238 A 
ATOM      4  O   UNL     1      94.575 -58.457 104.390  1.00  0.00    -0.285 OA
ATOM      5  C   UNL     1      93.937 -60.373 103.220  1.00  0.00     0.111 A 
ATOM      6  C   UNL     1      92.802 -59.811 102.559  1.00  0.00     0.134 A 
ATOM      7  C   UNL     1      92.143 -60.551 101.570  1.00  0.00     0.093 A 
ATOM      8  C   UNL     1      92.535 -61.853 101.262  1.00  0.00     0.123 A 
ATOM      9  C   UNL     1      93.606 -62.433 101.944  1.00  0.00     0.094 A 
ATOM     10  C   UNL     1      94.306 -61.708 102.910  1.00  0.00     0.146 A 
ATOM     11  O   UNL     1      95.325 -62.293 103.528  1.00  0.00    -0.452 OA
ENDROOT
BRANCH   1  12
ATOM     12  C   UNL     1      97.163 -62.461 105.079  1.00  0.00     0.025 A 
ATOM     13  C   UNL     1      96.868 -63.322 106.147  1.00  0.00     0.016 A 
ATOM     14  C   UNL     1      97.886 -64.048 106.773  1.00  0.00     0.051 A 
ATOM     15  C   UNL     1      99.215 -63.908 106.351  1.00  0.00     0.157 A 
ATOM     16  C   UNL     1      98.502 -62.309 104.672  1.00  0.00     0.062 A 
ATOM     17  C   UNL     1      99.523 -63.035 105.301  1.00  0.00     0.158 A 
BRANCH  15  18
ATOM     18  O   UNL     1     100.231 -64.630 106.972  1.00  0.00    -0.504 OA
ATOM     19  H   UNL     1     101.173 -64.265 107.046  1.00  0.00     0.293 HD
ENDBRANCH  15  18
BRANCH  17  20
ATOM     20  O   UNL     1     100.847 -62.887 104.893  1.00  0.00    -0.504 OA
ATOM     21  H   UNL     1     101.203 -62.001 104.555  1.00  0.00     0.293 HD
ENDBRANCH  17  20
ENDBRANCH   1  12
BRANCH   2  22
ATOM     22  O   UNL     1      96.660 -59.667 105.659  1.00  0.00    -0.502 OA
ATOM     23  H   UNL     1      96.754 -58.658 105.662  1.00  0.00     0.293 HD
ENDBRANCH   2  22
BRANCH   6  24
ATOM     24  O   UNL     1      92.270 -58.553 102.857  1.00  0.00    -0.507 OA
ATOM     25  H   UNL     1      91.860 -57.927 102.180  1.00  0.00     0.293 HD
ENDBRANCH   6  24
BRANCH   8  26
ATOM     26  O   UNL     1      91.847 -62.565 100.283  1.00  0.00    -0.508 OA
ATOM     27  H   UNL     1      91.666 -63.558 100.377  1.00  0.00     0.293 HD
ENDBRANCH   8  26
TORSDOF 6
ENDMDL
MODEL 7
REMARK VINA RESULT:    -7.025      1.485      6.830
REMARK INTER + INTRA:          -8.633
REMARK INTER:                  -8.319
REMARK INTRA:                  -0.314
REMARK UNBOUND:                -0.170
REMARK SMILES O=c1c(O)c(-c2ccc(O)c(O)c2)oc2cc(O)cc(O)c12
REMARK SMILES IDX 5 1 3 2 2 3 1 4 22 5 20 6 19 7 17 8 16 9 15 10 14 11 6 12
REMARK SMILES IDX 7 13 8 14 9 15 13 16 11 17 10 18 12 20 4 22 21 24 18 26
REMARK H PARENT 10 19 12 21 4 23 21 25 18 27
REMARK Flexibility Score: inf
ROOT
ATOM      1  C   UNL     1      93.638 -62.016 103.129  1.00  0.00     0.180 A 
ATOM      2  C   UNL     1      93.335 -60.652 103.284  1.00  0.00     0.208 A 
ATOM      3  C   UNL     1      94.266 -59.817 103.924  1.00  0.00     0.238 A 
ATOM      4  O   UNL     1      93.967 -58.609 104.109  1.00  0.00    -0.285 OA
ATOM      5  C   UNL     1      95.493 -60.353 104.384  1.00  0.00     0.111 A 
ATOM      6  C   UNL     1      96.526 -59.591 105.011  1.00  0.00     0.134 A 
ATOM      7  C   UNL     1      97.641 -60.248 105.543  1.00  0.00     0.093 A 
ATOM      8  C   UNL     1      97.795 -61.627 105.417  1.00  0.00     0.123 A 
ATOM      9  C   UNL     1      96.819 -62.374 104.754  1.00  0.00     0.094 A 
ATOM     10  C   UNL     1      95.678 -61.753 104.243  1.00  0.00     0.146 A 
ATOM     11  O   UNL     1      94.769 -62.501 103.629  1.00  0.00    -0.452 OA
ENDROOT
BRANCH   1  12
ATOM     12  C   UNL     1      92.719 -62.953 102.443  1.00  0.00     0.025 A 
ATOM     13  C   UNL     1      92.739 -63.037 101.041  1.00  0.00     0.016 A 
ATOM     14  C   UNL     1      91.868 -63.901 100.372  1.00  0.00     0.051 A 
ATOM     15  C   UNL     1      90.953 -64.679 101.093  1.00  0.00     0.157 A 
ATOM     16  C   UNL     1      91.785 -63.721 103.160  1.00  0.00     0.062 A 
ATOM     17  C   UNL     1      90.909 -64.586 102.489  1.00  0.00     0.158 A 
BRANCH  15  18
ATOM     18  O   UNL     1      90.084 -65.542 100.429  1.00  0.00    -0.504 OA
ATOM     19  H   UNL     1      90.331 -65.967  99.543  1.00  0.00     0.293 HD
ENDBRANCH  15  18
BRANCH  17  20
ATOM     20  O   UNL     1      89.989 -65.351 103.203  1.00  0.00    -0.504 OA
ATOM     21  H   UNL     1      89.624 -66.222 102.835  1.00  0.00     0.293 HD
ENDBRANCH  17  20
ENDBRANCH   1  12
BRANCH   2  22
ATOM     22  O   UNL     1      92.110 -60.149 102.843  1.00  0.00    -0.502 OA
ATOM     23  H   UNL     1      91.223 -60.470 103.214  1.00  0.00     0.293 HD
ENDBRANCH   2  22
BRANCH   6  24
ATOM     24  O   UNL     1      96.516 -58.196 105.108  1.00  0.00    -0.507 OA
ATOM     25  H   UNL     1      97.284 -57.638 105.449  1.00  0.00     0.293 HD
ENDBRANCH   6  24
BRANCH   8  26
ATOM     26  O   UNL     1      98.925 -62.246 105.946  1.00  0.00    -0.508 OA
ATOM     27  H   UNL     1      99.512 -61.782 106.630  1.00  0.00     0.293 HD
ENDBRANCH   8  26
TORSDOF 6
ENDMDL
MODEL 8
REMARK VINA RESULT:    -7.013      1.504      7.144
REMARK INTER + INTRA:          -8.618
REMARK INTER:                  -8.285
REMARK INTRA:                  -0.333
REMARK UNBOUND:                -0.170
REMARK SMILES O=c1c(O)c(-c2ccc(O)c(O)c2)oc2cc(O)cc(O)c12
REMARK SMILES IDX 5 1 3 2 2 3 1 4 22 5 20 6 19 7 17 8 16 9 15 10 14 11 6 12
REMARK SMILES IDX 7 13 8 14 9 15 13 16 11 17 10 18 12 20 4 22 21 24 18 26
REMARK H PARENT 10 19 12 21 4 23 21 25 18 27
REMARK Flexibility Score: inf
ROOT
ATOM      1  C   UNL     1      94.257 -63.143 103.326  1.00  0.00     0.180 A 
ATOM      2  C   UNL     1      95.385 -63.950 103.555  1.00  0.00     0.208 A 
ATOM      3  C   UNL     1      96.512 -63.385 104.174  1.00  0.00     0.238 A 
ATOM      4  O   UNL     1      97.537 -64.097 104.328  1.00  0.00    -0.285 OA
ATOM      5  C   UNL     1      96.490 -62.026 104.571  1.00  0.00     0.111 A 
ATOM      6  C   UNL     1      97.561 -61.360 105.241  1.00  0.00     0.134 A 
ATOM      7  C   UNL     1      97.482 -59.981 105.468  1.00  0.00     0.093 A 
ATOM      8  C   UNL     1      96.347 -59.255 105.109  1.00  0.00     0.123 A 
ATOM      9  C   UNL     1      95.270 -59.907 104.506  1.00  0.00     0.094 A 
ATOM     10  C   UNL     1      95.334 -61.275 104.234  1.00  0.00     0.146 A 
ATOM     11  O   UNL     1      94.292 -61.855 103.650  1.00  0.00    -0.452 OA
ENDROOT
BRANCH   1  12
ATOM     12  C   UNL     1      93.023 -63.673 102.702  1.00  0.00     0.025 A 
ATOM     13  C   UNL     1      92.832 -63.528 101.319  1.00  0.00     0.016 A 
ATOM     14  C   UNL     1      91.666 -64.003 100.712  1.00  0.00     0.051 A 
ATOM     15  C   UNL     1      90.668 -64.615 101.483  1.00  0.00     0.157 A 
ATOM     16  C   UNL     1      92.009 -64.269 103.474  1.00  0.00     0.062 A 
ATOM     17  C   UNL     1      90.839 -64.744 102.867  1.00  0.00     0.158 A 
BRANCH  15  18
ATOM     18  O   UNL     1      89.505 -65.091 100.881  1.00  0.00    -0.504 OA
ATOM     19  H   UNL     1      89.458 -65.271  99.885  1.00  0.00     0.293 HD
ENDBRANCH  15  18
BRANCH  17  20
ATOM     20  O   UNL     1      89.839 -65.340 103.632  1.00  0.00    -0.504 OA
ATOM     21  H   UNL     1      89.143 -64.787 104.120  1.00  0.00     0.293 HD
ENDBRANCH  17  20
ENDBRANCH   1  12
BRANCH   2  22
ATOM     22  O   UNL     1      95.393 -65.282 103.137  1.00  0.00    -0.502 OA
ATOM     23  H   UNL     1      95.549 -66.053 103.776  1.00  0.00     0.293 HD
ENDBRANCH   2  22
BRANCH   6  24
ATOM     24  O   UNL     1      98.701 -62.008 105.726  1.00  0.00    -0.507 OA
ATOM     25  H   UNL     1      98.873 -62.222 106.696  1.00  0.00     0.293 HD
ENDBRANCH   6  24
BRANCH   8  26
ATOM     26  O   UNL     1      96.297 -57.886 105.364  1.00  0.00    -0.508 OA
ATOM     27  H   UNL     1      97.115 -57.374 105.674  1.00  0.00     0.293 HD
ENDBRANCH   8  26
TORSDOF 6
ENDMDL
MODEL 9
REMARK VINA RESULT:    -6.948      3.162      6.857
REMARK INTER + INTRA:          -8.539
REMARK INTER:                  -8.342
REMARK INTRA:                  -0.198
REMARK UNBOUND:                -0.170
REMARK SMILES O=c1c(O)c(-c2ccc(O)c(O)c2)oc2cc(O)cc(O)c12
REMARK SMILES IDX 5 1 3 2 2 3 1 4 22 5 20 6 19 7 17 8 16 9 15 10 14 11 6 12
REMARK SMILES IDX 7 13 8 14 9 15 13 16 11 17 10 18 12 20 4 22 21 24 18 26
REMARK H PARENT 10 19 12 21 4 23 21 25 18 27
REMARK Flexibility Score: inf
ROOT
ATOM      1  C   UNL     1      96.054 -61.892 104.670  1.00  0.00     0.180 A 
ATOM      2  C   UNL     1      95.603 -63.075 105.280  1.00  0.00     0.208 A 
ATOM      3  C   UNL     1      96.531 -63.895 105.944  1.00  0.00     0.238 A 
ATOM      4  O   UNL     1      96.131 -64.979 106.442  1.00  0.00    -0.285 OA
ATOM      5  C   UNL     1      97.892 -63.513 106.003  1.00  0.00     0.111 A 
ATOM      6  C   UNL     1      98.911 -64.248 106.683  1.00  0.00     0.134 A 
ATOM      7  C   UNL     1     100.247 -63.845 106.565  1.00  0.00     0.093 A 
ATOM      8  C   UNL     1     100.596 -62.701 105.848  1.00  0.00     0.123 A 
ATOM      9  C   UNL     1      99.600 -61.943 105.229  1.00  0.00     0.094 A 
ATOM     10  C   UNL     1      98.263 -62.338 105.298  1.00  0.00     0.146 A 
ATOM     11  O   UNL     1      97.349 -61.594 104.686  1.00  0.00    -0.452 OA
ENDROOT
BRANCH   1  12
ATOM     12  C   UNL     1      95.134 -60.964 103.975  1.00  0.00     0.025 A 
ATOM     13  C   UNL     1      94.845 -59.716 104.551  1.00  0.00     0.016 A 
ATOM     14  C   UNL     1      93.964 -58.833 103.922  1.00  0.00     0.051 A 
ATOM     15  C   UNL     1      93.346 -59.190 102.716  1.00  0.00     0.157 A 
ATOM     16  C   UNL     1      94.495 -61.326 102.775  1.00  0.00     0.062 A 
ATOM     17  C   UNL     1      93.610 -60.441 102.144  1.00  0.00     0.158 A 
BRANCH  15  18
ATOM     18  O   UNL     1      92.468 -58.312 102.086  1.00  0.00    -0.504 OA
ATOM     19  H   UNL     1      92.325 -57.368 102.427  1.00  0.00     0.293 HD
ENDBRANCH  15  18
BRANCH  17  20
ATOM     20  O   UNL     1      92.983 -60.800 100.953  1.00  0.00    -0.504 OA
ATOM     21  H   UNL     1      93.515 -61.057 100.129  1.00  0.00     0.293 HD
ENDBRANCH  17  20
ENDBRANCH   1  12
BRANCH   2  22
ATOM     22  O   UNL     1      94.259 -63.443 105.191  1.00  0.00    -0.502 OA
ATOM     23  H   UNL     1      93.585 -63.227 105.917  1.00  0.00     0.293 HD
ENDBRANCH   2  22
BRANCH   6  24
ATOM     24  O   UNL     1      98.662 -65.352 107.502  1.00  0.00    -0.507 OA
ATOM     25  H   UNL     1      97.978 -66.068 107.310  1.00  0.00     0.293 HD
ENDBRANCH   6  24
BRANCH   8  26
ATOM     26  O   UNL     1     101.933 -62.322 105.764  1.00  0.00    -0.508 OA
ATOM     27  H   UNL     1     102.353 -61.704 106.449  1.00  0.00     0.293 HD
ENDBRANCH   8  26
TORSDOF 6
ENDMDL
