MODEL 1
REMARK VINA RESULT:     4.389      0.000      0.000
REMARK INTER + INTRA:           8.934
REMARK INTER:                  11.059
REMARK INTRA:                  -2.125
REMARK UNBOUND:                -2.125
REMARK SMILES CCCCCCCCCCCCCCCCCCCCCCCCCCCC(=O)[O-]
REMARK SMILES IDX 15 1 16 2 17 3 18 4 19 5 20 6 21 7 22 8 23 9 24 10 25 11
REMARK SMILES IDX 26 12 27 13 28 14 29 15 30 16 14 17 13 18 12 19 11 20 10 21
REMARK SMILES IDX 9 22 8 23 7 24 6 25 5 26 4 27 3 28 2 29 1 30
REMARK H PARENT
REMARK Flexibility Score: inf
ROOT
ATOM      1  C   UNL     1       0.705  59.314  -7.270  1.00  0.00     0.000 C 
ENDROOT
BRANCH   1   2
ATOM      2  C   UNL     1      -0.744  59.023  -6.853  1.00  0.00     0.000 C 
BRANCH   2   3
ATOM      3  C   UNL     1      -1.698  58.876  -8.054  1.00  0.00     0.000 C 
BRANCH   3   4
ATOM      4  C   UNL     1      -3.198  58.971  -7.717  1.00  0.00     0.000 C 
BRANCH   4   5
ATOM      5  C   UNL     1      -3.473  59.770  -6.430  1.00  0.00     0.000 C 
BRANCH   5   6
ATOM      6  C   UNL     1      -4.444  59.048  -5.480  1.00  0.00     0.000 C 
BRANCH   6   7
ATOM      7  C   UNL     1      -4.115  59.285  -3.998  1.00  0.00     0.000 C 
BRANCH   7   8
ATOM      8  C   UNL     1      -2.617  59.092  -3.729  1.00  0.00     0.000 C 
BRANCH   8   9
ATOM      9  C   UNL     1      -1.988  60.382  -3.179  1.00  0.00     0.000 C 
BRANCH   9  10
ATOM     10  C   UNL     1      -0.681  60.758  -3.893  1.00  0.00     0.000 C 
BRANCH  10  11
ATOM     11  C   UNL     1       0.557  60.566  -3.006  1.00  0.00     0.000 C 
BRANCH  11  12
ATOM     12  C   UNL     1       0.163  60.501  -1.523  1.00  0.00     0.006 C 
BRANCH  12  13
ATOM     13  C   UNL     1       1.379  60.609  -0.594  1.00  0.00     0.053 C 
BRANCH  13  14
ATOM     14  C   UNL     1       1.531  61.991  -0.036  1.00  0.00     0.041 C 
ATOM     15  O   UNL     1       1.651  62.978  -0.810  1.00  0.00    -0.550 OA
ATOM     16  O   UNL     1       1.508  62.195   1.337  1.00  0.00    -0.550 OA
ENDBRANCH  13  14
ENDBRANCH  12  13
ENDBRANCH  11  12
ENDBRANCH  10  11
ENDBRANCH   9  10
ENDBRANCH   8   9
ENDBRANCH   7   8
ENDBRANCH   6   7
ENDBRANCH   5   6
ENDBRANCH   4   5
ENDBRANCH   3   4
ENDBRANCH   2   3
ENDBRANCH   1   2
BRANCH   1  17
ATOM     17  C   UNL     1       1.626  59.399  -6.046  1.00  0.00     0.000 C 
BRANCH  17  18
ATOM     18  C   UNL     1       2.559  60.614  -6.145  1.00  0.00     0.000 C 
BRANCH  18  19
ATOM     19  C   UNL     1       2.770  61.092  -7.593  1.00  0.00     0.000 C 
BRANCH  19  20
ATOM     20  C   UNL     1       2.604  62.610  -7.811  1.00  0.00     0.000 C 
BRANCH  20  21
ATOM     21  C   UNL     1       2.502  63.451  -6.524  1.00  0.00     0.000 C 
BRANCH  21  22
ATOM     22  C   UNL     1       2.504  64.977  -6.742  1.00  0.00    -0.000 C 
BRANCH  22  23
ATOM     23  C   UNL     1       3.149  65.773  -5.586  1.00  0.00    -0.000 C 
BRANCH  23  24
ATOM     24  C   UNL     1       2.381  67.064  -5.256  1.00  0.00    -0.000 C 
BRANCH  24  25
ATOM     25  C   UNL     1       1.351  67.435  -6.334  1.00  0.00    -0.000 C 
BRANCH  25  26
ATOM     26  C   UNL     1       0.618  68.752  -6.023  1.00  0.00    -0.000 C 
BRANCH  26  27
ATOM     27  C   UNL     1      -0.884  68.682  -6.345  1.00  0.00    -0.000 C 
BRANCH  27  28
ATOM     28  C   UNL     1      -1.753  69.315  -5.243  1.00  0.00    -0.000 C 
BRANCH  28  29
ATOM     29  C   UNL     1      -2.750  70.344  -5.799  1.00  0.00    -0.003 C 
ATOM     30  C   UNL     1      -4.188  69.823  -5.831  1.00  0.00     0.004 C 
ENDBRANCH  28  29
ENDBRANCH  27  28
ENDBRANCH  26  27
ENDBRANCH  25  26
ENDBRANCH  24  25
ENDBRANCH  23  24
ENDBRANCH  22  23
ENDBRANCH  21  22
ENDBRANCH  20  21
ENDBRANCH  19  20
ENDBRANCH  18  19
ENDBRANCH  17  18
ENDBRANCH   1  17
TORSDOF 26
ENDMDL
MODEL 2
REMARK VINA RESULT:     5.151      4.292     10.112
REMARK INTER + INTRA:          10.855
REMARK INTER:                  11.937
REMARK INTRA:                  -1.082
REMARK UNBOUND:                -2.125
REMARK SMILES CCCCCCCCCCCCCCCCCCCCCCCCCCCC(=O)[O-]
REMARK SMILES IDX 15 1 16 2 17 3 18 4 19 5 20 6 21 7 22 8 23 9 24 10 25 11
REMARK SMILES IDX 26 12 27 13 28 14 29 15 30 16 14 17 13 18 12 19 11 20 10 21
REMARK SMILES IDX 9 22 8 23 7 24 6 25 5 26 4 27 3 28 2 29 1 30
REMARK H PARENT
REMARK Flexibility Score: inf
ROOT
ATOM      1  C   UNL     1       2.917  65.145  -5.724  1.00  0.00     0.000 C 
ENDROOT
BRANCH   1   2
ATOM      2  C   UNL     1       3.673  66.349  -5.144  1.00  0.00     0.000 C 
BRANCH   2   3
ATOM      3  C   UNL     1       2.754  67.546  -4.834  1.00  0.00     0.000 C 
BRANCH   3   4
ATOM      4  C   UNL     1       1.461  67.614  -5.668  1.00  0.00     0.000 C 
BRANCH   4   5
ATOM      5  C   UNL     1       0.524  68.754  -5.229  1.00  0.00     0.000 C 
BRANCH   5   6
ATOM      6  C   UNL     1      -0.073  69.521  -6.420  1.00  0.00     0.000 C 
BRANCH   6   7
ATOM      7  C   UNL     1      -1.545  69.165  -6.683  1.00  0.00     0.000 C 
BRANCH   7   8
ATOM      8  C   UNL     1      -2.258  68.776  -5.383  1.00  0.00     0.000 C 
BRANCH   8   9
ATOM      9  C   UNL     1      -3.352  69.796  -5.030  1.00  0.00     0.000 C 
BRANCH   9  10
ATOM     10  C   UNL     1      -2.911  71.248  -5.266  1.00  0.00     0.000 C 
BRANCH  10  11
ATOM     11  C   UNL     1      -3.952  72.065  -6.043  1.00  0.00     0.000 C 
BRANCH  11  12
ATOM     12  C   UNL     1      -5.032  71.151  -6.641  1.00  0.00     0.006 C 
BRANCH  12  13
ATOM     13  C   UNL     1      -6.035  71.924  -7.506  1.00  0.00     0.053 C 
BRANCH  13  14
ATOM     14  C   UNL     1      -6.088  73.375  -7.132  1.00  0.00     0.041 C 
ATOM     15  O   UNL     1      -6.117  73.716  -5.920  1.00  0.00    -0.550 OA
ATOM     16  O   UNL     1      -6.074  74.350  -8.120  1.00  0.00    -0.550 OA
ENDBRANCH  13  14
ENDBRANCH  12  13
ENDBRANCH  11  12
ENDBRANCH  10  11
ENDBRANCH   9  10
ENDBRANCH   8   9
ENDBRANCH   7   8
ENDBRANCH   6   7
ENDBRANCH   5   6
ENDBRANCH   4   5
ENDBRANCH   3   4
ENDBRANCH   2   3
ENDBRANCH   1   2
BRANCH   1  17
ATOM     17  C   UNL     1       3.014  65.116  -7.254  1.00  0.00     0.000 C 
BRANCH  17  18
ATOM     18  C   UNL     1       2.623  63.737  -7.803  1.00  0.00     0.000 C 
BRANCH  18  19
ATOM     19  C   UNL     1       2.239  62.738  -6.696  1.00  0.00     0.000 C 
BRANCH  19  20
ATOM     20  C   UNL     1       3.258  61.605  -6.456  1.00  0.00     0.000 C 
BRANCH  20  21
ATOM     21  C   UNL     1       2.650  60.201  -6.277  1.00  0.00     0.000 C 
BRANCH  21  22
ATOM     22  C   UNL     1       1.333  60.159  -5.476  1.00  0.00    -0.000 C 
BRANCH  22  23
ATOM     23  C   UNL     1       0.470  58.909  -5.756  1.00  0.00    -0.000 C 
BRANCH  23  24
ATOM     24  C   UNL     1      -1.037  59.216  -5.748  1.00  0.00    -0.000 C 
BRANCH  24  25
ATOM     25  C   UNL     1      -1.422  60.275  -4.703  1.00  0.00    -0.000 C 
BRANCH  25  26
ATOM     26  C   UNL     1      -2.628  59.849  -3.847  1.00  0.00    -0.000 C 
BRANCH  26  27
ATOM     27  C   UNL     1      -3.970  60.270  -4.468  1.00  0.00    -0.000 C 
BRANCH  27  28
ATOM     28  C   UNL     1      -4.834  59.064  -4.879  1.00  0.00    -0.000 C 
BRANCH  28  29
ATOM     29  C   UNL     1      -5.261  59.121  -6.354  1.00  0.00    -0.003 C 
ATOM     30  C   UNL     1      -4.430  60.108  -7.176  1.00  0.00     0.004 C 
ENDBRANCH  28  29
ENDBRANCH  27  28
ENDBRANCH  26  27
ENDBRANCH  25  26
ENDBRANCH  24  25
ENDBRANCH  23  24
ENDBRANCH  22  23
ENDBRANCH  21  22
ENDBRANCH  20  21
ENDBRANCH  19  20
ENDBRANCH  18  19
ENDBRANCH  17  18
ENDBRANCH   1  17
TORSDOF 26
ENDMDL
MODEL 3
REMARK VINA RESULT:     5.861      3.394      7.356
REMARK INTER + INTRA:          12.645
REMARK INTER:                  13.824
REMARK INTRA:                  -1.179
REMARK UNBOUND:                -2.125
REMARK SMILES CCCCCCCCCCCCCCCCCCCCCCCCCCCC(=O)[O-]
REMARK SMILES IDX 15 1 16 2 17 3 18 4 19 5 20 6 21 7 22 8 23 9 24 10 25 11
REMARK SMILES IDX 26 12 27 13 28 14 29 15 30 16 14 17 13 18 12 19 11 20 10 21
REMARK SMILES IDX 9 22 8 23 7 24 6 25 5 26 4 27 3 28 2 29 1 30
REMARK H PARENT
REMARK Flexibility Score: inf
ROOT
ATOM      1  C   UNL     1       2.402  66.782  -4.765  1.00  0.00     0.000 C 
ENDROOT
BRANCH   1   2
ATOM      2  C   UNL     1       2.879  65.442  -5.343  1.00  0.00     0.000 C 
BRANCH   2   3
ATOM      3  C   UNL     1       2.207  65.090  -6.684  1.00  0.00     0.000 C 
BRANCH   3   4
ATOM      4  C   UNL     1       2.483  63.666  -7.204  1.00  0.00     0.000 C 
BRANCH   4   5
ATOM      5  C   UNL     1       1.877  62.573  -6.305  1.00  0.00     0.000 C 
BRANCH   5   6
ATOM      6  C   UNL     1       2.869  61.439  -6.001  1.00  0.00     0.000 C 
BRANCH   6   7
ATOM      7  C   UNL     1       2.175  60.091  -5.746  1.00  0.00     0.000 C 
BRANCH   7   8
ATOM      8  C   UNL     1       0.691  60.156  -6.126  1.00  0.00     0.000 C 
BRANCH   8   9
ATOM      9  C   UNL     1      -0.194  59.663  -4.970  1.00  0.00     0.000 C 
BRANCH   9  10
ATOM     10  C   UNL     1      -1.004  60.793  -4.318  1.00  0.00     0.000 C 
BRANCH  10  11
ATOM     11  C   UNL     1      -1.945  60.287  -3.215  1.00  0.00     0.000 C 
BRANCH  11  12
ATOM     12  C   UNL     1      -2.589  58.951  -3.613  1.00  0.00     0.006 C 
BRANCH  12  13
ATOM     13  C   UNL     1      -4.113  59.057  -3.744  1.00  0.00     0.053 C 
BRANCH  13  14
ATOM     14  C   UNL     1      -4.517  59.710  -5.031  1.00  0.00     0.041 C 
ATOM     15  O   UNL     1      -5.271  59.106  -5.840  1.00  0.00    -0.550 OA
ATOM     16  O   UNL     1      -4.086  60.997  -5.325  1.00  0.00    -0.550 OA
ENDBRANCH  13  14
ENDBRANCH  12  13
ENDBRANCH  11  12
ENDBRANCH  10  11
ENDBRANCH   9  10
ENDBRANCH   8   9
ENDBRANCH   7   8
ENDBRANCH   6   7
ENDBRANCH   5   6
ENDBRANCH   4   5
ENDBRANCH   3   4
ENDBRANCH   2   3
ENDBRANCH   1   2
BRANCH   1  17
ATOM     17  C   UNL     1       1.729  67.640  -5.844  1.00  0.00     0.000 C 
BRANCH  17  18
ATOM     18  C   UNL     1       0.760  68.651  -5.214  1.00  0.00     0.000 C 
BRANCH  18  19
ATOM     19  C   UNL     1      -0.481  68.915  -6.086  1.00  0.00     0.000 C 
BRANCH  19  20
ATOM     20  C   UNL     1      -1.729  69.395  -5.317  1.00  0.00     0.000 C 
BRANCH  20  21
ATOM     21  C   UNL     1      -2.976  69.658  -6.185  1.00  0.00     0.000 C 
BRANCH  21  22
ATOM     22  C   UNL     1      -4.323  69.409  -5.481  1.00  0.00    -0.000 C 
BRANCH  22  23
ATOM     23  C   UNL     1      -5.481  70.278  -6.020  1.00  0.00    -0.000 C 
BRANCH  23  24
ATOM     24  C   UNL     1      -5.549  70.285  -7.557  1.00  0.00    -0.000 C 
BRANCH  24  25
ATOM     25  C   UNL     1      -6.022  71.633  -8.124  1.00  0.00    -0.000 C 
BRANCH  25  26
ATOM     26  C   UNL     1      -5.098  72.797  -7.724  1.00  0.00    -0.000 C 
BRANCH  26  27
ATOM     27  C   UNL     1      -5.871  74.101  -7.466  1.00  0.00    -0.000 C 
BRANCH  27  28
ATOM     28  C   UNL     1      -4.944  75.272  -7.092  1.00  0.00    -0.000 C 
BRANCH  28  29
ATOM     29  C   UNL     1      -5.026  76.432  -8.098  1.00  0.00    -0.003 C 
ATOM     30  C   UNL     1      -3.758  77.287  -8.123  1.00  0.00     0.004 C 
ENDBRANCH  28  29
ENDBRANCH  27  28
ENDBRANCH  26  27
ENDBRANCH  25  26
ENDBRANCH  24  25
ENDBRANCH  23  24
ENDBRANCH  22  23
ENDBRANCH  21  22
ENDBRANCH  20  21
ENDBRANCH  19  20
ENDBRANCH  18  19
ENDBRANCH  17  18
ENDBRANCH   1  17
TORSDOF 26
ENDMDL
MODEL 4
REMARK VINA RESULT:     5.930      3.813      9.910
REMARK INTER + INTRA:          12.819
REMARK INTER:                  14.127
REMARK INTRA:                  -1.309
REMARK UNBOUND:                -2.125
REMARK SMILES CCCCCCCCCCCCCCCCCCCCCCCCCCCC(=O)[O-]
REMARK SMILES IDX 15 1 16 2 17 3 18 4 19 5 20 6 21 7 22 8 23 9 24 10 25 11
REMARK SMILES IDX 26 12 27 13 28 14 29 15 30 16 14 17 13 18 12 19 11 20 10 21
REMARK SMILES IDX 9 22 8 23 7 24 6 25 5 26 4 27 3 28 2 29 1 30
REMARK H PARENT
REMARK Flexibility Score: inf
ROOT
ATOM      1  C   UNL     1       2.694  64.708  -5.895  1.00  0.00     0.000 C 
ENDROOT
BRANCH   1   2
ATOM      2  C   UNL     1       3.741  65.807  -5.657  1.00  0.00     0.000 C 
BRANCH   2   3
ATOM      3  C   UNL     1       3.169  67.037  -4.927  1.00  0.00     0.000 C 
BRANCH   3   4
ATOM      4  C   UNL     1       1.631  67.113  -4.875  1.00  0.00     0.000 C 
BRANCH   4   5
ATOM      5  C   UNL     1       1.085  68.488  -5.302  1.00  0.00     0.000 C 
BRANCH   5   6
ATOM      6  C   UNL     1       0.164  68.404  -6.530  1.00  0.00     0.000 C 
BRANCH   6   7
ATOM      7  C   UNL     1      -1.249  68.942  -6.255  1.00  0.00     0.000 C 
BRANCH   7   8
ATOM      8  C   UNL     1      -1.194  70.252  -5.458  1.00  0.00     0.000 C 
BRANCH   8   9
ATOM      9  C   UNL     1      -2.601  70.837  -5.265  1.00  0.00     0.000 C 
BRANCH   9  10
ATOM     10  C   UNL     1      -3.713  69.865  -5.688  1.00  0.00     0.000 C 
BRANCH  10  11
ATOM     11  C   UNL     1      -4.340  70.233  -7.041  1.00  0.00     0.000 C 
BRANCH  11  12
ATOM     12  C   UNL     1      -5.843  70.509  -6.892  1.00  0.00     0.006 C 
BRANCH  12  13
ATOM     13  C   UNL     1      -6.124  71.741  -6.022  1.00  0.00     0.053 C 
BRANCH  13  14
ATOM     14  C   UNL     1      -5.473  72.972  -6.578  1.00  0.00     0.041 C 
ATOM     15  O   UNL     1      -4.688  73.651  -5.864  1.00  0.00    -0.550 OA
ATOM     16  O   UNL     1      -5.709  73.352  -7.892  1.00  0.00    -0.550 OA
ENDBRANCH  13  14
ENDBRANCH  12  13
ENDBRANCH  11  12
ENDBRANCH  10  11
ENDBRANCH   9  10
ENDBRANCH   8   9
ENDBRANCH   7   8
ENDBRANCH   6   7
ENDBRANCH   5   6
ENDBRANCH   4   5
ENDBRANCH   3   4
ENDBRANCH   2   3
ENDBRANCH   1   2
BRANCH   1  17
ATOM     17  C   UNL     1       2.595  64.353  -7.383  1.00  0.00     0.000 C 
BRANCH  17  18
ATOM     18  C   UNL     1       3.303  63.023  -7.677  1.00  0.00     0.000 C 
BRANCH  18  19
ATOM     19  C   UNL     1       2.325  61.843  -7.826  1.00  0.00     0.000 C 
BRANCH  19  20
ATOM     20  C   UNL     1       2.097  61.018  -6.542  1.00  0.00     0.000 C 
BRANCH  20  21
ATOM     21  C   UNL     1       1.683  59.551  -6.769  1.00  0.00     0.000 C 
BRANCH  21  22
ATOM     22  C   UNL     1       0.313  59.163  -6.179  1.00  0.00    -0.000 C 
BRANCH  22  23
ATOM     23  C   UNL     1      -0.767  58.875  -7.245  1.00  0.00    -0.000 C 
BRANCH  23  24
ATOM     24  C   UNL     1      -2.140  59.460  -6.870  1.00  0.00    -0.000 C 
BRANCH  24  25
ATOM     25  C   UNL     1      -2.674  58.912  -5.537  1.00  0.00    -0.000 C 
BRANCH  25  26
ATOM     26  C   UNL     1      -2.708  59.981  -4.430  1.00  0.00    -0.000 C 
BRANCH  26  27
ATOM     27  C   UNL     1      -1.326  60.602  -4.169  1.00  0.00    -0.000 C 
BRANCH  27  28
ATOM     28  C   UNL     1      -0.923  60.542  -2.685  1.00  0.00    -0.000 C 
BRANCH  28  29
ATOM     29  C   UNL     1       0.579  60.786  -2.472  1.00  0.00    -0.003 C 
ATOM     30  C   UNL     1       1.059  60.368  -1.081  1.00  0.00     0.004 C 
ENDBRANCH  28  29
ENDBRANCH  27  28
ENDBRANCH  26  27
ENDBRANCH  25  26
ENDBRANCH  24  25
ENDBRANCH  23  24
ENDBRANCH  22  23
ENDBRANCH  21  22
ENDBRANCH  20  21
ENDBRANCH  19  20
ENDBRANCH  18  19
ENDBRANCH  17  18
ENDBRANCH   1  17
TORSDOF 26
ENDMDL
MODEL 5
REMARK VINA RESULT:     6.333      2.537      8.314
REMARK INTER + INTRA:          13.834
REMARK INTER:                  14.642
REMARK INTRA:                  -0.808
REMARK UNBOUND:                -2.125
REMARK SMILES CCCCCCCCCCCCCCCCCCCCCCCCCCCC(=O)[O-]
REMARK SMILES IDX 15 1 16 2 17 3 18 4 19 5 20 6 21 7 22 8 23 9 24 10 25 11
REMARK SMILES IDX 26 12 27 13 28 14 29 15 30 16 14 17 13 18 12 19 11 20 10 21
REMARK SMILES IDX 9 22 8 23 7 24 6 25 5 26 4 27 3 28 2 29 1 30
REMARK H PARENT
REMARK Flexibility Score: inf
ROOT
ATOM      1  C   UNL     1       0.427  59.535  -5.943  1.00  0.00     0.000 C 
ENDROOT
BRANCH   1   2
ATOM      2  C   UNL     1       0.975  58.876  -7.218  1.00  0.00     0.000 C 
BRANCH   2   3
ATOM      3  C   UNL     1       2.346  59.434  -7.643  1.00  0.00     0.000 C 
BRANCH   3   4
ATOM      4  C   UNL     1       2.645  60.871  -7.173  1.00  0.00     0.000 C 
BRANCH   4   5
ATOM      5  C   UNL     1       3.594  61.627  -8.121  1.00  0.00     0.000 C 
BRANCH   5   6
ATOM      6  C   UNL     1       3.350  63.145  -8.117  1.00  0.00     0.000 C 
BRANCH   6   7
ATOM      7  C   UNL     1       2.382  63.591  -7.010  1.00  0.00     0.000 C 
BRANCH   7   8
ATOM      8  C   UNL     1       2.048  65.082  -7.140  1.00  0.00     0.000 C 
BRANCH   8   9
ATOM      9  C   UNL     1       2.458  65.850  -5.874  1.00  0.00     0.000 C 
BRANCH   9  10
ATOM     10  C   UNL     1       1.974  67.308  -5.879  1.00  0.00     0.000 C 
BRANCH  10  11
ATOM     11  C   UNL     1       0.611  67.478  -6.565  1.00  0.00     0.000 C 
BRANCH  11  12
ATOM     12  C   UNL     1       0.019  68.865  -6.273  1.00  0.00     0.006 C 
BRANCH  12  13
ATOM     13  C   UNL     1      -1.373  68.780  -5.635  1.00  0.00     0.053 C 
BRANCH  13  14
ATOM     14  C   UNL     1      -1.714  70.028  -4.877  1.00  0.00     0.041 C 
ATOM     15  O   UNL     1      -2.252  71.001  -5.469  1.00  0.00    -0.550 OA
ATOM     16  O   UNL     1      -1.467  70.104  -3.513  1.00  0.00    -0.550 OA
ENDBRANCH  13  14
ENDBRANCH  12  13
ENDBRANCH  11  12
ENDBRANCH  10  11
ENDBRANCH   9  10
ENDBRANCH   8   9
ENDBRANCH   7   8
ENDBRANCH   6   7
ENDBRANCH   5   6
ENDBRANCH   4   5
ENDBRANCH   3   4
ENDBRANCH   2   3
ENDBRANCH   1   2
BRANCH   1  17
ATOM     17  C   UNL     1      -1.051  59.185  -5.733  1.00  0.00     0.000 C 
BRANCH  17  18
ATOM     18  C   UNL     1      -1.737  58.875  -7.071  1.00  0.00     0.000 C 
BRANCH  18  19
ATOM     19  C   UNL     1      -3.271  58.988  -6.998  1.00  0.00     0.000 C 
BRANCH  19  20
ATOM     20  C   UNL     1      -3.802  60.315  -6.419  1.00  0.00     0.000 C 
BRANCH  20  21
ATOM     21  C   UNL     1      -3.895  60.372  -4.882  1.00  0.00     0.000 C 
BRANCH  21  22
ATOM     22  C   UNL     1      -4.336  59.058  -4.208  1.00  0.00    -0.000 C 
BRANCH  22  23
ATOM     23  C   UNL     1      -4.057  59.009  -2.690  1.00  0.00    -0.000 C 
BRANCH  23  24
ATOM     24  C   UNL     1      -2.564  59.182  -2.357  1.00  0.00    -0.000 C 
BRANCH  24  25
ATOM     25  C   UNL     1      -1.967  60.465  -2.955  1.00  0.00    -0.000 C 
BRANCH  25  26
ATOM     26  C   UNL     1      -0.617  60.841  -2.317  1.00  0.00    -0.000 C 
BRANCH  26  27
ATOM     27  C   UNL     1      -0.392  60.148  -0.963  1.00  0.00    -0.000 C 
BRANCH  27  28
ATOM     28  C   UNL     1       1.016  60.402  -0.397  1.00  0.00    -0.000 C 
BRANCH  28  29
ATOM     29  C   UNL     1       1.419  61.883  -0.465  1.00  0.00    -0.003 C 
ATOM     30  C   UNL     1       1.799  62.459   0.901  1.00  0.00     0.004 C 
ENDBRANCH  28  29
ENDBRANCH  27  28
ENDBRANCH  26  27
ENDBRANCH  25  26
ENDBRANCH  24  25
ENDBRANCH  23  24
ENDBRANCH  22  23
ENDBRANCH  21  22
ENDBRANCH  20  21
ENDBRANCH  19  20
ENDBRANCH  18  19
ENDBRANCH  17  18
ENDBRANCH   1  17
TORSDOF 26
ENDMDL
MODEL 6
REMARK VINA RESULT:     6.380      2.553      4.026
REMARK INTER + INTRA:          13.954
REMARK INTER:                  14.015
REMARK INTRA:                  -0.061
REMARK UNBOUND:                -2.125
REMARK SMILES CCCCCCCCCCCCCCCCCCCCCCCCCCCC(=O)[O-]
REMARK SMILES IDX 15 1 16 2 17 3 18 4 19 5 20 6 21 7 22 8 23 9 24 10 25 11
REMARK SMILES IDX 26 12 27 13 28 14 29 15 30 16 14 17 13 18 12 19 11 20 10 21
REMARK SMILES IDX 9 22 8 23 7 24 6 25 5 26 4 27 3 28 2 29 1 30
REMARK H PARENT
REMARK Flexibility Score: inf
ROOT
ATOM      1  C   UNL     1      -2.819  58.941  -7.288  1.00  0.00     0.000 C 
ENDROOT
BRANCH   1   2
ATOM      2  C   UNL     1      -3.653  60.043  -7.957  1.00  0.00     0.000 C 
BRANCH   2   3
ATOM      3  C   UNL     1      -4.912  60.419  -7.152  1.00  0.00     0.000 C 
BRANCH   3   4
ATOM      4  C   UNL     1      -5.513  59.282  -6.304  1.00  0.00     0.000 C 
BRANCH   4   5
ATOM      5  C   UNL     1      -4.709  59.001  -5.022  1.00  0.00     0.000 C 
BRANCH   5   6
ATOM      6  C   UNL     1      -4.394  60.280  -4.228  1.00  0.00     0.000 C 
BRANCH   6   7
ATOM      7  C   UNL     1      -3.262  61.108  -4.856  1.00  0.00     0.000 C 
BRANCH   7   8
ATOM      8  C   UNL     1      -2.213  61.492  -3.805  1.00  0.00     0.000 C 
BRANCH   8   9
ATOM      9  C   UNL     1      -1.269  60.315  -3.516  1.00  0.00     0.000 C 
BRANCH   9  10
ATOM     10  C   UNL     1       0.208  60.664  -3.754  1.00  0.00     0.000 C 
BRANCH  10  11
ATOM     11  C   UNL     1       0.983  60.888  -2.447  1.00  0.00     0.000 C 
BRANCH  11  12
ATOM     12  C   UNL     1       0.072  60.681  -1.228  1.00  0.00     0.006 C 
BRANCH  12  13
ATOM     13  C   UNL     1       0.808  60.926   0.095  1.00  0.00     0.053 C 
BRANCH  13  14
ATOM     14  C   UNL     1       1.144  62.374   0.284  1.00  0.00     0.041 C 
ATOM     15  O   UNL     1       2.044  62.716   1.096  1.00  0.00    -0.550 OA
ATOM     16  O   UNL     1       0.486  63.345  -0.460  1.00  0.00    -0.550 OA
ENDBRANCH  13  14
ENDBRANCH  12  13
ENDBRANCH  11  12
ENDBRANCH  10  11
ENDBRANCH   9  10
ENDBRANCH   8   9
ENDBRANCH   7   8
ENDBRANCH   6   7
ENDBRANCH   5   6
ENDBRANCH   4   5
ENDBRANCH   3   4
ENDBRANCH   2   3
ENDBRANCH   1   2
BRANCH   1  17
ATOM     17  C   UNL     1      -1.368  58.969  -7.782  1.00  0.00     0.000 C 
BRANCH  17  18
ATOM     18  C   UNL     1      -0.386  58.915  -6.603  1.00  0.00     0.000 C 
BRANCH  18  19
ATOM     19  C   UNL     1       1.050  59.302  -7.001  1.00  0.00     0.000 C 
BRANCH  19  20
ATOM     20  C   UNL     1       2.133  58.954  -5.959  1.00  0.00     0.000 C 
BRANCH  20  21
ATOM     21  C   UNL     1       3.586  59.157  -6.428  1.00  0.00     0.000 C 
BRANCH  21  22
ATOM     22  C   UNL     1       3.742  59.549  -7.911  1.00  0.00    -0.000 C 
BRANCH  22  23
ATOM     23  C   UNL     1       4.334  60.959  -8.125  1.00  0.00    -0.000 C 
BRANCH  23  24
ATOM     24  C   UNL     1       3.325  62.079  -7.815  1.00  0.00    -0.000 C 
BRANCH  24  25
ATOM     25  C   UNL     1       2.792  62.015  -6.375  1.00  0.00    -0.000 C 
BRANCH  25  26
ATOM     26  C   UNL     1       2.184  63.351  -5.912  1.00  0.00    -0.000 C 
BRANCH  26  27
ATOM     27  C   UNL     1       2.930  64.568  -6.483  1.00  0.00    -0.000 C 
BRANCH  27  28
ATOM     28  C   UNL     1       2.552  65.879  -5.771  1.00  0.00    -0.000 C 
BRANCH  28  29
ATOM     29  C   UNL     1       3.667  66.388  -4.844  1.00  0.00    -0.003 C 
ATOM     30  C   UNL     1       3.563  67.887  -4.555  1.00  0.00     0.004 C 
ENDBRANCH  28  29
ENDBRANCH  27  28
ENDBRANCH  26  27
ENDBRANCH  25  26
ENDBRANCH  24  25
ENDBRANCH  23  24
ENDBRANCH  22  23
ENDBRANCH  21  22
ENDBRANCH  20  21
ENDBRANCH  19  20
ENDBRANCH  18  19
ENDBRANCH  17  18
ENDBRANCH   1  17
TORSDOF 26
ENDMDL
