MODEL 1
REMARK VINA RESULT:    -3.585      0.000      0.000
REMARK INTER + INTRA:         -11.819
REMARK INTER:                  -7.777
REMARK INTRA:                  -4.042
REMARK UNBOUND:                -4.042
REMARK SMILES CCCCCCCCCCCCCCCCCCCCCC(=O)[O-]
REMARK SMILES IDX 12 1 11 2 10 3 9 4 8 5 7 6 6 7 5 8 4 9 3 10 2 11 1 12 13 13
REMARK SMILES IDX 14 14 15 15 16 16 17 17 18 18 19 19 20 20 21 21 22 22 23 23
REMARK SMILES IDX 24 24
REMARK H PARENT
REMARK Flexibility Score: inf
ROOT
ATOM      1  C   UNL     1     -21.302   3.794  20.301  1.00  0.00     0.000 C 
ENDROOT
BRANCH   1   2
ATOM      2  C   UNL     1     -21.290   2.324  20.745  1.00  0.00     0.000 C 
BRANCH   2   3
ATOM      3  C   UNL     1     -22.718   1.761  20.820  1.00  0.00     0.000 C 
BRANCH   3   4
ATOM      4  C   UNL     1     -22.835   0.569  21.782  1.00  0.00    -0.000 C 
BRANCH   4   5
ATOM      5  C   UNL     1     -24.211   0.484  22.459  1.00  0.00    -0.000 C 
BRANCH   5   6
ATOM      6  C   UNL     1     -25.017   1.768  22.227  1.00  0.00    -0.000 C 
BRANCH   6   7
ATOM      7  C   UNL     1     -25.350   2.457  23.558  1.00  0.00    -0.000 C 
BRANCH   7   8
ATOM      8  C   UNL     1     -24.771   3.879  23.658  1.00  0.00    -0.000 C 
BRANCH   8   9
ATOM      9  C   UNL     1     -23.595   4.034  24.644  1.00  0.00    -0.000 C 
BRANCH   9  10
ATOM     10  C   UNL     1     -22.210   3.664  24.076  1.00  0.00    -0.000 C 
BRANCH  10  11
ATOM     11  C   UNL     1     -21.526   2.471  24.766  1.00  0.00    -0.003 C 
ATOM     12  C   UNL     1     -22.488   1.645  25.618  1.00  0.00     0.004 C 
ENDBRANCH  10  11
ENDBRANCH   9  10
ENDBRANCH   8   9
ENDBRANCH   7   8
ENDBRANCH   6   7
ENDBRANCH   5   6
ENDBRANCH   4   5
ENDBRANCH   3   4
ENDBRANCH   2   3
ENDBRANCH   1   2
BRANCH   1  13
ATOM     13  C   UNL     1     -22.686   4.445  20.457  1.00  0.00     0.000 C 
BRANCH  13  14
ATOM     14  C   UNL     1     -22.630   5.774  21.231  1.00  0.00     0.000 C 
BRANCH  14  15
ATOM     15  C   UNL     1     -23.922   6.599  21.098  1.00  0.00     0.000 C 
BRANCH  15  16
ATOM     16  C   UNL     1     -23.753   7.976  20.427  1.00  0.00     0.000 C 
BRANCH  16  17
ATOM     17  C   UNL     1     -22.286   8.309  20.105  1.00  0.00     0.000 C 
BRANCH  17  18
ATOM     18  C   UNL     1     -22.025   8.471  18.595  1.00  0.00     0.000 C 
BRANCH  18  19
ATOM     19  C   UNL     1     -22.496   7.297  17.717  1.00  0.00     0.000 C 
BRANCH  19  20
ATOM     20  C   UNL     1     -21.394   6.258  17.460  1.00  0.00     0.006 C 
BRANCH  20  21
ATOM     21  C   UNL     1     -20.011   6.917  17.453  1.00  0.00     0.053 C 
BRANCH  21  22
ATOM     22  C   UNL     1     -19.109   6.253  18.444  1.00  0.00     0.041 C 
ATOM     23  O   UNL     1     -19.169   6.563  19.663  1.00  0.00    -0.550 OA
ATOM     24  O   UNL     1     -18.235   5.255  18.030  1.00  0.00    -0.550 OA
ENDBRANCH  21  22
ENDBRANCH  20  21
ENDBRANCH  19  20
ENDBRANCH  18  19
ENDBRANCH  17  18
ENDBRANCH  16  17
ENDBRANCH  15  16
ENDBRANCH  14  15
ENDBRANCH  13  14
ENDBRANCH   1  13
TORSDOF 20
ENDMDL
MODEL 2
REMARK VINA RESULT:    -3.571      2.778      7.315
REMARK INTER + INTRA:         -11.788
REMARK INTER:                  -8.339
REMARK INTRA:                  -3.449
REMARK UNBOUND:                -4.042
REMARK SMILES CCCCCCCCCCCCCCCCCCCCCC(=O)[O-]
REMARK SMILES IDX 12 1 11 2 10 3 9 4 8 5 7 6 6 7 5 8 4 9 3 10 2 11 1 12 13 13
REMARK SMILES IDX 14 14 15 15 16 16 17 17 18 18 19 19 20 20 21 21 22 22 23 23
REMARK SMILES IDX 24 24
REMARK H PARENT
REMARK Flexibility Score: inf
ROOT
ATOM      1  C   UNL     1     -23.912   6.884  21.094  1.00  0.00     0.000 C 
ENDROOT
BRANCH   1   2
ATOM      2  C   UNL     1     -22.906   7.986  20.732  1.00  0.00     0.000 C 
BRANCH   2   3
ATOM      3  C   UNL     1     -23.113   8.465  19.286  1.00  0.00     0.000 C 
BRANCH   3   4
ATOM      4  C   UNL     1     -22.006   7.980  18.337  1.00  0.00    -0.000 C 
BRANCH   4   5
ATOM      5  C   UNL     1     -22.501   6.924  17.337  1.00  0.00    -0.000 C 
BRANCH   5   6
ATOM      6  C   UNL     1     -21.324   6.160  16.718  1.00  0.00    -0.000 C 
BRANCH   6   7
ATOM      7  C   UNL     1     -20.314   7.126  16.083  1.00  0.00    -0.000 C 
BRANCH   7   8
ATOM      8  C   UNL     1     -18.854   6.688  16.289  1.00  0.00    -0.000 C 
BRANCH   8   9
ATOM      9  C   UNL     1     -18.534   6.133  17.692  1.00  0.00    -0.000 C 
BRANCH   9  10
ATOM     10  C   UNL     1     -18.460   7.188  18.814  1.00  0.00    -0.000 C 
BRANCH  10  11
ATOM     11  C   UNL     1     -18.462   6.615  20.242  1.00  0.00    -0.003 C 
ATOM     12  C   UNL     1     -19.332   7.422  21.205  1.00  0.00     0.004 C 
ENDBRANCH  10  11
ENDBRANCH   9  10
ENDBRANCH   8   9
ENDBRANCH   7   8
ENDBRANCH   6   7
ENDBRANCH   5   6
ENDBRANCH   4   5
ENDBRANCH   3   4
ENDBRANCH   2   3
ENDBRANCH   1   2
BRANCH   1  13
ATOM     13  C   UNL     1     -23.228   5.550  21.434  1.00  0.00     0.000 C 
BRANCH  13  14
ATOM     14  C   UNL     1     -22.893   4.721  20.183  1.00  0.00     0.000 C 
BRANCH  14  15
ATOM     15  C   UNL     1     -21.382   4.498  19.999  1.00  0.00     0.000 C 
BRANCH  15  16
ATOM     16  C   UNL     1     -20.736   3.523  21.002  1.00  0.00     0.000 C 
BRANCH  16  17
ATOM     17  C   UNL     1     -20.225   2.233  20.339  1.00  0.00     0.000 C 
BRANCH  17  18
ATOM     18  C   UNL     1     -21.048   0.990  20.729  1.00  0.00     0.000 C 
BRANCH  18  19
ATOM     19  C   UNL     1     -22.148   1.233  21.778  1.00  0.00     0.000 C 
BRANCH  19  20
ATOM     20  C   UNL     1     -23.564   0.985  21.234  1.00  0.00     0.006 C 
BRANCH  20  21
ATOM     21  C   UNL     1     -24.575   1.935  21.883  1.00  0.00     0.053 C 
BRANCH  21  22
ATOM     22  C   UNL     1     -24.437   1.907  23.373  1.00  0.00     0.041 C 
ATOM     23  O   UNL     1     -24.103   2.948  23.998  1.00  0.00    -0.550 OA
ATOM     24  O   UNL     1     -24.724   0.744  24.076  1.00  0.00    -0.550 OA
ENDBRANCH  21  22
ENDBRANCH  20  21
ENDBRANCH  19  20
ENDBRANCH  18  19
ENDBRANCH  17  18
ENDBRANCH  16  17
ENDBRANCH  15  16
ENDBRANCH  14  15
ENDBRANCH  13  14
ENDBRANCH   1  13
TORSDOF 20
ENDMDL
MODEL 3
REMARK VINA RESULT:    -3.543      2.508      6.546
REMARK INTER + INTRA:         -11.728
REMARK INTER:                  -7.974
REMARK INTRA:                  -3.754
REMARK UNBOUND:                -4.042
REMARK SMILES CCCCCCCCCCCCCCCCCCCCCC(=O)[O-]
REMARK SMILES IDX 12 1 11 2 10 3 9 4 8 5 7 6 6 7 5 8 4 9 3 10 2 11 1 12 13 13
REMARK SMILES IDX 14 14 15 15 16 16 17 17 18 18 19 19 20 20 21 21 22 22 23 23
REMARK SMILES IDX 24 24
REMARK H PARENT
REMARK Flexibility Score: inf
ROOT
ATOM      1  C   UNL     1     -21.889   8.149  18.123  1.00  0.00     0.000 C 
ENDROOT
BRANCH   1   2
ATOM      2  C   UNL     1     -22.535   6.897  17.512  1.00  0.00     0.000 C 
BRANCH   2   3
ATOM      3  C   UNL     1     -21.524   6.120  16.654  1.00  0.00     0.000 C 
BRANCH   3   4
ATOM      4  C   UNL     1     -20.375   7.006  16.147  1.00  0.00    -0.000 C 
BRANCH   4   5
ATOM      5  C   UNL     1     -19.030   6.265  16.100  1.00  0.00    -0.000 C 
BRANCH   5   6
ATOM      6  C   UNL     1     -18.065   6.814  17.158  1.00  0.00    -0.000 C 
BRANCH   6   7
ATOM      7  C   UNL     1     -18.105   5.961  18.435  1.00  0.00    -0.000 C 
BRANCH   7   8
ATOM      8  C   UNL     1     -18.808   6.670  19.606  1.00  0.00    -0.000 C 
BRANCH   8   9
ATOM      9  C   UNL     1     -19.798   5.791  20.398  1.00  0.00    -0.000 C 
BRANCH   9  10
ATOM     10  C   UNL     1     -20.397   4.607  19.612  1.00  0.00    -0.000 C 
BRANCH  10  11
ATOM     11  C   UNL     1     -20.003   3.217  20.140  1.00  0.00    -0.003 C 
ATOM     12  C   UNL     1     -19.432   3.258  21.556  1.00  0.00     0.004 C 
ENDBRANCH  10  11
ENDBRANCH   9  10
ENDBRANCH   8   9
ENDBRANCH   7   8
ENDBRANCH   6   7
ENDBRANCH   5   6
ENDBRANCH   4   5
ENDBRANCH   3   4
ENDBRANCH   2   3
ENDBRANCH   1   2
BRANCH   1  13
ATOM     13  C   UNL     1     -22.752   8.775  19.231  1.00  0.00     0.000 C 
BRANCH  13  14
ATOM     14  C   UNL     1     -22.648   8.014  20.564  1.00  0.00     0.000 C 
BRANCH  14  15
ATOM     15  C   UNL     1     -23.860   7.105  20.830  1.00  0.00     0.000 C 
BRANCH  15  16
ATOM     16  C   UNL     1     -23.528   5.616  21.045  1.00  0.00     0.000 C 
BRANCH  16  17
ATOM     17  C   UNL     1     -22.846   5.343  22.397  1.00  0.00     0.000 C 
BRANCH  17  18
ATOM     18  C   UNL     1     -22.866   3.854  22.789  1.00  0.00     0.000 C 
BRANCH  18  19
ATOM     19  C   UNL     1     -24.049   3.042  22.232  1.00  0.00     0.000 C 
BRANCH  19  20
ATOM     20  C   UNL     1     -23.627   2.016  21.169  1.00  0.00     0.006 C 
BRANCH  20  21
ATOM     21  C   UNL     1     -22.566   1.059  21.723  1.00  0.00     0.053 C 
BRANCH  21  22
ATOM     22  C   UNL     1     -22.290  -0.038  20.744  1.00  0.00     0.041 C 
ATOM     23  O   UNL     1     -23.242  -0.668  20.212  1.00  0.00    -0.550 OA
ATOM     24  O   UNL     1     -20.981  -0.334  20.383  1.00  0.00    -0.550 OA
ENDBRANCH  21  22
ENDBRANCH  20  21
ENDBRANCH  19  20
ENDBRANCH  18  19
ENDBRANCH  17  18
ENDBRANCH  16  17
ENDBRANCH  15  16
ENDBRANCH  14  15
ENDBRANCH  13  14
ENDBRANCH   1  13
TORSDOF 20
ENDMDL
MODEL 4
REMARK VINA RESULT:    -3.511      2.594      5.898
REMARK INTER + INTRA:         -11.657
REMARK INTER:                  -8.686
REMARK INTRA:                  -2.971
REMARK UNBOUND:                -4.042
REMARK SMILES CCCCCCCCCCCCCCCCCCCCCC(=O)[O-]
REMARK SMILES IDX 12 1 11 2 10 3 9 4 8 5 7 6 6 7 5 8 4 9 3 10 2 11 1 12 13 13
REMARK SMILES IDX 14 14 15 15 16 16 17 17 18 18 19 19 20 20 21 21 22 22 23 23
REMARK SMILES IDX 24 24
REMARK H PARENT
REMARK Flexibility Score: inf
ROOT
ATOM      1  C   UNL     1     -20.482   6.909  16.118  1.00  0.00     0.000 C 
ENDROOT
BRANCH   1   2
ATOM      2  C   UNL     1     -21.594   6.025  16.701  1.00  0.00     0.000 C 
BRANCH   2   3
ATOM      3  C   UNL     1     -22.275   6.714  17.895  1.00  0.00     0.000 C 
BRANCH   3   4
ATOM      4  C   UNL     1     -21.796   8.160  18.095  1.00  0.00    -0.000 C 
BRANCH   4   5
ATOM      5  C   UNL     1     -22.333   8.790  19.389  1.00  0.00    -0.000 C 
BRANCH   5   6
ATOM      6  C   UNL     1     -22.655   7.713  20.432  1.00  0.00    -0.000 C 
BRANCH   6   7
ATOM      7  C   UNL     1     -24.142   7.741  20.812  1.00  0.00    -0.000 C 
BRANCH   7   8
ATOM      8  C   UNL     1     -24.594   6.475  21.560  1.00  0.00    -0.000 C 
BRANCH   8   9
ATOM      9  C   UNL     1     -23.498   5.404  21.747  1.00  0.00    -0.000 C 
BRANCH   9  10
ATOM     10  C   UNL     1     -23.629   4.547  23.022  1.00  0.00    -0.000 C 
BRANCH  10  11
ATOM     11  C   UNL     1     -25.074   4.214  23.431  1.00  0.00    -0.003 C 
ATOM     12  C   UNL     1     -25.235   2.777  23.928  1.00  0.00     0.004 C 
ENDBRANCH  10  11
ENDBRANCH   9  10
ENDBRANCH   8   9
ENDBRANCH   7   8
ENDBRANCH   6   7
ENDBRANCH   5   6
ENDBRANCH   4   5
ENDBRANCH   3   4
ENDBRANCH   2   3
ENDBRANCH   1   2
BRANCH   1  13
ATOM     13  C   UNL     1     -19.140   6.169  16.003  1.00  0.00     0.000 C 
BRANCH  13  14
ATOM     14  C   UNL     1     -18.102   6.663  17.024  1.00  0.00     0.000 C 
BRANCH  14  15
ATOM     15  C   UNL     1     -18.148   5.885  18.350  1.00  0.00     0.000 C 
BRANCH  15  16
ATOM     16  C   UNL     1     -18.773   6.646  19.535  1.00  0.00     0.000 C 
BRANCH  16  17
ATOM     17  C   UNL     1     -19.624   5.744  20.445  1.00  0.00     0.000 C 
BRANCH  17  18
ATOM     18  C   UNL     1     -19.901   4.359  19.829  1.00  0.00     0.000 C 
BRANCH  18  19
ATOM     19  C   UNL     1     -21.163   3.648  20.350  1.00  0.00     0.000 C 
BRANCH  19  20
ATOM     20  C   UNL     1     -21.021   2.119  20.382  1.00  0.00     0.006 C 
BRANCH  20  21
ATOM     21  C   UNL     1     -22.329   1.457  20.829  1.00  0.00     0.053 C 
BRANCH  21  22
ATOM     22  C   UNL     1     -22.250  -0.027  20.656  1.00  0.00     0.041 C 
ATOM     23  O   UNL     1     -21.140  -0.616  20.738  1.00  0.00    -0.550 OA
ATOM     24  O   UNL     1     -23.409  -0.766  20.452  1.00  0.00    -0.550 OA
ENDBRANCH  21  22
ENDBRANCH  20  21
ENDBRANCH  19  20
ENDBRANCH  18  19
ENDBRANCH  17  18
ENDBRANCH  16  17
ENDBRANCH  15  16
ENDBRANCH  14  15
ENDBRANCH  13  14
ENDBRANCH   1  13
TORSDOF 20
ENDMDL
MODEL 5
REMARK VINA RESULT:    -3.479      1.612      3.373
REMARK INTER + INTRA:         -11.588
REMARK INTER:                  -8.618
REMARK INTRA:                  -2.970
REMARK UNBOUND:                -4.042
REMARK SMILES CCCCCCCCCCCCCCCCCCCCCC(=O)[O-]
REMARK SMILES IDX 12 1 11 2 10 3 9 4 8 5 7 6 6 7 5 8 4 9 3 10 2 11 1 12 13 13
REMARK SMILES IDX 14 14 15 15 16 16 17 17 18 18 19 19 20 20 21 21 22 22 23 23
REMARK SMILES IDX 24 24
REMARK H PARENT
REMARK Flexibility Score: inf
ROOT
ATOM      1  C   UNL     1     -20.923   6.049  21.311  1.00  0.00     0.000 C 
ENDROOT
BRANCH   1   2
ATOM      2  C   UNL     1     -21.268   4.917  20.332  1.00  0.00     0.000 C 
BRANCH   2   3
ATOM      3  C   UNL     1     -22.735   4.487  20.486  1.00  0.00     0.000 C 
BRANCH   3   4
ATOM      4  C   UNL     1     -23.457   5.238  21.615  1.00  0.00    -0.000 C 
BRANCH   4   5
ATOM      5  C   UNL     1     -24.108   4.293  22.637  1.00  0.00    -0.000 C 
BRANCH   5   6
ATOM      6  C   UNL     1     -23.500   2.888  22.550  1.00  0.00    -0.000 C 
BRANCH   6   7
ATOM      7  C   UNL     1     -24.483   1.903  21.900  1.00  0.00    -0.000 C 
BRANCH   7   8
ATOM      8  C   UNL     1     -24.594   0.574  22.667  1.00  0.00    -0.000 C 
BRANCH   8   9
ATOM      9  C   UNL     1     -23.844  -0.612  22.025  1.00  0.00    -0.000 C 
BRANCH   9  10
ATOM     10  C   UNL     1     -23.231  -0.328  20.640  1.00  0.00    -0.000 C 
BRANCH  10  11
ATOM     11  C   UNL     1     -21.695  -0.393  20.587  1.00  0.00    -0.003 C 
ATOM     12  C   UNL     1     -21.042   0.989  20.558  1.00  0.00     0.004 C 
ENDBRANCH  10  11
ENDBRANCH   9  10
ENDBRANCH   8   9
ENDBRANCH   7   8
ENDBRANCH   6   7
ENDBRANCH   5   6
ENDBRANCH   4   5
ENDBRANCH   3   4
ENDBRANCH   2   3
ENDBRANCH   1   2
BRANCH   1  13
ATOM     13  C   UNL     1     -20.633   7.378  20.596  1.00  0.00     0.000 C 
BRANCH  13  14
ATOM     14  C   UNL     1     -21.783   8.390  20.738  1.00  0.00     0.000 C 
BRANCH  14  15
ATOM     15  C   UNL     1     -22.675   8.462  19.486  1.00  0.00     0.000 C 
BRANCH  15  16
ATOM     16  C   UNL     1     -21.953   8.199  18.151  1.00  0.00     0.000 C 
BRANCH  16  17
ATOM     17  C   UNL     1     -22.442   6.921  17.448  1.00  0.00     0.000 C 
BRANCH  17  18
ATOM     18  C   UNL     1     -21.308   6.153  16.742  1.00  0.00     0.000 C 
BRANCH  18  19
ATOM     19  C   UNL     1     -20.284   7.029  15.998  1.00  0.00     0.000 C 
BRANCH  19  20
ATOM     20  C   UNL     1     -18.828   6.668  16.333  1.00  0.00     0.006 C 
BRANCH  20  21
ATOM     21  C   UNL     1     -18.746   5.894  17.652  1.00  0.00     0.053 C 
BRANCH  21  22
ATOM     22  C   UNL     1     -17.527   6.297  18.421  1.00  0.00     0.041 C 
ATOM     23  O   UNL     1     -17.478   6.122  19.667  1.00  0.00    -0.550 OA
ATOM     24  O   UNL     1     -16.428   6.823  17.754  1.00  0.00    -0.550 OA
ENDBRANCH  21  22
ENDBRANCH  20  21
ENDBRANCH  19  20
ENDBRANCH  18  19
ENDBRANCH  17  18
ENDBRANCH  16  17
ENDBRANCH  15  16
ENDBRANCH  14  15
ENDBRANCH  13  14
ENDBRANCH   1  13
TORSDOF 20
ENDMDL
MODEL 6
REMARK VINA RESULT:    -3.472      1.585      4.187
REMARK INTER + INTRA:         -11.573
REMARK INTER:                  -8.395
REMARK INTRA:                  -3.177
REMARK UNBOUND:                -4.042
REMARK SMILES CCCCCCCCCCCCCCCCCCCCCC(=O)[O-]
REMARK SMILES IDX 12 1 11 2 10 3 9 4 8 5 7 6 6 7 5 8 4 9 3 10 2 11 1 12 13 13
REMARK SMILES IDX 14 14 15 15 16 16 17 17 18 18 19 19 20 20 21 21 22 22 23 23
REMARK SMILES IDX 24 24
REMARK H PARENT
REMARK Flexibility Score: inf
ROOT
ATOM      1  C   UNL     1     -22.339   7.978  19.790  1.00  0.00     0.000 C 
ENDROOT
BRANCH   1   2
ATOM      2  C   UNL     1     -23.797   8.056  20.267  1.00  0.00     0.000 C 
BRANCH   2   3
ATOM      3  C   UNL     1     -24.126   6.897  21.221  1.00  0.00     0.000 C 
BRANCH   3   4
ATOM      4  C   UNL     1     -23.000   5.854  21.296  1.00  0.00    -0.000 C 
BRANCH   4   5
ATOM      5  C   UNL     1     -23.512   4.414  21.142  1.00  0.00    -0.000 C 
BRANCH   5   6
ATOM      6  C   UNL     1     -22.370   3.463  20.764  1.00  0.00    -0.000 C 
BRANCH   6   7
ATOM      7  C   UNL     1     -22.582   2.074  21.383  1.00  0.00    -0.000 C 
BRANCH   7   8
ATOM      8  C   UNL     1     -24.067   1.683  21.481  1.00  0.00    -0.000 C 
BRANCH   8   9
ATOM      9  C   UNL     1     -24.490   1.071  22.832  1.00  0.00    -0.000 C 
BRANCH   9  10
ATOM     10  C   UNL     1     -25.436   1.944  23.680  1.00  0.00    -0.000 C 
BRANCH  10  11
ATOM     11  C   UNL     1     -24.774   3.169  24.333  1.00  0.00    -0.003 C 
ATOM     12  C   UNL     1     -25.607   4.443  24.190  1.00  0.00     0.004 C 
ENDBRANCH  10  11
ENDBRANCH   9  10
ENDBRANCH   8   9
ENDBRANCH   7   8
ENDBRANCH   6   7
ENDBRANCH   5   6
ENDBRANCH   4   5
ENDBRANCH   3   4
ENDBRANCH   2   3
ENDBRANCH   1   2
BRANCH   1  13
ATOM     13  C   UNL     1     -22.225   7.874  18.261  1.00  0.00     0.000 C 
BRANCH  13  14
ATOM     14  C   UNL     1     -22.490   6.450  17.743  1.00  0.00     0.000 C 
BRANCH  14  15
ATOM     15  C   UNL     1     -21.573   6.057  16.571  1.00  0.00     0.000 C 
BRANCH  15  16
ATOM     16  C   UNL     1     -20.426   7.043  16.279  1.00  0.00     0.000 C 
BRANCH  16  17
ATOM     17  C   UNL     1     -19.067   6.345  16.102  1.00  0.00     0.000 C 
BRANCH  17  18
ATOM     18  C   UNL     1     -18.082   6.648  17.248  1.00  0.00     0.000 C 
BRANCH  18  19
ATOM     19  C   UNL     1     -18.682   7.404  18.448  1.00  0.00     0.000 C 
BRANCH  19  20
ATOM     20  C   UNL     1     -18.655   6.585  19.748  1.00  0.00     0.006 C 
BRANCH  20  21
ATOM     21  C   UNL     1     -19.439   5.279  19.588  1.00  0.00     0.053 C 
BRANCH  21  22
ATOM     22  C   UNL     1     -18.533   4.101  19.761  1.00  0.00     0.041 C 
ATOM     23  O   UNL     1     -17.307   4.273  19.990  1.00  0.00    -0.550 OA
ATOM     24  O   UNL     1     -19.052   2.813  19.719  1.00  0.00    -0.550 OA
ENDBRANCH  21  22
ENDBRANCH  20  21
ENDBRANCH  19  20
ENDBRANCH  18  19
ENDBRANCH  17  18
ENDBRANCH  16  17
ENDBRANCH  15  16
ENDBRANCH  14  15
ENDBRANCH  13  14
ENDBRANCH   1  13
TORSDOF 20
ENDMDL
MODEL 7
REMARK VINA RESULT:    -3.425      1.375      3.026
REMARK INTER + INTRA:         -11.470
REMARK INTER:                  -8.293
REMARK INTRA:                  -3.177
REMARK UNBOUND:                -4.042
REMARK SMILES CCCCCCCCCCCCCCCCCCCCCC(=O)[O-]
REMARK SMILES IDX 12 1 11 2 10 3 9 4 8 5 7 6 6 7 5 8 4 9 3 10 2 11 1 12 13 13
REMARK SMILES IDX 14 14 15 15 16 16 17 17 18 18 19 19 20 20 21 21 22 22 23 23
REMARK SMILES IDX 24 24
REMARK H PARENT
REMARK Flexibility Score: inf
ROOT
ATOM      1  C   UNL     1     -23.205   5.639  19.793  1.00  0.00     0.000 C 
ENDROOT
BRANCH   1   2
ATOM      2  C   UNL     1     -22.373   4.370  20.025  1.00  0.00     0.000 C 
BRANCH   2   3
ATOM      3  C   UNL     1     -20.870   4.691  20.027  1.00  0.00     0.000 C 
BRANCH   3   4
ATOM      4  C   UNL     1     -19.994   3.429  20.071  1.00  0.00    -0.000 C 
BRANCH   4   5
ATOM      5  C   UNL     1     -20.277   2.552  21.300  1.00  0.00    -0.000 C 
BRANCH   5   6
ATOM      6  C   UNL     1     -20.893   1.209  20.886  1.00  0.00    -0.000 C 
BRANCH   6   7
ATOM      7  C   UNL     1     -22.080   0.846  21.790  1.00  0.00    -0.000 C 
BRANCH   7   8
ATOM      8  C   UNL     1     -23.440   1.038  21.097  1.00  0.00    -0.000 C 
BRANCH   8   9
ATOM      9  C   UNL     1     -24.367   2.077  21.761  1.00  0.00    -0.000 C 
BRANCH   9  10
ATOM     10  C   UNL     1     -24.157   2.270  23.276  1.00  0.00    -0.000 C 
BRANCH  10  11
ATOM     11  C   UNL     1     -23.935   3.727  23.717  1.00  0.00    -0.003 C 
ATOM     12  C   UNL     1     -22.458   4.114  23.773  1.00  0.00     0.004 C 
ENDBRANCH  10  11
ENDBRANCH   9  10
ENDBRANCH   8   9
ENDBRANCH   7   8
ENDBRANCH   6   7
ENDBRANCH   5   6
ENDBRANCH   4   5
ENDBRANCH   3   4
ENDBRANCH   2   3
ENDBRANCH   1   2
BRANCH   1  13
ATOM     13  C   UNL     1     -23.429   6.441  21.085  1.00  0.00     0.000 C 
BRANCH  13  14
ATOM     14  C   UNL     1     -23.509   7.957  20.835  1.00  0.00     0.000 C 
BRANCH  14  15
ATOM     15  C   UNL     1     -23.261   8.335  19.364  1.00  0.00     0.000 C 
BRANCH  15  16
ATOM     16  C   UNL     1     -21.901   9.002  19.081  1.00  0.00     0.000 C 
BRANCH  16  17
ATOM     17  C   UNL     1     -20.891   8.046  18.423  1.00  0.00     0.000 C 
BRANCH  17  18
ATOM     18  C   UNL     1     -21.458   7.337  17.179  1.00  0.00     0.000 C 
BRANCH  18  19
ATOM     19  C   UNL     1     -20.410   6.882  16.146  1.00  0.00     0.000 C 
BRANCH  19  20
ATOM     20  C   UNL     1     -18.965   7.048  16.643  1.00  0.00     0.006 C 
BRANCH  20  21
ATOM     21  C   UNL     1     -18.474   5.770  17.331  1.00  0.00     0.053 C 
BRANCH  21  22
ATOM     22  C   UNL     1     -17.313   6.071  18.225  1.00  0.00     0.041 C 
ATOM     23  O   UNL     1     -16.745   7.194  18.170  1.00  0.00    -0.550 OA
ATOM     24  O   UNL     1     -16.888   5.129  19.154  1.00  0.00    -0.550 OA
ENDBRANCH  21  22
ENDBRANCH  20  21
ENDBRANCH  19  20
ENDBRANCH  18  19
ENDBRANCH  17  18
ENDBRANCH  16  17
ENDBRANCH  15  16
ENDBRANCH  14  15
ENDBRANCH  13  14
ENDBRANCH   1  13
TORSDOF 20
ENDMDL
MODEL 8
REMARK VINA RESULT:    -3.421      2.856      6.328
REMARK INTER + INTRA:         -11.461
REMARK INTER:                  -7.533
REMARK INTRA:                  -3.928
REMARK UNBOUND:                -4.042
REMARK SMILES CCCCCCCCCCCCCCCCCCCCCC(=O)[O-]
REMARK SMILES IDX 12 1 11 2 10 3 9 4 8 5 7 6 6 7 5 8 4 9 3 10 2 11 1 12 13 13
REMARK SMILES IDX 14 14 15 15 16 16 17 17 18 18 19 19 20 20 21 21 22 22 23 23
REMARK SMILES IDX 24 24
REMARK H PARENT
REMARK Flexibility Score: inf
ROOT
ATOM      1  C   UNL     1     -21.313   6.027  17.155  1.00  0.00     0.000 C 
ENDROOT
BRANCH   1   2
ATOM      2  C   UNL     1     -20.531   6.614  15.970  1.00  0.00     0.000 C 
BRANCH   2   3
ATOM      3  C   UNL     1     -19.017   6.562  16.231  1.00  0.00     0.000 C 
BRANCH   3   4
ATOM      4  C   UNL     1     -18.680   6.236  17.694  1.00  0.00    -0.000 C 
BRANCH   4   5
ATOM      5  C   UNL     1     -18.079   7.433  18.447  1.00  0.00    -0.000 C 
BRANCH   5   6
ATOM      6  C   UNL     1     -18.707   7.578  19.838  1.00  0.00    -0.000 C 
BRANCH   6   7
ATOM      7  C   UNL     1     -19.269   6.236  20.331  1.00  0.00    -0.000 C 
BRANCH   7   8
ATOM      8  C   UNL     1     -18.310   5.497  21.281  1.00  0.00    -0.000 C 
BRANCH   8   9
ATOM      9  C   UNL     1     -17.976   4.049  20.870  1.00  0.00    -0.000 C 
BRANCH   9  10
ATOM     10  C   UNL     1     -16.565   3.842  20.283  1.00  0.00    -0.000 C 
BRANCH  10  11
ATOM     11  C   UNL     1     -15.587   5.005  20.526  1.00  0.00    -0.003 C 
ATOM     12  C   UNL     1     -15.101   5.653  19.230  1.00  0.00     0.004 C 
ENDBRANCH  10  11
ENDBRANCH   9  10
ENDBRANCH   8   9
ENDBRANCH   7   8
ENDBRANCH   6   7
ENDBRANCH   5   6
ENDBRANCH   4   5
ENDBRANCH   3   4
ENDBRANCH   2   3
ENDBRANCH   1   2
BRANCH   1  13
ATOM     13  C   UNL     1     -22.373   6.996  17.699  1.00  0.00     0.000 C 
BRANCH  13  14
ATOM     14  C   UNL     1     -21.784   8.365  18.082  1.00  0.00     0.000 C 
BRANCH  14  15
ATOM     15  C   UNL     1     -22.483   9.001  19.296  1.00  0.00     0.000 C 
BRANCH  15  16
ATOM     16  C   UNL     1     -22.557   8.109  20.550  1.00  0.00     0.000 C 
BRANCH  16  17
ATOM     17  C   UNL     1     -23.990   7.660  20.883  1.00  0.00     0.000 C 
BRANCH  17  18
ATOM     18  C   UNL     1     -24.056   6.221  21.428  1.00  0.00     0.000 C 
BRANCH  18  19
ATOM     19  C   UNL     1     -22.746   5.418  21.328  1.00  0.00     0.000 C 
BRANCH  19  20
ATOM     20  C   UNL     1     -22.765   4.374  20.201  1.00  0.00     0.006 C 
BRANCH  20  21
ATOM     21  C   UNL     1     -21.575   3.416  20.321  1.00  0.00     0.053 C 
BRANCH  21  22
ATOM     22  C   UNL     1     -22.032   2.073  20.797  1.00  0.00     0.041 C 
ATOM     23  O   UNL     1     -23.251   1.866  21.036  1.00  0.00    -0.550 OA
ATOM     24  O   UNL     1     -21.118   1.035  20.930  1.00  0.00    -0.550 OA
ENDBRANCH  21  22
ENDBRANCH  20  21
ENDBRANCH  19  20
ENDBRANCH  18  19
ENDBRANCH  17  18
ENDBRANCH  16  17
ENDBRANCH  15  16
ENDBRANCH  14  15
ENDBRANCH  13  14
ENDBRANCH   1  13
TORSDOF 20
ENDMDL
MODEL 9
REMARK VINA RESULT:    -3.411      3.163      7.211
REMARK INTER + INTRA:         -11.442
REMARK INTER:                  -8.376
REMARK INTRA:                  -3.066
REMARK UNBOUND:                -4.042
REMARK SMILES CCCCCCCCCCCCCCCCCCCCCC(=O)[O-]
REMARK SMILES IDX 12 1 11 2 10 3 9 4 8 5 7 6 6 7 5 8 4 9 3 10 2 11 1 12 13 13
REMARK SMILES IDX 14 14 15 15 16 16 17 17 18 18 19 19 20 20 21 21 22 22 23 23
REMARK SMILES IDX 24 24
REMARK H PARENT
REMARK Flexibility Score: inf
ROOT
ATOM      1  C   UNL     1     -21.953   7.784  20.467  1.00  0.00     0.000 C 
ENDROOT
BRANCH   1   2
ATOM      2  C   UNL     1     -21.472   8.412  19.150  1.00  0.00     0.000 C 
BRANCH   2   3
ATOM      3  C   UNL     1     -22.250   7.843  17.954  1.00  0.00     0.000 C 
BRANCH   3   4
ATOM      4  C   UNL     1     -21.958   6.354  17.712  1.00  0.00    -0.000 C 
BRANCH   4   5
ATOM      5  C   UNL     1     -21.385   6.080  16.313  1.00  0.00    -0.000 C 
BRANCH   5   6
ATOM      6  C   UNL     1     -20.159   6.960  16.040  1.00  0.00    -0.000 C 
BRANCH   6   7
ATOM      7  C   UNL     1     -18.867   6.256  16.480  1.00  0.00    -0.000 C 
BRANCH   7   8
ATOM      8  C   UNL     1     -18.211   6.918  17.704  1.00  0.00    -0.000 C 
BRANCH   8   9
ATOM      9  C   UNL     1     -17.870   5.954  18.859  1.00  0.00    -0.000 C 
BRANCH   9  10
ATOM     10  C   UNL     1     -18.977   5.780  19.917  1.00  0.00    -0.000 C 
BRANCH  10  11
ATOM     11  C   UNL     1     -19.799   4.486  19.785  1.00  0.00    -0.003 C 
ATOM     12  C   UNL     1     -18.933   3.226  19.803  1.00  0.00     0.004 C 
ENDBRANCH  10  11
ENDBRANCH   9  10
ENDBRANCH   8   9
ENDBRANCH   7   8
ENDBRANCH   6   7
ENDBRANCH   5   6
ENDBRANCH   4   5
ENDBRANCH   3   4
ENDBRANCH   2   3
ENDBRANCH   1   2
BRANCH   1  13
ATOM     13  C   UNL     1     -23.452   8.018  20.717  1.00  0.00     0.000 C 
BRANCH  13  14
ATOM     14  C   UNL     1     -24.185   6.739  21.156  1.00  0.00     0.000 C 
BRANCH  14  15
ATOM     15  C   UNL     1     -23.304   5.481  21.064  1.00  0.00     0.000 C 
BRANCH  15  16
ATOM     16  C   UNL     1     -23.103   4.724  22.390  1.00  0.00     0.000 C 
BRANCH  16  17
ATOM     17  C   UNL     1     -23.836   3.372  22.424  1.00  0.00     0.000 C 
BRANCH  17  18
ATOM     18  C   UNL     1     -23.464   2.457  21.242  1.00  0.00     0.000 C 
BRANCH  18  19
ATOM     19  C   UNL     1     -22.046   1.860  21.292  1.00  0.00     0.000 C 
BRANCH  19  20
ATOM     20  C   UNL     1     -21.973   0.434  20.726  1.00  0.00     0.006 C 
BRANCH  20  21
ATOM     21  C   UNL     1     -23.355  -0.228  20.731  1.00  0.00     0.053 C 
BRANCH  21  22
ATOM     22  C   UNL     1     -23.421  -1.293  21.779  1.00  0.00     0.041 C 
ATOM     23  O   UNL     1     -22.374  -1.895  22.138  1.00  0.00    -0.550 OA
ATOM     24  O   UNL     1     -24.631  -1.589  22.394  1.00  0.00    -0.550 OA
ENDBRANCH  21  22
ENDBRANCH  20  21
ENDBRANCH  19  20
ENDBRANCH  18  19
ENDBRANCH  17  18
ENDBRANCH  16  17
ENDBRANCH  15  16
ENDBRANCH  14  15
ENDBRANCH  13  14
ENDBRANCH   1  13
TORSDOF 20
ENDMDL
