MODEL 1
REMARK VINA RESULT:    -2.047      0.000      0.000
REMARK INTER + INTRA:          -6.300
REMARK INTER:                  -5.158
REMARK INTRA:                  -1.142
REMARK UNBOUND:                -1.142
REMARK SMILES CCCCCCCCCCCCCCCCCCCCCCCCCCCC(=O)[O-]
REMARK SMILES IDX 15 1 16 2 17 3 18 4 19 5 20 6 21 7 22 8 23 9 24 10 25 11
REMARK SMILES IDX 26 12 27 13 28 14 29 15 30 16 14 17 13 18 12 19 11 20 10 21
REMARK SMILES IDX 9 22 8 23 7 24 6 25 5 26 4 27 3 28 2 29 1 30
REMARK H PARENT
REMARK Flexibility Score: inf
ROOT
ATOM      1  C   UNL     1      16.790 -16.714  15.296  1.00  0.00     0.000 C 
ENDROOT
BRANCH   1   2
ATOM      2  C   UNL     1      17.776 -16.148  16.331  1.00  0.00     0.000 C 
BRANCH   2   3
ATOM      3  C   UNL     1      18.513 -17.252  17.110  1.00  0.00     0.000 C 
BRANCH   3   4
ATOM      4  C   UNL     1      19.514 -18.027  16.240  1.00  0.00     0.000 C 
BRANCH   4   5
ATOM      5  C   UNL     1      20.391 -17.101  15.379  1.00  0.00     0.000 C 
BRANCH   5   6
ATOM      6  C   UNL     1      21.150 -16.054  16.212  1.00  0.00     0.000 C 
BRANCH   6   7
ATOM      7  C   UNL     1      21.966 -15.026  15.400  1.00  0.00     0.000 C 
BRANCH   7   8
ATOM      8  C   UNL     1      21.981 -15.249  13.877  1.00  0.00     0.000 C 
BRANCH   8   9
ATOM      9  C   UNL     1      23.123 -16.168  13.416  1.00  0.00     0.000 C 
BRANCH   9  10
ATOM     10  C   UNL     1      22.637 -17.575  13.030  1.00  0.00     0.000 C 
BRANCH  10  11
ATOM     11  C   UNL     1      21.818 -17.613  11.723  1.00  0.00     0.000 C 
BRANCH  11  12
ATOM     12  C   UNL     1      20.330 -17.912  11.979  1.00  0.00     0.006 C 
BRANCH  12  13
ATOM     13  C   UNL     1      19.515 -17.958  10.680  1.00  0.00     0.053 C 
BRANCH  13  14
ATOM     14  C   UNL     1      18.702 -16.714  10.490  1.00  0.00     0.041 C 
ATOM     15  O   UNL     1      17.798 -16.674   9.614  1.00  0.00    -0.550 OA
ATOM     16  O   UNL     1      18.963 -15.587  11.258  1.00  0.00    -0.550 OA
ENDBRANCH  13  14
ENDBRANCH  12  13
ENDBRANCH  11  12
ENDBRANCH  10  11
ENDBRANCH   9  10
ENDBRANCH   8   9
ENDBRANCH   7   8
ENDBRANCH   6   7
ENDBRANCH   5   6
ENDBRANCH   4   5
ENDBRANCH   3   4
ENDBRANCH   2   3
ENDBRANCH   1   2
BRANCH   1  17
ATOM     17  C   UNL     1      16.037 -17.952  15.812  1.00  0.00     0.000 C 
BRANCH  17  18
ATOM     18  C   UNL     1      15.286 -17.683  17.125  1.00  0.00     0.000 C 
BRANCH  18  19
ATOM     19  C   UNL     1      13.934 -16.983  16.904  1.00  0.00     0.000 C 
BRANCH  19  20
ATOM     20  C   UNL     1      13.209 -17.465  15.634  1.00  0.00     0.000 C 
BRANCH  20  21
ATOM     21  C   UNL     1      11.837 -18.118  15.878  1.00  0.00     0.000 C 
BRANCH  21  22
ATOM     22  C   UNL     1      10.844 -17.184  16.585  1.00  0.00    -0.000 C 
BRANCH  22  23
ATOM     23  C   UNL     1       9.609 -17.956  17.063  1.00  0.00    -0.000 C 
BRANCH  23  24
ATOM     24  C   UNL     1       8.315 -17.238  16.651  1.00  0.00    -0.000 C 
BRANCH  24  25
ATOM     25  C   UNL     1       7.051 -18.069  16.932  1.00  0.00    -0.000 C 
BRANCH  25  26
ATOM     26  C   UNL     1       5.725 -17.388  16.549  1.00  0.00    -0.000 C 
BRANCH  26  27
ATOM     27  C   UNL     1       5.119 -17.947  15.251  1.00  0.00    -0.000 C 
BRANCH  27  28
ATOM     28  C   UNL     1       3.603 -17.699  15.156  1.00  0.00    -0.000 C 
BRANCH  28  29
ATOM     29  C   UNL     1       3.054 -16.937  16.373  1.00  0.00    -0.003 C 
ATOM     30  C   UNL     1       2.903 -15.450  16.068  1.00  0.00     0.004 C 
ENDBRANCH  28  29
ENDBRANCH  27  28
ENDBRANCH  26  27
ENDBRANCH  25  26
ENDBRANCH  24  25
ENDBRANCH  23  24
ENDBRANCH  22  23
ENDBRANCH  21  22
ENDBRANCH  20  21
ENDBRANCH  19  20
ENDBRANCH  18  19
ENDBRANCH  17  18
ENDBRANCH   1  17
TORSDOF 26
ENDMDL
