MODEL 1
REMARK VINA RESULT:    -0.860      0.000      0.000
REMARK INTER + INTRA:          -3.919
REMARK INTER:                  -2.269
REMARK INTRA:                  -1.650
REMARK UNBOUND:                -1.650
REMARK SMILES CCCCCCCCCCCCCCCCCCCCCCCCCCCCCC(=O)[O-]
REMARK SMILES IDX 16 1 17 2 18 3 19 4 20 5 21 6 22 7 23 8 24 9 25 10 26 11
REMARK SMILES IDX 27 12 28 13 29 14 30 15 31 16 32 17 15 18 14 19 13 20 12 21
REMARK SMILES IDX 11 22 10 23 9 24 8 25 7 26 6 27 5 28 4 29 3 30 2 31 1 32
REMARK H PARENT
REMARK Flexibility Score: inf
ROOT
ATOM      1  C   UNL     1       0.189 -22.927 -15.839  1.00  0.00     0.000 C 
ENDROOT
BRANCH   1   2
ATOM      2  C   UNL     1       1.235 -21.981 -16.470  1.00  0.00     0.000 C 
BRANCH   2   3
ATOM      3  C   UNL     1       2.231 -21.397 -15.448  1.00  0.00     0.000 C 
BRANCH   3   4
ATOM      4  C   UNL     1       3.587 -22.120 -15.380  1.00  0.00     0.000 C 
BRANCH   4   5
ATOM      5  C   UNL     1       3.859 -23.100 -16.538  1.00  0.00     0.000 C 
BRANCH   5   6
ATOM      6  C   UNL     1       5.244 -22.918 -17.195  1.00  0.00     0.000 C 
BRANCH   6   7
ATOM      7  C   UNL     1       6.128 -21.912 -16.435  1.00  0.00     0.000 C 
BRANCH   7   8
ATOM      8  C   UNL     1       7.562 -22.424 -16.225  1.00  0.00     0.000 C 
BRANCH   8   9
ATOM      9  C   UNL     1       8.514 -21.332 -15.714  1.00  0.00     0.000 C 
BRANCH   9  10
ATOM     10  C   UNL     1       9.789 -21.271 -16.564  1.00  0.00     0.000 C 
BRANCH  10  11
ATOM     11  C   UNL     1       9.826 -22.418 -17.586  1.00  0.00     0.000 C 
BRANCH  11  12
ATOM     12  C   UNL     1       9.758 -21.928 -19.044  1.00  0.00     0.000 C 
BRANCH  12  13
ATOM     13  C   UNL     1      11.083 -21.378 -19.603  1.00  0.00     0.006 C 
BRANCH  13  14
ATOM     14  C   UNL     1      10.935 -20.777 -21.006  1.00  0.00     0.053 C 
BRANCH  14  15
ATOM     15  C   UNL     1      10.073 -21.650 -21.862  1.00  0.00     0.041 C 
ATOM     16  O   UNL     1      10.554 -22.682 -22.402  1.00  0.00    -0.550 OA
ATOM     17  O   UNL     1       8.749 -21.302 -22.100  1.00  0.00    -0.550 OA
ENDBRANCH  14  15
ENDBRANCH  13  14
ENDBRANCH  12  13
ENDBRANCH  11  12
ENDBRANCH  10  11
ENDBRANCH   9  10
ENDBRANCH   8   9
ENDBRANCH   7   8
ENDBRANCH   6   7
ENDBRANCH   5   6
ENDBRANCH   4   5
ENDBRANCH   3   4
ENDBRANCH   2   3
ENDBRANCH   1   2
BRANCH   1  18
ATOM     18  C   UNL     1      -0.921 -22.166 -15.093  1.00  0.00     0.000 C 
BRANCH  18  19
ATOM     19  C   UNL     1      -1.817 -23.103 -14.255  1.00  0.00     0.000 C 
BRANCH  19  20
ATOM     20  C   UNL     1      -2.887 -22.374 -13.422  1.00  0.00     0.000 C 
BRANCH  20  21
ATOM     21  C   UNL     1      -4.218 -23.125 -13.262  1.00  0.00     0.000 C 
BRANCH  21  22
ATOM     22  C   UNL     1      -5.115 -23.030 -14.507  1.00  0.00     0.000 C 
BRANCH  22  23
ATOM     23  C   UNL     1      -4.310 -22.805 -15.799  1.00  0.00     0.000 C 
BRANCH  23  24
ATOM     24  C   UNL     1      -5.119 -22.115 -16.917  1.00  0.00    -0.000 C 
BRANCH  24  25
ATOM     25  C   UNL     1      -5.820 -20.834 -16.428  1.00  0.00    -0.000 C 
BRANCH  25  26
ATOM     26  C   UNL     1      -7.352 -20.928 -16.512  1.00  0.00    -0.000 C 
BRANCH  26  27
ATOM     27  C   UNL     1      -7.845 -22.376 -16.667  1.00  0.00    -0.000 C 
BRANCH  27  28
ATOM     28  C   UNL     1      -9.124 -22.661 -15.860  1.00  0.00    -0.000 C 
BRANCH  28  29
ATOM     29  C   UNL     1      -8.874 -22.869 -14.353  1.00  0.00    -0.000 C 
BRANCH  29  30
ATOM     30  C   UNL     1      -8.830 -21.536 -13.584  1.00  0.00    -0.000 C 
BRANCH  30  31
ATOM     31  C   UNL     1      -7.719 -21.502 -12.521  1.00  0.00    -0.003 C 
ATOM     32  C   UNL     1      -7.486 -22.865 -11.868  1.00  0.00     0.004 C 
ENDBRANCH  30  31
ENDBRANCH  29  30
ENDBRANCH  28  29
ENDBRANCH  27  28
ENDBRANCH  26  27
ENDBRANCH  25  26
ENDBRANCH  24  25
ENDBRANCH  23  24
ENDBRANCH  22  23
ENDBRANCH  21  22
ENDBRANCH  20  21
ENDBRANCH  19  20
ENDBRANCH  18  19
ENDBRANCH   1  18
TORSDOF 28
ENDMDL
MODEL 2
REMARK VINA RESULT:    -0.557      1.379      3.468
REMARK INTER + INTRA:          -3.118
REMARK INTER:                  -0.783
REMARK INTRA:                  -2.335
REMARK UNBOUND:                -1.650
REMARK SMILES CCCCCCCCCCCCCCCCCCCCCCCCCCCCCC(=O)[O-]
REMARK SMILES IDX 16 1 17 2 18 3 19 4 20 5 21 6 22 7 23 8 24 9 25 10 26 11
REMARK SMILES IDX 27 12 28 13 29 14 30 15 31 16 32 17 15 18 14 19 13 20 12 21
REMARK SMILES IDX 11 22 10 23 9 24 8 25 7 26 6 27 5 28 4 29 3 30 2 31 1 32
REMARK H PARENT
REMARK Flexibility Score: inf
ROOT
ATOM      1  C   UNL     1       5.100 -22.863 -16.487  1.00  0.00     0.000 C 
ENDROOT
BRANCH   1   2
ATOM      2  C   UNL     1       6.498 -22.219 -16.618  1.00  0.00     0.000 C 
BRANCH   2   3
ATOM      3  C   UNL     1       6.523 -20.985 -17.543  1.00  0.00     0.000 C 
BRANCH   3   4
ATOM      4  C   UNL     1       6.964 -19.677 -16.864  1.00  0.00     0.000 C 
BRANCH   4   5
ATOM      5  C   UNL     1       6.904 -19.692 -15.323  1.00  0.00     0.000 C 
BRANCH   5   6
ATOM      6  C   UNL     1       8.252 -19.365 -14.645  1.00  0.00     0.000 C 
BRANCH   6   7
ATOM      7  C   UNL     1       9.099 -20.623 -14.382  1.00  0.00     0.000 C 
BRANCH   7   8
ATOM      8  C   UNL     1      10.599 -20.386 -14.619  1.00  0.00     0.000 C 
BRANCH   8   9
ATOM      9  C   UNL     1      11.121 -21.096 -15.878  1.00  0.00     0.000 C 
BRANCH   9  10
ATOM     10  C   UNL     1      10.009 -21.907 -16.555  1.00  0.00     0.000 C 
BRANCH  10  11
ATOM     11  C   UNL     1      10.505 -22.534 -17.867  1.00  0.00     0.000 C 
BRANCH  11  12
ATOM     12  C   UNL     1      10.697 -21.501 -18.993  1.00  0.00     0.000 C 
BRANCH  12  13
ATOM     13  C   UNL     1       9.552 -21.446 -20.021  1.00  0.00     0.006 C 
BRANCH  13  14
ATOM     14  C   UNL     1       9.927 -22.079 -21.366  1.00  0.00     0.053 C 
BRANCH  14  15
ATOM     15  C   UNL     1       8.998 -21.612 -22.442  1.00  0.00     0.041 C 
ATOM     16  O   UNL     1       9.110 -22.057 -23.614  1.00  0.00    -0.550 OA
ATOM     17  O   UNL     1       8.033 -20.652 -22.160  1.00  0.00    -0.550 OA
ENDBRANCH  14  15
ENDBRANCH  13  14
ENDBRANCH  12  13
ENDBRANCH  11  12
ENDBRANCH  10  11
ENDBRANCH   9  10
ENDBRANCH   8   9
ENDBRANCH   7   8
ENDBRANCH   6   7
ENDBRANCH   5   6
ENDBRANCH   4   5
ENDBRANCH   3   4
ENDBRANCH   2   3
ENDBRANCH   1   2
BRANCH   1  18
ATOM     18  C   UNL     1       4.140 -22.018 -15.631  1.00  0.00     0.000 C 
BRANCH  18  19
ATOM     19  C   UNL     1       2.724 -22.630 -15.556  1.00  0.00     0.000 C 
BRANCH  19  20
ATOM     20  C   UNL     1       1.605 -21.691 -16.045  1.00  0.00     0.000 C 
BRANCH  20  21
ATOM     21  C   UNL     1       0.245 -22.364 -16.290  1.00  0.00     0.000 C 
BRANCH  21  22
ATOM     22  C   UNL     1      -0.819 -21.963 -15.256  1.00  0.00     0.000 C 
BRANCH  22  23
ATOM     23  C   UNL     1      -1.822 -23.094 -14.971  1.00  0.00     0.000 C 
BRANCH  23  24
ATOM     24  C   UNL     1      -3.212 -22.588 -14.531  1.00  0.00    -0.000 C 
BRANCH  24  25
ATOM     25  C   UNL     1      -3.952 -21.851 -15.663  1.00  0.00    -0.000 C 
BRANCH  25  26
ATOM     26  C   UNL     1      -5.394 -22.350 -15.851  1.00  0.00    -0.000 C 
BRANCH  26  27
ATOM     27  C   UNL     1      -6.057 -22.747 -14.522  1.00  0.00    -0.000 C 
BRANCH  27  28
ATOM     28  C   UNL     1      -7.594 -22.713 -14.588  1.00  0.00    -0.000 C 
BRANCH  28  29
ATOM     29  C   UNL     1      -8.160 -21.418 -15.206  1.00  0.00    -0.000 C 
BRANCH  29  30
ATOM     30  C   UNL     1      -9.123 -20.693 -14.248  1.00  0.00    -0.000 C 
BRANCH  30  31
ATOM     31  C   UNL     1      -8.429 -19.585 -13.439  1.00  0.00    -0.003 C 
ATOM     32  C   UNL     1      -8.887 -19.545 -11.981  1.00  0.00     0.004 C 
ENDBRANCH  30  31
ENDBRANCH  29  30
ENDBRANCH  28  29
ENDBRANCH  27  28
ENDBRANCH  26  27
ENDBRANCH  25  26
ENDBRANCH  24  25
ENDBRANCH  23  24
ENDBRANCH  22  23
ENDBRANCH  21  22
ENDBRANCH  20  21
ENDBRANCH  19  20
ENDBRANCH  18  19
ENDBRANCH   1  18
TORSDOF 28
ENDMDL
MODEL 3
REMARK VINA RESULT:    -0.262      4.982     14.854
REMARK INTER + INTRA:          -2.341
REMARK INTER:                  -1.078
REMARK INTRA:                  -1.263
REMARK UNBOUND:                -1.650
REMARK SMILES CCCCCCCCCCCCCCCCCCCCCCCCCCCCCC(=O)[O-]
REMARK SMILES IDX 16 1 17 2 18 3 19 4 20 5 21 6 22 7 23 8 24 9 25 10 26 11
REMARK SMILES IDX 27 12 28 13 29 14 30 15 31 16 32 17 15 18 14 19 13 20 12 21
REMARK SMILES IDX 11 22 10 23 9 24 8 25 7 26 6 27 5 28 4 29 3 30 2 31 1 32
REMARK H PARENT
REMARK Flexibility Score: inf
ROOT
ATOM      1  C   UNL     1       1.100 -21.722 -15.612  1.00  0.00     0.000 C 
ENDROOT
BRANCH   1   2
ATOM      2  C   UNL     1       0.201 -21.285 -16.789  1.00  0.00     0.000 C 
BRANCH   2   3
ATOM      3  C   UNL     1      -1.299 -21.555 -16.551  1.00  0.00     0.000 C 
BRANCH   3   4
ATOM      4  C   UNL     1      -1.712 -21.650 -15.072  1.00  0.00     0.000 C 
BRANCH   4   5
ATOM      5  C   UNL     1      -2.001 -23.079 -14.569  1.00  0.00     0.000 C 
BRANCH   5   6
ATOM      6  C   UNL     1      -2.868 -23.125 -13.293  1.00  0.00     0.000 C 
BRANCH   6   7
ATOM      7  C   UNL     1      -4.341 -22.774 -13.569  1.00  0.00     0.000 C 
BRANCH   7   8
ATOM      8  C   UNL     1      -4.540 -22.082 -14.926  1.00  0.00     0.000 C 
BRANCH   8   9
ATOM      9  C   UNL     1      -5.862 -22.474 -15.605  1.00  0.00     0.000 C 
BRANCH   9  10
ATOM     10  C   UNL     1      -6.583 -21.241 -16.162  1.00  0.00     0.000 C 
BRANCH  10  11
ATOM     11  C   UNL     1      -7.932 -21.628 -16.789  1.00  0.00     0.000 C 
BRANCH  11  12
ATOM     12  C   UNL     1      -8.896 -22.283 -15.784  1.00  0.00     0.000 C 
BRANCH  12  13
ATOM     13  C   UNL     1      -8.895 -21.651 -14.380  1.00  0.00     0.006 C 
BRANCH  13  14
ATOM     14  C   UNL     1      -8.443 -22.627 -13.287  1.00  0.00     0.053 C 
BRANCH  14  15
ATOM     15  C   UNL     1      -7.554 -21.935 -12.302  1.00  0.00     0.041 C 
ATOM     16  O   UNL     1      -7.161 -20.758 -12.521  1.00  0.00    -0.550 OA
ATOM     17  O   UNL     1      -7.124 -22.604 -11.163  1.00  0.00    -0.550 OA
ENDBRANCH  14  15
ENDBRANCH  13  14
ENDBRANCH  12  13
ENDBRANCH  11  12
ENDBRANCH  10  11
ENDBRANCH   9  10
ENDBRANCH   8   9
ENDBRANCH   7   8
ENDBRANCH   6   7
ENDBRANCH   5   6
ENDBRANCH   4   5
ENDBRANCH   3   4
ENDBRANCH   2   3
ENDBRANCH   1   2
BRANCH   1  18
ATOM     18  C   UNL     1       1.730 -23.109 -15.834  1.00  0.00     0.000 C 
BRANCH  18  19
ATOM     19  C   UNL     1       3.273 -23.068 -15.793  1.00  0.00     0.000 C 
BRANCH  19  20
ATOM     20  C   UNL     1       3.881 -21.738 -16.275  1.00  0.00     0.000 C 
BRANCH  20  21
ATOM     21  C   UNL     1       5.417 -21.680 -16.272  1.00  0.00     0.000 C 
BRANCH  21  22
ATOM     22  C   UNL     1       5.968 -20.386 -15.652  1.00  0.00     0.000 C 
BRANCH  22  23
ATOM     23  C   UNL     1       7.464 -20.486 -15.307  1.00  0.00     0.000 C 
BRANCH  23  24
ATOM     24  C   UNL     1       8.131 -21.778 -15.825  1.00  0.00    -0.000 C 
BRANCH  24  25
ATOM     25  C   UNL     1       9.043 -21.521 -17.038  1.00  0.00    -0.000 C 
BRANCH  25  26
ATOM     26  C   UNL     1      10.407 -22.219 -16.912  1.00  0.00    -0.000 C 
BRANCH  26  27
ATOM     27  C   UNL     1      10.812 -22.957 -18.198  1.00  0.00    -0.000 C 
BRANCH  27  28
ATOM     28  C   UNL     1      10.449 -22.178 -19.474  1.00  0.00    -0.000 C 
BRANCH  28  29
ATOM     29  C   UNL     1       9.487 -22.936 -20.412  1.00  0.00    -0.000 C 
BRANCH  29  30
ATOM     30  C   UNL     1       8.329 -22.046 -20.897  1.00  0.00    -0.000 C 
BRANCH  30  31
ATOM     31  C   UNL     1       8.147 -22.089 -22.423  1.00  0.00    -0.003 C 
ATOM     32  C   UNL     1       9.465 -22.301 -23.168  1.00  0.00     0.004 C 
ENDBRANCH  30  31
ENDBRANCH  29  30
ENDBRANCH  28  29
ENDBRANCH  27  28
ENDBRANCH  26  27
ENDBRANCH  25  26
ENDBRANCH  24  25
ENDBRANCH  23  24
ENDBRANCH  22  23
ENDBRANCH  21  22
ENDBRANCH  20  21
ENDBRANCH  19  20
ENDBRANCH  18  19
ENDBRANCH   1  18
TORSDOF 28
ENDMDL
MODEL 4
REMARK VINA RESULT:    -0.225      1.280      3.304
REMARK INTER + INTRA:          -2.243
REMARK INTER:                  -0.368
REMARK INTRA:                  -1.875
REMARK UNBOUND:                -1.650
REMARK SMILES CCCCCCCCCCCCCCCCCCCCCCCCCCCCCC(=O)[O-]
REMARK SMILES IDX 16 1 17 2 18 3 19 4 20 5 21 6 22 7 23 8 24 9 25 10 26 11
REMARK SMILES IDX 27 12 28 13 29 14 30 15 31 16 32 17 15 18 14 19 13 20 12 21
REMARK SMILES IDX 11 22 10 23 9 24 8 25 7 26 6 27 5 28 4 29 3 30 2 31 1 32
REMARK H PARENT
REMARK Flexibility Score: inf
ROOT
ATOM      1  C   UNL     1       4.058 -21.203 -15.492  1.00  0.00     0.000 C 
ENDROOT
BRANCH   1   2
ATOM      2  C   UNL     1       4.718 -22.534 -15.912  1.00  0.00     0.000 C 
BRANCH   2   3
ATOM      3  C   UNL     1       6.251 -22.441 -16.059  1.00  0.00     0.000 C 
BRANCH   3   4
ATOM      4  C   UNL     1       6.959 -21.638 -14.954  1.00  0.00     0.000 C 
BRANCH   4   5
ATOM      5  C   UNL     1       8.233 -20.896 -15.407  1.00  0.00     0.000 C 
BRANCH   5   6
ATOM      6  C   UNL     1       8.715 -21.293 -16.818  1.00  0.00     0.000 C 
BRANCH   6   7
ATOM      7  C   UNL     1      10.190 -20.925 -17.061  1.00  0.00     0.000 C 
BRANCH   7   8
ATOM      8  C   UNL     1      11.116 -22.151 -17.050  1.00  0.00     0.000 C 
BRANCH   8   9
ATOM      9  C   UNL     1      10.869 -23.092 -18.240  1.00  0.00     0.000 C 
BRANCH   9  10
ATOM     10  C   UNL     1      10.882 -22.321 -19.565  1.00  0.00     0.000 C 
BRANCH  10  11
ATOM     11  C   UNL     1      10.104 -23.080 -20.652  1.00  0.00     0.000 C 
BRANCH  11  12
ATOM     12  C   UNL     1       8.588 -23.123 -20.386  1.00  0.00     0.000 C 
BRANCH  12  13
ATOM     13  C   UNL     1       7.760 -22.114 -21.202  1.00  0.00     0.006 C 
BRANCH  13  14
ATOM     14  C   UNL     1       8.473 -21.647 -22.476  1.00  0.00     0.053 C 
BRANCH  14  15
ATOM     15  C   UNL     1       8.995 -20.255 -22.304  1.00  0.00     0.041 C 
ATOM     16  O   UNL     1       8.246 -19.266 -22.518  1.00  0.00    -0.550 OA
ATOM     17  O   UNL     1      10.322 -20.049 -21.949  1.00  0.00    -0.550 OA
ENDBRANCH  14  15
ENDBRANCH  13  14
ENDBRANCH  12  13
ENDBRANCH  11  12
ENDBRANCH  10  11
ENDBRANCH   9  10
ENDBRANCH   8   9
ENDBRANCH   7   8
ENDBRANCH   6   7
ENDBRANCH   5   6
ENDBRANCH   4   5
ENDBRANCH   3   4
ENDBRANCH   2   3
ENDBRANCH   1   2
BRANCH   1  18
ATOM     18  C   UNL     1       2.543 -21.343 -15.261  1.00  0.00     0.000 C 
BRANCH  18  19
ATOM     19  C   UNL     1       1.822 -21.998 -16.460  1.00  0.00     0.000 C 
BRANCH  19  20
ATOM     20  C   UNL     1       0.335 -22.308 -16.208  1.00  0.00     0.000 C 
BRANCH  20  21
ATOM     21  C   UNL     1      -0.135 -22.130 -14.755  1.00  0.00     0.000 C 
BRANCH  21  22
ATOM     22  C   UNL     1      -1.313 -23.047 -14.390  1.00  0.00     0.000 C 
BRANCH  22  23
ATOM     23  C   UNL     1      -2.624 -22.628 -15.079  1.00  0.00     0.000 C 
BRANCH  23  24
ATOM     24  C   UNL     1      -3.890 -23.111 -14.340  1.00  0.00    -0.000 C 
BRANCH  24  25
ATOM     25  C   UNL     1      -5.168 -22.428 -14.863  1.00  0.00    -0.000 C 
BRANCH  25  26
ATOM     26  C   UNL     1      -5.040 -21.974 -16.326  1.00  0.00    -0.000 C 
BRANCH  26  27
ATOM     27  C   UNL     1      -6.251 -21.153 -16.796  1.00  0.00    -0.000 C 
BRANCH  27  28
ATOM     28  C   UNL     1      -7.532 -21.996 -16.922  1.00  0.00    -0.000 C 
BRANCH  28  29
ATOM     29  C   UNL     1      -8.680 -21.521 -16.007  1.00  0.00    -0.000 C 
BRANCH  29  30
ATOM     30  C   UNL     1      -8.162 -20.724 -14.796  1.00  0.00    -0.000 C 
BRANCH  30  31
ATOM     31  C   UNL     1      -8.833 -21.147 -13.479  1.00  0.00    -0.003 C 
ATOM     32  C   UNL     1      -7.840 -21.259 -12.321  1.00  0.00     0.004 C 
ENDBRANCH  30  31
ENDBRANCH  29  30
ENDBRANCH  28  29
ENDBRANCH  27  28
ENDBRANCH  26  27
ENDBRANCH  25  26
ENDBRANCH  24  25
ENDBRANCH  23  24
ENDBRANCH  22  23
ENDBRANCH  21  22
ENDBRANCH  20  21
ENDBRANCH  19  20
ENDBRANCH  18  19
ENDBRANCH   1  18
TORSDOF 28
ENDMDL
MODEL 5
REMARK VINA RESULT:     0.404      1.637      4.347
REMARK INTER + INTRA:          -0.584
REMARK INTER:                   1.236
REMARK INTRA:                  -1.820
REMARK UNBOUND:                -1.650
REMARK SMILES CCCCCCCCCCCCCCCCCCCCCCCCCCCCCC(=O)[O-]
REMARK SMILES IDX 16 1 17 2 18 3 19 4 20 5 21 6 22 7 23 8 24 9 25 10 26 11
REMARK SMILES IDX 27 12 28 13 29 14 30 15 31 16 32 17 15 18 14 19 13 20 12 21
REMARK SMILES IDX 11 22 10 23 9 24 8 25 7 26 6 27 5 28 4 29 3 30 2 31 1 32
REMARK H PARENT
REMARK Flexibility Score: inf
ROOT
ATOM      1  C   UNL     1       5.659 -22.655 -17.239  1.00  0.00     0.000 C 
ENDROOT
BRANCH   1   2
ATOM      2  C   UNL     1       7.024 -21.948 -17.383  1.00  0.00     0.000 C 
BRANCH   2   3
ATOM      3  C   UNL     1       7.049 -20.530 -16.777  1.00  0.00     0.000 C 
BRANCH   3   4
ATOM      4  C   UNL     1       8.339 -20.173 -16.018  1.00  0.00     0.000 C 
BRANCH   4   5
ATOM      5  C   UNL     1       9.291 -21.359 -15.763  1.00  0.00     0.000 C 
BRANCH   5   6
ATOM      6  C   UNL     1      10.530 -21.370 -16.684  1.00  0.00     0.000 C 
BRANCH   6   7
ATOM      7  C   UNL     1      10.628 -22.656 -17.524  1.00  0.00     0.000 C 
BRANCH   7   8
ATOM      8  C   UNL     1      10.798 -22.371 -19.025  1.00  0.00     0.000 C 
BRANCH   8   9
ATOM      9  C   UNL     1       9.994 -21.148 -19.492  1.00  0.00     0.000 C 
BRANCH   9  10
ATOM     10  C   UNL     1      10.910 -20.095 -20.125  1.00  0.00     0.000 C 
BRANCH  10  11
ATOM     11  C   UNL     1      11.117 -20.373 -21.623  1.00  0.00     0.000 C 
BRANCH  11  12
ATOM     12  C   UNL     1      11.013 -21.868 -21.977  1.00  0.00     0.000 C 
BRANCH  12  13
ATOM     13  C   UNL     1       9.926 -22.213 -23.010  1.00  0.00     0.006 C 
BRANCH  13  14
ATOM     14  C   UNL     1       8.831 -23.125 -22.444  1.00  0.00     0.053 C 
BRANCH  14  15
ATOM     15  C   UNL     1       7.603 -22.332 -22.122  1.00  0.00     0.041 C 
ATOM     16  O   UNL     1       7.354 -21.268 -22.748  1.00  0.00    -0.550 OA
ATOM     17  O   UNL     1       6.756 -22.746 -21.102  1.00  0.00    -0.550 OA
ENDBRANCH  14  15
ENDBRANCH  13  14
ENDBRANCH  12  13
ENDBRANCH  11  12
ENDBRANCH  10  11
ENDBRANCH   9  10
ENDBRANCH   8   9
ENDBRANCH   7   8
ENDBRANCH   6   7
ENDBRANCH   5   6
ENDBRANCH   4   5
ENDBRANCH   3   4
ENDBRANCH   2   3
ENDBRANCH   1   2
BRANCH   1  18
ATOM     18  C   UNL     1       4.895 -22.213 -15.979  1.00  0.00     0.000 C 
BRANCH  18  19
ATOM     19  C   UNL     1       3.401 -22.601 -16.028  1.00  0.00     0.000 C 
BRANCH  19  20
ATOM     20  C   UNL     1       2.437 -21.427 -15.775  1.00  0.00     0.000 C 
BRANCH  20  21
ATOM     21  C   UNL     1       0.994 -21.648 -16.256  1.00  0.00     0.000 C 
BRANCH  21  22
ATOM     22  C   UNL     1       0.092 -22.276 -15.180  1.00  0.00     0.000 C 
BRANCH  22  23
ATOM     23  C   UNL     1      -1.072 -23.081 -15.782  1.00  0.00     0.000 C 
BRANCH  23  24
ATOM     24  C   UNL     1      -2.369 -23.007 -14.949  1.00  0.00    -0.000 C 
BRANCH  24  25
ATOM     25  C   UNL     1      -3.509 -22.298 -15.703  1.00  0.00    -0.000 C 
BRANCH  25  26
ATOM     26  C   UNL     1      -4.859 -22.413 -14.977  1.00  0.00    -0.000 C 
BRANCH  26  27
ATOM     27  C   UNL     1      -4.729 -22.222 -13.457  1.00  0.00    -0.000 C 
BRANCH  27  28
ATOM     28  C   UNL     1      -5.814 -22.974 -12.666  1.00  0.00    -0.000 C 
BRANCH  28  29
ATOM     29  C   UNL     1      -7.228 -22.838 -13.267  1.00  0.00    -0.000 C 
BRANCH  29  30
ATOM     30  C   UNL     1      -8.328 -23.116 -12.228  1.00  0.00    -0.000 C 
BRANCH  30  31
ATOM     31  C   UNL     1      -8.844 -21.834 -11.554  1.00  0.00    -0.003 C 
ATOM     32  C   UNL     1      -8.202 -20.569 -12.123  1.00  0.00     0.004 C 
ENDBRANCH  30  31
ENDBRANCH  29  30
ENDBRANCH  28  29
ENDBRANCH  27  28
ENDBRANCH  26  27
ENDBRANCH  25  26
ENDBRANCH  24  25
ENDBRANCH  23  24
ENDBRANCH  22  23
ENDBRANCH  21  22
ENDBRANCH  20  21
ENDBRANCH  19  20
ENDBRANCH  18  19
ENDBRANCH   1  18
TORSDOF 28
ENDMDL
MODEL 6
REMARK VINA RESULT:     0.804      1.315      4.784
REMARK INTER + INTRA:           0.469
REMARK INTER:                  -0.729
REMARK INTRA:                   1.198
REMARK UNBOUND:                -1.650
REMARK SMILES CCCCCCCCCCCCCCCCCCCCCCCCCCCCCC(=O)[O-]
REMARK SMILES IDX 16 1 17 2 18 3 19 4 20 5 21 6 22 7 23 8 24 9 25 10 26 11
REMARK SMILES IDX 27 12 28 13 29 14 30 15 31 16 32 17 15 18 14 19 13 20 12 21
REMARK SMILES IDX 11 22 10 23 9 24 8 25 7 26 6 27 5 28 4 29 3 30 2 31 1 32
REMARK H PARENT
REMARK Flexibility Score: inf
ROOT
ATOM      1  C   UNL     1       5.822 -19.563 -15.804  1.00  0.00     0.000 C 
ENDROOT
BRANCH   1   2
ATOM      2  C   UNL     1       7.101 -19.831 -14.981  1.00  0.00     0.000 C 
BRANCH   2   3
ATOM      3  C   UNL     1       8.166 -20.644 -15.746  1.00  0.00     0.000 C 
BRANCH   3   4
ATOM      4  C   UNL     1       7.794 -22.114 -16.005  1.00  0.00     0.000 C 
BRANCH   4   5
ATOM      5  C   UNL     1       8.714 -22.850 -17.001  1.00  0.00     0.000 C 
BRANCH   5   6
ATOM      6  C   UNL     1      10.217 -22.603 -16.757  1.00  0.00     0.000 C 
BRANCH   6   7
ATOM      7  C   UNL     1      11.095 -23.125 -17.909  1.00  0.00     0.000 C 
BRANCH   7   8
ATOM      8  C   UNL     1      10.368 -23.102 -19.263  1.00  0.00     0.000 C 
BRANCH   8   9
ATOM      9  C   UNL     1      11.104 -22.259 -20.317  1.00  0.00     0.000 C 
BRANCH   9  10
ATOM     10  C   UNL     1      10.579 -20.819 -20.336  1.00  0.00     0.000 C 
BRANCH  10  11
ATOM     11  C   UNL     1      10.433 -20.304 -21.777  1.00  0.00     0.000 C 
BRANCH  11  12
ATOM     12  C   UNL     1      11.092 -21.230 -22.816  1.00  0.00     0.000 C 
BRANCH  12  13
ATOM     13  C   UNL     1      10.124 -22.186 -23.536  1.00  0.00     0.006 C 
BRANCH  13  14
ATOM     14  C   UNL     1       9.152 -22.884 -22.579  1.00  0.00     0.053 C 
BRANCH  14  15
ATOM     15  C   UNL     1       8.087 -21.934 -22.129  1.00  0.00     0.041 C 
ATOM     16  O   UNL     1       7.268 -22.277 -21.236  1.00  0.00    -0.550 OA
ATOM     17  O   UNL     1       7.972 -20.685 -22.725  1.00  0.00    -0.550 OA
ENDBRANCH  14  15
ENDBRANCH  13  14
ENDBRANCH  12  13
ENDBRANCH  11  12
ENDBRANCH  10  11
ENDBRANCH   9  10
ENDBRANCH   8   9
ENDBRANCH   7   8
ENDBRANCH   6   7
ENDBRANCH   5   6
ENDBRANCH   4   5
ENDBRANCH   3   4
ENDBRANCH   2   3
ENDBRANCH   1   2
BRANCH   1  18
ATOM     18  C   UNL     1       5.264 -20.839 -16.459  1.00  0.00     0.000 C 
BRANCH  18  19
ATOM     19  C   UNL     1       4.160 -21.504 -15.607  1.00  0.00     0.000 C 
BRANCH  19  20
ATOM     20  C   UNL     1       3.699 -22.875 -16.133  1.00  0.00     0.000 C 
BRANCH  20  21
ATOM     21  C   UNL     1       2.180 -23.109 -16.113  1.00  0.00     0.000 C 
BRANCH  21  22
ATOM     22  C   UNL     1       1.372 -21.803 -16.049  1.00  0.00     0.000 C 
BRANCH  22  23
ATOM     23  C   UNL     1      -0.145 -22.041 -16.139  1.00  0.00     0.000 C 
BRANCH  23  24
ATOM     24  C   UNL     1      -0.851 -22.045 -14.767  1.00  0.00    -0.000 C 
BRANCH  24  25
ATOM     25  C   UNL     1      -2.111 -22.931 -14.759  1.00  0.00    -0.000 C 
BRANCH  25  26
ATOM     26  C   UNL     1      -3.011 -22.689 -15.982  1.00  0.00    -0.000 C 
BRANCH  26  27
ATOM     27  C   UNL     1      -4.507 -22.759 -15.636  1.00  0.00    -0.000 C 
BRANCH  27  28
ATOM     28  C   UNL     1      -5.335 -21.671 -16.342  1.00  0.00    -0.000 C 
BRANCH  28  29
ATOM     29  C   UNL     1      -6.786 -22.096 -16.648  1.00  0.00    -0.000 C 
BRANCH  29  30
ATOM     30  C   UNL     1      -7.810 -21.069 -16.133  1.00  0.00    -0.000 C 
BRANCH  30  31
ATOM     31  C   UNL     1      -8.864 -21.697 -15.206  1.00  0.00    -0.003 C 
ATOM     32  C   UNL     1      -8.258 -22.257 -13.919  1.00  0.00     0.004 C 
ENDBRANCH  30  31
ENDBRANCH  29  30
ENDBRANCH  28  29
ENDBRANCH  27  28
ENDBRANCH  26  27
ENDBRANCH  25  26
ENDBRANCH  24  25
ENDBRANCH  23  24
ENDBRANCH  22  23
ENDBRANCH  21  22
ENDBRANCH  20  21
ENDBRANCH  19  20
ENDBRANCH  18  19
ENDBRANCH   1  18
TORSDOF 28
ENDMDL
MODEL 7
REMARK VINA RESULT:     0.849      4.526     14.907
REMARK INTER + INTRA:           0.589
REMARK INTER:                  -0.986
REMARK INTRA:                   1.576
REMARK UNBOUND:                -1.650
REMARK SMILES CCCCCCCCCCCCCCCCCCCCCCCCCCCCCC(=O)[O-]
REMARK SMILES IDX 16 1 17 2 18 3 19 4 20 5 21 6 22 7 23 8 24 9 25 10 26 11
REMARK SMILES IDX 27 12 28 13 29 14 30 15 31 16 32 17 15 18 14 19 13 20 12 21
REMARK SMILES IDX 11 22 10 23 9 24 8 25 7 26 6 27 5 28 4 29 3 30 2 31 1 32
REMARK H PARENT
REMARK Flexibility Score: inf
ROOT
ATOM      1  C   UNL     1       3.502 -21.181 -16.005  1.00  0.00     0.000 C 
ENDROOT
BRANCH   1   2
ATOM      2  C   UNL     1       2.468 -21.715 -14.989  1.00  0.00     0.000 C 
BRANCH   2   3
ATOM      3  C   UNL     1       1.485 -22.739 -15.593  1.00  0.00     0.000 C 
BRANCH   3   4
ATOM      4  C   UNL     1       0.208 -22.132 -16.198  1.00  0.00     0.000 C 
BRANCH   4   5
ATOM      5  C   UNL     1      -1.110 -22.662 -15.600  1.00  0.00     0.000 C 
BRANCH   5   6
ATOM      6  C   UNL     1      -1.342 -22.240 -14.134  1.00  0.00     0.000 C 
BRANCH   6   7
ATOM      7  C   UNL     1      -2.651 -22.807 -13.557  1.00  0.00     0.000 C 
BRANCH   7   8
ATOM      8  C   UNL     1      -3.689 -23.124 -14.645  1.00  0.00     0.000 C 
BRANCH   8   9
ATOM      9  C   UNL     1      -5.132 -22.874 -14.181  1.00  0.00     0.000 C 
BRANCH   9  10
ATOM     10  C   UNL     1      -5.170 -22.429 -12.714  1.00  0.00     0.000 C 
BRANCH  10  11
ATOM     11  C   UNL     1      -6.593 -22.538 -12.142  1.00  0.00     0.000 C 
BRANCH  11  12
ATOM     12  C   UNL     1      -7.686 -22.386 -13.215  1.00  0.00     0.000 C 
BRANCH  12  13
ATOM     13  C   UNL     1      -7.219 -22.658 -14.657  1.00  0.00     0.006 C 
BRANCH  13  14
ATOM     14  C   UNL     1      -8.172 -22.083 -15.712  1.00  0.00     0.053 C 
BRANCH  14  15
ATOM     15  C   UNL     1      -7.408 -21.321 -16.748  1.00  0.00     0.041 C 
ATOM     16  O   UNL     1      -7.444 -21.681 -17.954  1.00  0.00    -0.550 OA
ATOM     17  O   UNL     1      -6.622 -20.237 -16.376  1.00  0.00    -0.550 OA
ENDBRANCH  14  15
ENDBRANCH  13  14
ENDBRANCH  12  13
ENDBRANCH  11  12
ENDBRANCH  10  11
ENDBRANCH   9  10
ENDBRANCH   8   9
ENDBRANCH   7   8
ENDBRANCH   6   7
ENDBRANCH   5   6
ENDBRANCH   4   5
ENDBRANCH   3   4
ENDBRANCH   2   3
ENDBRANCH   1   2
BRANCH   1  18
ATOM     18  C   UNL     1       4.790 -20.681 -15.328  1.00  0.00     0.000 C 
BRANCH  18  19
ATOM     19  C   UNL     1       6.027 -21.515 -15.728  1.00  0.00     0.000 C 
BRANCH  19  20
ATOM     20  C   UNL     1       7.276 -21.242 -14.869  1.00  0.00     0.000 C 
BRANCH  20  21
ATOM     21  C   UNL     1       8.562 -21.940 -15.341  1.00  0.00     0.000 C 
BRANCH  21  22
ATOM     22  C   UNL     1       8.395 -22.659 -16.688  1.00  0.00     0.000 C 
BRANCH  22  23
ATOM     23  C   UNL     1       9.713 -22.750 -17.477  1.00  0.00     0.000 C 
BRANCH  23  24
ATOM     24  C   UNL     1       9.794 -21.762 -18.659  1.00  0.00    -0.000 C 
BRANCH  24  25
ATOM     25  C   UNL     1      10.243 -22.446 -19.964  1.00  0.00    -0.000 C 
BRANCH  25  26
ATOM     26  C   UNL     1       9.080 -23.125 -20.706  1.00  0.00    -0.000 C 
BRANCH  26  27
ATOM     27  C   UNL     1       8.153 -22.114 -21.399  1.00  0.00    -0.000 C 
BRANCH  27  28
ATOM     28  C   UNL     1       8.430 -21.985 -22.907  1.00  0.00    -0.000 C 
BRANCH  28  29
ATOM     29  C   UNL     1       9.545 -22.922 -23.415  1.00  0.00    -0.000 C 
BRANCH  29  30
ATOM     30  C   UNL     1      10.948 -22.396 -23.063  1.00  0.00    -0.000 C 
BRANCH  30  31
ATOM     31  C   UNL     1      11.078 -20.877 -23.265  1.00  0.00    -0.003 C 
ATOM     32  C   UNL     1      10.956 -20.096 -21.956  1.00  0.00     0.004 C 
ENDBRANCH  30  31
ENDBRANCH  29  30
ENDBRANCH  28  29
ENDBRANCH  27  28
ENDBRANCH  26  27
ENDBRANCH  25  26
ENDBRANCH  24  25
ENDBRANCH  23  24
ENDBRANCH  22  23
ENDBRANCH  21  22
ENDBRANCH  20  21
ENDBRANCH  19  20
ENDBRANCH  18  19
ENDBRANCH   1  18
TORSDOF 28
ENDMDL
MODEL 8
REMARK VINA RESULT:     1.359      1.384      4.571
REMARK INTER + INTRA:           1.934
REMARK INTER:                   1.688
REMARK INTRA:                   0.246
REMARK UNBOUND:                -1.650
REMARK SMILES CCCCCCCCCCCCCCCCCCCCCCCCCCCCCC(=O)[O-]
REMARK SMILES IDX 16 1 17 2 18 3 19 4 20 5 21 6 22 7 23 8 24 9 25 10 26 11
REMARK SMILES IDX 27 12 28 13 29 14 30 15 31 16 32 17 15 18 14 19 13 20 12 21
REMARK SMILES IDX 11 22 10 23 9 24 8 25 7 26 6 27 5 28 4 29 3 30 2 31 1 32
REMARK H PARENT
REMARK Flexibility Score: inf
ROOT
ATOM      1  C   UNL     1       5.744 -19.896 -16.261  1.00  0.00     0.000 C 
ENDROOT
BRANCH   1   2
ATOM      2  C   UNL     1       7.057 -20.689 -16.444  1.00  0.00     0.000 C 
BRANCH   2   3
ATOM      3  C   UNL     1       6.901 -22.203 -16.196  1.00  0.00     0.000 C 
BRANCH   3   4
ATOM      4  C   UNL     1       7.790 -22.770 -15.075  1.00  0.00     0.000 C 
BRANCH   4   5
ATOM      5  C   UNL     1       8.868 -21.801 -14.548  1.00  0.00     0.000 C 
BRANCH   5   6
ATOM      6  C   UNL     1       9.097 -20.574 -15.456  1.00  0.00     0.000 C 
BRANCH   6   7
ATOM      7  C   UNL     1      10.334 -20.732 -16.359  1.00  0.00     0.000 C 
BRANCH   7   8
ATOM      8  C   UNL     1      11.116 -22.023 -16.070  1.00  0.00     0.000 C 
BRANCH   8   9
ATOM      9  C   UNL     1      11.116 -22.996 -17.259  1.00  0.00     0.000 C 
BRANCH   9  10
ATOM     10  C   UNL     1       9.909 -22.750 -18.173  1.00  0.00     0.000 C 
BRANCH  10  11
ATOM     11  C   UNL     1      10.355 -22.542 -19.629  1.00  0.00     0.000 C 
BRANCH  11  12
ATOM     12  C   UNL     1       9.838 -21.223 -20.234  1.00  0.00     0.000 C 
BRANCH  12  13
ATOM     13  C   UNL     1      10.785 -20.566 -21.254  1.00  0.00     0.006 C 
BRANCH  13  14
ATOM     14  C   UNL     1      10.222 -20.571 -22.680  1.00  0.00     0.053 C 
BRANCH  14  15
ATOM     15  C   UNL     1       9.108 -21.563 -22.800  1.00  0.00     0.041 C 
ATOM     16  O   UNL     1       7.955 -21.274 -22.386  1.00  0.00    -0.550 OA
ATOM     17  O   UNL     1       9.354 -22.823 -23.332  1.00  0.00    -0.550 OA
ENDBRANCH  14  15
ENDBRANCH  13  14
ENDBRANCH  12  13
ENDBRANCH  11  12
ENDBRANCH  10  11
ENDBRANCH   9  10
ENDBRANCH   8   9
ENDBRANCH   7   8
ENDBRANCH   6   7
ENDBRANCH   5   6
ENDBRANCH   4   5
ENDBRANCH   3   4
ENDBRANCH   2   3
ENDBRANCH   1   2
BRANCH   1  18
ATOM     18  C   UNL     1       5.273 -19.867 -14.796  1.00  0.00     0.000 C 
BRANCH  18  19
ATOM     19  C   UNL     1       4.024 -20.744 -14.562  1.00  0.00     0.000 C 
BRANCH  19  20
ATOM     20  C   UNL     1       3.578 -21.547 -15.797  1.00  0.00     0.000 C 
BRANCH  20  21
ATOM     21  C   UNL     1       2.121 -21.324 -16.234  1.00  0.00     0.000 C 
BRANCH  21  22
ATOM     22  C   UNL     1       1.187 -22.471 -15.819  1.00  0.00     0.000 C 
BRANCH  22  23
ATOM     23  C   UNL     1      -0.246 -21.992 -15.529  1.00  0.00     0.000 C 
BRANCH  23  24
ATOM     24  C   UNL     1      -1.198 -23.124 -15.090  1.00  0.00    -0.000 C 
BRANCH  24  25
ATOM     25  C   UNL     1      -1.455 -23.117 -13.572  1.00  0.00    -0.000 C 
BRANCH  25  26
ATOM     26  C   UNL     1      -2.952 -23.125 -13.225  1.00  0.00    -0.000 C 
BRANCH  26  27
ATOM     27  C   UNL     1      -3.817 -22.502 -14.333  1.00  0.00    -0.000 C 
BRANCH  27  28
ATOM     28  C   UNL     1      -5.314 -22.820 -14.173  1.00  0.00    -0.000 C 
BRANCH  28  29
ATOM     29  C   UNL     1      -6.192 -22.260 -15.311  1.00  0.00    -0.000 C 
BRANCH  29  30
ATOM     30  C   UNL     1      -7.387 -21.452 -14.774  1.00  0.00    -0.000 C 
BRANCH  30  31
ATOM     31  C   UNL     1      -8.635 -21.579 -15.664  1.00  0.00    -0.003 C 
ATOM     32  C   UNL     1      -8.291 -21.885 -17.122  1.00  0.00     0.004 C 
ENDBRANCH  30  31
ENDBRANCH  29  30
ENDBRANCH  28  29
ENDBRANCH  27  28
ENDBRANCH  26  27
ENDBRANCH  25  26
ENDBRANCH  24  25
ENDBRANCH  23  24
ENDBRANCH  22  23
ENDBRANCH  21  22
ENDBRANCH  20  21
ENDBRANCH  19  20
ENDBRANCH  18  19
ENDBRANCH   1  18
TORSDOF 28
ENDMDL
