MODEL 1
REMARK VINA RESULT:    -3.606      0.000      0.000
REMARK INTER + INTRA:         -15.707
REMARK INTER:                  -9.507
REMARK INTRA:                  -6.200
REMARK UNBOUND:                -6.200
REMARK SMILES CCCCCCCCCCCCCCCCCCCCCCCCCCCCCC(=O)[O-]
REMARK SMILES IDX 16 1 17 2 18 3 19 4 20 5 21 6 22 7 23 8 24 9 25 10 26 11
REMARK SMILES IDX 27 12 28 13 29 14 30 15 31 16 32 17 15 18 14 19 13 20 12 21
REMARK SMILES IDX 11 22 10 23 9 24 8 25 7 26 6 27 5 28 4 29 3 30 2 31 1 32
REMARK H PARENT
REMARK Flexibility Score: inf
ROOT
ATOM      1  C   UNL     1     173.240 175.983 150.842  1.00  0.00     0.000 C 
ENDROOT
BRANCH   1   2
ATOM      2  C   UNL     1     174.277 174.847 150.769  1.00  0.00     0.000 C 
BRANCH   2   3
ATOM      3  C   UNL     1     175.664 175.272 151.284  1.00  0.00     0.000 C 
BRANCH   3   4
ATOM      4  C   UNL     1     176.576 174.063 151.586  1.00  0.00     0.000 C 
BRANCH   4   5
ATOM      5  C   UNL     1     177.035 173.307 150.322  1.00  0.00     0.000 C 
BRANCH   5   6
ATOM      6  C   UNL     1     176.662 171.809 150.289  1.00  0.00     0.000 C 
BRANCH   6   7
ATOM      7  C   UNL     1     175.884 171.362 149.037  1.00  0.00     0.000 C 
BRANCH   7   8
ATOM      8  C   UNL     1     174.365 171.310 149.271  1.00  0.00     0.000 C 
BRANCH   8   9
ATOM      9  C   UNL     1     173.995 170.677 150.619  1.00  0.00     0.000 C 
BRANCH   9  10
ATOM     10  C   UNL     1     172.601 171.106 151.102  1.00  0.00     0.000 C 
BRANCH  10  11
ATOM     11  C   UNL     1     172.643 171.590 152.556  1.00  0.00     0.000 C 
BRANCH  11  12
ATOM     12  C   UNL     1     174.059 172.045 152.935  1.00  0.00     0.000 C 
BRANCH  12  13
ATOM     13  C   UNL     1     174.624 171.307 154.163  1.00  0.00     0.006 C 
BRANCH  13  14
ATOM     14  C   UNL     1     176.151 171.121 154.133  1.00  0.00     0.053 C 
BRANCH  14  15
ATOM     15  C   UNL     1     176.551 169.753 153.676  1.00  0.00     0.041 C 
ATOM     16  O   UNL     1     177.521 169.606 152.886  1.00  0.00    -0.550 OA
ATOM     17  O   UNL     1     175.865 168.636 154.135  1.00  0.00    -0.550 OA
ENDBRANCH  14  15
ENDBRANCH  13  14
ENDBRANCH  12  13
ENDBRANCH  11  12
ENDBRANCH  10  11
ENDBRANCH   9  10
ENDBRANCH   8   9
ENDBRANCH   7   8
ENDBRANCH   6   7
ENDBRANCH   5   6
ENDBRANCH   4   5
ENDBRANCH   3   4
ENDBRANCH   2   3
ENDBRANCH   1   2
BRANCH   1  18
ATOM     18  C   UNL     1     173.797 177.338 151.318  1.00  0.00     0.000 C 
BRANCH  18  19
ATOM     19  C   UNL     1     172.811 178.115 152.209  1.00  0.00     0.000 C 
BRANCH  19  20
ATOM     20  C   UNL     1     171.352 177.963 151.737  1.00  0.00     0.000 C 
BRANCH  20  21
ATOM     21  C   UNL     1     170.419 177.335 152.789  1.00  0.00     0.000 C 
BRANCH  21  22
ATOM     22  C   UNL     1     170.031 175.889 152.436  1.00  0.00     0.000 C 
BRANCH  22  23
ATOM     23  C   UNL     1     170.651 174.854 153.393  1.00  0.00     0.000 C 
BRANCH  23  24
ATOM     24  C   UNL     1     171.026 175.394 154.787  1.00  0.00    -0.000 C 
BRANCH  24  25
ATOM     25  C   UNL     1     172.365 174.881 155.348  1.00  0.00    -0.000 C 
BRANCH  25  26
ATOM     26  C   UNL     1     173.548 175.144 154.401  1.00  0.00    -0.000 C 
BRANCH  26  27
ATOM     27  C   UNL     1     174.404 176.348 154.833  1.00  0.00    -0.000 C 
BRANCH  27  28
ATOM     28  C   UNL     1     175.869 176.021 155.188  1.00  0.00    -0.000 C 
BRANCH  28  29
ATOM     29  C   UNL     1     176.193 174.520 155.315  1.00  0.00    -0.000 C 
BRANCH  29  30
ATOM     30  C   UNL     1     176.945 174.125 156.601  1.00  0.00    -0.000 C 
BRANCH  30  31
ATOM     31  C   UNL     1     176.065 173.519 157.708  1.00  0.00    -0.003 C 
ATOM     32  C   UNL     1     176.147 171.994 157.770  1.00  0.00     0.004 C 
ENDBRANCH  30  31
ENDBRANCH  29  30
ENDBRANCH  28  29
ENDBRANCH  27  28
ENDBRANCH  26  27
ENDBRANCH  25  26
ENDBRANCH  24  25
ENDBRANCH  23  24
ENDBRANCH  22  23
ENDBRANCH  21  22
ENDBRANCH  20  21
ENDBRANCH  19  20
ENDBRANCH  18  19
ENDBRANCH   1  18
TORSDOF 28
ENDMDL
MODEL 2
REMARK VINA RESULT:    -3.575      1.945      4.364
REMARK INTER + INTRA:         -15.626
REMARK INTER:                  -9.778
REMARK INTRA:                  -5.847
REMARK UNBOUND:                -6.200
REMARK SMILES CCCCCCCCCCCCCCCCCCCCCCCCCCCCCC(=O)[O-]
REMARK SMILES IDX 16 1 17 2 18 3 19 4 20 5 21 6 22 7 23 8 24 9 25 10 26 11
REMARK SMILES IDX 27 12 28 13 29 14 30 15 31 16 32 17 15 18 14 19 13 20 12 21
REMARK SMILES IDX 11 22 10 23 9 24 8 25 7 26 6 27 5 28 4 29 3 30 2 31 1 32
REMARK H PARENT
REMARK Flexibility Score: inf
ROOT
ATOM      1  C   UNL     1     173.623 175.952 150.731  1.00  0.00     0.000 C 
ENDROOT
BRANCH   1   2
ATOM      2  C   UNL     1     173.155 174.513 151.013  1.00  0.00     0.000 C 
BRANCH   2   3
ATOM      3  C   UNL     1     174.098 173.451 150.419  1.00  0.00     0.000 C 
BRANCH   3   4
ATOM      4  C   UNL     1     173.453 172.049 150.373  1.00  0.00     0.000 C 
BRANCH   4   5
ATOM      5  C   UNL     1     174.212 171.052 149.472  1.00  0.00     0.000 C 
BRANCH   5   6
ATOM      6  C   UNL     1     175.718 171.347 149.301  1.00  0.00     0.000 C 
BRANCH   6   7
ATOM      7  C   UNL     1     176.608 170.868 150.463  1.00  0.00     0.000 C 
BRANCH   7   8
ATOM      8  C   UNL     1     176.008 169.668 151.214  1.00  0.00     0.000 C 
BRANCH   8   9
ATOM      9  C   UNL     1     176.677 169.424 152.573  1.00  0.00     0.000 C 
BRANCH   9  10
ATOM     10  C   UNL     1     175.654 169.264 153.708  1.00  0.00     0.000 C 
BRANCH  10  11
ATOM     11  C   UNL     1     174.515 170.282 153.574  1.00  0.00     0.000 C 
BRANCH  11  12
ATOM     12  C   UNL     1     174.412 171.150 154.836  1.00  0.00     0.000 C 
BRANCH  12  13
ATOM     13  C   UNL     1     174.332 172.657 154.530  1.00  0.00     0.006 C 
BRANCH  13  14
ATOM     14  C   UNL     1     175.449 173.167 153.603  1.00  0.00     0.053 C 
BRANCH  14  15
ATOM     15  C   UNL     1     176.780 173.216 154.286  1.00  0.00     0.041 C 
ATOM     16  O   UNL     1     176.936 173.913 155.323  1.00  0.00    -0.550 OA
ATOM     17  O   UNL     1     177.847 172.479 153.787  1.00  0.00    -0.550 OA
ENDBRANCH  14  15
ENDBRANCH  13  14
ENDBRANCH  12  13
ENDBRANCH  11  12
ENDBRANCH  10  11
ENDBRANCH   9  10
ENDBRANCH   8   9
ENDBRANCH   7   8
ENDBRANCH   6   7
ENDBRANCH   5   6
ENDBRANCH   4   5
ENDBRANCH   3   4
ENDBRANCH   2   3
ENDBRANCH   1   2
BRANCH   1  18
ATOM     18  C   UNL     1     175.087 176.242 151.109  1.00  0.00     0.000 C 
BRANCH  18  19
ATOM     19  C   UNL     1     175.347 177.728 151.415  1.00  0.00     0.000 C 
BRANCH  19  20
ATOM     20  C   UNL     1     175.184 178.054 152.913  1.00  0.00     0.000 C 
BRANCH  20  21
ATOM     21  C   UNL     1     175.450 176.858 153.844  1.00  0.00     0.000 C 
BRANCH  21  22
ATOM     22  C   UNL     1     174.221 176.497 154.697  1.00  0.00     0.000 C 
BRANCH  22  23
ATOM     23  C   UNL     1     173.036 177.453 154.472  1.00  0.00     0.000 C 
BRANCH  23  24
ATOM     24  C   UNL     1     171.844 176.848 153.704  1.00  0.00    -0.000 C 
BRANCH  24  25
ATOM     25  C   UNL     1     171.188 177.783 152.672  1.00  0.00    -0.000 C 
BRANCH  25  26
ATOM     26  C   UNL     1     170.332 177.027 151.642  1.00  0.00    -0.000 C 
BRANCH  26  27
ATOM     27  C   UNL     1     168.904 176.746 152.141  1.00  0.00    -0.000 C 
BRANCH  27  28
ATOM     28  C   UNL     1     168.396 175.309 151.907  1.00  0.00    -0.000 C 
BRANCH  28  29
ATOM     29  C   UNL     1     169.486 174.274 151.568  1.00  0.00    -0.000 C 
BRANCH  29  30
ATOM     30  C   UNL     1     169.623 173.120 152.580  1.00  0.00    -0.000 C 
BRANCH  30  31
ATOM     31  C   UNL     1     170.920 173.132 153.407  1.00  0.00    -0.003 C 
ATOM     32  C   UNL     1     170.701 173.563 154.856  1.00  0.00     0.004 C 
ENDBRANCH  30  31
ENDBRANCH  29  30
ENDBRANCH  28  29
ENDBRANCH  27  28
ENDBRANCH  26  27
ENDBRANCH  25  26
ENDBRANCH  24  25
ENDBRANCH  23  24
ENDBRANCH  22  23
ENDBRANCH  21  22
ENDBRANCH  20  21
ENDBRANCH  19  20
ENDBRANCH  18  19
ENDBRANCH   1  18
TORSDOF 28
ENDMDL
MODEL 3
REMARK VINA RESULT:    -3.574      2.256      4.031
REMARK INTER + INTRA:         -15.625
REMARK INTER:                 -10.022
REMARK INTRA:                  -5.604
REMARK UNBOUND:                -6.200
REMARK SMILES CCCCCCCCCCCCCCCCCCCCCCCCCCCCCC(=O)[O-]
REMARK SMILES IDX 16 1 17 2 18 3 19 4 20 5 21 6 22 7 23 8 24 9 25 10 26 11
REMARK SMILES IDX 27 12 28 13 29 14 30 15 31 16 32 17 15 18 14 19 13 20 12 21
REMARK SMILES IDX 11 22 10 23 9 24 8 25 7 26 6 27 5 28 4 29 3 30 2 31 1 32
REMARK H PARENT
REMARK Flexibility Score: inf
ROOT
ATOM      1  C   UNL     1     170.166 173.694 153.129  1.00  0.00     0.000 C 
ENDROOT
BRANCH   1   2
ATOM      2  C   UNL     1     171.498 173.790 153.894  1.00  0.00     0.000 C 
BRANCH   2   3
ATOM      3  C   UNL     1     172.724 173.748 152.965  1.00  0.00     0.000 C 
BRANCH   3   4
ATOM      4  C   UNL     1     172.363 174.062 151.497  1.00  0.00     0.000 C 
BRANCH   4   5
ATOM      5  C   UNL     1     173.438 174.891 150.763  1.00  0.00     0.000 C 
BRANCH   5   6
ATOM      6  C   UNL     1     174.656 175.286 151.626  1.00  0.00     0.000 C 
BRANCH   6   7
ATOM      7  C   UNL     1     175.956 175.531 150.839  1.00  0.00     0.000 C 
BRANCH   7   8
ATOM      8  C   UNL     1     176.952 174.365 150.962  1.00  0.00     0.000 C 
BRANCH   8   9
ATOM      9  C   UNL     1     176.550 173.356 152.046  1.00  0.00     0.000 C 
BRANCH   9  10
ATOM     10  C   UNL     1     176.313 171.949 151.475  1.00  0.00     0.000 C 
BRANCH  10  11
ATOM     11  C   UNL     1     176.588 171.910 149.967  1.00  0.00     0.000 C 
BRANCH  11  12
ATOM     12  C   UNL     1     175.536 171.056 149.245  1.00  0.00     0.000 C 
BRANCH  12  13
ATOM     13  C   UNL     1     174.091 171.412 149.641  1.00  0.00     0.006 C 
BRANCH  13  14
ATOM     14  C   UNL     1     173.365 170.301 150.419  1.00  0.00     0.053 C 
BRANCH  14  15
ATOM     15  C   UNL     1     171.930 170.164 150.015  1.00  0.00     0.041 C 
ATOM     16  O   UNL     1     171.592 169.303 149.160  1.00  0.00    -0.550 OA
ATOM     17  O   UNL     1     170.962 170.975 150.592  1.00  0.00    -0.550 OA
ENDBRANCH  14  15
ENDBRANCH  13  14
ENDBRANCH  12  13
ENDBRANCH  11  12
ENDBRANCH  10  11
ENDBRANCH   9  10
ENDBRANCH   8   9
ENDBRANCH   7   8
ENDBRANCH   6   7
ENDBRANCH   5   6
ENDBRANCH   4   5
ENDBRANCH   3   4
ENDBRANCH   2   3
ENDBRANCH   1   2
BRANCH   1  18
ATOM     18  C   UNL     1     169.305 174.971 153.162  1.00  0.00     0.000 C 
BRANCH  18  19
ATOM     19  C   UNL     1     168.996 175.527 151.761  1.00  0.00     0.000 C 
BRANCH  19  20
ATOM     20  C   UNL     1     169.671 176.890 151.510  1.00  0.00     0.000 C 
BRANCH  20  21
ATOM     21  C   UNL     1     170.681 177.294 152.599  1.00  0.00     0.000 C 
BRANCH  21  22
ATOM     22  C   UNL     1     171.911 178.012 152.017  1.00  0.00     0.000 C 
BRANCH  22  23
ATOM     23  C   UNL     1     173.118 177.999 152.972  1.00  0.00     0.000 C 
BRANCH  23  24
ATOM     24  C   UNL     1     172.889 177.261 154.306  1.00  0.00    -0.000 C 
BRANCH  24  25
ATOM     25  C   UNL     1     174.045 177.362 155.317  1.00  0.00    -0.000 C 
BRANCH  25  26
ATOM     26  C   UNL     1     175.333 176.683 154.821  1.00  0.00    -0.000 C 
BRANCH  26  27
ATOM     27  C   UNL     1     175.374 175.177 155.138  1.00  0.00    -0.000 C 
BRANCH  27  28
ATOM     28  C   UNL     1     176.639 174.695 155.878  1.00  0.00    -0.000 C 
BRANCH  28  29
ATOM     29  C   UNL     1     176.398 173.623 156.958  1.00  0.00    -0.000 C 
BRANCH  29  30
ATOM     30  C   UNL     1     176.286 174.163 158.397  1.00  0.00    -0.000 C 
BRANCH  30  31
ATOM     31  C   UNL     1     174.897 174.702 158.783  1.00  0.00    -0.003 C 
ATOM     32  C   UNL     1     174.829 176.228 158.793  1.00  0.00     0.004 C 
ENDBRANCH  30  31
ENDBRANCH  29  30
ENDBRANCH  28  29
ENDBRANCH  27  28
ENDBRANCH  26  27
ENDBRANCH  25  26
ENDBRANCH  24  25
ENDBRANCH  23  24
ENDBRANCH  22  23
ENDBRANCH  21  22
ENDBRANCH  20  21
ENDBRANCH  19  20
ENDBRANCH  18  19
ENDBRANCH   1  18
TORSDOF 28
ENDMDL
MODEL 4
REMARK VINA RESULT:    -3.552      1.747      5.961
REMARK INTER + INTRA:         -15.566
REMARK INTER:                 -10.200
REMARK INTRA:                  -5.365
REMARK UNBOUND:                -6.200
REMARK SMILES CCCCCCCCCCCCCCCCCCCCCCCCCCCCCC(=O)[O-]
REMARK SMILES IDX 16 1 17 2 18 3 19 4 20 5 21 6 22 7 23 8 24 9 25 10 26 11
REMARK SMILES IDX 27 12 28 13 29 14 30 15 31 16 32 17 15 18 14 19 13 20 12 21
REMARK SMILES IDX 11 22 10 23 9 24 8 25 7 26 6 27 5 28 4 29 3 30 2 31 1 32
REMARK H PARENT
REMARK Flexibility Score: inf
ROOT
ATOM      1  C   UNL     1     174.831 175.084 157.746  1.00  0.00     0.000 C 
ENDROOT
BRANCH   1   2
ATOM      2  C   UNL     1     173.834 173.927 157.931  1.00  0.00     0.000 C 
BRANCH   2   3
ATOM      3  C   UNL     1     173.987 172.830 156.863  1.00  0.00     0.000 C 
BRANCH   3   4
ATOM      4  C   UNL     1     173.215 173.158 155.566  1.00  0.00     0.000 C 
BRANCH   4   5
ATOM      5  C   UNL     1     173.974 172.762 154.282  1.00  0.00     0.000 C 
BRANCH   5   6
ATOM      6  C   UNL     1     175.295 171.999 154.517  1.00  0.00     0.000 C 
BRANCH   6   7
ATOM      7  C   UNL     1     176.496 172.515 153.704  1.00  0.00     0.000 C 
BRANCH   7   8
ATOM      8  C   UNL     1     176.089 173.540 152.632  1.00  0.00     0.000 C 
BRANCH   8   9
ATOM      9  C   UNL     1     177.154 173.710 151.540  1.00  0.00     0.000 C 
BRANCH   9  10
ATOM     10  C   UNL     1     176.675 173.202 150.172  1.00  0.00     0.000 C 
BRANCH  10  11
ATOM     11  C   UNL     1     176.617 171.670 150.139  1.00  0.00     0.000 C 
BRANCH  11  12
ATOM     12  C   UNL     1     175.544 171.188 149.153  1.00  0.00     0.000 C 
BRANCH  12  13
ATOM     13  C   UNL     1     174.148 171.062 149.791  1.00  0.00     0.006 C 
BRANCH  13  14
ATOM     14  C   UNL     1     174.172 170.629 151.267  1.00  0.00     0.053 C 
BRANCH  14  15
ATOM     15  C   UNL     1     174.378 169.155 151.427  1.00  0.00     0.041 C 
ATOM     16  O   UNL     1     175.444 168.715 151.933  1.00  0.00    -0.550 OA
ATOM     17  O   UNL     1     173.387 168.265 151.033  1.00  0.00    -0.550 OA
ENDBRANCH  14  15
ENDBRANCH  13  14
ENDBRANCH  12  13
ENDBRANCH  11  12
ENDBRANCH  10  11
ENDBRANCH   9  10
ENDBRANCH   8   9
ENDBRANCH   7   8
ENDBRANCH   6   7
ENDBRANCH   5   6
ENDBRANCH   4   5
ENDBRANCH   3   4
ENDBRANCH   2   3
ENDBRANCH   1   2
BRANCH   1  18
ATOM     18  C   UNL     1     176.062 174.746 156.884  1.00  0.00     0.000 C 
BRANCH  18  19
ATOM     19  C   UNL     1     176.179 175.627 155.627  1.00  0.00     0.000 C 
BRANCH  19  20
ATOM     20  C   UNL     1     175.044 176.667 155.534  1.00  0.00     0.000 C 
BRANCH  20  21
ATOM     21  C   UNL     1     174.150 176.503 154.293  1.00  0.00     0.000 C 
BRANCH  21  22
ATOM     22  C   UNL     1     174.220 177.724 153.358  1.00  0.00     0.000 C 
BRANCH  22  23
ATOM     23  C   UNL     1     175.462 177.708 152.449  1.00  0.00     0.000 C 
BRANCH  23  24
ATOM     24  C   UNL     1     175.276 176.991 151.097  1.00  0.00    -0.000 C 
BRANCH  24  25
ATOM     25  C   UNL     1     173.820 176.654 150.729  1.00  0.00    -0.000 C 
BRANCH  25  26
ATOM     26  C   UNL     1     173.521 175.147 150.796  1.00  0.00    -0.000 C 
BRANCH  26  27
ATOM     27  C   UNL     1     172.249 174.824 151.601  1.00  0.00    -0.000 C 
BRANCH  27  28
ATOM     28  C   UNL     1     171.301 176.016 151.839  1.00  0.00    -0.000 C 
BRANCH  28  29
ATOM     29  C   UNL     1     169.800 175.669 151.850  1.00  0.00    -0.000 C 
BRANCH  29  30
ATOM     30  C   UNL     1     168.853 176.875 151.689  1.00  0.00    -0.000 C 
BRANCH  30  31
ATOM     31  C   UNL     1     168.148 176.969 150.324  1.00  0.00    -0.003 C 
ATOM     32  C   UNL     1     167.000 175.973 150.175  1.00  0.00     0.004 C 
ENDBRANCH  30  31
ENDBRANCH  29  30
ENDBRANCH  28  29
ENDBRANCH  27  28
ENDBRANCH  26  27
ENDBRANCH  25  26
ENDBRANCH  24  25
ENDBRANCH  23  24
ENDBRANCH  22  23
ENDBRANCH  21  22
ENDBRANCH  20  21
ENDBRANCH  19  20
ENDBRANCH  18  19
ENDBRANCH   1  18
TORSDOF 28
ENDMDL
MODEL 5
REMARK VINA RESULT:    -3.548      5.662      8.947
REMARK INTER + INTRA:         -15.556
REMARK INTER:                 -11.793
REMARK INTRA:                  -3.762
REMARK UNBOUND:                -6.200
REMARK SMILES CCCCCCCCCCCCCCCCCCCCCCCCCCCCCC(=O)[O-]
REMARK SMILES IDX 16 1 17 2 18 3 19 4 20 5 21 6 22 7 23 8 24 9 25 10 26 11
REMARK SMILES IDX 27 12 28 13 29 14 30 15 31 16 32 17 15 18 14 19 13 20 12 21
REMARK SMILES IDX 11 22 10 23 9 24 8 25 7 26 6 27 5 28 4 29 3 30 2 31 1 32
REMARK H PARENT
REMARK Flexibility Score: inf
ROOT
ATOM      1  C   UNL     1     164.694 175.953 151.219  1.00  0.00     0.000 C 
ENDROOT
BRANCH   1   2
ATOM      2  C   UNL     1     166.029 175.673 150.504  1.00  0.00     0.000 C 
BRANCH   2   3
ATOM      3  C   UNL     1     166.713 176.954 149.997  1.00  0.00     0.000 C 
BRANCH   3   4
ATOM      4  C   UNL     1     168.197 177.036 150.416  1.00  0.00     0.000 C 
BRANCH   4   5
ATOM      5  C   UNL     1     168.671 175.823 151.243  1.00  0.00     0.000 C 
BRANCH   5   6
ATOM      6  C   UNL     1     170.069 175.976 151.879  1.00  0.00     0.000 C 
BRANCH   6   7
ATOM      7  C   UNL     1     170.391 177.386 152.407  1.00  0.00     0.000 C 
BRANCH   7   8
ATOM      8  C   UNL     1     171.737 177.920 151.890  1.00  0.00     0.000 C 
BRANCH   8   9
ATOM      9  C   UNL     1     172.737 176.799 151.577  1.00  0.00     0.000 C 
BRANCH   9  10
ATOM     10  C   UNL     1     173.919 177.291 150.727  1.00  0.00     0.000 C 
BRANCH  10  11
ATOM     11  C   UNL     1     175.207 176.538 151.079  1.00  0.00     0.000 C 
BRANCH  11  12
ATOM     12  C   UNL     1     174.981 175.020 151.020  1.00  0.00     0.000 C 
BRANCH  12  13
ATOM     13  C   UNL     1     176.291 174.212 151.026  1.00  0.00     0.006 C 
BRANCH  13  14
ATOM     14  C   UNL     1     176.115 172.738 151.428  1.00  0.00     0.053 C 
BRANCH  14  15
ATOM     15  C   UNL     1     176.509 172.482 152.850  1.00  0.00     0.041 C 
ATOM     16  O   UNL     1     175.719 171.889 153.630  1.00  0.00    -0.550 OA
ATOM     17  O   UNL     1     177.755 172.885 153.311  1.00  0.00    -0.550 OA
ENDBRANCH  14  15
ENDBRANCH  13  14
ENDBRANCH  12  13
ENDBRANCH  11  12
ENDBRANCH  10  11
ENDBRANCH   9  10
ENDBRANCH   8   9
ENDBRANCH   7   8
ENDBRANCH   6   7
ENDBRANCH   5   6
ENDBRANCH   4   5
ENDBRANCH   3   4
ENDBRANCH   2   3
ENDBRANCH   1   2
BRANCH   1  18
ATOM     18  C   UNL     1     164.092 177.343 150.944  1.00  0.00     0.000 C 
BRANCH  18  19
ATOM     19  C   UNL     1     163.031 177.756 151.980  1.00  0.00     0.000 C 
BRANCH  19  20
ATOM     20  C   UNL     1     161.650 177.997 151.339  1.00  0.00     0.000 C 
BRANCH  20  21
ATOM     21  C   UNL     1     161.122 176.800 150.528  1.00  0.00     0.000 C 
BRANCH  21  22
ATOM     22  C   UNL     1     160.226 175.874 151.370  1.00  0.00     0.000 C 
BRANCH  22  23
ATOM     23  C   UNL     1     161.016 174.748 152.063  1.00  0.00     0.000 C 
BRANCH  23  24
ATOM     24  C   UNL     1     160.985 174.779 153.604  1.00  0.00    -0.000 C 
BRANCH  24  25
ATOM     25  C   UNL     1     160.555 176.121 154.223  1.00  0.00    -0.000 C 
BRANCH  25  26
ATOM     26  C   UNL     1     161.196 176.376 155.598  1.00  0.00    -0.000 C 
BRANCH  26  27
ATOM     27  C   UNL     1     162.340 177.405 155.544  1.00  0.00    -0.000 C 
BRANCH  27  28
ATOM     28  C   UNL     1     163.733 176.858 155.915  1.00  0.00    -0.000 C 
BRANCH  28  29
ATOM     29  C   UNL     1     164.442 176.058 154.805  1.00  0.00    -0.000 C 
BRANCH  29  30
ATOM     30  C   UNL     1     165.951 175.836 155.026  1.00  0.00    -0.000 C 
BRANCH  30  31
ATOM     31  C   UNL     1     166.822 177.095 154.870  1.00  0.00    -0.003 C 
ATOM     32  C   UNL     1     166.552 177.852 153.571  1.00  0.00     0.004 C 
ENDBRANCH  30  31
ENDBRANCH  29  30
ENDBRANCH  28  29
ENDBRANCH  27  28
ENDBRANCH  26  27
ENDBRANCH  25  26
ENDBRANCH  24  25
ENDBRANCH  23  24
ENDBRANCH  22  23
ENDBRANCH  21  22
ENDBRANCH  20  21
ENDBRANCH  19  20
ENDBRANCH  18  19
ENDBRANCH   1  18
TORSDOF 28
ENDMDL
MODEL 6
REMARK VINA RESULT:    -3.536      6.217      9.934
REMARK INTER + INTRA:         -15.524
REMARK INTER:                 -11.196
REMARK INTRA:                  -4.328
REMARK UNBOUND:                -6.200
REMARK SMILES CCCCCCCCCCCCCCCCCCCCCCCCCCCCCC(=O)[O-]
REMARK SMILES IDX 16 1 17 2 18 3 19 4 20 5 21 6 22 7 23 8 24 9 25 10 26 11
REMARK SMILES IDX 27 12 28 13 29 14 30 15 31 16 32 17 15 18 14 19 13 20 12 21
REMARK SMILES IDX 11 22 10 23 9 24 8 25 7 26 6 27 5 28 4 29 3 30 2 31 1 32
REMARK H PARENT
REMARK Flexibility Score: inf
ROOT
ATOM      1  C   UNL     1     164.133 173.150 152.931  1.00  0.00     0.000 C 
ENDROOT
BRANCH   1   2
ATOM      2  C   UNL     1     165.457 173.676 152.350  1.00  0.00     0.000 C 
BRANCH   2   3
ATOM      3  C   UNL     1     165.287 174.310 150.958  1.00  0.00     0.000 C 
BRANCH   3   4
ATOM      4  C   UNL     1     166.523 174.096 150.057  1.00  0.00     0.000 C 
BRANCH   4   5
ATOM      5  C   UNL     1     166.883 175.330 149.204  1.00  0.00     0.000 C 
BRANCH   5   6
ATOM      6  C   UNL     1     166.933 176.664 149.979  1.00  0.00     0.000 C 
BRANCH   6   7
ATOM      7  C   UNL     1     168.297 176.996 150.613  1.00  0.00     0.000 C 
BRANCH   7   8
ATOM      8  C   UNL     1     168.389 176.558 152.084  1.00  0.00     0.000 C 
BRANCH   8   9
ATOM      9  C   UNL     1     169.693 177.008 152.756  1.00  0.00     0.000 C 
BRANCH   9  10
ATOM     10  C   UNL     1     170.927 176.722 151.886  1.00  0.00     0.000 C 
BRANCH  10  11
ATOM     11  C   UNL     1     171.906 177.901 151.907  1.00  0.00     0.000 C 
BRANCH  11  12
ATOM     12  C   UNL     1     172.822 177.824 153.137  1.00  0.00     0.000 C 
BRANCH  12  13
ATOM     13  C   UNL     1     174.297 178.125 152.813  1.00  0.00     0.006 C 
BRANCH  13  14
ATOM     14  C   UNL     1     175.266 177.814 153.967  1.00  0.00     0.053 C 
BRANCH  14  15
ATOM     15  C   UNL     1     175.871 176.450 153.854  1.00  0.00     0.041 C 
ATOM     16  O   UNL     1     176.328 175.872 154.875  1.00  0.00    -0.550 OA
ATOM     17  O   UNL     1     175.917 175.807 152.623  1.00  0.00    -0.550 OA
ENDBRANCH  14  15
ENDBRANCH  13  14
ENDBRANCH  12  13
ENDBRANCH  11  12
ENDBRANCH  10  11
ENDBRANCH   9  10
ENDBRANCH   8   9
ENDBRANCH   7   8
ENDBRANCH   6   7
ENDBRANCH   5   6
ENDBRANCH   4   5
ENDBRANCH   3   4
ENDBRANCH   2   3
ENDBRANCH   1   2
BRANCH   1  18
ATOM     18  C   UNL     1     162.909 173.320 152.012  1.00  0.00     0.000 C 
BRANCH  18  19
ATOM     19  C   UNL     1     161.616 173.641 152.783  1.00  0.00     0.000 C 
BRANCH  19  20
ATOM     20  C   UNL     1     160.378 173.663 151.866  1.00  0.00     0.000 C 
BRANCH  20  21
ATOM     21  C   UNL     1     159.427 174.843 152.130  1.00  0.00     0.000 C 
BRANCH  21  22
ATOM     22  C   UNL     1     160.153 176.052 152.746  1.00  0.00     0.000 C 
BRANCH  22  23
ATOM     23  C   UNL     1     160.127 177.292 151.835  1.00  0.00     0.000 C 
BRANCH  23  24
ATOM     24  C   UNL     1     160.969 177.179 150.549  1.00  0.00    -0.000 C 
BRANCH  24  25
ATOM     25  C   UNL     1     162.402 176.654 150.750  1.00  0.00    -0.000 C 
BRANCH  25  26
ATOM     26  C   UNL     1     163.403 177.770 151.095  1.00  0.00    -0.000 C 
BRANCH  26  27
ATOM     27  C   UNL     1     164.243 177.455 152.346  1.00  0.00    -0.000 C 
BRANCH  27  28
ATOM     28  C   UNL     1     163.456 177.400 153.671  1.00  0.00    -0.000 C 
BRANCH  28  29
ATOM     29  C   UNL     1     163.776 176.195 154.575  1.00  0.00    -0.000 C 
BRANCH  29  30
ATOM     30  C   UNL     1     164.023 176.542 156.056  1.00  0.00    -0.000 C 
BRANCH  30  31
ATOM     31  C   UNL     1     165.458 176.290 156.552  1.00  0.00    -0.003 C 
ATOM     32  C   UNL     1     166.439 175.995 155.418  1.00  0.00     0.004 C 
ENDBRANCH  30  31
ENDBRANCH  29  30
ENDBRANCH  28  29
ENDBRANCH  27  28
ENDBRANCH  26  27
ENDBRANCH  25  26
ENDBRANCH  24  25
ENDBRANCH  23  24
ENDBRANCH  22  23
ENDBRANCH  21  22
ENDBRANCH  20  21
ENDBRANCH  19  20
ENDBRANCH  18  19
ENDBRANCH   1  18
TORSDOF 28
ENDMDL
MODEL 7
REMARK VINA RESULT:    -3.516      2.436      6.666
REMARK INTER + INTRA:         -15.471
REMARK INTER:                 -10.188
REMARK INTRA:                  -5.283
REMARK UNBOUND:                -6.200
REMARK SMILES CCCCCCCCCCCCCCCCCCCCCCCCCCCCCC(=O)[O-]
REMARK SMILES IDX 16 1 17 2 18 3 19 4 20 5 21 6 22 7 23 8 24 9 25 10 26 11
REMARK SMILES IDX 27 12 28 13 29 14 30 15 31 16 32 17 15 18 14 19 13 20 12 21
REMARK SMILES IDX 11 22 10 23 9 24 8 25 7 26 6 27 5 28 4 29 3 30 2 31 1 32
REMARK H PARENT
REMARK Flexibility Score: inf
ROOT
ATOM      1  C   UNL     1     175.355 174.511 151.080  1.00  0.00     0.000 C 
ENDROOT
BRANCH   1   2
ATOM      2  C   UNL     1     175.465 176.015 150.773  1.00  0.00     0.000 C 
BRANCH   2   3
ATOM      3  C   UNL     1     174.111 176.741 150.857  1.00  0.00     0.000 C 
BRANCH   3   4
ATOM      4  C   UNL     1     174.220 178.114 151.556  1.00  0.00     0.000 C 
BRANCH   4   5
ATOM      5  C   UNL     1     174.023 178.043 153.085  1.00  0.00     0.000 C 
BRANCH   5   6
ATOM      6  C   UNL     1     175.329 177.948 153.905  1.00  0.00     0.000 C 
BRANCH   6   7
ATOM      7  C   UNL     1     175.664 176.540 154.429  1.00  0.00     0.000 C 
BRANCH   7   8
ATOM      8  C   UNL     1     174.450 175.595 154.408  1.00  0.00     0.000 C 
BRANCH   8   9
ATOM      9  C   UNL     1     174.701 174.293 155.180  1.00  0.00     0.000 C 
BRANCH   9  10
ATOM     10  C   UNL     1     176.099 173.715 154.913  1.00  0.00     0.000 C 
BRANCH  10  11
ATOM     11  C   UNL     1     176.756 173.232 156.211  1.00  0.00     0.000 C 
BRANCH  11  12
ATOM     12  C   UNL     1     177.336 174.415 156.999  1.00  0.00     0.000 C 
BRANCH  12  13
ATOM     13  C   UNL     1     177.375 174.170 158.518  1.00  0.00     0.006 C 
BRANCH  13  14
ATOM     14  C   UNL     1     176.475 175.120 159.328  1.00  0.00     0.053 C 
BRANCH  14  15
ATOM     15  C   UNL     1     175.110 175.262 158.731  1.00  0.00     0.041 C 
ATOM     16  O   UNL     1     174.284 174.315 158.805  1.00  0.00    -0.550 OA
ATOM     17  O   UNL     1     174.742 176.446 158.105  1.00  0.00    -0.550 OA
ENDBRANCH  14  15
ENDBRANCH  13  14
ENDBRANCH  12  13
ENDBRANCH  11  12
ENDBRANCH  10  11
ENDBRANCH   9  10
ENDBRANCH   8   9
ENDBRANCH   7   8
ENDBRANCH   6   7
ENDBRANCH   5   6
ENDBRANCH   4   5
ENDBRANCH   3   4
ENDBRANCH   2   3
ENDBRANCH   1   2
BRANCH   1  18
ATOM     18  C   UNL     1     176.703 173.775 151.203  1.00  0.00     0.000 C 
BRANCH  18  19
ATOM     19  C   UNL     1     177.093 173.014 149.923  1.00  0.00     0.000 C 
BRANCH  19  20
ATOM     20  C   UNL     1     176.253 171.737 149.724  1.00  0.00     0.000 C 
BRANCH  20  21
ATOM     21  C   UNL     1     176.728 170.541 150.568  1.00  0.00     0.000 C 
BRANCH  21  22
ATOM     22  C   UNL     1     175.600 169.952 151.434  1.00  0.00     0.000 C 
BRANCH  22  23
ATOM     23  C   UNL     1     175.348 170.763 152.718  1.00  0.00     0.000 C 
BRANCH  23  24
ATOM     24  C   UNL     1     173.993 171.495 152.776  1.00  0.00    -0.000 C 
BRANCH  24  25
ATOM     25  C   UNL     1     172.921 170.966 151.807  1.00  0.00    -0.000 C 
BRANCH  25  26
ATOM     26  C   UNL     1     171.956 172.063 151.328  1.00  0.00    -0.000 C 
BRANCH  26  27
ATOM     27  C   UNL     1     172.138 173.391 152.084  1.00  0.00    -0.000 C 
BRANCH  27  28
ATOM     28  C   UNL     1     170.891 174.299 152.130  1.00  0.00    -0.000 C 
BRANCH  28  29
ATOM     29  C   UNL     1     171.112 175.686 152.763  1.00  0.00    -0.000 C 
BRANCH  29  30
ATOM     30  C   UNL     1     170.633 176.874 151.907  1.00  0.00    -0.000 C 
BRANCH  30  31
ATOM     31  C   UNL     1     169.108 176.978 151.734  1.00  0.00    -0.003 C 
ATOM     32  C   UNL     1     168.354 176.972 153.063  1.00  0.00     0.004 C 
ENDBRANCH  30  31
ENDBRANCH  29  30
ENDBRANCH  28  29
ENDBRANCH  27  28
ENDBRANCH  26  27
ENDBRANCH  25  26
ENDBRANCH  24  25
ENDBRANCH  23  24
ENDBRANCH  22  23
ENDBRANCH  21  22
ENDBRANCH  20  21
ENDBRANCH  19  20
ENDBRANCH  18  19
ENDBRANCH   1  18
TORSDOF 28
ENDMDL
MODEL 8
REMARK VINA RESULT:    -3.501      6.610     10.704
REMARK INTER + INTRA:         -15.430
REMARK INTER:                 -11.302
REMARK INTRA:                  -4.129
REMARK UNBOUND:                -6.200
REMARK SMILES CCCCCCCCCCCCCCCCCCCCCCCCCCCCCC(=O)[O-]
REMARK SMILES IDX 16 1 17 2 18 3 19 4 20 5 21 6 22 7 23 8 24 9 25 10 26 11
REMARK SMILES IDX 27 12 28 13 29 14 30 15 31 16 32 17 15 18 14 19 13 20 12 21
REMARK SMILES IDX 11 22 10 23 9 24 8 25 7 26 6 27 5 28 4 29 3 30 2 31 1 32
REMARK H PARENT
REMARK Flexibility Score: inf
ROOT
ATOM      1  C   UNL     1     164.490 173.612 153.402  1.00  0.00     0.000 C 
ENDROOT
BRANCH   1   2
ATOM      2  C   UNL     1     163.328 174.288 154.152  1.00  0.00     0.000 C 
BRANCH   2   3
ATOM      3  C   UNL     1     162.014 174.277 153.352  1.00  0.00     0.000 C 
BRANCH   3   4
ATOM      4  C   UNL     1     160.985 175.293 153.893  1.00  0.00     0.000 C 
BRANCH   4   5
ATOM      5  C   UNL     1     160.107 175.925 152.792  1.00  0.00     0.000 C 
BRANCH   5   6
ATOM      6  C   UNL     1     160.136 177.468 152.745  1.00  0.00     0.000 C 
BRANCH   6   7
ATOM      7  C   UNL     1     160.607 178.067 151.407  1.00  0.00     0.000 C 
BRANCH   7   8
ATOM      8  C   UNL     1     161.134 177.000 150.433  1.00  0.00     0.000 C 
BRANCH   8   9
ATOM      9  C   UNL     1     162.572 176.568 150.749  1.00  0.00     0.000 C 
BRANCH   9  10
ATOM     10  C   UNL     1     163.454 177.749 151.184  1.00  0.00     0.000 C 
BRANCH  10  11
ATOM     11  C   UNL     1     163.799 177.664 152.675  1.00  0.00     0.000 C 
BRANCH  11  12
ATOM     12  C   UNL     1     165.231 177.145 152.872  1.00  0.00     0.000 C 
BRANCH  12  13
ATOM     13  C   UNL     1     165.829 177.522 154.239  1.00  0.00     0.006 C 
BRANCH  13  14
ATOM     14  C   UNL     1     164.813 177.497 155.395  1.00  0.00     0.053 C 
BRANCH  14  15
ATOM     15  C   UNL     1     165.433 177.082 156.692  1.00  0.00     0.041 C 
ATOM     16  O   UNL     1     166.684 176.977 156.792  1.00  0.00    -0.550 OA
ATOM     17  O   UNL     1     164.632 176.827 157.798  1.00  0.00    -0.550 OA
ENDBRANCH  14  15
ENDBRANCH  13  14
ENDBRANCH  12  13
ENDBRANCH  11  12
ENDBRANCH  10  11
ENDBRANCH   9  10
ENDBRANCH   8   9
ENDBRANCH   7   8
ENDBRANCH   6   7
ENDBRANCH   5   6
ENDBRANCH   4   5
ENDBRANCH   3   4
ENDBRANCH   2   3
ENDBRANCH   1   2
BRANCH   1  18
ATOM     18  C   UNL     1     164.336 173.575 151.870  1.00  0.00     0.000 C 
BRANCH  18  19
ATOM     19  C   UNL     1     165.677 173.696 151.126  1.00  0.00     0.000 C 
BRANCH  19  20
ATOM     20  C   UNL     1     165.633 174.757 150.009  1.00  0.00     0.000 C 
BRANCH  20  21
ATOM     21  C   UNL     1     167.018 175.288 149.599  1.00  0.00     0.000 C 
BRANCH  21  22
ATOM     22  C   UNL     1     167.207 176.771 149.963  1.00  0.00     0.000 C 
BRANCH  22  23
ATOM     23  C   UNL     1     168.397 177.006 150.911  1.00  0.00     0.000 C 
BRANCH  23  24
ATOM     24  C   UNL     1     169.103 175.728 151.405  1.00  0.00    -0.000 C 
BRANCH  24  25
ATOM     25  C   UNL     1     170.497 175.946 152.020  1.00  0.00    -0.000 C 
BRANCH  25  26
ATOM     26  C   UNL     1     170.705 177.382 152.531  1.00  0.00    -0.000 C 
BRANCH  26  27
ATOM     27  C   UNL     1     171.910 178.082 151.877  1.00  0.00    -0.000 C 
BRANCH  27  28
ATOM     28  C   UNL     1     172.858 177.157 151.087  1.00  0.00    -0.000 C 
BRANCH  28  29
ATOM     29  C   UNL     1     174.194 177.796 150.662  1.00  0.00    -0.000 C 
BRANCH  29  30
ATOM     30  C   UNL     1     175.429 177.295 151.436  1.00  0.00    -0.000 C 
BRANCH  30  31
ATOM     31  C   UNL     1     175.496 175.771 151.638  1.00  0.00    -0.003 C 
ATOM     32  C   UNL     1     175.624 175.369 153.107  1.00  0.00     0.004 C 
ENDBRANCH  30  31
ENDBRANCH  29  30
ENDBRANCH  28  29
ENDBRANCH  27  28
ENDBRANCH  26  27
ENDBRANCH  25  26
ENDBRANCH  24  25
ENDBRANCH  23  24
ENDBRANCH  22  23
ENDBRANCH  21  22
ENDBRANCH  20  21
ENDBRANCH  19  20
ENDBRANCH  18  19
ENDBRANCH   1  18
TORSDOF 28
ENDMDL
MODEL 9
REMARK VINA RESULT:    -3.475      6.327      9.700
REMARK INTER + INTRA:         -15.363
REMARK INTER:                 -11.219
REMARK INTRA:                  -4.144
REMARK UNBOUND:                -6.200
REMARK SMILES CCCCCCCCCCCCCCCCCCCCCCCCCCCCCC(=O)[O-]
REMARK SMILES IDX 16 1 17 2 18 3 19 4 20 5 21 6 22 7 23 8 24 9 25 10 26 11
REMARK SMILES IDX 27 12 28 13 29 14 30 15 31 16 32 17 15 18 14 19 13 20 12 21
REMARK SMILES IDX 11 22 10 23 9 24 8 25 7 26 6 27 5 28 4 29 3 30 2 31 1 32
REMARK H PARENT
REMARK Flexibility Score: inf
ROOT
ATOM      1  C   UNL     1     164.244 176.935 151.255  1.00  0.00     0.000 C 
ENDROOT
BRANCH   1   2
ATOM      2  C   UNL     1     164.003 175.416 151.318  1.00  0.00     0.000 C 
BRANCH   2   3
ATOM      3  C   UNL     1     165.270 174.597 151.015  1.00  0.00     0.000 C 
BRANCH   3   4
ATOM      4  C   UNL     1     165.711 174.718 149.540  1.00  0.00     0.000 C 
BRANCH   4   5
ATOM      5  C   UNL     1     167.188 175.135 149.372  1.00  0.00     0.000 C 
BRANCH   5   6
ATOM      6  C   UNL     1     167.460 176.646 149.539  1.00  0.00     0.000 C 
BRANCH   6   7
ATOM      7  C   UNL     1     168.430 177.008 150.679  1.00  0.00     0.000 C 
BRANCH   7   8
ATOM      8  C   UNL     1     168.983 175.768 151.402  1.00  0.00     0.000 C 
BRANCH   8   9
ATOM      9  C   UNL     1     170.081 176.116 152.416  1.00  0.00     0.000 C 
BRANCH   9  10
ATOM     10  C   UNL     1     171.452 175.555 152.006  1.00  0.00     0.000 C 
BRANCH  10  11
ATOM     11  C   UNL     1     172.540 176.632 152.096  1.00  0.00     0.000 C 
BRANCH  11  12
ATOM     12  C   UNL     1     173.342 176.704 150.789  1.00  0.00     0.000 C 
BRANCH  12  13
ATOM     13  C   UNL     1     174.809 176.269 150.954  1.00  0.00     0.006 C 
BRANCH  13  14
ATOM     14  C   UNL     1     175.012 174.744 150.969  1.00  0.00     0.053 C 
BRANCH  14  15
ATOM     15  C   UNL     1     176.366 174.352 151.472  1.00  0.00     0.041 C 
ATOM     16  O   UNL     1     177.259 173.983 150.664  1.00  0.00    -0.550 OA
ATOM     17  O   UNL     1     176.650 174.409 152.830  1.00  0.00    -0.550 OA
ENDBRANCH  14  15
ENDBRANCH  13  14
ENDBRANCH  12  13
ENDBRANCH  11  12
ENDBRANCH  10  11
ENDBRANCH   9  10
ENDBRANCH   8   9
ENDBRANCH   7   8
ENDBRANCH   6   7
ENDBRANCH   5   6
ENDBRANCH   4   5
ENDBRANCH   3   4
ENDBRANCH   2   3
ENDBRANCH   1   2
BRANCH   1  18
ATOM     18  C   UNL     1     162.988 177.778 150.967  1.00  0.00     0.000 C 
BRANCH  18  19
ATOM     19  C   UNL     1     161.806 176.941 150.448  1.00  0.00     0.000 C 
BRANCH  19  20
ATOM     20  C   UNL     1     160.446 177.605 150.741  1.00  0.00     0.000 C 
BRANCH  20  21
ATOM     21  C   UNL     1     160.137 177.756 152.241  1.00  0.00     0.000 C 
BRANCH  21  22
ATOM     22  C   UNL     1     160.235 176.418 152.995  1.00  0.00     0.000 C 
BRANCH  22  23
ATOM     23  C   UNL     1     160.904 176.558 154.375  1.00  0.00     0.000 C 
BRANCH  23  24
ATOM     24  C   UNL     1     161.662 177.880 154.605  1.00  0.00    -0.000 C 
BRANCH  24  25
ATOM     25  C   UNL     1     163.189 177.743 154.746  1.00  0.00    -0.000 C 
BRANCH  25  26
ATOM     26  C   UNL     1     163.622 177.335 156.164  1.00  0.00    -0.000 C 
BRANCH  26  27
ATOM     27  C   UNL     1     164.074 175.866 156.252  1.00  0.00    -0.000 C 
BRANCH  27  28
ATOM     28  C   UNL     1     164.550 175.244 154.924  1.00  0.00    -0.000 C 
BRANCH  28  29
ATOM     29  C   UNL     1     164.247 173.743 154.756  1.00  0.00    -0.000 C 
BRANCH  29  30
ATOM     30  C   UNL     1     163.044 173.228 155.570  1.00  0.00    -0.000 C 
BRANCH  30  31
ATOM     31  C   UNL     1     161.740 173.063 154.769  1.00  0.00    -0.003 C 
ATOM     32  C   UNL     1     161.966 173.043 153.258  1.00  0.00     0.004 C 
ENDBRANCH  30  31
ENDBRANCH  29  30
ENDBRANCH  28  29
ENDBRANCH  27  28
ENDBRANCH  26  27
ENDBRANCH  25  26
ENDBRANCH  24  25
ENDBRANCH  23  24
ENDBRANCH  22  23
ENDBRANCH  21  22
ENDBRANCH  20  21
ENDBRANCH  19  20
ENDBRANCH  18  19
ENDBRANCH   1  18
TORSDOF 28
ENDMDL
