MODEL 1
REMARK VINA RESULT:     4.569      0.000      0.000
REMARK INTER + INTRA:           9.056
REMARK INTER:                  10.446
REMARK INTRA:                  -1.389
REMARK UNBOUND:                -1.389
REMARK SMILES CCCCCCCCCCCCCCCCCCCCCCCC(=O)[O-]
REMARK SMILES IDX 13 1 14 2 15 3 16 4 17 5 18 6 19 7 20 8 21 9 22 10 23 11
REMARK SMILES IDX 24 12 25 13 26 14 12 15 11 16 10 17 9 18 8 19 7 20 6 21 5 22
REMARK SMILES IDX 4 23 3 24 2 25 1 26
REMARK H PARENT
REMARK Flexibility Score: inf
ROOT
ATOM      1  C   UNL     1      -6.121  36.624  20.034  1.00  0.00     0.000 C 
ENDROOT
BRANCH   1   2
ATOM      2  C   UNL     1      -6.125  35.771  21.312  1.00  0.00     0.000 C 
BRANCH   2   3
ATOM      3  C   UNL     1      -4.730  35.243  21.680  1.00  0.00     0.000 C 
BRANCH   3   4
ATOM      4  C   UNL     1      -4.783  34.054  22.656  1.00  0.00     0.000 C 
BRANCH   4   5
ATOM      5  C   UNL     1      -6.114  33.976  23.418  1.00  0.00     0.000 C 
BRANCH   5   6
ATOM      6  C   UNL     1      -5.923  33.975  24.945  1.00  0.00     0.000 C 
BRANCH   6   7
ATOM      7  C   UNL     1      -6.124  35.365  25.570  1.00  0.00     0.000 C 
BRANCH   7   8
ATOM      8  C   UNL     1      -4.962  36.353  25.346  1.00  0.00     0.000 C 
BRANCH   8   9
ATOM      9  C   UNL     1      -5.347  37.833  25.557  1.00  0.00     0.000 C 
BRANCH   9  10
ATOM     10  C   UNL     1      -5.935  38.473  24.290  1.00  0.00     0.006 C 
BRANCH  10  11
ATOM     11  C   UNL     1      -4.930  39.424  23.635  1.00  0.00     0.053 C 
BRANCH  11  12
ATOM     12  C   UNL     1      -4.955  39.270  22.146  1.00  0.00     0.041 C 
ATOM     13  O   UNL     1      -3.923  38.892  21.532  1.00  0.00    -0.550 OA
ATOM     14  O   UNL     1      -6.103  39.591  21.433  1.00  0.00    -0.550 OA
ENDBRANCH  11  12
ENDBRANCH  10  11
ENDBRANCH   9  10
ENDBRANCH   8   9
ENDBRANCH   7   8
ENDBRANCH   6   7
ENDBRANCH   5   6
ENDBRANCH   4   5
ENDBRANCH   3   4
ENDBRANCH   2   3
ENDBRANCH   1   2
BRANCH   1  15
ATOM     15  C   UNL     1      -4.913  36.277  19.151  1.00  0.00     0.000 C 
BRANCH  15  16
ATOM     16  C   UNL     1      -4.821  34.777  18.828  1.00  0.00     0.000 C 
BRANCH  16  17
ATOM     17  C   UNL     1      -3.989  34.495  17.564  1.00  0.00     0.000 C 
BRANCH  17  18
ATOM     18  C   UNL     1      -3.707  35.765  16.746  1.00  0.00    -0.000 C 
BRANCH  18  19
ATOM     19  C   UNL     1      -2.404  35.666  15.931  1.00  0.00    -0.000 C 
BRANCH  19  20
ATOM     20  C   UNL     1      -2.585  36.116  14.472  1.00  0.00    -0.000 C 
BRANCH  20  21
ATOM     21  C   UNL     1      -3.966  35.741  13.906  1.00  0.00    -0.000 C 
BRANCH  21  22
ATOM     22  C   UNL     1      -4.945  36.931  13.875  1.00  0.00    -0.000 C 
BRANCH  22  23
ATOM     23  C   UNL     1      -4.282  38.322  13.887  1.00  0.00    -0.000 C 
BRANCH  23  24
ATOM     24  C   UNL     1      -5.237  39.438  14.338  1.00  0.00    -0.000 C 
BRANCH  24  25
ATOM     25  C   UNL     1      -4.589  40.816  14.165  1.00  0.00    -0.003 C 
ATOM     26  C   UNL     1      -5.624  41.931  14.286  1.00  0.00     0.004 C 
ENDBRANCH  24  25
ENDBRANCH  23  24
ENDBRANCH  22  23
ENDBRANCH  21  22
ENDBRANCH  20  21
ENDBRANCH  19  20
ENDBRANCH  18  19
ENDBRANCH  17  18
ENDBRANCH  16  17
ENDBRANCH  15  16
ENDBRANCH   1  15
TORSDOF 22
ENDMDL
MODEL 2
REMARK VINA RESULT:     5.804      3.081      9.896
REMARK INTER + INTRA:          11.880
REMARK INTER:                  12.253
REMARK INTRA:                  -0.373
REMARK UNBOUND:                -1.389
REMARK SMILES CCCCCCCCCCCCCCCCCCCCCCCC(=O)[O-]
REMARK SMILES IDX 13 1 14 2 15 3 16 4 17 5 18 6 19 7 20 8 21 9 22 10 23 11
REMARK SMILES IDX 24 12 25 13 26 14 12 15 11 16 10 17 9 18 8 19 7 20 6 21 5 22
REMARK SMILES IDX 4 23 3 24 2 25 1 26
REMARK H PARENT
REMARK Flexibility Score: inf
ROOT
ATOM      1  C   UNL     1      -6.068  36.403  22.138  1.00  0.00     0.000 C 
ENDROOT
BRANCH   1   2
ATOM      2  C   UNL     1      -5.539  37.447  21.144  1.00  0.00     0.000 C 
BRANCH   2   3
ATOM      3  C   UNL     1      -5.952  37.152  19.693  1.00  0.00     0.000 C 
BRANCH   3   4
ATOM      4  C   UNL     1      -4.789  36.613  18.841  1.00  0.00     0.000 C 
BRANCH   4   5
ATOM      5  C   UNL     1      -4.512  35.124  19.097  1.00  0.00     0.000 C 
BRANCH   5   6
ATOM      6  C   UNL     1      -4.709  34.262  17.838  1.00  0.00     0.000 C 
BRANCH   6   7
ATOM      7  C   UNL     1      -4.105  34.904  16.578  1.00  0.00     0.000 C 
BRANCH   7   8
ATOM      8  C   UNL     1      -2.623  35.309  16.702  1.00  0.00     0.000 C 
BRANCH   8   9
ATOM      9  C   UNL     1      -1.842  35.248  15.371  1.00  0.00     0.000 C 
BRANCH   9  10
ATOM     10  C   UNL     1      -2.442  36.168  14.297  1.00  0.00     0.006 C 
BRANCH  10  11
ATOM     11  C   UNL     1      -2.993  37.455  14.918  1.00  0.00     0.053 C 
BRANCH  11  12
ATOM     12  C   UNL     1      -4.300  37.823  14.288  1.00  0.00     0.041 C 
ATOM     13  O   UNL     1      -5.079  36.923  13.875  1.00  0.00    -0.550 OA
ATOM     14  O   UNL     1      -4.638  39.159  14.114  1.00  0.00    -0.550 OA
ENDBRANCH  11  12
ENDBRANCH  10  11
ENDBRANCH   9  10
ENDBRANCH   8   9
ENDBRANCH   7   8
ENDBRANCH   6   7
ENDBRANCH   5   6
ENDBRANCH   4   5
ENDBRANCH   3   4
ENDBRANCH   2   3
ENDBRANCH   1   2
BRANCH   1  15
ATOM     15  C   UNL     1      -5.185  35.146  22.129  1.00  0.00     0.000 C 
BRANCH  15  16
ATOM     16  C   UNL     1      -4.888  34.615  23.542  1.00  0.00     0.000 C 
BRANCH  16  17
ATOM     17  C   UNL     1      -6.113  34.688  24.470  1.00  0.00     0.000 C 
BRANCH  17  18
ATOM     18  C   UNL     1      -5.965  35.759  25.563  1.00  0.00    -0.000 C 
BRANCH  18  19
ATOM     19  C   UNL     1      -5.949  37.189  24.992  1.00  0.00    -0.000 C 
BRANCH  19  20
ATOM     20  C   UNL     1      -4.621  37.916  25.257  1.00  0.00    -0.000 C 
BRANCH  20  21
ATOM     21  C   UNL     1      -4.081  37.660  26.675  1.00  0.00    -0.000 C 
BRANCH  21  22
ATOM     22  C   UNL     1      -2.648  37.095  26.679  1.00  0.00    -0.000 C 
BRANCH  22  23
ATOM     23  C   UNL     1      -2.148  36.592  28.046  1.00  0.00    -0.000 C 
BRANCH  23  24
ATOM     24  C   UNL     1      -1.813  35.093  28.048  1.00  0.00    -0.000 C 
BRANCH  24  25
ATOM     25  C   UNL     1      -1.416  34.621  29.451  1.00  0.00    -0.003 C 
ATOM     26  C   UNL     1      -2.328  33.496  29.933  1.00  0.00     0.004 C 
ENDBRANCH  24  25
ENDBRANCH  23  24
ENDBRANCH  22  23
ENDBRANCH  21  22
ENDBRANCH  20  21
ENDBRANCH  19  20
ENDBRANCH  18  19
ENDBRANCH  17  18
ENDBRANCH  16  17
ENDBRANCH  15  16
ENDBRANCH   1  15
TORSDOF 22
ENDMDL
MODEL 3
REMARK VINA RESULT:     7.228      3.566      5.359
REMARK INTER + INTRA:          15.134
REMARK INTER:                  15.579
REMARK INTRA:                  -0.445
REMARK UNBOUND:                -1.389
REMARK SMILES CCCCCCCCCCCCCCCCCCCCCCCC(=O)[O-]
REMARK SMILES IDX 13 1 14 2 15 3 16 4 17 5 18 6 19 7 20 8 21 9 22 10 23 11
REMARK SMILES IDX 24 12 25 13 26 14 12 15 11 16 10 17 9 18 8 19 7 20 6 21 5 22
REMARK SMILES IDX 4 23 3 24 2 25 1 26
REMARK H PARENT
REMARK Flexibility Score: inf
ROOT
ATOM      1  C   UNL     1      -6.123  34.112  23.450  1.00  0.00     0.000 C 
ENDROOT
BRANCH   1   2
ATOM      2  C   UNL     1      -6.124  34.123  24.986  1.00  0.00     0.000 C 
BRANCH   2   3
ATOM      3  C   UNL     1      -6.067  35.543  25.571  1.00  0.00     0.000 C 
BRANCH   3   4
ATOM      4  C   UNL     1      -5.877  36.623  24.491  1.00  0.00     0.000 C 
BRANCH   4   5
ATOM      5  C   UNL     1      -5.725  38.031  25.086  1.00  0.00     0.000 C 
BRANCH   5   6
ATOM      6  C   UNL     1      -4.258  38.394  25.377  1.00  0.00     0.000 C 
BRANCH   6   7
ATOM      7  C   UNL     1      -3.739  37.767  26.682  1.00  0.00     0.000 C 
BRANCH   7   8
ATOM      8  C   UNL     1      -2.284  38.127  27.043  1.00  0.00     0.000 C 
BRANCH   8   9
ATOM      9  C   UNL     1      -1.410  36.909  27.411  1.00  0.00     0.000 C 
BRANCH   9  10
ATOM     10  C   UNL     1      -2.231  35.757  28.011  1.00  0.00     0.006 C 
BRANCH  10  11
ATOM     11  C   UNL     1      -1.388  34.486  28.136  1.00  0.00     0.053 C 
BRANCH  11  12
ATOM     12  C   UNL     1      -1.539  33.888  29.500  1.00  0.00     0.041 C 
ATOM     13  O   UNL     1      -0.977  32.796  29.778  1.00  0.00    -0.550 OA
ATOM     14  O   UNL     1      -2.338  34.513  30.449  1.00  0.00    -0.550 OA
ENDBRANCH  11  12
ENDBRANCH  10  11
ENDBRANCH   9  10
ENDBRANCH   8   9
ENDBRANCH   7   8
ENDBRANCH   6   7
ENDBRANCH   5   6
ENDBRANCH   4   5
ENDBRANCH   3   4
ENDBRANCH   2   3
ENDBRANCH   1   2
BRANCH   1  15
ATOM     15  C   UNL     1      -4.688  34.136  22.905  1.00  0.00     0.000 C 
BRANCH  15  16
ATOM     16  C   UNL     1      -4.585  34.806  21.525  1.00  0.00     0.000 C 
BRANCH  16  17
ATOM     17  C   UNL     1      -5.761  35.757  21.240  1.00  0.00     0.000 C 
BRANCH  17  18
ATOM     18  C   UNL     1      -5.348  36.971  20.393  1.00  0.00    -0.000 C 
BRANCH  18  19
ATOM     19  C   UNL     1      -4.939  36.581  18.961  1.00  0.00    -0.000 C 
BRANCH  19  20
ATOM     20  C   UNL     1      -4.903  35.059  18.751  1.00  0.00    -0.000 C 
BRANCH  20  21
ATOM     21  C   UNL     1      -4.460  34.670  17.329  1.00  0.00    -0.000 C 
BRANCH  21  22
ATOM     22  C   UNL     1      -3.727  35.809  16.596  1.00  0.00    -0.000 C 
BRANCH  22  23
ATOM     23  C   UNL     1      -3.051  35.405  15.273  1.00  0.00    -0.000 C 
BRANCH  23  24
ATOM     24  C   UNL     1      -3.388  36.354  14.112  1.00  0.00    -0.000 C 
BRANCH  24  25
ATOM     25  C   UNL     1      -3.681  37.768  14.627  1.00  0.00    -0.003 C 
ATOM     26  C   UNL     1      -4.897  38.368  13.928  1.00  0.00     0.004 C 
ENDBRANCH  24  25
ENDBRANCH  23  24
ENDBRANCH  22  23
ENDBRANCH  21  22
ENDBRANCH  20  21
ENDBRANCH  19  20
ENDBRANCH  18  19
ENDBRANCH  17  18
ENDBRANCH  16  17
ENDBRANCH  15  16
ENDBRANCH   1  15
TORSDOF 22
ENDMDL
