MODEL 1
REMARK VINA RESULT:    -5.526      0.000      0.000
REMARK INTER + INTRA:         -12.627
REMARK INTER:                 -10.696
REMARK INTRA:                  -1.932
REMARK UNBOUND:                -1.932
REMARK SMILES CCCCCCCCCCCCCCCCCC(=O)[O-]
REMARK SMILES IDX 10 1 11 2 12 3 13 4 14 5 15 6 16 7 17 8 18 9 19 10 20 11
REMARK SMILES IDX 9 12 8 13 7 14 6 15 5 16 4 17 3 18 2 19 1 20
REMARK H PARENT
REMARK Flexibility Score: inf
ROOT
ATOM      1  C   UNL     1     -96.274 -60.694 -65.092  1.00  0.00     0.000 C 
ENDROOT
BRANCH   1   2
ATOM      2  C   UNL     1     -95.288 -61.000 -66.233  1.00  0.00     0.000 C 
BRANCH   2   3
ATOM      3  C   UNL     1     -94.398 -62.222 -65.946  1.00  0.00     0.000 C 
BRANCH   3   4
ATOM      4  C   UNL     1     -93.172 -62.290 -66.871  1.00  0.00     0.000 C 
BRANCH   4   5
ATOM      5  C   UNL     1     -92.983 -63.683 -67.497  1.00  0.00     0.000 C 
BRANCH   5   6
ATOM      6  C   UNL     1     -93.361 -63.716 -68.986  1.00  0.00     0.000 C 
BRANCH   6   7
ATOM      7  C   UNL     1     -93.664 -62.318 -69.553  1.00  0.00     0.006 C 
BRANCH   7   8
ATOM      8  C   UNL     1     -95.172 -62.058 -69.676  1.00  0.00     0.053 C 
BRANCH   8   9
ATOM      9  C   UNL     1     -95.493 -61.196 -70.859  1.00  0.00     0.041 C 
ATOM     10  O   UNL     1     -94.577 -60.826 -71.640  1.00  0.00    -0.550 OA
ATOM     11  O   UNL     1     -96.797 -60.772 -71.078  1.00  0.00    -0.550 OA
ENDBRANCH   8   9
ENDBRANCH   7   8
ENDBRANCH   6   7
ENDBRANCH   5   6
ENDBRANCH   4   5
ENDBRANCH   3   4
ENDBRANCH   2   3
ENDBRANCH   1   2
BRANCH   1  12
ATOM     12  C   UNL     1     -96.857 -61.928 -64.378  1.00  0.00     0.000 C 
BRANCH  12  13
ATOM     13  C   UNL     1     -98.297 -61.708 -63.881  1.00  0.00    -0.000 C 
BRANCH  13  14
ATOM     14  C   UNL     1     -99.349 -62.270 -64.850  1.00  0.00    -0.000 C 
BRANCH  14  15
ATOM     15  C   UNL     1    -100.453 -61.256 -65.184  1.00  0.00    -0.000 C 
BRANCH  15  16
ATOM     16  C   UNL     1    -100.466 -60.935 -66.686  1.00  0.00    -0.000 C 
BRANCH  16  17
ATOM     17  C   UNL     1     -99.146 -61.302 -67.382  1.00  0.00    -0.000 C 
BRANCH  17  18
ATOM     18  C   UNL     1     -98.332 -60.064 -67.797  1.00  0.00    -0.000 C 
BRANCH  18  19
ATOM     19  C   UNL     1     -98.926 -58.758 -67.248  1.00  0.00    -0.003 C 
ATOM     20  C   UNL     1     -97.872 -57.849 -66.617  1.00  0.00     0.004 C 
ENDBRANCH  18  19
ENDBRANCH  17  18
ENDBRANCH  16  17
ENDBRANCH  15  16
ENDBRANCH  14  15
ENDBRANCH  13  14
ENDBRANCH  12  13
ENDBRANCH   1  12
TORSDOF 16
ENDMDL
MODEL 2
REMARK VINA RESULT:    -5.456      2.459      6.355
REMARK INTER + INTRA:         -12.491
REMARK INTER:                 -10.056
REMARK INTRA:                  -2.435
REMARK UNBOUND:                -1.932
REMARK SMILES CCCCCCCCCCCCCCCCCC(=O)[O-]
REMARK SMILES IDX 10 1 11 2 12 3 13 4 14 5 15 6 16 7 17 8 18 9 19 10 20 11
REMARK SMILES IDX 9 12 8 13 7 14 6 15 5 16 4 17 3 18 2 19 1 20
REMARK H PARENT
REMARK Flexibility Score: inf
ROOT
ATOM      1  C   UNL     1     -97.863 -61.424 -68.488  1.00  0.00     0.000 C 
ENDROOT
BRANCH   1   2
ATOM      2  C   UNL     1     -97.344 -60.034 -68.077  1.00  0.00     0.000 C 
BRANCH   2   3
ATOM      3  C   UNL     1     -96.735 -60.015 -66.664  1.00  0.00     0.000 C 
BRANCH   3   4
ATOM      4  C   UNL     1     -96.870 -61.367 -65.945  1.00  0.00     0.000 C 
BRANCH   4   5
ATOM      5  C   UNL     1     -97.031 -61.210 -64.423  1.00  0.00     0.000 C 
BRANCH   5   6
ATOM      6  C   UNL     1     -98.397 -61.704 -63.921  1.00  0.00     0.000 C 
BRANCH   6   7
ATOM      7  C   UNL     1     -99.338 -62.113 -65.067  1.00  0.00     0.006 C 
BRANCH   7   8
ATOM      8  C   UNL     1    -100.614 -61.261 -65.100  1.00  0.00     0.053 C 
BRANCH   8   9
ATOM      9  C   UNL     1    -100.710 -60.452 -66.358  1.00  0.00     0.041 C 
ATOM     10  O   UNL     1    -100.202 -59.302 -66.411  1.00  0.00    -0.550 OA
ATOM     11  O   UNL     1    -101.392 -60.955 -67.459  1.00  0.00    -0.550 OA
ENDBRANCH   8   9
ENDBRANCH   7   8
ENDBRANCH   6   7
ENDBRANCH   5   6
ENDBRANCH   4   5
ENDBRANCH   3   4
ENDBRANCH   2   3
ENDBRANCH   1   2
BRANCH   1  12
ATOM     12  C   UNL     1     -97.096 -62.099 -69.640  1.00  0.00     0.000 C 
BRANCH  12  13
ATOM     13  C   UNL     1     -96.130 -61.140 -70.359  1.00  0.00    -0.000 C 
BRANCH  13  14
ATOM     14  C   UNL     1     -94.696 -61.690 -70.430  1.00  0.00    -0.000 C 
BRANCH  14  15
ATOM     15  C   UNL     1     -94.652 -63.199 -70.715  1.00  0.00    -0.000 C 
BRANCH  15  16
ATOM     16  C   UNL     1     -93.492 -63.865 -69.959  1.00  0.00    -0.000 C 
BRANCH  16  17
ATOM     17  C   UNL     1     -92.983 -63.013 -68.787  1.00  0.00    -0.000 C 
BRANCH  17  18
ATOM     18  C   UNL     1     -93.275 -63.655 -67.418  1.00  0.00    -0.000 C 
BRANCH  18  19
ATOM     19  C   UNL     1     -93.463 -62.611 -66.307  1.00  0.00    -0.003 C 
ATOM     20  C   UNL     1     -93.157 -61.189 -66.775  1.00  0.00     0.004 C 
ENDBRANCH  18  19
ENDBRANCH  17  18
ENDBRANCH  16  17
ENDBRANCH  15  16
ENDBRANCH  14  15
ENDBRANCH  13  14
ENDBRANCH  12  13
ENDBRANCH   1  12
TORSDOF 16
ENDMDL
MODEL 3
REMARK VINA RESULT:    -5.418      2.891      5.949
REMARK INTER + INTRA:         -12.417
REMARK INTER:                 -10.136
REMARK INTRA:                  -2.281
REMARK UNBOUND:                -1.932
REMARK SMILES CCCCCCCCCCCCCCCCCC(=O)[O-]
REMARK SMILES IDX 10 1 11 2 12 3 13 4 14 5 15 6 16 7 17 8 18 9 19 10 20 11
REMARK SMILES IDX 9 12 8 13 7 14 6 15 5 16 4 17 3 18 2 19 1 20
REMARK H PARENT
REMARK Flexibility Score: inf
ROOT
ATOM      1  C   UNL     1     -94.855 -62.701 -70.597  1.00  0.00     0.000 C 
ENDROOT
BRANCH   1   2
ATOM      2  C   UNL     1     -95.290 -61.250 -70.869  1.00  0.00     0.000 C 
BRANCH   2   3
ATOM      3  C   UNL     1     -96.613 -60.880 -70.176  1.00  0.00     0.000 C 
BRANCH   3   4
ATOM      4  C   UNL     1     -97.371 -62.113 -69.656  1.00  0.00     0.000 C 
BRANCH   4   5
ATOM      5  C   UNL     1     -98.371 -61.761 -68.540  1.00  0.00     0.000 C 
BRANCH   5   6
ATOM      6  C   UNL     1     -99.584 -62.705 -68.518  1.00  0.00     0.000 C 
BRANCH   6   7
ATOM      7  C   UNL     1    -100.713 -62.199 -67.604  1.00  0.00     0.006 C 
BRANCH   7   8
ATOM      8  C   UNL     1    -100.451 -60.776 -67.094  1.00  0.00     0.053 C 
BRANCH   8   9
ATOM      9  C   UNL     1    -100.935 -60.591 -65.688  1.00  0.00     0.041 C 
ATOM     10  O   UNL     1    -100.544 -61.367 -64.777  1.00  0.00    -0.550 OA
ATOM     11  O   UNL     1    -101.845 -59.584 -65.391  1.00  0.00    -0.550 OA
ENDBRANCH   8   9
ENDBRANCH   7   8
ENDBRANCH   6   7
ENDBRANCH   5   6
ENDBRANCH   4   5
ENDBRANCH   3   4
ENDBRANCH   2   3
ENDBRANCH   1   2
BRANCH   1  12
ATOM     12  C   UNL     1     -93.374 -62.884 -70.218  1.00  0.00     0.000 C 
BRANCH  12  13
ATOM     13  C   UNL     1     -93.181 -63.353 -68.765  1.00  0.00    -0.000 C 
BRANCH  13  14
ATOM     14  C   UNL     1     -93.236 -62.193 -67.758  1.00  0.00    -0.000 C 
BRANCH  14  15
ATOM     15  C   UNL     1     -94.309 -62.393 -66.677  1.00  0.00    -0.000 C 
BRANCH  15  16
ATOM     16  C   UNL     1     -95.295 -61.215 -66.659  1.00  0.00    -0.000 C 
BRANCH  16  17
ATOM     17  C   UNL     1     -96.149 -61.177 -65.384  1.00  0.00    -0.000 C 
BRANCH  17  18
ATOM     18  C   UNL     1     -97.230 -60.081 -65.427  1.00  0.00    -0.000 C 
BRANCH  18  19
ATOM     19  C   UNL     1     -97.077 -59.153 -66.642  1.00  0.00    -0.003 C 
ATOM     20  C   UNL     1     -97.746 -57.795 -66.435  1.00  0.00     0.004 C 
ENDBRANCH  18  19
ENDBRANCH  17  18
ENDBRANCH  16  17
ENDBRANCH  15  16
ENDBRANCH  14  15
ENDBRANCH  13  14
ENDBRANCH  12  13
ENDBRANCH   1  12
TORSDOF 16
ENDMDL
MODEL 4
REMARK VINA RESULT:    -5.288      2.435      5.383
REMARK INTER + INTRA:         -12.167
REMARK INTER:                 -10.007
REMARK INTRA:                  -2.160
REMARK UNBOUND:                -1.932
REMARK SMILES CCCCCCCCCCCCCCCCCC(=O)[O-]
REMARK SMILES IDX 10 1 11 2 12 3 13 4 14 5 15 6 16 7 17 8 18 9 19 10 20 11
REMARK SMILES IDX 9 12 8 13 7 14 6 15 5 16 4 17 3 18 2 19 1 20
REMARK H PARENT
REMARK Flexibility Score: inf
ROOT
ATOM      1  C   UNL     1     -93.888 -62.994 -67.531  1.00  0.00     0.000 C 
ENDROOT
BRANCH   1   2
ATOM      2  C   UNL     1     -93.681 -62.162 -66.252  1.00  0.00     0.000 C 
BRANCH   2   3
ATOM      3  C   UNL     1     -94.819 -61.159 -65.997  1.00  0.00     0.000 C 
BRANCH   3   4
ATOM      4  C   UNL     1     -96.080 -61.830 -65.427  1.00  0.00     0.000 C 
BRANCH   4   5
ATOM      5  C   UNL     1     -96.773 -60.966 -64.359  1.00  0.00     0.000 C 
BRANCH   5   6
ATOM      6  C   UNL     1     -98.231 -61.391 -64.114  1.00  0.00     0.000 C 
BRANCH   6   7
ATOM      7  C   UNL     1     -98.857 -62.094 -65.331  1.00  0.00     0.006 C 
BRANCH   7   8
ATOM      8  C   UNL     1    -100.380 -62.225 -65.203  1.00  0.00     0.053 C 
BRANCH   8   9
ATOM      9  C   UNL     1    -101.092 -61.047 -65.797  1.00  0.00     0.041 C 
ATOM     10  O   UNL     1    -101.479 -60.104 -65.060  1.00  0.00    -0.550 OA
ATOM     11  O   UNL     1    -101.359 -61.010 -67.160  1.00  0.00    -0.550 OA
ENDBRANCH   8   9
ENDBRANCH   7   8
ENDBRANCH   6   7
ENDBRANCH   5   6
ENDBRANCH   4   5
ENDBRANCH   3   4
ENDBRANCH   2   3
ENDBRANCH   1   2
BRANCH   1  12
ATOM     12  C   UNL     1     -93.558 -62.268 -68.848  1.00  0.00     0.000 C 
BRANCH  12  13
ATOM     13  C   UNL     1     -94.574 -62.564 -69.966  1.00  0.00    -0.000 C 
BRANCH  13  14
ATOM     14  C   UNL     1     -95.488 -61.365 -70.265  1.00  0.00    -0.000 C 
BRANCH  14  15
ATOM     15  C   UNL     1     -96.979 -61.705 -70.128  1.00  0.00    -0.000 C 
BRANCH  15  16
ATOM     16  C   UNL     1     -97.462 -61.482 -68.686  1.00  0.00    -0.000 C 
BRANCH  16  17
ATOM     17  C   UNL     1     -97.316 -60.021 -68.233  1.00  0.00    -0.000 C 
BRANCH  17  18
ATOM     18  C   UNL     1     -98.567 -59.501 -67.503  1.00  0.00    -0.000 C 
BRANCH  18  19
ATOM     19  C   UNL     1     -98.372 -58.086 -66.937  1.00  0.00    -0.003 C 
ATOM     20  C   UNL     1     -97.066 -57.937 -66.158  1.00  0.00     0.004 C 
ENDBRANCH  18  19
ENDBRANCH  17  18
ENDBRANCH  16  17
ENDBRANCH  15  16
ENDBRANCH  14  15
ENDBRANCH  13  14
ENDBRANCH  12  13
ENDBRANCH   1  12
TORSDOF 16
ENDMDL
MODEL 5
REMARK VINA RESULT:    -5.277      1.610      4.741
REMARK INTER + INTRA:         -12.145
REMARK INTER:                  -9.747
REMARK INTRA:                  -2.398
REMARK UNBOUND:                -1.932
REMARK SMILES CCCCCCCCCCCCCCCCCC(=O)[O-]
REMARK SMILES IDX 10 1 11 2 12 3 13 4 14 5 15 6 16 7 17 8 18 9 19 10 20 11
REMARK SMILES IDX 9 12 8 13 7 14 6 15 5 16 4 17 3 18 2 19 1 20
REMARK H PARENT
REMARK Flexibility Score: inf
ROOT
ATOM      1  C   UNL     1    -100.309 -59.805 -66.352  1.00  0.00     0.000 C 
ENDROOT
BRANCH   1   2
ATOM      2  C   UNL     1    -100.808 -61.015 -67.162  1.00  0.00     0.000 C 
BRANCH   2   3
ATOM      3  C   UNL     1     -99.893 -62.245 -67.030  1.00  0.00     0.000 C 
BRANCH   3   4
ATOM      4  C   UNL     1     -99.791 -63.047 -68.338  1.00  0.00     0.000 C 
BRANCH   4   5
ATOM      5  C   UNL     1     -98.997 -62.300 -69.424  1.00  0.00     0.000 C 
BRANCH   5   6
ATOM      6  C   UNL     1     -97.515 -62.122 -69.053  1.00  0.00     0.000 C 
BRANCH   6   7
ATOM      7  C   UNL     1     -96.813 -61.055 -69.910  1.00  0.00     0.006 C 
BRANCH   7   8
ATOM      8  C   UNL     1     -96.352 -61.612 -71.263  1.00  0.00     0.053 C 
BRANCH   8   9
ATOM      9  C   UNL     1     -95.234 -62.598 -71.108  1.00  0.00     0.041 C 
ATOM     10  O   UNL     1     -95.317 -63.738 -71.634  1.00  0.00    -0.550 OA
ATOM     11  O   UNL     1     -94.116 -62.269 -70.351  1.00  0.00    -0.550 OA
ENDBRANCH   8   9
ENDBRANCH   7   8
ENDBRANCH   6   7
ENDBRANCH   5   6
ENDBRANCH   4   5
ENDBRANCH   3   4
ENDBRANCH   2   3
ENDBRANCH   1   2
BRANCH   1  12
ATOM     12  C   UNL     1     -99.491 -58.772 -67.149  1.00  0.00     0.000 C 
BRANCH  12  13
ATOM     13  C   UNL     1     -97.984 -59.082 -67.163  1.00  0.00    -0.000 C 
BRANCH  13  14
ATOM     14  C   UNL     1     -97.272 -58.611 -65.885  1.00  0.00    -0.000 C 
BRANCH  14  15
ATOM     15  C   UNL     1     -96.840 -59.776 -64.981  1.00  0.00    -0.000 C 
BRANCH  15  16
ATOM     16  C   UNL     1     -96.738 -61.082 -65.783  1.00  0.00    -0.000 C 
BRANCH  16  17
ATOM     17  C   UNL     1     -95.329 -61.692 -65.745  1.00  0.00    -0.000 C 
BRANCH  17  18
ATOM     18  C   UNL     1     -94.451 -61.225 -66.920  1.00  0.00    -0.000 C 
BRANCH  18  19
ATOM     19  C   UNL     1     -93.096 -61.947 -66.966  1.00  0.00    -0.003 C 
ATOM     20  C   UNL     1     -93.238 -63.460 -67.123  1.00  0.00     0.004 C 
ENDBRANCH  18  19
ENDBRANCH  17  18
ENDBRANCH  16  17
ENDBRANCH  15  16
ENDBRANCH  14  15
ENDBRANCH  13  14
ENDBRANCH  12  13
ENDBRANCH   1  12
TORSDOF 16
ENDMDL
MODEL 6
REMARK VINA RESULT:    -5.246      2.396      5.722
REMARK INTER + INTRA:         -12.084
REMARK INTER:                  -9.659
REMARK INTRA:                  -2.426
REMARK UNBOUND:                -1.932
REMARK SMILES CCCCCCCCCCCCCCCCCC(=O)[O-]
REMARK SMILES IDX 10 1 11 2 12 3 13 4 14 5 15 6 16 7 17 8 18 9 19 10 20 11
REMARK SMILES IDX 9 12 8 13 7 14 6 15 5 16 4 17 3 18 2 19 1 20
REMARK H PARENT
REMARK Flexibility Score: inf
ROOT
ATOM      1  C   UNL     1     -97.007 -58.916 -66.390  1.00  0.00     0.000 C 
ENDROOT
BRANCH   1   2
ATOM      2  C   UNL     1     -98.282 -58.820 -67.248  1.00  0.00     0.000 C 
BRANCH   2   3
ATOM      3  C   UNL     1     -99.570 -59.036 -66.434  1.00  0.00     0.000 C 
BRANCH   3   4
ATOM      4  C   UNL     1    -100.496 -60.090 -67.064  1.00  0.00     0.000 C 
BRANCH   4   5
ATOM      5  C   UNL     1    -100.640 -61.346 -66.186  1.00  0.00     0.000 C 
BRANCH   5   6
ATOM      6  C   UNL     1     -99.822 -62.534 -66.717  1.00  0.00     0.000 C 
BRANCH   6   7
ATOM      7  C   UNL     1     -99.428 -62.369 -68.195  1.00  0.00     0.006 C 
BRANCH   7   8
ATOM      8  C   UNL     1     -99.678 -63.648 -69.006  1.00  0.00     0.053 C 
BRANCH   8   9
ATOM      9  C   UNL     1    -101.049 -63.664 -69.611  1.00  0.00     0.041 C 
ATOM     10  O   UNL     1    -101.720 -62.602 -69.685  1.00  0.00    -0.550 OA
ATOM     11  O   UNL     1    -101.599 -64.858 -70.058  1.00  0.00    -0.550 OA
ENDBRANCH   8   9
ENDBRANCH   7   8
ENDBRANCH   6   7
ENDBRANCH   5   6
ENDBRANCH   4   5
ENDBRANCH   3   4
ENDBRANCH   2   3
ENDBRANCH   1   2
BRANCH   1  12
ATOM     12  C   UNL     1     -97.125 -59.795 -65.131  1.00  0.00     0.000 C 
BRANCH  12  13
ATOM     13  C   UNL     1     -96.622 -61.232 -65.354  1.00  0.00    -0.000 C 
BRANCH  13  14
ATOM     14  C   UNL     1     -95.791 -61.374 -66.639  1.00  0.00    -0.000 C 
BRANCH  14  15
ATOM     15  C   UNL     1     -94.388 -61.943 -66.379  1.00  0.00    -0.000 C 
BRANCH  15  16
ATOM     16  C   UNL     1     -93.525 -61.874 -67.649  1.00  0.00    -0.000 C 
BRANCH  16  17
ATOM     17  C   UNL     1     -93.978 -62.870 -68.727  1.00  0.00    -0.000 C 
BRANCH  17  18
ATOM     18  C   UNL     1     -94.308 -62.183 -70.065  1.00  0.00    -0.000 C 
BRANCH  18  19
ATOM     19  C   UNL     1     -95.792 -62.308 -70.440  1.00  0.00    -0.003 C 
ATOM     20  C   UNL     1     -96.590 -61.046 -70.118  1.00  0.00     0.004 C 
ENDBRANCH  18  19
ENDBRANCH  17  18
ENDBRANCH  16  17
ENDBRANCH  15  16
ENDBRANCH  14  15
ENDBRANCH  13  14
ENDBRANCH  12  13
ENDBRANCH   1  12
TORSDOF 16
ENDMDL
MODEL 7
REMARK VINA RESULT:    -5.192      2.572      6.295
REMARK INTER + INTRA:         -11.979
REMARK INTER:                 -10.098
REMARK INTRA:                  -1.882
REMARK UNBOUND:                -1.932
REMARK SMILES CCCCCCCCCCCCCCCCCC(=O)[O-]
REMARK SMILES IDX 10 1 11 2 12 3 13 4 14 5 15 6 16 7 17 8 18 9 19 10 20 11
REMARK SMILES IDX 9 12 8 13 7 14 6 15 5 16 4 17 3 18 2 19 1 20
REMARK H PARENT
REMARK Flexibility Score: inf
ROOT
ATOM      1  C   UNL     1     -94.927 -61.823 -65.928  1.00  0.00     0.000 C 
ENDROOT
BRANCH   1   2
ATOM      2  C   UNL     1     -95.528 -60.622 -66.680  1.00  0.00     0.000 C 
BRANCH   2   3
ATOM      3  C   UNL     1     -96.637 -59.910 -65.886  1.00  0.00     0.000 C 
BRANCH   3   4
ATOM      4  C   UNL     1     -96.959 -58.514 -66.445  1.00  0.00     0.000 C 
BRANCH   4   5
ATOM      5  C   UNL     1     -98.469 -58.300 -66.655  1.00  0.00     0.000 C 
BRANCH   5   6
ATOM      6  C   UNL     1     -99.121 -59.444 -67.449  1.00  0.00     0.000 C 
BRANCH   6   7
ATOM      7  C   UNL     1    -100.528 -59.795 -66.936  1.00  0.00     0.006 C 
BRANCH   7   8
ATOM      8  C   UNL     1    -100.674 -61.290 -66.625  1.00  0.00     0.053 C 
BRANCH   8   9
ATOM      9  C   UNL     1    -100.158 -61.628 -65.259  1.00  0.00     0.041 C 
ATOM     10  O   UNL     1    -100.819 -61.308 -64.237  1.00  0.00    -0.550 OA
ATOM     11  O   UNL     1     -98.931 -62.262 -65.115  1.00  0.00    -0.550 OA
ENDBRANCH   8   9
ENDBRANCH   7   8
ENDBRANCH   6   7
ENDBRANCH   5   6
ENDBRANCH   4   5
ENDBRANCH   3   4
ENDBRANCH   2   3
ENDBRANCH   1   2
BRANCH   1  12
ATOM     12  C   UNL     1     -93.504 -62.225 -66.359  1.00  0.00     0.000 C 
BRANCH  12  13
ATOM     13  C   UNL     1     -93.490 -63.382 -67.374  1.00  0.00    -0.000 C 
BRANCH  13  14
ATOM     14  C   UNL     1     -93.412 -62.890 -68.828  1.00  0.00    -0.000 C 
BRANCH  14  15
ATOM     15  C   UNL     1     -93.574 -64.026 -69.849  1.00  0.00    -0.000 C 
BRANCH  15  16
ATOM     16  C   UNL     1     -94.060 -63.482 -71.201  1.00  0.00    -0.000 C 
BRANCH  16  17
ATOM     17  C   UNL     1     -95.530 -63.039 -71.166  1.00  0.00    -0.000 C 
BRANCH  17  18
ATOM     18  C   UNL     1     -95.691 -61.514 -71.305  1.00  0.00    -0.000 C 
BRANCH  18  19
ATOM     19  C   UNL     1     -96.578 -60.913 -70.204  1.00  0.00    -0.003 C 
ATOM     20  C   UNL     1     -97.413 -61.967 -69.478  1.00  0.00     0.004 C 
ENDBRANCH  18  19
ENDBRANCH  17  18
ENDBRANCH  16  17
ENDBRANCH  15  16
ENDBRANCH  14  15
ENDBRANCH  13  14
ENDBRANCH  12  13
ENDBRANCH   1  12
TORSDOF 16
ENDMDL
MODEL 8
REMARK VINA RESULT:    -5.172      1.692      3.782
REMARK INTER + INTRA:         -11.942
REMARK INTER:                  -9.719
REMARK INTRA:                  -2.222
REMARK UNBOUND:                -1.932
REMARK SMILES CCCCCCCCCCCCCCCCCC(=O)[O-]
REMARK SMILES IDX 10 1 11 2 12 3 13 4 14 5 15 6 16 7 17 8 18 9 19 10 20 11
REMARK SMILES IDX 9 12 8 13 7 14 6 15 5 16 4 17 3 18 2 19 1 20
REMARK H PARENT
REMARK Flexibility Score: inf
ROOT
ATOM      1  C   UNL     1    -100.734 -61.364 -66.068  1.00  0.00     0.000 C 
ENDROOT
BRANCH   1   2
ATOM      2  C   UNL     1     -99.848 -62.319 -66.888  1.00  0.00     0.000 C 
BRANCH   2   3
ATOM      3  C   UNL     1    -100.474 -62.707 -68.239  1.00  0.00     0.000 C 
BRANCH   3   4
ATOM      4  C   UNL     1     -99.419 -62.928 -69.336  1.00  0.00     0.000 C 
BRANCH   4   5
ATOM      5  C   UNL     1     -98.081 -62.240 -69.012  1.00  0.00     0.000 C 
BRANCH   5   6
ATOM      6  C   UNL     1     -97.366 -61.723 -70.270  1.00  0.00     0.000 C 
BRANCH   6   7
ATOM      7  C   UNL     1     -96.034 -61.023 -69.951  1.00  0.00     0.006 C 
BRANCH   7   8
ATOM      8  C   UNL     1     -94.971 -62.007 -69.445  1.00  0.00     0.053 C 
BRANCH   8   9
ATOM      9  C   UNL     1     -94.264 -62.692 -70.575  1.00  0.00     0.041 C 
ATOM     10  O   UNL     1     -93.259 -62.157 -71.110  1.00  0.00    -0.550 OA
ATOM     11  O   UNL     1     -94.738 -63.905 -71.060  1.00  0.00    -0.550 OA
ENDBRANCH   8   9
ENDBRANCH   7   8
ENDBRANCH   6   7
ENDBRANCH   5   6
ENDBRANCH   4   5
ENDBRANCH   3   4
ENDBRANCH   2   3
ENDBRANCH   1   2
BRANCH   1  12
ATOM     12  C   UNL     1    -100.394 -61.275 -64.569  1.00  0.00     0.000 C 
BRANCH  12  13
ATOM     13  C   UNL     1     -99.135 -62.077 -64.192  1.00  0.00    -0.000 C 
BRANCH  13  14
ATOM     14  C   UNL     1     -97.883 -61.192 -64.081  1.00  0.00    -0.000 C 
BRANCH  14  15
ATOM     15  C   UNL     1     -96.607 -61.905 -64.551  1.00  0.00    -0.000 C 
BRANCH  15  16
ATOM     16  C   UNL     1     -95.952 -61.145 -65.715  1.00  0.00    -0.000 C 
BRANCH  16  17
ATOM     17  C   UNL     1     -96.952 -60.274 -66.490  1.00  0.00    -0.000 C 
BRANCH  17  18
ATOM     18  C   UNL     1     -96.677 -58.769 -66.326  1.00  0.00    -0.000 C 
BRANCH  18  19
ATOM     19  C   UNL     1     -97.940 -57.915 -66.513  1.00  0.00    -0.003 C 
ATOM     20  C   UNL     1     -99.027 -58.636 -67.308  1.00  0.00     0.004 C 
ENDBRANCH  18  19
ENDBRANCH  17  18
ENDBRANCH  16  17
ENDBRANCH  15  16
ENDBRANCH  14  15
ENDBRANCH  13  14
ENDBRANCH  12  13
ENDBRANCH   1  12
TORSDOF 16
ENDMDL
MODEL 9
REMARK VINA RESULT:    -5.079      1.987      5.853
REMARK INTER + INTRA:         -11.762
REMARK INTER:                  -9.922
REMARK INTRA:                  -1.839
REMARK UNBOUND:                -1.932
REMARK SMILES CCCCCCCCCCCCCCCCCC(=O)[O-]
REMARK SMILES IDX 10 1 11 2 12 3 13 4 14 5 15 6 16 7 17 8 18 9 19 10 20 11
REMARK SMILES IDX 9 12 8 13 7 14 6 15 5 16 4 17 3 18 2 19 1 20
REMARK H PARENT
REMARK Flexibility Score: inf
ROOT
ATOM      1  C   UNL     1     -96.429 -60.927 -66.335  1.00  0.00     0.000 C 
ENDROOT
BRANCH   1   2
ATOM      2  C   UNL     1     -96.795 -60.739 -64.851  1.00  0.00     0.000 C 
BRANCH   2   3
ATOM      3  C   UNL     1     -97.430 -61.993 -64.226  1.00  0.00     0.000 C 
BRANCH   3   4
ATOM      4  C   UNL     1     -98.901 -61.775 -63.833  1.00  0.00     0.000 C 
BRANCH   4   5
ATOM      5  C   UNL     1     -99.876 -62.196 -64.947  1.00  0.00     0.000 C 
BRANCH   5   6
ATOM      6  C   UNL     1    -100.590 -60.995 -65.588  1.00  0.00     0.000 C 
BRANCH   6   7
ATOM      7  C   UNL     1    -100.328 -60.888 -67.100  1.00  0.00     0.006 C 
BRANCH   7   8
ATOM      8  C   UNL     1     -99.361 -61.970 -67.599  1.00  0.00     0.053 C 
BRANCH   8   9
ATOM      9  C   UNL     1     -99.996 -62.849 -68.633  1.00  0.00     0.041 C 
ATOM     10  O   UNL     1     -99.279 -63.482 -69.452  1.00  0.00    -0.550 OA
ATOM     11  O   UNL     1    -101.380 -62.941 -68.716  1.00  0.00    -0.550 OA
ENDBRANCH   8   9
ENDBRANCH   7   8
ENDBRANCH   6   7
ENDBRANCH   5   6
ENDBRANCH   4   5
ENDBRANCH   3   4
ENDBRANCH   2   3
ENDBRANCH   1   2
BRANCH   1  12
ATOM     12  C   UNL     1     -94.931 -60.793 -66.665  1.00  0.00     0.000 C 
BRANCH  12  13
ATOM     13  C   UNL     1     -94.065 -61.856 -65.965  1.00  0.00    -0.000 C 
BRANCH  13  14
ATOM     14  C   UNL     1     -92.943 -62.392 -66.869  1.00  0.00    -0.000 C 
BRANCH  14  15
ATOM     15  C   UNL     1     -93.295 -63.738 -67.520  1.00  0.00    -0.000 C 
BRANCH  15  16
ATOM     16  C   UNL     1     -93.187 -63.651 -69.050  1.00  0.00    -0.000 C 
BRANCH  16  17
ATOM     17  C   UNL     1     -94.064 -62.538 -69.643  1.00  0.00    -0.000 C 
BRANCH  17  18
ATOM     18  C   UNL     1     -94.832 -62.996 -70.897  1.00  0.00    -0.000 C 
BRANCH  18  19
ATOM     19  C   UNL     1     -96.018 -62.077 -71.228  1.00  0.00    -0.003 C 
ATOM     20  C   UNL     1     -96.486 -61.260 -70.025  1.00  0.00     0.004 C 
ENDBRANCH  18  19
ENDBRANCH  17  18
ENDBRANCH  16  17
ENDBRANCH  15  16
ENDBRANCH  14  15
ENDBRANCH  13  14
ENDBRANCH  12  13
ENDBRANCH   1  12
TORSDOF 16
ENDMDL
