MODEL 1
REMARK VINA RESULT:    -6.742      0.000      0.000
REMARK INTER + INTRA:          -9.906
REMARK INTER:                  -8.910
REMARK INTRA:                  -0.996
REMARK UNBOUND:                -0.996
REMARK SMILES CC[C@@H](C=C[C@H](C)[C@H]1CC[C@@H]2C3=CC[C@@H]4C[C@@H](O)CC[C@@]4(C)[C@H]3CC[C@@]21C)C(C)C
REMARK SMILES IDX 6 1 7 2 5 3 4 4 3 5 2 6 1 7 28 8 29 9 30 10 8 11 9 12 26 13
REMARK SMILES IDX 10 14 11 15 25 16 27 17 12 18 24 19 23 20 13 21 21 22 14 23
REMARK SMILES IDX 15 24 20 25 22 26 16 27 19 28 17 29 18 30
REMARK H PARENT 18 31
REMARK Flexibility Score: inf
ROOT
ATOM      1  C   UNL     1       3.019  -1.876  -8.649  1.00  0.00     0.012 C 
ATOM      2  C   UNL     1       2.398  -3.208  -9.119  1.00  0.00     0.012 C 
ENDROOT
BRANCH   1   3
ATOM      3  C   UNL     1       2.051  -1.241  -7.674  1.00  0.00    -0.028 C 
ATOM      4  C   UNL     1       0.916  -0.642  -8.075  1.00  0.00    -0.027 C 
BRANCH   4   5
ATOM      5  C   UNL     1      -0.079  -0.038  -7.096  1.00  0.00     0.014 C 
BRANCH   5   6
ATOM      6  C   UNL     1      -1.413  -0.837  -7.150  1.00  0.00     0.004 C 
ATOM      7  C   UNL     1      -1.416  -1.915  -8.234  1.00  0.00     0.004 C 
ENDBRANCH   5   6
BRANCH   5   8
ATOM      8  C   UNL     1      -0.270   1.496  -7.341  1.00  0.00    -0.011 C 
ATOM      9  C   UNL     1       0.925   2.102  -8.096  1.00  0.00     0.008 C 
ATOM     10  C   UNL     1      -1.560   1.785  -8.137  1.00  0.00     0.008 C 
ENDBRANCH   5   8
ENDBRANCH   4   5
ENDBRANCH   1   3
BRANCH   1  11
ATOM     11  C   UNL     1       4.436  -1.977  -7.988  1.00  0.00     0.002 C 
ATOM     12  C   UNL     1       4.899  -3.380  -7.619  1.00  0.00     0.005 C 
ATOM     13  C   UNL     1       5.650  -1.314  -8.726  1.00  0.00    -0.023 C 
ATOM     14  C   UNL     1       6.346  -3.172  -7.206  1.00  0.00     0.009 C 
ATOM     15  C   UNL     1       6.889  -2.118  -8.184  1.00  0.00     0.021 C 
ATOM     16  C   UNL     1       5.695   0.212  -8.414  1.00  0.00     0.008 C 
ATOM     17  C   UNL     1       5.586  -1.493 -10.271  1.00  0.00     0.012 C 
ATOM     18  C   UNL     1       8.064  -1.332  -7.589  1.00  0.00    -0.067 C 
ATOM     19  C   UNL     1       7.108   0.787  -8.495  1.00  0.00     0.009 C 
ATOM     20  C   UNL     1       7.985   0.187  -7.377  1.00  0.00     0.021 C 
ATOM     21  C   UNL     1       9.204  -2.028  -7.352  1.00  0.00    -0.027 C 
ATOM     22  C   UNL     1       9.395   0.918  -7.138  1.00  0.00    -0.023 C 
ATOM     23  C   UNL     1      10.498  -1.371  -6.986  1.00  0.00     0.031 C 
ATOM     24  C   UNL     1      10.562   0.005  -7.644  1.00  0.00     0.002 C 
ATOM     25  C   UNL     1       9.521   2.289  -7.893  1.00  0.00     0.010 C 
ATOM     26  C   UNL     1       9.509   1.204  -5.607  1.00  0.00     0.012 C 
ATOM     27  C   UNL     1      11.957   0.649  -7.485  1.00  0.00     0.036 C 
ATOM     28  C   UNL     1      10.908   2.945  -7.756  1.00  0.00     0.032 C 
ATOM     29  C   UNL     1      12.035   2.007  -8.211  1.00  0.00     0.114 C 
BRANCH  29  30
ATOM     30  O   UNL     1      11.953   1.811  -9.601  1.00  0.00    -0.393 OA
ATOM     31  H   UNL     1      12.646   1.138  -9.845  1.00  0.00     0.210 HD
ENDBRANCH  29  30
ENDBRANCH   1  11
TORSDOF 6
ENDMDL
MODEL 2
REMARK VINA RESULT:    -6.523      3.221      9.173
REMARK INTER + INTRA:          -9.617
REMARK INTER:                  -8.514
REMARK INTRA:                  -1.103
REMARK UNBOUND:                -0.996
REMARK SMILES CC[C@@H](C=C[C@H](C)[C@H]1CC[C@@H]2C3=CC[C@@H]4C[C@@H](O)CC[C@@]4(C)[C@H]3CC[C@@]21C)C(C)C
REMARK SMILES IDX 6 1 7 2 5 3 4 4 3 5 2 6 1 7 28 8 29 9 30 10 8 11 9 12 26 13
REMARK SMILES IDX 10 14 11 15 25 16 27 17 12 18 24 19 23 20 13 21 21 22 14 23
REMARK SMILES IDX 15 24 20 25 22 26 16 27 19 28 17 29 18 30
REMARK H PARENT 18 31
REMARK Flexibility Score: inf
ROOT
ATOM      1  C   UNL     1       8.512   1.403 -10.226  1.00  0.00     0.012 C 
ATOM      2  C   UNL     1       9.374   1.597 -11.491  1.00  0.00     0.012 C 
ENDROOT
BRANCH   1   3
ATOM      3  C   UNL     1       9.215   2.104  -9.083  1.00  0.00    -0.028 C 
ATOM      4  C   UNL     1       9.235   1.603  -7.835  1.00  0.00    -0.027 C 
BRANCH   4   5
ATOM      5  C   UNL     1       9.973   2.284  -6.694  1.00  0.00     0.014 C 
BRANCH   5   6
ATOM      6  C   UNL     1      10.994   3.307  -7.271  1.00  0.00     0.004 C 
ATOM      7  C   UNL     1      11.037   4.615  -6.480  1.00  0.00     0.004 C 
ENDBRANCH   5   6
BRANCH   5   8
ATOM      8  C   UNL     1      10.628   1.242  -5.727  1.00  0.00    -0.011 C 
ATOM      9  C   UNL     1      10.467   1.656  -4.255  1.00  0.00     0.008 C 
ATOM     10  C   UNL     1      10.022  -0.165  -5.918  1.00  0.00     0.008 C 
ENDBRANCH   5   8
ENDBRANCH   4   5
ENDBRANCH   1   3
BRANCH   1  11
ATOM     11  C   UNL     1       7.034   1.912 -10.321  1.00  0.00     0.002 C 
ATOM     12  C   UNL     1       6.740   2.897 -11.445  1.00  0.00     0.005 C 
ATOM     13  C   UNL     1       5.884   0.848 -10.383  1.00  0.00    -0.023 C 
ATOM     14  C   UNL     1       5.228   3.035 -11.401  1.00  0.00     0.009 C 
ATOM     15  C   UNL     1       4.710   1.621 -11.092  1.00  0.00     0.021 C 
ATOM     16  C   UNL     1       5.541   0.348  -8.947  1.00  0.00     0.008 C 
ATOM     17  C   UNL     1       6.253  -0.389 -11.253  1.00  0.00     0.012 C 
ATOM     18  C   UNL     1       3.337   1.647 -10.408  1.00  0.00    -0.067 C 
ATOM     19  C   UNL     1       4.092  -0.121  -8.818  1.00  0.00     0.009 C 
ATOM     20  C   UNL     1       3.135   1.075  -8.998  1.00  0.00     0.021 C 
ATOM     21  C   UNL     1       2.299   2.111 -11.147  1.00  0.00    -0.027 C 
ATOM     22  C   UNL     1       1.606   0.803  -8.583  1.00  0.00    -0.023 C 
ATOM     23  C   UNL     1       0.872   1.995 -10.710  1.00  0.00     0.031 C 
ATOM     24  C   UNL     1       0.710   0.733  -9.866  1.00  0.00     0.002 C 
ATOM     25  C   UNL     1       1.403  -0.545  -7.804  1.00  0.00     0.010 C 
ATOM     26  C   UNL     1       1.173   1.970  -7.640  1.00  0.00     0.012 C 
ATOM     27  C   UNL     1      -0.775   0.437  -9.559  1.00  0.00     0.036 C 
ATOM     28  C   UNL     1      -0.072  -0.865  -7.497  1.00  0.00     0.032 C 
ATOM     29  C   UNL     1      -0.934  -0.875  -8.767  1.00  0.00     0.114 C 
BRANCH  29  30
ATOM     30  O   UNL     1      -0.573  -1.968  -9.573  1.00  0.00    -0.393 OA
ATOM     31  H   UNL     1      -1.196  -2.714  -9.356  1.00  0.00     0.210 HD
ENDBRANCH  29  30
ENDBRANCH   1  11
TORSDOF 6
ENDMDL
MODEL 3
REMARK VINA RESULT:    -6.412      3.320      9.220
REMARK INTER + INTRA:          -9.470
REMARK INTER:                  -8.250
REMARK INTRA:                  -1.220
REMARK UNBOUND:                -0.996
REMARK SMILES CC[C@@H](C=C[C@H](C)[C@H]1CC[C@@H]2C3=CC[C@@H]4C[C@@H](O)CC[C@@]4(C)[C@H]3CC[C@@]21C)C(C)C
REMARK SMILES IDX 6 1 7 2 5 3 4 4 3 5 2 6 1 7 28 8 29 9 30 10 8 11 9 12 26 13
REMARK SMILES IDX 10 14 11 15 25 16 27 17 12 18 24 19 23 20 13 21 21 22 14 23
REMARK SMILES IDX 15 24 20 25 22 26 16 27 19 28 17 29 18 30
REMARK H PARENT 18 31
REMARK Flexibility Score: inf
ROOT
ATOM      1  C   UNL     1       7.811   1.627 -10.739  1.00  0.00     0.012 C 
ATOM      2  C   UNL     1       8.628   2.186 -11.922  1.00  0.00     0.012 C 
ENDROOT
BRANCH   1   3
ATOM      3  C   UNL     1       8.568   1.950  -9.469  1.00  0.00    -0.028 C 
ATOM      4  C   UNL     1       8.482   1.185  -8.366  1.00  0.00    -0.027 C 
BRANCH   4   5
ATOM      5  C   UNL     1       9.272   1.483  -7.101  1.00  0.00     0.014 C 
BRANCH   5   6
ATOM      6  C   UNL     1      10.570   2.259  -7.470  1.00  0.00     0.004 C 
ATOM      7  C   UNL     1      10.600   3.675  -6.893  1.00  0.00     0.004 C 
ENDBRANCH   5   6
BRANCH   5   8
ATOM      8  C   UNL     1       9.547   0.184  -6.273  1.00  0.00    -0.011 C 
ATOM      9  C   UNL     1       8.780  -1.023  -6.842  1.00  0.00     0.008 C 
ATOM     10  C   UNL     1      11.052  -0.155  -6.236  1.00  0.00     0.008 C 
ENDBRANCH   5   8
ENDBRANCH   4   5
ENDBRANCH   1   3
BRANCH   1  11
ATOM     11  C   UNL     1       6.339   2.149 -10.617  1.00  0.00     0.002 C 
ATOM     12  C   UNL     1       5.936   3.240 -11.601  1.00  0.00     0.005 C 
ATOM     13  C   UNL     1       5.173   1.102 -10.649  1.00  0.00    -0.023 C 
ATOM     14  C   UNL     1       4.441   3.380 -11.373  1.00  0.00     0.009 C 
ATOM     15  C   UNL     1       3.939   1.945 -11.143  1.00  0.00     0.021 C 
ATOM     16  C   UNL     1       4.986   0.468  -9.237  1.00  0.00     0.008 C 
ATOM     17  C   UNL     1       5.422  -0.047 -11.669  1.00  0.00     0.012 C 
ATOM     18  C   UNL     1       2.652   1.912 -10.309  1.00  0.00    -0.067 C 
ATOM     19  C   UNL     1       3.554  -0.005  -8.990  1.00  0.00     0.009 C 
ATOM     20  C   UNL     1       2.601   1.207  -8.946  1.00  0.00     0.021 C 
ATOM     21  C   UNL     1       1.545   2.449 -10.878  1.00  0.00    -0.027 C 
ATOM     22  C   UNL     1       1.125   0.904  -8.388  1.00  0.00    -0.023 C 
ATOM     23  C   UNL     1       0.174   2.299 -10.294  1.00  0.00     0.031 C 
ATOM     24  C   UNL     1       0.089   0.962  -9.561  1.00  0.00     0.002 C 
ATOM     25  C   UNL     1       0.990  -0.511  -7.722  1.00  0.00     0.010 C 
ATOM     26  C   UNL     1       0.819   1.977  -7.295  1.00  0.00     0.012 C 
ATOM     27  C   UNL     1      -1.356   0.645  -9.118  1.00  0.00     0.036 C 
ATOM     28  C   UNL     1      -0.447  -0.853  -7.281  1.00  0.00     0.032 C 
ATOM     29  C   UNL     1      -1.446  -0.737  -8.441  1.00  0.00     0.114 C 
BRANCH  29  30
ATOM     30  O   UNL     1      -1.195  -1.748  -9.383  1.00  0.00    -0.393 OA
ATOM     31  H   UNL     1      -1.844  -1.625 -10.129  1.00  0.00     0.210 HD
ENDBRANCH  29  30
ENDBRANCH   1  11
TORSDOF 6
ENDMDL
MODEL 4
REMARK VINA RESULT:    -6.386      3.451      9.262
REMARK INTER + INTRA:          -9.436
REMARK INTER:                  -8.272
REMARK INTRA:                  -1.163
REMARK UNBOUND:                -0.996
REMARK SMILES CC[C@@H](C=C[C@H](C)[C@H]1CC[C@@H]2C3=CC[C@@H]4C[C@@H](O)CC[C@@]4(C)[C@H]3CC[C@@]21C)C(C)C
REMARK SMILES IDX 6 1 7 2 5 3 4 4 3 5 2 6 1 7 28 8 29 9 30 10 8 11 9 12 26 13
REMARK SMILES IDX 10 14 11 15 25 16 27 17 12 18 24 19 23 20 13 21 21 22 14 23
REMARK SMILES IDX 15 24 20 25 22 26 16 27 19 28 17 29 18 30
REMARK H PARENT 18 31
REMARK Flexibility Score: inf
ROOT
ATOM      1  C   UNL     1       7.387   1.999 -11.063  1.00  0.00     0.012 C 
ATOM      2  C   UNL     1       8.192   2.778 -12.125  1.00  0.00     0.012 C 
ENDROOT
BRANCH   1   3
ATOM      3  C   UNL     1       8.145   2.092  -9.757  1.00  0.00    -0.028 C 
ATOM      4  C   UNL     1       8.932   1.097  -9.310  1.00  0.00    -0.027 C 
BRANCH   4   5
ATOM      5  C   UNL     1       9.727   1.203  -8.018  1.00  0.00     0.014 C 
BRANCH   5   6
ATOM      6  C   UNL     1       8.844   0.736  -6.824  1.00  0.00     0.004 C 
ATOM      7  C   UNL     1       7.741  -0.236  -7.246  1.00  0.00     0.004 C 
ENDBRANCH   5   6
BRANCH   5   8
ATOM      8  C   UNL     1      10.317   2.639  -7.820  1.00  0.00    -0.011 C 
ATOM      9  C   UNL     1      10.631   2.923  -6.341  1.00  0.00     0.008 C 
ATOM     10  C   UNL     1      11.603   2.841  -8.649  1.00  0.00     0.008 C 
ENDBRANCH   5   8
ENDBRANCH   4   5
ENDBRANCH   1   3
BRANCH   1  11
ATOM     11  C   UNL     1       5.909   2.470 -10.845  1.00  0.00     0.002 C 
ATOM     12  C   UNL     1       5.420   3.579 -11.768  1.00  0.00     0.005 C 
ATOM     13  C   UNL     1       4.774   1.388 -10.849  1.00  0.00    -0.023 C 
ATOM     14  C   UNL     1       3.936   3.664 -11.456  1.00  0.00     0.009 C 
ATOM     15  C   UNL     1       3.491   2.207 -11.248  1.00  0.00     0.021 C 
ATOM     16  C   UNL     1       4.685   0.703  -9.452  1.00  0.00     0.008 C 
ATOM     17  C   UNL     1       5.002   0.281 -11.919  1.00  0.00     0.012 C 
ATOM     18  C   UNL     1       2.254   2.107 -10.347  1.00  0.00    -0.067 C 
ATOM     19  C   UNL     1       3.283   0.178  -9.144  1.00  0.00     0.009 C 
ATOM     20  C   UNL     1       2.298   1.357  -9.008  1.00  0.00     0.021 C 
ATOM     21  C   UNL     1       1.101   2.626 -10.837  1.00  0.00    -0.027 C 
ATOM     22  C   UNL     1       0.865   0.990  -8.382  1.00  0.00    -0.023 C 
ATOM     23  C   UNL     1      -0.230   2.414 -10.186  1.00  0.00     0.031 C 
ATOM     24  C   UNL     1      -0.235   1.053  -9.495  1.00  0.00     0.002 C 
ATOM     25  C   UNL     1       0.808  -0.450  -7.758  1.00  0.00     0.010 C 
ATOM     26  C   UNL     1       0.587   2.017  -7.238  1.00  0.00     0.012 C 
ATOM     27  C   UNL     1      -1.644   0.676  -8.985  1.00  0.00     0.036 C 
ATOM     28  C   UNL     1      -0.591  -0.851  -7.252  1.00  0.00     0.032 C 
ATOM     29  C   UNL     1      -1.656  -0.729  -8.351  1.00  0.00     0.114 C 
BRANCH  29  30
ATOM     30  O   UNL     1      -1.426  -1.701  -9.340  1.00  0.00    -0.393 OA
ATOM     31  H   UNL     1      -2.064  -1.522 -10.084  1.00  0.00     0.210 HD
ENDBRANCH  29  30
ENDBRANCH   1  11
TORSDOF 6
ENDMDL
MODEL 5
REMARK VINA RESULT:    -6.245      4.717      7.765
REMARK INTER + INTRA:          -9.250
REMARK INTER:                  -7.826
REMARK INTRA:                  -1.424
REMARK UNBOUND:                -0.996
REMARK SMILES CC[C@@H](C=C[C@H](C)[C@H]1CC[C@@H]2C3=CC[C@@H]4C[C@@H](O)CC[C@@]4(C)[C@H]3CC[C@@]21C)C(C)C
REMARK SMILES IDX 6 1 7 2 5 3 4 4 3 5 2 6 1 7 28 8 29 9 30 10 8 11 9 12 26 13
REMARK SMILES IDX 10 14 11 15 25 16 27 17 12 18 24 19 23 20 13 21 21 22 14 23
REMARK SMILES IDX 15 24 20 25 22 26 16 27 19 28 17 29 18 30
REMARK H PARENT 18 31
REMARK Flexibility Score: inf
ROOT
ATOM      1  C   UNL     1       8.292  -7.698  -4.646  1.00  0.00     0.012 C 
ATOM      2  C   UNL     1       8.938  -9.093  -4.772  1.00  0.00     0.012 C 
ENDROOT
BRANCH   1   3
ATOM      3  C   UNL     1       7.945  -7.486  -3.187  1.00  0.00    -0.028 C 
ATOM      4  C   UNL     1       8.803  -6.924  -2.319  1.00  0.00    -0.027 C 
BRANCH   4   5
ATOM      5  C   UNL     1       8.444  -6.673  -0.862  1.00  0.00     0.014 C 
BRANCH   5   6
ATOM      6  C   UNL     1       7.092  -7.371  -0.532  1.00  0.00     0.004 C 
ATOM      7  C   UNL     1       6.284  -6.629   0.532  1.00  0.00     0.004 C 
ENDBRANCH   5   6
BRANCH   5   8
ATOM      8  C   UNL     1       8.445  -5.146  -0.522  1.00  0.00    -0.011 C 
ATOM      9  C   UNL     1       9.440  -4.817   0.603  1.00  0.00     0.008 C 
ATOM     10  C   UNL     1       8.793  -4.291  -1.759  1.00  0.00     0.008 C 
ENDBRANCH   5   8
ENDBRANCH   4   5
ENDBRANCH   1   3
BRANCH   1  11
ATOM     11  C   UNL     1       9.157  -6.495  -5.156  1.00  0.00     0.002 C 
ATOM     12  C   UNL     1      10.599  -6.821  -5.524  1.00  0.00     0.005 C 
ATOM     13  C   UNL     1       8.605  -5.633  -6.344  1.00  0.00    -0.023 C 
ATOM     14  C   UNL     1      11.096  -5.534  -6.160  1.00  0.00     0.009 C 
ATOM     15  C   UNL     1       9.904  -5.011  -6.977  1.00  0.00     0.021 C 
ATOM     16  C   UNL     1       7.588  -4.579  -5.810  1.00  0.00     0.008 C 
ATOM     17  C   UNL     1       7.891  -6.490  -7.430  1.00  0.00     0.012 C 
ATOM     18  C   UNL     1       9.963  -3.490  -7.171  1.00  0.00    -0.067 C 
ATOM     19  C   UNL     1       7.520  -3.331  -6.689  1.00  0.00     0.009 C 
ATOM     20  C   UNL     1       8.860  -2.570  -6.627  1.00  0.00     0.021 C 
ATOM     21  C   UNL     1      10.982  -3.012  -7.928  1.00  0.00    -0.027 C 
ATOM     22  C   UNL     1       8.841  -1.087  -7.242  1.00  0.00    -0.023 C 
ATOM     23  C   UNL     1      11.055  -1.592  -8.394  1.00  0.00     0.031 C 
ATOM     24  C   UNL     1       9.638  -1.058  -8.590  1.00  0.00     0.002 C 
ATOM     25  C   UNL     1       7.395  -0.559  -7.550  1.00  0.00     0.010 C 
ATOM     26  C   UNL     1       9.478  -0.140  -6.176  1.00  0.00     0.012 C 
ATOM     27  C   UNL     1       9.640   0.328  -9.272  1.00  0.00     0.036 C 
ATOM     28  C   UNL     1       7.373   0.819  -8.239  1.00  0.00     0.032 C 
ATOM     29  C   UNL     1       8.205   0.829  -9.530  1.00  0.00     0.114 C 
BRANCH  29  30
ATOM     30  O   UNL     1       7.583   0.021 -10.498  1.00  0.00    -0.393 OA
ATOM     31  H   UNL     1       7.706  -0.926 -10.215  1.00  0.00     0.210 HD
ENDBRANCH  29  30
ENDBRANCH   1  11
TORSDOF 6
ENDMDL
MODEL 6
REMARK VINA RESULT:    -6.206      6.855      9.356
REMARK INTER + INTRA:          -9.197
REMARK INTER:                  -8.033
REMARK INTRA:                  -1.164
REMARK UNBOUND:                -0.996
REMARK SMILES CC[C@@H](C=C[C@H](C)[C@H]1CC[C@@H]2C3=CC[C@@H]4C[C@@H](O)CC[C@@]4(C)[C@H]3CC[C@@]21C)C(C)C
REMARK SMILES IDX 6 1 7 2 5 3 4 4 3 5 2 6 1 7 28 8 29 9 30 10 8 11 9 12 26 13
REMARK SMILES IDX 10 14 11 15 25 16 27 17 12 18 24 19 23 20 13 21 21 22 14 23
REMARK SMILES IDX 15 24 20 25 22 26 16 27 19 28 17 29 18 30
REMARK H PARENT 18 31
REMARK Flexibility Score: inf
ROOT
ATOM      1  C   UNL     1       8.845  -5.597  -6.058  1.00  0.00     0.012 C 
ATOM      2  C   UNL     1       8.743  -6.658  -7.173  1.00  0.00     0.012 C 
ENDROOT
BRANCH   1   3
ATOM      3  C   UNL     1       8.062  -4.383  -6.511  1.00  0.00    -0.028 C 
ATOM      4  C   UNL     1       8.604  -3.153  -6.551  1.00  0.00    -0.027 C 
BRANCH   4   5
ATOM      5  C   UNL     1       7.834  -1.937  -7.043  1.00  0.00     0.014 C 
BRANCH   5   6
ATOM      6  C   UNL     1       7.048  -2.307  -8.334  1.00  0.00     0.004 C 
ATOM      7  C   UNL     1       5.534  -2.178  -8.165  1.00  0.00     0.004 C 
ENDBRANCH   5   6
BRANCH   5   8
ATOM      8  C   UNL     1       8.771  -0.697  -7.227  1.00  0.00    -0.011 C 
ATOM      9  C   UNL     1       7.973   0.618  -7.239  1.00  0.00     0.008 C 
ATOM     10  C   UNL     1       9.837  -0.623  -6.114  1.00  0.00     0.008 C 
ENDBRANCH   5   8
ENDBRANCH   4   5
ENDBRANCH   1   3
BRANCH   1  11
ATOM     11  C   UNL     1       8.345  -6.043  -4.641  1.00  0.00     0.002 C 
ATOM     12  C   UNL     1       7.930  -7.503  -4.512  1.00  0.00     0.005 C 
ATOM     13  C   UNL     1       9.262  -5.755  -3.403  1.00  0.00    -0.023 C 
ATOM     14  C   UNL     1       7.700  -7.669  -3.019  1.00  0.00     0.009 C 
ATOM     15  C   UNL     1       8.808  -6.836  -2.354  1.00  0.00     0.021 C 
ATOM     16  C   UNL     1       9.069  -4.283  -2.927  1.00  0.00     0.008 C 
ATOM     17  C   UNL     1      10.773  -5.972  -3.709  1.00  0.00     0.012 C 
ATOM     18  C   UNL     1       8.409  -6.366  -0.949  1.00  0.00    -0.067 C 
ATOM     19  C   UNL     1       9.351  -4.107  -1.435  1.00  0.00     0.009 C 
ATOM     20  C   UNL     1       8.300  -4.873  -0.606  1.00  0.00     0.021 C 
ATOM     21  C   UNL     1       8.254  -7.328  -0.007  1.00  0.00    -0.027 C 
ATOM     22  C   UNL     1       8.277  -4.532   0.963  1.00  0.00    -0.023 C 
ATOM     23  C   UNL     1       8.087  -7.024   1.449  1.00  0.00     0.031 C 
ATOM     24  C   UNL     1       8.845  -5.741   1.780  1.00  0.00     0.002 C 
ATOM     25  C   UNL     1       9.138  -3.274   1.340  1.00  0.00     0.010 C 
ATOM     26  C   UNL     1       6.793  -4.225   1.344  1.00  0.00     0.012 C 
ATOM     27  C   UNL     1       8.893  -5.483   3.303  1.00  0.00     0.036 C 
ATOM     28  C   UNL     1       9.209  -3.004   2.855  1.00  0.00     0.032 C 
ATOM     29  C   UNL     1       9.720  -4.224   3.633  1.00  0.00     0.114 C 
BRANCH  29  30
ATOM     30  O   UNL     1      11.073  -4.446   3.326  1.00  0.00    -0.393 OA
ATOM     31  H   UNL     1      11.408  -5.143   3.954  1.00  0.00     0.210 HD
ENDBRANCH  29  30
ENDBRANCH   1  11
TORSDOF 6
ENDMDL
MODEL 7
REMARK VINA RESULT:    -6.172      3.179      9.457
REMARK INTER + INTRA:          -9.152
REMARK INTER:                  -8.057
REMARK INTRA:                  -1.095
REMARK UNBOUND:                -0.996
REMARK SMILES CC[C@@H](C=C[C@H](C)[C@H]1CC[C@@H]2C3=CC[C@@H]4C[C@@H](O)CC[C@@]4(C)[C@H]3CC[C@@]21C)C(C)C
REMARK SMILES IDX 6 1 7 2 5 3 4 4 3 5 2 6 1 7 28 8 29 9 30 10 8 11 9 12 26 13
REMARK SMILES IDX 10 14 11 15 25 16 27 17 12 18 24 19 23 20 13 21 21 22 14 23
REMARK SMILES IDX 15 24 20 25 22 26 16 27 19 28 17 29 18 30
REMARK H PARENT 18 31
REMARK Flexibility Score: inf
ROOT
ATOM      1  C   UNL     1       6.896  -0.754  -8.423  1.00  0.00     0.012 C 
ATOM      2  C   UNL     1       7.923  -0.996  -9.550  1.00  0.00     0.012 C 
ENDROOT
BRANCH   1   3
ATOM      3  C   UNL     1       7.627  -0.089  -7.276  1.00  0.00    -0.028 C 
ATOM      4  C   UNL     1       8.713   0.681  -7.467  1.00  0.00    -0.027 C 
BRANCH   4   5
ATOM      5  C   UNL     1       9.426   1.383  -6.322  1.00  0.00     0.014 C 
BRANCH   5   6
ATOM      6  C   UNL     1      10.283   2.555  -6.883  1.00  0.00     0.004 C 
ATOM      7  C   UNL     1      10.424   2.512  -8.405  1.00  0.00     0.004 C 
ENDBRANCH   5   6
BRANCH   5   8
ATOM      8  C   UNL     1      10.254   0.377  -5.455  1.00  0.00    -0.011 C 
ATOM      9  C   UNL     1      11.218  -0.454  -6.318  1.00  0.00     0.008 C 
ATOM     10  C   UNL     1      11.066   1.106  -4.364  1.00  0.00     0.008 C 
ENDBRANCH   5   8
ENDBRANCH   4   5
ENDBRANCH   1   3
BRANCH   1  11
ATOM     11  C   UNL     1       5.643   0.102  -8.812  1.00  0.00     0.002 C 
ATOM     12  C   UNL     1       5.836   1.076  -9.968  1.00  0.00     0.005 C 
ATOM     13  C   UNL     1       4.296  -0.642  -9.109  1.00  0.00    -0.023 C 
ATOM     14  C   UNL     1       4.430   1.589 -10.229  1.00  0.00     0.009 C 
ATOM     15  C   UNL     1       3.520   0.364 -10.037  1.00  0.00     0.021 C 
ATOM     16  C   UNL     1       3.563  -0.973  -7.774  1.00  0.00     0.008 C 
ATOM     17  C   UNL     1       4.502  -1.972  -9.892  1.00  0.00     0.012 C 
ATOM     18  C   UNL     1       2.092   0.765  -9.644  1.00  0.00    -0.067 C 
ATOM     19  C   UNL     1       2.047  -1.059  -7.941  1.00  0.00     0.009 C 
ATOM     20  C   UNL     1       1.479   0.328  -8.306  1.00  0.00     0.021 C 
ATOM     21  C   UNL     1       1.371   1.437 -10.575  1.00  0.00    -0.027 C 
ATOM     22  C   UNL     1      -0.119   0.466  -8.209  1.00  0.00    -0.023 C 
ATOM     23  C   UNL     1      -0.096   1.702 -10.434  1.00  0.00     0.031 C 
ATOM     24  C   UNL     1      -0.735   0.562  -9.645  1.00  0.00     0.002 C 
ATOM     25  C   UNL     1      -0.806  -0.750  -7.492  1.00  0.00     0.010 C 
ATOM     26  C   UNL     1      -0.418   1.748  -7.367  1.00  0.00     0.012 C 
ATOM     27  C   UNL     1      -2.276   0.661  -9.646  1.00  0.00     0.036 C 
ATOM     28  C   UNL     1      -2.345  -0.677  -7.489  1.00  0.00     0.032 C 
ATOM     29  C   UNL     1      -2.916  -0.531  -8.907  1.00  0.00     0.114 C 
BRANCH  29  30
ATOM     30  O   UNL     1      -2.693  -1.717  -9.629  1.00  0.00    -0.393 OA
ATOM     31  H   UNL     1      -2.796  -1.498 -10.595  1.00  0.00     0.210 HD
ENDBRANCH  29  30
ENDBRANCH   1  11
TORSDOF 6
ENDMDL
MODEL 8
REMARK VINA RESULT:    -5.996      3.600      8.833
REMARK INTER + INTRA:          -8.920
REMARK INTER:                  -8.007
REMARK INTRA:                  -0.913
REMARK UNBOUND:                -0.996
REMARK SMILES CC[C@@H](C=C[C@H](C)[C@H]1CC[C@@H]2C3=CC[C@@H]4C[C@@H](O)CC[C@@]4(C)[C@H]3CC[C@@]21C)C(C)C
REMARK SMILES IDX 6 1 7 2 5 3 4 4 3 5 2 6 1 7 28 8 29 9 30 10 8 11 9 12 26 13
REMARK SMILES IDX 10 14 11 15 25 16 27 17 12 18 24 19 23 20 13 21 21 22 14 23
REMARK SMILES IDX 15 24 20 25 22 26 16 27 19 28 17 29 18 30
REMARK H PARENT 18 31
REMARK Flexibility Score: inf
ROOT
ATOM      1  C   UNL     1       8.435  -2.671  -7.162  1.00  0.00     0.012 C 
ATOM      2  C   UNL     1       9.818  -2.144  -6.727  1.00  0.00     0.012 C 
ENDROOT
BRANCH   1   3
ATOM      3  C   UNL     1       7.975  -3.663  -6.114  1.00  0.00    -0.028 C 
ATOM      4  C   UNL     1       8.827  -4.244  -5.252  1.00  0.00    -0.027 C 
BRANCH   4   5
ATOM      5  C   UNL     1       8.364  -5.210  -4.173  1.00  0.00     0.014 C 
BRANCH   5   6
ATOM      6  C   UNL     1       9.353  -5.161  -2.972  1.00  0.00     0.004 C 
ATOM      7  C   UNL     1       8.748  -4.502  -1.731  1.00  0.00     0.004 C 
ENDBRANCH   5   6
BRANCH   5   8
ATOM      8  C   UNL     1       8.159  -6.654  -4.741  1.00  0.00    -0.011 C 
ATOM      9  C   UNL     1       9.376  -7.120  -5.557  1.00  0.00     0.008 C 
ATOM     10  C   UNL     1       7.896  -7.673  -3.613  1.00  0.00     0.008 C 
ENDBRANCH   5   8
ENDBRANCH   4   5
ENDBRANCH   1   3
BRANCH   1  11
ATOM     11  C   UNL     1       7.326  -1.586  -7.378  1.00  0.00     0.002 C 
ATOM     12  C   UNL     1       7.822  -0.162  -7.594  1.00  0.00     0.005 C 
ATOM     13  C   UNL     1       6.252  -1.832  -8.493  1.00  0.00    -0.023 C 
ATOM     14  C   UNL     1       6.558   0.594  -7.969  1.00  0.00     0.009 C 
ATOM     15  C   UNL     1       5.763  -0.380  -8.854  1.00  0.00     0.021 C 
ATOM     16  C   UNL     1       5.127  -2.767  -7.955  1.00  0.00     0.008 C 
ATOM     17  C   UNL     1       6.851  -2.480  -9.775  1.00  0.00     0.012 C 
ATOM     18  C   UNL     1       4.257  -0.089  -8.821  1.00  0.00    -0.067 C 
ATOM     19  C   UNL     1       3.786  -2.533  -8.648  1.00  0.00     0.009 C 
ATOM     20  C   UNL     1       3.253  -1.128  -8.301  1.00  0.00     0.021 C 
ATOM     21  C   UNL     1       3.853   1.088  -9.360  1.00  0.00    -0.027 C 
ATOM     22  C   UNL     1       1.720  -0.854  -8.697  1.00  0.00    -0.023 C 
ATOM     23  C   UNL     1       2.414   1.420  -9.605  1.00  0.00     0.031 C 
ATOM     24  C   UNL     1       1.650   0.134  -9.910  1.00  0.00     0.002 C 
ATOM     25  C   UNL     1       0.944  -2.154  -9.115  1.00  0.00     0.010 C 
ATOM     26  C   UNL     1       1.018  -0.266  -7.432  1.00  0.00     0.012 C 
ATOM     27  C   UNL     1       0.208   0.424 -10.381  1.00  0.00     0.036 C 
ATOM     28  C   UNL     1      -0.494  -1.886  -9.598  1.00  0.00     0.032 C 
ATOM     29  C   UNL     1      -0.534  -0.875 -10.752  1.00  0.00     0.114 C 
BRANCH  29  30
ATOM     30  O   UNL     1       0.045  -1.445 -11.899  1.00  0.00    -0.393 OA
ATOM     31  H   UNL     1       0.197  -2.410 -11.705  1.00  0.00     0.210 HD
ENDBRANCH  29  30
ENDBRANCH   1  11
TORSDOF 6
ENDMDL
MODEL 9
REMARK VINA RESULT:    -5.918      2.669      6.190
REMARK INTER + INTRA:          -8.817
REMARK INTER:                  -7.610
REMARK INTRA:                  -1.207
REMARK UNBOUND:                -0.996
REMARK SMILES CC[C@@H](C=C[C@H](C)[C@H]1CC[C@@H]2C3=CC[C@@H]4C[C@@H](O)CC[C@@]4(C)[C@H]3CC[C@@]21C)C(C)C
REMARK SMILES IDX 6 1 7 2 5 3 4 4 3 5 2 6 1 7 28 8 29 9 30 10 8 11 9 12 26 13
REMARK SMILES IDX 10 14 11 15 25 16 27 17 12 18 24 19 23 20 13 21 21 22 14 23
REMARK SMILES IDX 15 24 20 25 22 26 16 27 19 28 17 29 18 30
REMARK H PARENT 18 31
REMARK Flexibility Score: inf
ROOT
ATOM      1  C   UNL     1      -2.391   0.872  -8.178  1.00  0.00     0.012 C 
ATOM      2  C   UNL     1      -3.643   1.615  -8.690  1.00  0.00     0.012 C 
ENDROOT
BRANCH   1   3
ATOM      3  C   UNL     1      -2.734  -0.601  -8.105  1.00  0.00    -0.028 C 
ATOM      4  C   UNL     1      -2.555  -1.326  -6.986  1.00  0.00    -0.027 C 
BRANCH   4   5
ATOM      5  C   UNL     1      -2.935  -2.795  -6.896  1.00  0.00     0.014 C 
BRANCH   5   6
ATOM      6  C   UNL     1      -3.388  -3.128  -5.444  1.00  0.00     0.004 C 
ATOM      7  C   UNL     1      -3.496  -1.887  -4.557  1.00  0.00     0.004 C 
ENDBRANCH   5   6
BRANCH   5   8
ATOM      8  C   UNL     1      -1.781  -3.722  -7.407  1.00  0.00    -0.011 C 
ATOM      9  C   UNL     1      -1.692  -5.020  -6.586  1.00  0.00     0.008 C 
ATOM     10  C   UNL     1      -1.965  -4.085  -8.895  1.00  0.00     0.008 C 
ENDBRANCH   5   8
ENDBRANCH   4   5
ENDBRANCH   1   3
BRANCH   1  11
ATOM     11  C   UNL     1      -1.087   1.063  -9.026  1.00  0.00     0.002 C 
ATOM     12  C   UNL     1      -1.062   2.280  -9.942  1.00  0.00     0.005 C 
ATOM     13  C   UNL     1       0.291   1.070  -8.279  1.00  0.00    -0.023 C 
ATOM     14  C   UNL     1       0.368   2.301 -10.454  1.00  0.00     0.009 C 
ATOM     15  C   UNL     1       1.226   1.885  -9.248  1.00  0.00     0.021 C 
ATOM     16  C   UNL     1       0.764  -0.392  -8.018  1.00  0.00     0.008 C 
ATOM     17  C   UNL     1       0.233   1.813  -6.913  1.00  0.00     0.012 C 
ATOM     18  C   UNL     1       2.556   1.255  -9.678  1.00  0.00    -0.067 C 
ATOM     19  C   UNL     1       2.285  -0.512  -7.937  1.00  0.00     0.009 C 
ATOM     20  C   UNL     1       2.912  -0.193  -9.310  1.00  0.00     0.021 C 
ATOM     21  C   UNL     1       3.438   2.067 -10.312  1.00  0.00    -0.027 C 
ATOM     22  C   UNL     1       4.464  -0.577  -9.466  1.00  0.00    -0.023 C 
ATOM     23  C   UNL     1       4.853   1.671 -10.595  1.00  0.00     0.031 C 
ATOM     24  C   UNL     1       5.335   0.724  -9.499  1.00  0.00     0.002 C 
ATOM     25  C   UNL     1       5.006  -1.466  -8.291  1.00  0.00     0.010 C 
ATOM     26  C   UNL     1       4.602  -1.397 -10.788  1.00  0.00     0.012 C 
ATOM     27  C   UNL     1       6.850   0.444  -9.611  1.00  0.00     0.036 C 
ATOM     28  C   UNL     1       6.518  -1.750  -8.377  1.00  0.00     0.032 C 
ATOM     29  C   UNL     1       7.341  -0.456  -8.460  1.00  0.00     0.114 C 
BRANCH  29  30
ATOM     30  O   UNL     1       7.255   0.237  -7.240  1.00  0.00    -0.393 OA
ATOM     31  H   UNL     1       7.607   1.155  -7.397  1.00  0.00     0.210 HD
ENDBRANCH  29  30
ENDBRANCH   1  11
TORSDOF 6
ENDMDL
