MODEL 1
REMARK VINA RESULT:    -5.708      0.000      0.000
REMARK INTER + INTRA:          -6.915
REMARK INTER:                  -7.043
REMARK INTRA:                   0.128
REMARK UNBOUND:                 0.128
REMARK SMILES Oc1cc(O)c2cc(O)c(-c3cc(O)c(O)c(O)c3)[o+]c2c1.[Cl-]
REMARK SMILES IDX 10 1 20 2 21 3 22 4 2 5 3 6 4 7 6 8 7 9 8 10 11 11 12 12
REMARK SMILES IDX 13 13 19 14 15 15 17 16 14 17 16 19 18 21 9 23 1 25 5 27
REMARK H PARENT 14 18 16 20 18 22 9 24 1 26 5 28
REMARK Flexibility Score: inf
ROOT
ATOM      1  C   UNL     1      10.913  48.555  96.460  1.00  0.00     0.402 A 
ATOM      2  O   UNL     1      11.721  48.534  95.403  1.00  0.00    -0.202 OA
ATOM      3  C   UNL     1      12.915  49.117  95.385  1.00  0.00     0.368 A 
ATOM      4  C   UNL     1      13.694  49.038  94.228  1.00  0.00     0.162 A 
ATOM      5  C   UNL     1      14.954  49.641  94.184  1.00  0.00     0.128 A 
ATOM      6  C   UNL     1      15.438  50.325  95.301  1.00  0.00     0.093 A 
ATOM      7  C   UNL     1      14.678  50.418  96.473  1.00  0.00     0.136 A 
ATOM      8  C   UNL     1      13.396  49.811  96.523  1.00  0.00     0.125 A 
ATOM      9  C   UNL     1      12.559  49.865  97.649  1.00  0.00     0.078 A 
ATOM     10  C   UNL     1      11.306  49.245  97.622  1.00  0.00     0.223 A 
ENDROOT
BRANCH   1  11
ATOM     11  C   UNL     1       9.611  47.857  96.360  1.00  0.00     0.091 A 
ATOM     12  C   UNL     1       8.844  47.902  95.184  1.00  0.00     0.068 A 
ATOM     13  C   UNL     1       7.605  47.258  95.115  1.00  0.00     0.162 A 
ATOM     14  C   UNL     1       9.102  47.183  97.480  1.00  0.00     0.068 A 
ATOM     15  C   UNL     1       7.110  46.565  96.233  1.00  0.00     0.200 A 
ATOM     16  C   UNL     1       7.862  46.531  97.421  1.00  0.00     0.162 A 
BRANCH  13  17
ATOM     17  O   UNL     1       6.876  47.321  93.927  1.00  0.00    -0.504 OA
ATOM     18  H   UNL     1       7.115  46.762  93.118  1.00  0.00     0.293 HD
ENDBRANCH  13  17
BRANCH  15  19
ATOM     19  O   UNL     1       5.875  45.919  96.154  1.00  0.00    -0.502 OA
ATOM     20  H   UNL     1       5.005  46.429  96.069  1.00  0.00     0.293 HD
ENDBRANCH  15  19
BRANCH  16  21
ATOM     21  O   UNL     1       7.374  45.853  98.536  1.00  0.00    -0.504 OA
ATOM     22  H   UNL     1       6.699  46.277  99.162  1.00  0.00     0.293 HD
ENDBRANCH  16  21
ENDBRANCH   1  11
BRANCH  10  23
ATOM     23  O   UNL     1      10.454  49.340  98.722  1.00  0.00    -0.500 OA
ATOM     24  H   UNL     1      10.002  50.212  98.973  1.00  0.00     0.294 HD
ENDBRANCH  10  23
BRANCH   5  25
ATOM     25  O   UNL     1      15.736  49.566  93.032  1.00  0.00    -0.507 OA
ATOM     26  H   UNL     1      15.382  49.867  92.132  1.00  0.00     0.293 HD
ENDBRANCH   5  25
BRANCH   7  27
ATOM     27  O   UNL     1      15.235  51.117  97.548  1.00  0.00    -0.507 OA
ATOM     28  H   UNL     1      15.109  52.106  97.712  1.00  0.00     0.293 HD
ENDBRANCH   7  27
TORSDOF 7
ENDMDL
MODEL 2
REMARK VINA RESULT:    -5.568     14.242     16.764
REMARK INTER + INTRA:          -6.743
REMARK INTER:                  -6.369
REMARK INTRA:                  -0.373
REMARK UNBOUND:                 0.128
REMARK SMILES Oc1cc(O)c2cc(O)c(-c3cc(O)c(O)c(O)c3)[o+]c2c1.[Cl-]
REMARK SMILES IDX 10 1 20 2 21 3 22 4 2 5 3 6 4 7 6 8 7 9 8 10 11 11 12 12
REMARK SMILES IDX 13 13 19 14 15 15 17 16 14 17 16 19 18 21 9 23 1 25 5 27
REMARK H PARENT 14 18 16 20 18 22 9 24 1 26 5 28
REMARK Flexibility Score: inf
ROOT
ATOM      1  C   UNL     1      11.181  36.832  86.715  1.00  0.00     0.402 A 
ATOM      2  O   UNL     1      10.414  35.838  87.154  1.00  0.00    -0.202 OA
ATOM      3  C   UNL     1       9.112  35.968  87.384  1.00  0.00     0.368 A 
ATOM      4  C   UNL     1       8.388  34.863  87.842  1.00  0.00     0.162 A 
ATOM      5  C   UNL     1       7.017  34.973  88.090  1.00  0.00     0.128 A 
ATOM      6  C   UNL     1       6.366  36.190  87.877  1.00  0.00     0.093 A 
ATOM      7  C   UNL     1       7.068  37.310  87.419  1.00  0.00     0.136 A 
ATOM      8  C   UNL     1       8.461  37.207  87.169  1.00  0.00     0.125 A 
ATOM      9  C   UNL     1       9.248  38.281  86.721  1.00  0.00     0.078 A 
ATOM     10  C   UNL     1      10.617  38.103  86.500  1.00  0.00     0.223 A 
ENDROOT
BRANCH   1  11
ATOM     11  C   UNL     1      12.618  36.560  86.486  1.00  0.00     0.091 A 
ATOM     12  C   UNL     1      13.581  36.822  87.476  1.00  0.00     0.068 A 
ATOM     13  C   UNL     1      14.936  36.580  87.234  1.00  0.00     0.162 A 
ATOM     14  C   UNL     1      13.039  36.083  85.235  1.00  0.00     0.068 A 
ATOM     15  C   UNL     1      15.350  36.081  85.987  1.00  0.00     0.200 A 
ATOM     16  C   UNL     1      14.396  35.835  84.984  1.00  0.00     0.162 A 
BRANCH  13  17
ATOM     17  O   UNL     1      15.861  36.848  88.244  1.00  0.00    -0.504 OA
ATOM     18  H   UNL     1      15.688  36.604  89.211  1.00  0.00     0.293 HD
ENDBRANCH  13  17
BRANCH  15  19
ATOM     19  O   UNL     1      16.704  35.838  85.756  1.00  0.00    -0.502 OA
ATOM     20  H   UNL     1      17.337  36.562  85.439  1.00  0.00     0.293 HD
ENDBRANCH  15  19
BRANCH  16  21
ATOM     21  O   UNL     1      14.799  35.348  83.742  1.00  0.00    -0.504 OA
ATOM     22  H   UNL     1      15.761  35.084  83.561  1.00  0.00     0.293 HD
ENDBRANCH  16  21
ENDBRANCH   1  11
BRANCH  10  23
ATOM     23  O   UNL     1      11.407  39.182  86.103  1.00  0.00    -0.500 OA
ATOM     24  H   UNL     1      12.300  39.048  85.643  1.00  0.00     0.294 HD
ENDBRANCH  10  23
BRANCH   5  25
ATOM     25  O   UNL     1       6.290  33.875  88.547  1.00  0.00    -0.507 OA
ATOM     26  H   UNL     1       6.749  33.029  88.862  1.00  0.00     0.293 HD
ENDBRANCH   5  25
BRANCH   7  27
ATOM     27  O   UNL     1       6.343  38.490  87.229  1.00  0.00    -0.507 OA
ATOM     28  H   UNL     1       5.347  38.528  87.060  1.00  0.00     0.293 HD
ENDBRANCH   7  27
TORSDOF 7
ENDMDL
MODEL 3
REMARK VINA RESULT:    -5.538     14.099     16.616
REMARK INTER + INTRA:          -6.705
REMARK INTER:                  -6.342
REMARK INTRA:                  -0.364
REMARK UNBOUND:                 0.128
REMARK SMILES Oc1cc(O)c2cc(O)c(-c3cc(O)c(O)c(O)c3)[o+]c2c1.[Cl-]
REMARK SMILES IDX 10 1 20 2 21 3 22 4 2 5 3 6 4 7 6 8 7 9 8 10 11 11 12 12
REMARK SMILES IDX 13 13 19 14 15 15 17 16 14 17 16 19 18 21 9 23 1 25 5 27
REMARK H PARENT 14 18 16 20 18 22 9 24 1 26 5 28
REMARK Flexibility Score: inf
ROOT
ATOM      1  C   UNL     1      11.112  36.888  86.771  1.00  0.00     0.402 A 
ATOM      2  O   UNL     1      10.352  35.879  87.189  1.00  0.00    -0.202 OA
ATOM      3  C   UNL     1       9.057  36.004  87.459  1.00  0.00     0.368 A 
ATOM      4  C   UNL     1       8.341  34.884  87.890  1.00  0.00     0.162 A 
ATOM      5  C   UNL     1       6.978  34.988  88.178  1.00  0.00     0.128 A 
ATOM      6  C   UNL     1       6.327  36.215  88.034  1.00  0.00     0.093 A 
ATOM      7  C   UNL     1       7.022  37.352  87.604  1.00  0.00     0.136 A 
ATOM      8  C   UNL     1       8.407  37.253  87.313  1.00  0.00     0.125 A 
ATOM      9  C   UNL     1       9.187  38.342  86.889  1.00  0.00     0.078 A 
ATOM     10  C   UNL     1      10.549  38.169  86.624  1.00  0.00     0.223 A 
ENDROOT
BRANCH   1  11
ATOM     11  C   UNL     1      12.542  36.620  86.493  1.00  0.00     0.091 A 
ATOM     12  C   UNL     1      12.960  36.070  85.269  1.00  0.00     0.068 A 
ATOM     13  C   UNL     1      14.311  35.802  85.032  1.00  0.00     0.162 A 
ATOM     14  C   UNL     1      13.497  36.866  87.491  1.00  0.00     0.068 A 
ATOM     15  C   UNL     1      15.266  36.071  86.027  1.00  0.00     0.200 A 
ATOM     16  C   UNL     1      14.855  36.603  87.262  1.00  0.00     0.162 A 
BRANCH  13  17
ATOM     17  O   UNL     1      14.687  35.261  83.802  1.00  0.00    -0.504 OA
ATOM     18  H   UNL     1      14.197  35.482  82.944  1.00  0.00     0.293 HD
ENDBRANCH  13  17
BRANCH  15  19
ATOM     19  O   UNL     1      16.614  35.806  85.780  1.00  0.00    -0.502 OA
ATOM     20  H   UNL     1      17.272  36.536  85.537  1.00  0.00     0.293 HD
ENDBRANCH  15  19
BRANCH  16  21
ATOM     21  O   UNL     1      15.795  36.865  88.257  1.00  0.00    -0.504 OA
ATOM     22  H   UNL     1      15.550  37.374  89.098  1.00  0.00     0.293 HD
ENDBRANCH  16  21
ENDBRANCH   1  11
BRANCH  10  23
ATOM     23  O   UNL     1      11.333  39.260  86.251  1.00  0.00    -0.500 OA
ATOM     24  H   UNL     1      11.933  39.231  85.435  1.00  0.00     0.294 HD
ENDBRANCH  10  23
BRANCH   5  25
ATOM     25  O   UNL     1       6.257  33.875  88.609  1.00  0.00    -0.507 OA
ATOM     26  H   UNL     1       5.523  33.468  88.043  1.00  0.00     0.293 HD
ENDBRANCH   5  25
BRANCH   7  27
ATOM     27  O   UNL     1       6.298  38.541  87.483  1.00  0.00    -0.507 OA
ATOM     28  H   UNL     1       5.664  38.898  88.184  1.00  0.00     0.293 HD
ENDBRANCH   7  27
TORSDOF 7
ENDMDL
MODEL 4
REMARK VINA RESULT:    -5.285     14.490     15.700
REMARK INTER + INTRA:          -6.393
REMARK INTER:                  -6.033
REMARK INTRA:                  -0.360
REMARK UNBOUND:                 0.128
REMARK SMILES Oc1cc(O)c2cc(O)c(-c3cc(O)c(O)c(O)c3)[o+]c2c1.[Cl-]
REMARK SMILES IDX 10 1 20 2 21 3 22 4 2 5 3 6 4 7 6 8 7 9 8 10 11 11 12 12
REMARK SMILES IDX 13 13 19 14 15 15 17 16 14 17 16 19 18 21 9 23 1 25 5 27
REMARK H PARENT 14 18 16 20 18 22 9 24 1 26 5 28
REMARK Flexibility Score: inf
ROOT
ATOM      1  C   UNL     1      11.503  36.450  86.788  1.00  0.00     0.402 A 
ATOM      2  O   UNL     1      11.871  36.117  85.554  1.00  0.00    -0.202 OA
ATOM      3  C   UNL     1      13.134  36.124  85.141  1.00  0.00     0.368 A 
ATOM      4  C   UNL     1      13.422  35.755  83.825  1.00  0.00     0.162 A 
ATOM      5  C   UNL     1      14.742  35.751  83.367  1.00  0.00     0.128 A 
ATOM      6  C   UNL     1      15.779  36.117  84.228  1.00  0.00     0.093 A 
ATOM      7  C   UNL     1      15.517  36.491  85.551  1.00  0.00     0.136 A 
ATOM      8  C   UNL     1      14.178  36.500  86.021  1.00  0.00     0.125 A 
ATOM      9  C   UNL     1      13.820  36.874  87.327  1.00  0.00     0.078 A 
ATOM     10  C   UNL     1      12.477  36.861  87.717  1.00  0.00     0.223 A 
ENDROOT
BRANCH   1  11
ATOM     11  C   UNL     1      10.064  36.393  87.131  1.00  0.00     0.091 A 
ATOM     12  C   UNL     1       9.258  37.544  87.107  1.00  0.00     0.068 A 
ATOM     13  C   UNL     1       7.906  37.474  87.456  1.00  0.00     0.162 A 
ATOM     14  C   UNL     1       9.501  35.175  87.542  1.00  0.00     0.068 A 
ATOM     15  C   UNL     1       7.342  36.248  87.846  1.00  0.00     0.200 A 
ATOM     16  C   UNL     1       8.146  35.095  87.891  1.00  0.00     0.162 A 
BRANCH  13  17
ATOM     17  O   UNL     1       7.138  38.639  87.415  1.00  0.00    -0.504 OA
ATOM     18  H   UNL     1       7.475  39.520  87.781  1.00  0.00     0.293 HD
ENDBRANCH  13  17
BRANCH  15  19
ATOM     19  O   UNL     1       5.990  36.187  88.187  1.00  0.00    -0.502 OA
ATOM     20  H   UNL     1       5.630  36.598  89.039  1.00  0.00     0.293 HD
ENDBRANCH  15  19
BRANCH  16  21
ATOM     21  O   UNL     1       7.596  33.876  88.285  1.00  0.00    -0.504 OA
ATOM     22  H   UNL     1       8.129  33.015  88.245  1.00  0.00     0.293 HD
ENDBRANCH  16  21
ENDBRANCH   1  11
BRANCH  10  23
ATOM     23  O   UNL     1      12.117  37.279  88.998  1.00  0.00    -0.500 OA
ATOM     24  H   UNL     1      12.419  38.171  89.373  1.00  0.00     0.294 HD
ENDBRANCH  10  23
BRANCH   5  25
ATOM     25  O   UNL     1      15.036  35.384  82.055  1.00  0.00    -0.507 OA
ATOM     26  H   UNL     1      14.950  36.041  81.289  1.00  0.00     0.293 HD
ENDBRANCH   5  25
BRANCH   7  27
ATOM     27  O   UNL     1      16.610  36.841  86.349  1.00  0.00    -0.507 OA
ATOM     28  H   UNL     1      17.371  37.432  86.048  1.00  0.00     0.293 HD
ENDBRANCH   7  27
TORSDOF 7
ENDMDL
MODEL 5
REMARK VINA RESULT:    -5.136     13.978     16.540
REMARK INTER + INTRA:          -6.209
REMARK INTER:                  -5.877
REMARK INTRA:                  -0.332
REMARK UNBOUND:                 0.128
REMARK SMILES Oc1cc(O)c2cc(O)c(-c3cc(O)c(O)c(O)c3)[o+]c2c1.[Cl-]
REMARK SMILES IDX 10 1 20 2 21 3 22 4 2 5 3 6 4 7 6 8 7 9 8 10 11 11 12 12
REMARK SMILES IDX 13 13 19 14 15 15 17 16 14 17 16 19 18 21 9 23 1 25 5 27
REMARK H PARENT 14 18 16 20 18 22 9 24 1 26 5 28
REMARK Flexibility Score: inf
ROOT
ATOM      1  C   UNL     1      10.818  36.296  86.793  1.00  0.00     0.402 A 
ATOM      2  O   UNL     1      10.238  37.492  86.739  1.00  0.00    -0.202 OA
ATOM      3  C   UNL     1       8.960  37.698  87.041  1.00  0.00     0.368 A 
ATOM      4  C   UNL     1       8.441  38.993  86.957  1.00  0.00     0.162 A 
ATOM      5  C   UNL     1       7.102  39.237  87.272  1.00  0.00     0.128 A 
ATOM      6  C   UNL     1       6.278  38.183  87.673  1.00  0.00     0.093 A 
ATOM      7  C   UNL     1       6.773  36.877  87.765  1.00  0.00     0.136 A 
ATOM      8  C   UNL     1       8.132  36.622  87.444  1.00  0.00     0.125 A 
ATOM      9  C   UNL     1       8.711  35.344  87.494  1.00  0.00     0.078 A 
ATOM     10  C   UNL     1      10.058  35.170  87.159  1.00  0.00     0.223 A 
ENDROOT
BRANCH   1  11
ATOM     11  C   UNL     1      12.253  36.197  86.443  1.00  0.00     0.091 A 
ATOM     12  C   UNL     1      12.671  35.697  85.197  1.00  0.00     0.068 A 
ATOM     13  C   UNL     1      14.031  35.589  84.892  1.00  0.00     0.162 A 
ATOM     14  C   UNL     1      13.222  36.556  87.392  1.00  0.00     0.068 A 
ATOM     15  C   UNL     1      14.996  35.971  85.839  1.00  0.00     0.200 A 
ATOM     16  C   UNL     1      14.588  36.453  87.095  1.00  0.00     0.162 A 
BRANCH  13  17
ATOM     17  O   UNL     1      14.405  35.093  83.643  1.00  0.00    -0.504 OA
ATOM     18  H   UNL     1      13.738  34.673  83.008  1.00  0.00     0.293 HD
ENDBRANCH  13  17
BRANCH  15  19
ATOM     19  O   UNL     1      16.352  35.864  85.524  1.00  0.00    -0.502 OA
ATOM     20  H   UNL     1      16.924  36.675  85.323  1.00  0.00     0.293 HD
ENDBRANCH  15  19
BRANCH  16  21
ATOM     21  O   UNL     1      15.540  36.827  88.042  1.00  0.00    -0.504 OA
ATOM     22  H   UNL     1      15.275  37.256  88.921  1.00  0.00     0.293 HD
ENDBRANCH  16  21
ENDBRANCH   1  11
BRANCH  10  23
ATOM     23  O   UNL     1      10.620  33.894  87.162  1.00  0.00    -0.500 OA
ATOM     24  H   UNL     1      10.100  33.082  87.474  1.00  0.00     0.294 HD
ENDBRANCH  10  23
BRANCH   5  25
ATOM     25  O   UNL     1       6.578  40.526  87.190  1.00  0.00    -0.507 OA
ATOM     26  H   UNL     1       5.710  40.715  86.702  1.00  0.00     0.293 HD
ENDBRANCH   5  25
BRANCH   7  27
ATOM     27  O   UNL     1       5.885  35.879  88.177  1.00  0.00    -0.507 OA
ATOM     28  H   UNL     1       5.421  35.235  87.552  1.00  0.00     0.293 HD
ENDBRANCH   7  27
TORSDOF 7
ENDMDL
MODEL 6
REMARK VINA RESULT:    -5.103     12.013     13.349
REMARK INTER + INTRA:          -6.168
REMARK INTER:                  -5.896
REMARK INTRA:                  -0.272
REMARK UNBOUND:                 0.128
REMARK SMILES Oc1cc(O)c2cc(O)c(-c3cc(O)c(O)c(O)c3)[o+]c2c1.[Cl-]
REMARK SMILES IDX 10 1 20 2 21 3 22 4 2 5 3 6 4 7 6 8 7 9 8 10 11 11 12 12
REMARK SMILES IDX 13 13 19 14 15 15 17 16 14 17 16 19 18 21 9 23 1 25 5 27
REMARK H PARENT 14 18 16 20 18 22 9 24 1 26 5 28
REMARK Flexibility Score: inf
ROOT
ATOM      1  C   UNL     1      10.562  37.681  88.355  1.00  0.00     0.402 A 
ATOM      2  O   UNL     1      10.394  38.731  89.155  1.00  0.00    -0.202 OA
ATOM      3  C   UNL     1      11.403  39.397  89.706  1.00  0.00     0.368 A 
ATOM      4  C   UNL     1      11.127  40.490  90.532  1.00  0.00     0.162 A 
ATOM      5  C   UNL     1      12.169  41.209  91.121  1.00  0.00     0.128 A 
ATOM      6  C   UNL     1      13.494  40.836  90.885  1.00  0.00     0.093 A 
ATOM      7  C   UNL     1      13.798  39.745  90.062  1.00  0.00     0.136 A 
ATOM      8  C   UNL     1      12.743  39.008  89.463  1.00  0.00     0.125 A 
ATOM      9  C   UNL     1      12.953  37.893  88.635  1.00  0.00     0.078 A 
ATOM     10  C   UNL     1      11.862  37.214  88.083  1.00  0.00     0.223 A 
ENDROOT
BRANCH   1  11
ATOM     11  C   UNL     1       9.358  37.028  87.793  1.00  0.00     0.091 A 
ATOM     12  C   UNL     1       8.559  37.668  86.830  1.00  0.00     0.068 A 
ATOM     13  C   UNL     1       7.412  37.046  86.328  1.00  0.00     0.162 A 
ATOM     14  C   UNL     1       8.970  35.767  88.271  1.00  0.00     0.068 A 
ATOM     15  C   UNL     1       7.041  35.774  86.793  1.00  0.00     0.200 A 
ATOM     16  C   UNL     1       7.823  35.134  87.771  1.00  0.00     0.162 A 
BRANCH  13  17
ATOM     17  O   UNL     1       6.649  37.713  85.368  1.00  0.00    -0.504 OA
ATOM     18  H   UNL     1       5.721  37.403  85.108  1.00  0.00     0.293 HD
ENDBRANCH  13  17
BRANCH  15  19
ATOM     19  O   UNL     1       5.898  35.158  86.282  1.00  0.00    -0.502 OA
ATOM     20  H   UNL     1       5.679  35.162  85.293  1.00  0.00     0.293 HD
ENDBRANCH  15  19
BRANCH  16  21
ATOM     21  O   UNL     1       7.457  33.876  88.244  1.00  0.00    -0.504 OA
ATOM     22  H   UNL     1       6.794  33.765  89.002  1.00  0.00     0.293 HD
ENDBRANCH  16  21
ENDBRANCH   1  11
BRANCH  10  23
ATOM     23  O   UNL     1      12.068  36.078  87.302  1.00  0.00    -0.500 OA
ATOM     24  H   UNL     1      12.974  35.627  87.244  1.00  0.00     0.294 HD
ENDBRANCH  10  23
BRANCH   5  25
ATOM     25  O   UNL     1      11.900  42.301  91.946  1.00  0.00    -0.507 OA
ATOM     26  H   UNL     1      11.575  43.183  91.568  1.00  0.00     0.293 HD
ENDBRANCH   5  25
BRANCH   7  27
ATOM     27  O   UNL     1      15.148  39.437  89.874  1.00  0.00    -0.507 OA
ATOM     28  H   UNL     1      15.649  39.571  89.006  1.00  0.00     0.293 HD
ENDBRANCH   7  27
TORSDOF 7
ENDMDL
MODEL 7
REMARK VINA RESULT:    -5.096      3.562      6.765
REMARK INTER + INTRA:          -6.159
REMARK INTER:                  -5.787
REMARK INTRA:                  -0.372
REMARK UNBOUND:                 0.128
REMARK SMILES Oc1cc(O)c2cc(O)c(-c3cc(O)c(O)c(O)c3)[o+]c2c1.[Cl-]
REMARK SMILES IDX 10 1 20 2 21 3 22 4 2 5 3 6 4 7 6 8 7 9 8 10 11 11 12 12
REMARK SMILES IDX 13 13 19 14 15 15 17 16 14 17 16 19 18 21 9 23 1 25 5 27
REMARK H PARENT 14 18 16 20 18 22 9 24 1 26 5 28
REMARK Flexibility Score: inf
ROOT
ATOM      1  C   UNL     1      11.060  48.361  93.472  1.00  0.00     0.402 A 
ATOM      2  O   UNL     1      11.242  47.119  93.032  1.00  0.00    -0.202 OA
ATOM      3  C   UNL     1      10.608  46.619  91.977  1.00  0.00     0.368 A 
ATOM      4  C   UNL     1      10.868  45.302  91.588  1.00  0.00     0.162 A 
ATOM      5  C   UNL     1      10.217  44.752  90.481  1.00  0.00     0.128 A 
ATOM      6  C   UNL     1       9.304  45.522  89.756  1.00  0.00     0.093 A 
ATOM      7  C   UNL     1       9.027  46.844  90.125  1.00  0.00     0.136 A 
ATOM      8  C   UNL     1       9.682  47.407  91.251  1.00  0.00     0.125 A 
ATOM      9  C   UNL     1       9.456  48.718  91.701  1.00  0.00     0.078 A 
ATOM     10  C   UNL     1      10.138  49.202  92.822  1.00  0.00     0.223 A 
ENDROOT
BRANCH   1  11
ATOM     11  C   UNL     1      11.834  48.806  94.654  1.00  0.00     0.091 A 
ATOM     12  C   UNL     1      13.142  49.304  94.529  1.00  0.00     0.068 A 
ATOM     13  C   UNL     1      13.866  49.698  95.659  1.00  0.00     0.162 A 
ATOM     14  C   UNL     1      11.273  48.677  95.934  1.00  0.00     0.068 A 
ATOM     15  C   UNL     1      13.291  49.587  96.936  1.00  0.00     0.200 A 
ATOM     16  C   UNL     1      11.990  49.072  97.072  1.00  0.00     0.162 A 
BRANCH  13  17
ATOM     17  O   UNL     1      15.160  50.192  95.492  1.00  0.00    -0.504 OA
ATOM     18  H   UNL     1      15.881  49.665  95.016  1.00  0.00     0.293 HD
ENDBRANCH  13  17
BRANCH  15  19
ATOM     19  O   UNL     1      14.018  49.988  98.057  1.00  0.00    -0.502 OA
ATOM     20  H   UNL     1      14.436  50.907  98.129  1.00  0.00     0.293 HD
ENDBRANCH  15  19
BRANCH  16  21
ATOM     21  O   UNL     1      11.416  48.952  98.336  1.00  0.00    -0.504 OA
ATOM     22  H   UNL     1      11.875  49.312  99.165  1.00  0.00     0.293 HD
ENDBRANCH  16  21
ENDBRANCH   1  11
BRANCH  10  23
ATOM     23  O   UNL     1       9.877  50.487  93.298  1.00  0.00    -0.500 OA
ATOM     24  H   UNL     1      10.284  50.829  94.161  1.00  0.00     0.294 HD
ENDBRANCH  10  23
BRANCH   5  25
ATOM     25  O   UNL     1      10.471  43.439  90.089  1.00  0.00    -0.507 OA
ATOM     26  H   UNL     1       9.720  42.804  89.846  1.00  0.00     0.293 HD
ENDBRANCH   5  25
BRANCH   7  27
ATOM     27  O   UNL     1       8.104  47.549  89.347  1.00  0.00    -0.507 OA
ATOM     28  H   UNL     1       8.272  48.462  88.949  1.00  0.00     0.293 HD
ENDBRANCH   7  27
TORSDOF 7
ENDMDL
MODEL 8
REMARK VINA RESULT:    -5.057      4.041      6.088
REMARK INTER + INTRA:          -6.111
REMARK INTER:                  -5.736
REMARK INTRA:                  -0.376
REMARK UNBOUND:                 0.128
REMARK SMILES Oc1cc(O)c2cc(O)c(-c3cc(O)c(O)c(O)c3)[o+]c2c1.[Cl-]
REMARK SMILES IDX 10 1 20 2 21 3 22 4 2 5 3 6 4 7 6 8 7 9 8 10 11 11 12 12
REMARK SMILES IDX 13 13 19 14 15 15 17 16 14 17 16 19 18 21 9 23 1 25 5 27
REMARK H PARENT 14 18 16 20 18 22 9 24 1 26 5 28
REMARK Flexibility Score: inf
ROOT
ATOM      1  C   UNL     1      10.539  47.055  94.031  1.00  0.00     0.402 A 
ATOM      2  O   UNL     1      11.051  45.828  93.988  1.00  0.00    -0.202 OA
ATOM      3  C   UNL     1      11.169  45.126  92.866  1.00  0.00     0.368 A 
ATOM      4  C   UNL     1      11.723  43.844  92.920  1.00  0.00     0.162 A 
ATOM      5  C   UNL     1      11.862  43.086  91.755  1.00  0.00     0.128 A 
ATOM      6  C   UNL     1      11.446  43.611  90.529  1.00  0.00     0.093 A 
ATOM      7  C   UNL     1      10.888  44.892  90.448  1.00  0.00     0.136 A 
ATOM      8  C   UNL     1      10.742  45.666  91.628  1.00  0.00     0.125 A 
ATOM      9  C   UNL     1      10.181  46.953  91.644  1.00  0.00     0.078 A 
ATOM     10  C   UNL     1      10.066  47.654  92.849  1.00  0.00     0.223 A 
ENDROOT
BRANCH   1  11
ATOM     11  C   UNL     1      10.469  47.739  95.342  1.00  0.00     0.091 A 
ATOM     12  C   UNL     1      11.559  48.469  95.847  1.00  0.00     0.068 A 
ATOM     13  C   UNL     1      11.484  49.089  97.097  1.00  0.00     0.162 A 
ATOM     14  C   UNL     1       9.313  47.612  96.127  1.00  0.00     0.068 A 
ATOM     15  C   UNL     1      10.315  48.977  97.869  1.00  0.00     0.200 A 
ATOM     16  C   UNL     1       9.227  48.232  97.381  1.00  0.00     0.162 A 
BRANCH  13  17
ATOM     17  O   UNL     1      12.585  49.810  97.561  1.00  0.00    -0.504 OA
ATOM     18  H   UNL     1      12.798  50.742  97.229  1.00  0.00     0.293 HD
ENDBRANCH  13  17
BRANCH  15  19
ATOM     19  O   UNL     1      10.246  49.604  99.114  1.00  0.00    -0.502 OA
ATOM     20  H   UNL     1      10.878  49.373  99.870  1.00  0.00     0.293 HD
ENDBRANCH  15  19
BRANCH  16  21
ATOM     21  O   UNL     1       8.067  48.110  98.144  1.00  0.00    -0.504 OA
ATOM     22  H   UNL     1       7.992  48.520  99.067  1.00  0.00     0.293 HD
ENDBRANCH  16  21
ENDBRANCH   1  11
BRANCH  10  23
ATOM     23  O   UNL     1       9.465  48.912  92.871  1.00  0.00    -0.500 OA
ATOM     24  H   UNL     1       9.379  49.477  92.035  1.00  0.00     0.294 HD
ENDBRANCH  10  23
BRANCH   5  25
ATOM     25  O   UNL     1      12.413  41.806  91.803  1.00  0.00    -0.507 OA
ATOM     26  H   UNL     1      12.932  41.483  92.611  1.00  0.00     0.293 HD
ENDBRANCH   5  25
BRANCH   7  27
ATOM     27  O   UNL     1      10.500  45.346  89.184  1.00  0.00    -0.507 OA
ATOM     28  H   UNL     1       9.907  46.148  89.022  1.00  0.00     0.293 HD
ENDBRANCH   7  27
TORSDOF 7
ENDMDL
MODEL 9
REMARK VINA RESULT:    -4.961     13.136     14.894
REMARK INTER + INTRA:          -5.993
REMARK INTER:                  -5.724
REMARK INTRA:                  -0.270
REMARK UNBOUND:                 0.128
REMARK SMILES Oc1cc(O)c2cc(O)c(-c3cc(O)c(O)c(O)c3)[o+]c2c1.[Cl-]
REMARK SMILES IDX 10 1 20 2 21 3 22 4 2 5 3 6 4 7 6 8 7 9 8 10 11 11 12 12
REMARK SMILES IDX 13 13 19 14 15 15 17 16 14 17 16 19 18 21 9 23 1 25 5 27
REMARK H PARENT 14 18 16 20 18 22 9 24 1 26 5 28
REMARK Flexibility Score: inf
ROOT
ATOM      1  C   UNL     1      13.506  37.906  87.295  1.00  0.00     0.402 A 
ATOM      2  O   UNL     1      13.901  39.090  87.755  1.00  0.00    -0.202 OA
ATOM      3  C   UNL     1      13.301  39.719  88.760  1.00  0.00     0.368 A 
ATOM      4  C   UNL     1      13.792  40.960  89.177  1.00  0.00     0.162 A 
ATOM      5  C   UNL     1      13.182  41.641  90.233  1.00  0.00     0.128 A 
ATOM      6  C   UNL     1      12.076  41.080  90.877  1.00  0.00     0.093 A 
ATOM      7  C   UNL     1      11.566  39.839  90.479  1.00  0.00     0.136 A 
ATOM      8  C   UNL     1      12.180  39.143  89.405  1.00  0.00     0.125 A 
ATOM      9  C   UNL     1      11.728  37.901  88.930  1.00  0.00     0.078 A 
ATOM     10  C   UNL     1      12.383  37.278  87.864  1.00  0.00     0.223 A 
ENDROOT
BRANCH   1  11
ATOM     11  C   UNL     1      14.263  37.301  86.175  1.00  0.00     0.091 A 
ATOM     12  C   UNL     1      13.706  37.186  84.891  1.00  0.00     0.068 A 
ATOM     13  C   UNL     1      14.427  36.591  83.851  1.00  0.00     0.162 A 
ATOM     14  C   UNL     1      15.545  36.781  86.411  1.00  0.00     0.068 A 
ATOM     15  C   UNL     1      15.719  36.091  84.088  1.00  0.00     0.200 A 
ATOM     16  C   UNL     1      16.277  36.184  85.375  1.00  0.00     0.162 A 
BRANCH  13  17
ATOM     17  O   UNL     1      13.840  36.499  82.588  1.00  0.00    -0.504 OA
ATOM     18  H   UNL     1      14.129  35.807  81.909  1.00  0.00     0.293 HD
ENDBRANCH  13  17
BRANCH  15  19
ATOM     19  O   UNL     1      16.434  35.503  83.043  1.00  0.00    -0.502 OA
ATOM     20  H   UNL     1      17.281  35.914  82.672  1.00  0.00     0.293 HD
ENDBRANCH  15  19
BRANCH  16  21
ATOM     21  O   UNL     1      17.554  35.683  85.620  1.00  0.00    -0.504 OA
ATOM     22  H   UNL     1      17.875  34.818  85.201  1.00  0.00     0.293 HD
ENDBRANCH  16  21
ENDBRANCH   1  11
BRANCH  10  23
ATOM     23  O   UNL     1      11.904  36.068  87.360  1.00  0.00    -0.500 OA
ATOM     24  H   UNL     1      12.494  35.445  86.821  1.00  0.00     0.294 HD
ENDBRANCH  10  23
BRANCH   5  25
ATOM     25  O   UNL     1      13.666  42.879  90.652  1.00  0.00    -0.507 OA
ATOM     26  H   UNL     1      13.731  43.117  91.635  1.00  0.00     0.293 HD
ENDBRANCH   5  25
BRANCH   7  27
ATOM     27  O   UNL     1      10.460  39.345  91.177  1.00  0.00    -0.507 OA
ATOM     28  H   UNL     1      10.428  38.444  91.633  1.00  0.00     0.293 HD
ENDBRANCH   7  27
TORSDOF 7
ENDMDL
