MODEL 1
REMARK VINA RESULT:    -4.227      0.000      0.000
REMARK INTER + INTRA:          -6.976
REMARK INTER:                  -6.204
REMARK INTRA:                  -0.772
REMARK UNBOUND:                -0.772
REMARK SMILES O=c1c(O[C@@H]2O[C@@H](CO)[C@H](O)[C@H](O)[C@H]2O)c(-c2ccc(O)c(O)c2)oc2cc(O)cc(O)c12
REMARK SMILES IDX 4 1 3 2 16 3 25 4 2 5 26 6 1 7 33 8 27 9 31 10 28 11 30 12
REMARK SMILES IDX 17 13 18 14 19 15 20 16 24 17 22 18 21 19 23 21 32 23 29 25
REMARK SMILES IDX 5 27 14 28 6 29 12 30 7 31 10 32 15 33 13 35 8 37 9 38 11 40
REMARK H PARENT 21 20 23 22 32 24 29 26 15 34 13 36 9 39 11 41
REMARK Flexibility Score: inf
ROOT
ATOM      1  O   UNL     1      23.688  -8.545  31.150  1.00  0.00    -0.454 OA
ENDROOT
BRANCH   1   2
ATOM      2  C   UNL     1      24.857  -9.308  31.225  1.00  0.00     0.214 A 
ATOM      3  C   UNL     1      25.164 -10.009  32.403  1.00  0.00     0.180 A 
ATOM      4  O   UNL     1      26.324 -10.652  32.504  1.00  0.00    -0.452 OA
ATOM      5  C   UNL     1      25.742  -9.371  30.139  1.00  0.00     0.239 A 
ATOM      6  C   UNL     1      27.205 -10.725  31.510  1.00  0.00     0.146 A 
ATOM      7  O   UNL     1      25.466  -8.721  29.099  1.00  0.00    -0.285 OA
ATOM      8  C   UNL     1      26.934 -10.129  30.248  1.00  0.00     0.111 A 
ATOM      9  C   UNL     1      28.408 -11.395  31.735  1.00  0.00     0.094 A 
ATOM     10  C   UNL     1      27.890 -10.288  29.201  1.00  0.00     0.134 A 
ATOM     11  C   UNL     1      29.367 -11.482  30.724  1.00  0.00     0.123 A 
ATOM     12  C   UNL     1      29.104 -10.932  29.468  1.00  0.00     0.093 A 
BRANCH   3  13
ATOM     13  C   UNL     1      24.248 -10.023  33.568  1.00  0.00     0.025 A 
ATOM     14  C   UNL     1      23.361 -11.096  33.741  1.00  0.00     0.016 A 
ATOM     15  C   UNL     1      22.476 -11.116  34.822  1.00  0.00     0.051 A 
ATOM     16  C   UNL     1      22.456 -10.060  35.738  1.00  0.00     0.157 A 
ATOM     17  C   UNL     1      24.217  -8.954  34.484  1.00  0.00     0.062 A 
ATOM     18  C   UNL     1      23.327  -8.971  35.567  1.00  0.00     0.158 A 
BRANCH  16  19
ATOM     19  O   UNL     1      21.557 -10.103  36.799  1.00  0.00    -0.504 OA
ATOM     20  H   UNL     1      21.831 -10.419  37.724  1.00  0.00     0.293 HD
ENDBRANCH  16  19
BRANCH  18  21
ATOM     21  O   UNL     1      23.293  -7.903  36.461  1.00  0.00    -0.504 OA
ATOM     22  H   UNL     1      24.114  -7.336  36.655  1.00  0.00     0.293 HD
ENDBRANCH  18  21
ENDBRANCH   3  13
BRANCH  10  23
ATOM     23  O   UNL     1      27.685  -9.858  27.888  1.00  0.00    -0.507 OA
ATOM     24  H   UNL     1      28.322 -10.025  27.123  1.00  0.00     0.293 HD
ENDBRANCH  10  23
BRANCH  11  25
ATOM     25  O   UNL     1      30.583 -12.122  30.952  1.00  0.00    -0.508 OA
ATOM     26  H   UNL     1      30.707 -12.752  31.736  1.00  0.00     0.293 HD
ENDBRANCH  11  25
ENDBRANCH   1   2
BRANCH   1  27
ATOM     27  C   UNL     1      22.721  -8.699  30.109  1.00  0.00     0.339 C 
ATOM     28  C   UNL     1      22.607 -10.221  29.770  1.00  0.00     0.214 C 
ATOM     29  O   UNL     1      21.564  -7.982  30.509  1.00  0.00    -0.332 OA
ATOM     30  C   UNL     1      21.299 -10.945  30.192  1.00  0.00     0.180 C 
ATOM     31  C   UNL     1      20.319  -8.570  30.196  1.00  0.00     0.179 C 
ATOM     32  C   UNL     1      20.189 -10.012  30.701  1.00  0.00     0.177 C 
BRANCH  28  33
ATOM     33  O   UNL     1      22.834 -10.410  28.391  1.00  0.00    -0.384 OA
ATOM     34  H   UNL     1      23.424 -11.204  28.291  1.00  0.00     0.211 HD
ENDBRANCH  28  33
BRANCH  30  35
ATOM     35  O   UNL     1      21.596 -11.911  31.180  1.00  0.00    -0.387 OA
ATOM     36  H   UNL     1      21.681 -11.433  32.048  1.00  0.00     0.211 HD
ENDBRANCH  30  35
BRANCH  31  37
ATOM     37  C   UNL     1      19.876  -8.300  28.744  1.00  0.00     0.191 C 
BRANCH  37  38
ATOM     38  O   UNL     1      19.943  -6.940  28.409  1.00  0.00    -0.394 OA
ATOM     39  H   UNL     1      19.886  -6.883  27.418  1.00  0.00     0.210 HD
ENDBRANCH  37  38
ENDBRANCH  31  37
BRANCH  32  40
ATOM     40  O   UNL     1      20.110 -10.025  32.108  1.00  0.00    -0.387 OA
ATOM     41  H   UNL     1      20.034  -9.086  32.437  1.00  0.00     0.211 HD
ENDBRANCH  32  40
ENDBRANCH   1  27
TORSDOF 12
ENDMDL
MODEL 2
REMARK VINA RESULT:    -3.288      1.650      2.007
REMARK INTER + INTRA:          -5.598
REMARK INTER:                  -5.077
REMARK INTRA:                  -0.522
REMARK UNBOUND:                -0.772
REMARK SMILES O=c1c(O[C@@H]2O[C@@H](CO)[C@H](O)[C@H](O)[C@H]2O)c(-c2ccc(O)c(O)c2)oc2cc(O)cc(O)c12
REMARK SMILES IDX 4 1 3 2 16 3 25 4 2 5 26 6 1 7 33 8 27 9 31 10 28 11 30 12
REMARK SMILES IDX 17 13 18 14 19 15 20 16 24 17 22 18 21 19 23 21 32 23 29 25
REMARK SMILES IDX 5 27 14 28 6 29 12 30 7 31 10 32 15 33 13 35 8 37 9 38 11 40
REMARK H PARENT 21 20 23 22 32 24 29 26 15 34 13 36 9 39 11 41
REMARK Flexibility Score: inf
ROOT
ATOM      1  O   UNL     1      23.883 -11.421  30.567  1.00  0.00    -0.454 OA
ENDROOT
BRANCH   1   2
ATOM      2  C   UNL     1      25.243 -11.492  30.879  1.00  0.00     0.214 A 
ATOM      3  C   UNL     1      25.662 -11.419  32.218  1.00  0.00     0.180 A 
ATOM      4  O   UNL     1      26.961 -11.388  32.501  1.00  0.00    -0.452 OA
ATOM      5  C   UNL     1      26.205 -11.621  29.866  1.00  0.00     0.239 A 
ATOM      6  C   UNL     1      27.911 -11.488  31.576  1.00  0.00     0.146 A 
ATOM      7  O   UNL     1      25.819 -11.663  28.670  1.00  0.00    -0.285 OA
ATOM      8  C   UNL     1      27.581 -11.664  30.204  1.00  0.00     0.111 A 
ATOM      9  C   UNL     1      29.245 -11.407  31.979  1.00  0.00     0.094 A 
ATOM     10  C   UNL     1      28.641 -11.823  29.263  1.00  0.00     0.134 A 
ATOM     11  C   UNL     1      30.273 -11.492  31.039  1.00  0.00     0.123 A 
ATOM     12  C   UNL     1      29.967 -11.699  29.693  1.00  0.00     0.093 A 
BRANCH   3  13
ATOM     13  C   UNL     1      24.695 -11.331  33.337  1.00  0.00     0.025 A 
ATOM     14  C   UNL     1      24.891 -12.111  34.486  1.00  0.00     0.016 A 
ATOM     15  C   UNL     1      23.979 -12.056  35.544  1.00  0.00     0.051 A 
ATOM     16  C   UNL     1      22.852 -11.233  35.462  1.00  0.00     0.157 A 
ATOM     17  C   UNL     1      23.553 -10.512  33.252  1.00  0.00     0.062 A 
ATOM     18  C   UNL     1      22.635 -10.459  34.310  1.00  0.00     0.158 A 
BRANCH  16  19
ATOM     19  O   UNL     1      21.956 -11.206  36.526  1.00  0.00    -0.504 OA
ATOM     20  H   UNL     1      21.325 -11.977  36.718  1.00  0.00     0.293 HD
ENDBRANCH  16  19
BRANCH  18  21
ATOM     21  O   UNL     1      21.500  -9.657  34.211  1.00  0.00    -0.504 OA
ATOM     22  H   UNL     1      21.194  -9.058  34.974  1.00  0.00     0.293 HD
ENDBRANCH  18  21
ENDBRANCH   3  13
BRANCH  10  23
ATOM     23  O   UNL     1      28.445 -12.125  27.913  1.00  0.00    -0.507 OA
ATOM     24  H   UNL     1      27.925 -12.920  27.573  1.00  0.00     0.293 HD
ENDBRANCH  10  23
BRANCH  11  25
ATOM     25  O   UNL     1      31.605 -11.381  31.432  1.00  0.00    -0.508 OA
ATOM     26  H   UNL     1      32.351 -11.316  30.749  1.00  0.00     0.293 HD
ENDBRANCH  11  25
ENDBRANCH   1   2
BRANCH   1  27
ATOM     27  C   UNL     1      23.367 -10.620  29.501  1.00  0.00     0.339 C 
ATOM     28  C   UNL     1      21.890 -11.056  29.234  1.00  0.00     0.214 C 
ATOM     29  O   UNL     1      23.651  -9.269  29.824  1.00  0.00    -0.332 OA
ATOM     30  C   UNL     1      20.771 -10.060  29.645  1.00  0.00     0.180 C 
ATOM     31  C   UNL     1      22.657  -8.321  29.496  1.00  0.00     0.179 C 
ATOM     32  C   UNL     1      21.278  -8.672  30.068  1.00  0.00     0.177 C 
BRANCH  28  33
ATOM     33  O   UNL     1      21.745 -11.404  27.875  1.00  0.00    -0.384 OA
ATOM     34  H   UNL     1      21.365 -12.322  27.840  1.00  0.00     0.211 HD
ENDBRANCH  28  33
BRANCH  30  35
ATOM     35  O   UNL     1      20.004 -10.623  30.690  1.00  0.00    -0.387 OA
ATOM     36  H   UNL     1      19.076 -10.735  30.350  1.00  0.00     0.211 HD
ENDBRANCH  30  35
BRANCH  31  37
ATOM     37  C   UNL     1      22.706  -7.885  28.018  1.00  0.00     0.191 C 
BRANCH  37  38
ATOM     38  O   UNL     1      22.824  -6.496  27.875  1.00  0.00    -0.394 OA
ATOM     39  H   UNL     1      22.079  -6.088  28.391  1.00  0.00     0.210 HD
ENDBRANCH  37  38
ENDBRANCH  31  37
BRANCH  32  40
ATOM     40  O   UNL     1      21.286  -8.531  31.470  1.00  0.00    -0.387 OA
ATOM     41  H   UNL     1      20.863  -7.661  31.711  1.00  0.00     0.211 HD
ENDBRANCH  32  40
ENDBRANCH   1  27
TORSDOF 12
ENDMDL
MODEL 3
REMARK VINA RESULT:    -2.109      1.591      5.554
REMARK INTER + INTRA:          -3.868
REMARK INTER:                  -3.274
REMARK INTRA:                  -0.594
REMARK UNBOUND:                -0.772
REMARK SMILES O=c1c(O[C@@H]2O[C@@H](CO)[C@H](O)[C@H](O)[C@H]2O)c(-c2ccc(O)c(O)c2)oc2cc(O)cc(O)c12
REMARK SMILES IDX 4 1 3 2 16 3 25 4 2 5 26 6 1 7 33 8 27 9 31 10 28 11 30 12
REMARK SMILES IDX 17 13 18 14 19 15 20 16 24 17 22 18 21 19 23 21 32 23 29 25
REMARK SMILES IDX 5 27 14 28 6 29 12 30 7 31 10 32 15 33 13 35 8 37 9 38 11 40
REMARK H PARENT 21 20 23 22 32 24 29 26 15 34 13 36 9 39 11 41
REMARK Flexibility Score: inf
ROOT
ATOM      1  O   UNL     1      23.583  -9.024  30.746  1.00  0.00    -0.454 OA
ENDROOT
BRANCH   1   2
ATOM      2  C   UNL     1      23.784  -9.573  32.016  1.00  0.00     0.214 A 
ATOM      3  C   UNL     1      24.924 -10.352  32.272  1.00  0.00     0.180 A 
ATOM      4  O   UNL     1      25.061 -10.952  33.451  1.00  0.00    -0.452 OA
ATOM      5  C   UNL     1      22.848  -9.370  33.041  1.00  0.00     0.239 A 
ATOM      6  C   UNL     1      24.193 -10.806  34.448  1.00  0.00     0.146 A 
ATOM      7  O   UNL     1      21.820  -8.689  32.792  1.00  0.00    -0.285 OA
ATOM      8  C   UNL     1      23.059  -9.958  34.312  1.00  0.00     0.111 A 
ATOM      9  C   UNL     1      24.413 -11.512  35.632  1.00  0.00     0.094 A 
ATOM     10  C   UNL     1      22.193  -9.796  35.433  1.00  0.00     0.134 A 
ATOM     11  C   UNL     1      23.519 -11.399  36.697  1.00  0.00     0.123 A 
ATOM     12  C   UNL     1      22.419 -10.545  36.594  1.00  0.00     0.093 A 
BRANCH   3  13
ATOM     13  C   UNL     1      25.974 -10.564  31.248  1.00  0.00     0.025 A 
ATOM     14  C   UNL     1      25.835 -11.605  30.317  1.00  0.00     0.016 A 
ATOM     15  C   UNL     1      26.824 -11.833  29.357  1.00  0.00     0.051 A 
ATOM     16  C   UNL     1      27.970 -11.035  29.321  1.00  0.00     0.157 A 
ATOM     17  C   UNL     1      27.135  -9.769  31.217  1.00  0.00     0.062 A 
ATOM     18  C   UNL     1      28.130 -10.000  30.257  1.00  0.00     0.158 A 
BRANCH  16  19
ATOM     19  O   UNL     1      28.943 -11.291  28.359  1.00  0.00    -0.504 OA
ATOM     20  H   UNL     1      29.804 -11.780  28.582  1.00  0.00     0.293 HD
ENDBRANCH  16  19
BRANCH  18  21
ATOM     21  O   UNL     1      29.283  -9.217  30.244  1.00  0.00    -0.504 OA
ATOM     22  H   UNL     1      30.152  -9.545  29.830  1.00  0.00     0.293 HD
ENDBRANCH  18  21
ENDBRANCH   3  13
BRANCH  10  23
ATOM     23  O   UNL     1      21.122  -8.899  35.466  1.00  0.00    -0.507 OA
ATOM     24  H   UNL     1      20.172  -9.130  35.215  1.00  0.00     0.293 HD
ENDBRANCH  10  23
BRANCH  11  25
ATOM     25  O   UNL     1      23.717 -12.125  37.870  1.00  0.00    -0.508 OA
ATOM     26  H   UNL     1      24.648 -12.319  38.218  1.00  0.00     0.293 HD
ENDBRANCH  11  25
ENDBRANCH   1   2
BRANCH   1  27
ATOM     27  C   UNL     1      22.729  -9.617  29.765  1.00  0.00     0.339 C 
ATOM     28  C   UNL     1      22.615 -11.144  30.077  1.00  0.00     0.214 C 
ATOM     29  O   UNL     1      21.554  -8.824  29.705  1.00  0.00    -0.332 OA
ATOM     30  C   UNL     1      21.253 -11.658  30.618  1.00  0.00     0.180 C 
ATOM     31  C   UNL     1      20.336  -9.517  29.532  1.00  0.00     0.179 C 
ATOM     32  C   UNL     1      20.117 -10.622  30.572  1.00  0.00     0.177 C 
BRANCH  28  33
ATOM     33  O   UNL     1      22.984 -11.883  28.933  1.00  0.00    -0.384 OA
ATOM     34  H   UNL     1      22.410 -12.693  28.902  1.00  0.00     0.211 HD
ENDBRANCH  28  33
BRANCH  30  35
ATOM     35  O   UNL     1      21.419 -12.120  31.943  1.00  0.00    -0.387 OA
ATOM     36  H   UNL     1      22.384 -12.322  32.069  1.00  0.00     0.211 HD
ENDBRANCH  30  35
BRANCH  31  37
ATOM     37  C   UNL     1      20.057  -9.883  28.060  1.00  0.00     0.191 C 
BRANCH  37  38
ATOM     38  O   UNL     1      19.895 -11.263  27.875  1.00  0.00    -0.394 OA
ATOM     39  H   UNL     1      20.797 -11.639  27.695  1.00  0.00     0.210 HD
ENDBRANCH  37  38
ENDBRANCH  31  37
BRANCH  32  40
ATOM     40  O   UNL     1      19.888 -10.053  31.841  1.00  0.00    -0.387 OA
ATOM     41  H   UNL     1      19.958  -9.060  31.768  1.00  0.00     0.211 HD
ENDBRANCH  32  40
ENDBRANCH   1  27
TORSDOF 12
ENDMDL
MODEL 4
REMARK VINA RESULT:    -1.814      1.769      2.758
REMARK INTER + INTRA:          -3.434
REMARK INTER:                  -2.868
REMARK INTRA:                  -0.566
REMARK UNBOUND:                -0.772
REMARK SMILES O=c1c(O[C@@H]2O[C@@H](CO)[C@H](O)[C@H](O)[C@H]2O)c(-c2ccc(O)c(O)c2)oc2cc(O)cc(O)c12
REMARK SMILES IDX 4 1 3 2 16 3 25 4 2 5 26 6 1 7 33 8 27 9 31 10 28 11 30 12
REMARK SMILES IDX 17 13 18 14 19 15 20 16 24 17 22 18 21 19 23 21 32 23 29 25
REMARK SMILES IDX 5 27 14 28 6 29 12 30 7 31 10 32 15 33 13 35 8 37 9 38 11 40
REMARK H PARENT 21 20 23 22 32 24 29 26 15 34 13 36 9 39 11 41
REMARK Flexibility Score: inf
ROOT
ATOM      1  O   UNL     1      24.297 -12.104  31.568  1.00  0.00    -0.454 OA
ENDROOT
BRANCH   1   2
ATOM      2  C   UNL     1      25.480 -11.362  31.632  1.00  0.00     0.214 A 
ATOM      3  C   UNL     1      25.739 -10.547  32.746  1.00  0.00     0.180 A 
ATOM      4  O   UNL     1      26.818  -9.769  32.757  1.00  0.00    -0.452 OA
ATOM      5  C   UNL     1      26.412 -11.408  30.584  1.00  0.00     0.239 A 
ATOM      6  C   UNL     1      27.721  -9.762  31.780  1.00  0.00     0.146 A 
ATOM      7  O   UNL     1      26.158 -12.125  29.583  1.00  0.00    -0.285 OA
ATOM      8  C   UNL     1      27.592 -10.627  30.659  1.00  0.00     0.111 A 
ATOM      9  C   UNL     1      28.797  -8.879  31.875  1.00  0.00     0.094 A 
ATOM     10  C   UNL     1      28.620 -10.617  29.670  1.00  0.00     0.134 A 
ATOM     11  C   UNL     1      29.759  -8.828  30.865  1.00  0.00     0.123 A 
ATOM     12  C   UNL     1      29.667  -9.694  29.774  1.00  0.00     0.093 A 
BRANCH   3  13
ATOM     13  C   UNL     1      24.819 -10.491  33.906  1.00  0.00     0.025 A 
ATOM     14  C   UNL     1      24.425 -11.680  34.538  1.00  0.00     0.016 A 
ATOM     15  C   UNL     1      23.543 -11.649  35.621  1.00  0.00     0.051 A 
ATOM     16  C   UNL     1      23.032 -10.431  36.080  1.00  0.00     0.157 A 
ATOM     17  C   UNL     1      24.293  -9.267  34.362  1.00  0.00     0.062 A 
ATOM     18  C   UNL     1      23.405  -9.234  35.446  1.00  0.00     0.158 A 
BRANCH  16  19
ATOM     19  O   UNL     1      22.147 -10.431  37.154  1.00  0.00    -0.504 OA
ATOM     20  H   UNL     1      21.147 -10.321  37.027  1.00  0.00     0.293 HD
ENDBRANCH  16  19
BRANCH  18  21
ATOM     21  O   UNL     1      22.878  -8.020  35.881  1.00  0.00    -0.504 OA
ATOM     22  H   UNL     1      22.571  -7.878  36.840  1.00  0.00     0.293 HD
ENDBRANCH  18  21
ENDBRANCH   3  13
BRANCH  10  23
ATOM     23  O   UNL     1      28.671 -11.504  28.591  1.00  0.00    -0.507 OA
ATOM     24  H   UNL     1      28.202 -11.361  27.709  1.00  0.00     0.293 HD
ENDBRANCH  10  23
BRANCH  11  25
ATOM     25  O   UNL     1      30.819  -7.927  30.939  1.00  0.00    -0.508 OA
ATOM     26  H   UNL     1      31.704  -8.189  31.355  1.00  0.00     0.293 HD
ENDBRANCH  11  25
ENDBRANCH   1   2
BRANCH   1  27
ATOM     27  C   UNL     1      23.175 -11.718  30.771  1.00  0.00     0.339 C 
ATOM     28  C   UNL     1      22.858 -10.218  31.071  1.00  0.00     0.214 C 
ATOM     29  O   UNL     1      23.454 -12.124  29.441  1.00  0.00    -0.332 OA
ATOM     30  C   UNL     1      23.173  -9.189  29.950  1.00  0.00     0.180 C 
ATOM     31  C   UNL     1      23.040 -11.246  28.416  1.00  0.00     0.179 C 
ATOM     32  C   UNL     1      23.560  -9.815  28.600  1.00  0.00     0.177 C 
BRANCH  28  33
ATOM     33  O   UNL     1      21.510 -10.096  31.466  1.00  0.00    -0.384 OA
ATOM     34  H   UNL     1      21.270  -9.132  31.419  1.00  0.00     0.211 HD
ENDBRANCH  28  33
BRANCH  30  35
ATOM     35  O   UNL     1      24.203  -8.324  30.384  1.00  0.00    -0.387 OA
ATOM     36  H   UNL     1      24.070  -8.167  31.356  1.00  0.00     0.211 HD
ENDBRANCH  30  35
BRANCH  31  37
ATOM     37  C   UNL     1      21.548 -11.402  28.057  1.00  0.00     0.191 C 
BRANCH  37  38
ATOM     38  O   UNL     1      20.865 -10.178  28.072  1.00  0.00    -0.394 OA
ATOM     39  H   UNL     1      21.473  -9.513  28.492  1.00  0.00     0.210 HD
ENDBRANCH  37  38
ENDBRANCH  31  37
BRANCH  32  40
ATOM     40  O   UNL     1      24.954  -9.778  28.396  1.00  0.00    -0.387 OA
ATOM     41  H   UNL     1      25.147  -9.983  27.439  1.00  0.00     0.211 HD
ENDBRANCH  32  40
ENDBRANCH   1  27
TORSDOF 12
ENDMDL
