MODEL 1
REMARK VINA RESULT:    -7.861      0.000      0.000
REMARK INTER + INTRA:          -9.216
REMARK INTER:                  -9.240
REMARK INTRA:                   0.023
REMARK UNBOUND:                 0.023
REMARK SMILES O=c1c(O)c(-c2ccc(O)cc2)oc2cc(O)cc(O)c12
REMARK SMILES IDX 5 1 3 2 2 3 1 4 21 5 19 6 18 7 16 8 15 9 14 10 13 11 6 12
REMARK SMILES IDX 7 13 8 14 9 15 12 16 11 17 10 18 4 20 20 22 17 24
REMARK H PARENT 10 19 4 21 20 23 17 25
REMARK Flexibility Score: inf
ROOT
ATOM      1  C   UNL     1      44.582  45.486  44.599  1.00  0.00     0.180 A 
ATOM      2  C   UNL     1      44.218  46.465  45.539  1.00  0.00     0.208 A 
ATOM      3  C   UNL     1      44.805  46.437  46.814  1.00  0.00     0.238 A 
ATOM      4  O   UNL     1      44.434  47.283  47.669  1.00  0.00    -0.285 OA
ATOM      5  C   UNL     1      45.759  45.440  47.129  1.00  0.00     0.111 A 
ATOM      6  C   UNL     1      46.445  45.340  48.376  1.00  0.00     0.134 A 
ATOM      7  C   UNL     1      47.271  44.236  48.624  1.00  0.00     0.093 A 
ATOM      8  C   UNL     1      47.486  43.264  47.644  1.00  0.00     0.123 A 
ATOM      9  C   UNL     1      46.867  43.384  46.402  1.00  0.00     0.094 A 
ATOM     10  C   UNL     1      46.009  44.455  46.139  1.00  0.00     0.146 A 
ATOM     11  O   UNL     1      45.431  44.525  44.946  1.00  0.00    -0.452 OA
ENDROOT
BRANCH   1  12
ATOM     12  C   UNL     1      44.027  45.466  43.226  1.00  0.00     0.021 A 
ATOM     13  C   UNL     1      42.634  45.449  43.043  1.00  0.00     0.016 A 
ATOM     14  C   UNL     1      42.089  45.407  41.757  1.00  0.00     0.047 A 
ATOM     15  C   UNL     1      42.927  45.366  40.638  1.00  0.00     0.115 A 
ATOM     16  C   UNL     1      44.865  45.404  42.098  1.00  0.00     0.016 A 
ATOM     17  C   UNL     1      44.317  45.362  40.812  1.00  0.00     0.047 A 
BRANCH  15  18
ATOM     18  O   UNL     1      42.370  45.325  39.362  1.00  0.00    -0.508 OA
ATOM     19  H   UNL     1      42.502  46.083  38.703  1.00  0.00     0.293 HD
ENDBRANCH  15  18
ENDBRANCH   1  12
BRANCH   2  20
ATOM     20  O   UNL     1      43.258  47.428  45.215  1.00  0.00    -0.502 OA
ATOM     21  H   UNL     1      42.572  47.759  45.883  1.00  0.00     0.293 HD
ENDBRANCH   2  20
BRANCH   6  22
ATOM     22  O   UNL     1      46.373  46.303  49.387  1.00  0.00    -0.507 OA
ATOM     23  H   UNL     1      46.489  46.113  50.371  1.00  0.00     0.293 HD
ENDBRANCH   6  22
BRANCH   8  24
ATOM     24  O   UNL     1      48.322  42.177  47.893  1.00  0.00    -0.508 OA
ATOM     25  H   UNL     1      49.164  42.020  47.350  1.00  0.00     0.293 HD
ENDBRANCH   8  24
TORSDOF 5
ENDMDL
MODEL 2
REMARK VINA RESULT:    -7.656      2.234      6.519
REMARK INTER + INTRA:          -8.975
REMARK INTER:                  -8.880
REMARK INTRA:                  -0.096
REMARK UNBOUND:                 0.023
REMARK SMILES O=c1c(O)c(-c2ccc(O)cc2)oc2cc(O)cc(O)c12
REMARK SMILES IDX 5 1 3 2 2 3 1 4 21 5 19 6 18 7 16 8 15 9 14 10 13 11 6 12
REMARK SMILES IDX 7 13 8 14 9 15 12 16 11 17 10 18 4 20 20 22 17 24
REMARK H PARENT 10 19 4 21 20 23 17 25
REMARK Flexibility Score: inf
ROOT
ATOM      1  C   UNL     1      47.186  43.127  46.735  1.00  0.00     0.180 A 
ATOM      2  C   UNL     1      47.036  43.964  47.854  1.00  0.00     0.208 A 
ATOM      3  C   UNL     1      46.166  45.063  47.771  1.00  0.00     0.238 A 
ATOM      4  O   UNL     1      46.077  45.839  48.757  1.00  0.00    -0.285 OA
ATOM      5  C   UNL     1      45.446  45.303  46.576  1.00  0.00     0.111 A 
ATOM      6  C   UNL     1      44.508  46.363  46.394  1.00  0.00     0.134 A 
ATOM      7  C   UNL     1      43.952  46.584  45.128  1.00  0.00     0.093 A 
ATOM      8  C   UNL     1      44.250  45.741  44.054  1.00  0.00     0.123 A 
ATOM      9  C   UNL     1      45.119  44.668  44.237  1.00  0.00     0.094 A 
ATOM     10  C   UNL     1      45.717  44.445  45.479  1.00  0.00     0.146 A 
ATOM     11  O   UNL     1      46.547  43.416  45.607  1.00  0.00    -0.452 OA
ENDROOT
BRANCH   1  12
ATOM     12  C   UNL     1      48.064  41.934  46.754  1.00  0.00     0.021 A 
ATOM     13  C   UNL     1      49.449  42.097  46.927  1.00  0.00     0.016 A 
ATOM     14  C   UNL     1      50.298  40.987  46.926  1.00  0.00     0.047 A 
ATOM     15  C   UNL     1      49.778  39.703  46.737  1.00  0.00     0.115 A 
ATOM     16  C   UNL     1      47.549  40.642  46.545  1.00  0.00     0.016 A 
ATOM     17  C   UNL     1      48.401  39.534  46.544  1.00  0.00     0.047 A 
BRANCH  15  18
ATOM     18  O   UNL     1      50.636  38.606  46.739  1.00  0.00    -0.508 OA
ATOM     19  H   UNL     1      50.375  37.729  46.305  1.00  0.00     0.293 HD
ENDBRANCH  15  18
ENDBRANCH   1  12
BRANCH   2  20
ATOM     20  O   UNL     1      47.773  43.721  49.017  1.00  0.00    -0.502 OA
ATOM     21  H   UNL     1      47.878  44.413  49.749  1.00  0.00     0.293 HD
ENDBRANCH   2  20
BRANCH   6  22
ATOM     22  O   UNL     1      44.072  47.205  47.422  1.00  0.00    -0.507 OA
ATOM     23  H   UNL     1      44.361  47.131  48.386  1.00  0.00     0.293 HD
ENDBRANCH   6  22
BRANCH   8  24
ATOM     24  O   UNL     1      43.680  45.959  42.802  1.00  0.00    -0.508 OA
ATOM     25  H   UNL     1      42.849  46.528  42.689  1.00  0.00     0.293 HD
ENDBRANCH   8  24
TORSDOF 5
ENDMDL
MODEL 3
REMARK VINA RESULT:    -7.280     11.164     11.668
REMARK INTER + INTRA:          -8.534
REMARK INTER:                  -8.244
REMARK INTRA:                  -0.290
REMARK UNBOUND:                 0.023
REMARK SMILES O=c1c(O)c(-c2ccc(O)cc2)oc2cc(O)cc(O)c12
REMARK SMILES IDX 5 1 3 2 2 3 1 4 21 5 19 6 18 7 16 8 15 9 14 10 13 11 6 12
REMARK SMILES IDX 7 13 8 14 9 15 12 16 11 17 10 18 4 20 20 22 17 24
REMARK H PARENT 10 19 4 21 20 23 17 25
REMARK Flexibility Score: inf
ROOT
ATOM      1  C   UNL     1      49.918  45.776  34.987  1.00  0.00     0.180 A 
ATOM      2  C   UNL     1      49.472  47.108  35.029  1.00  0.00     0.208 A 
ATOM      3  C   UNL     1      50.311  48.090  35.580  1.00  0.00     0.238 A 
ATOM      4  O   UNL     1      49.885  49.271  35.664  1.00  0.00    -0.285 OA
ATOM      5  C   UNL     1      51.590  47.732  36.069  1.00  0.00     0.111 A 
ATOM      6  C   UNL     1      52.537  48.651  36.611  1.00  0.00     0.134 A 
ATOM      7  C   UNL     1      53.720  48.166  37.184  1.00  0.00     0.093 A 
ATOM      8  C   UNL     1      54.018  46.801  37.175  1.00  0.00     0.123 A 
ATOM      9  C   UNL     1      53.126  45.902  36.595  1.00  0.00     0.094 A 
ATOM     10  C   UNL     1      51.923  46.352  36.047  1.00  0.00     0.146 A 
ATOM     11  O   UNL     1      51.097  45.460  35.514  1.00  0.00    -0.452 OA
ENDROOT
BRANCH   1  12
ATOM     12  C   UNL     1      49.103  44.689  34.399  1.00  0.00     0.021 A 
ATOM     13  C   UNL     1      48.358  43.848  35.243  1.00  0.00     0.016 A 
ATOM     14  C   UNL     1      47.598  42.803  34.710  1.00  0.00     0.047 A 
ATOM     15  C   UNL     1      47.585  42.574  33.330  1.00  0.00     0.115 A 
ATOM     16  C   UNL     1      49.102  44.442  33.014  1.00  0.00     0.016 A 
ATOM     17  C   UNL     1      48.341  43.395  32.484  1.00  0.00     0.047 A 
BRANCH  15  18
ATOM     18  O   UNL     1      46.824  41.529  32.813  1.00  0.00    -0.508 OA
ATOM     19  H   UNL     1      46.994  40.567  33.082  1.00  0.00     0.293 HD
ENDBRANCH  15  18
ENDBRANCH   1  12
BRANCH   2  20
ATOM     20  O   UNL     1      48.197  47.437  34.561  1.00  0.00    -0.502 OA
ATOM     21  H   UNL     1      47.518  46.735  34.294  1.00  0.00     0.293 HD
ENDBRANCH   2  20
BRANCH   6  22
ATOM     22  O   UNL     1      52.379  50.040  36.588  1.00  0.00    -0.507 OA
ATOM     23  H   UNL     1      52.023  50.564  35.803  1.00  0.00     0.293 HD
ENDBRANCH   6  22
BRANCH   8  24
ATOM     24  O   UNL     1      55.204  46.329  37.733  1.00  0.00    -0.508 OA
ATOM     25  H   UNL     1      55.678  45.514  37.362  1.00  0.00     0.293 HD
ENDBRANCH   8  24
TORSDOF 5
ENDMDL
MODEL 4
REMARK VINA RESULT:    -7.238      4.160      6.818
REMARK INTER + INTRA:          -8.484
REMARK INTER:                  -8.205
REMARK INTRA:                  -0.280
REMARK UNBOUND:                 0.023
REMARK SMILES O=c1c(O)c(-c2ccc(O)cc2)oc2cc(O)cc(O)c12
REMARK SMILES IDX 5 1 3 2 2 3 1 4 21 5 19 6 18 7 16 8 15 9 14 10 13 11 6 12
REMARK SMILES IDX 7 13 8 14 9 15 12 16 11 17 10 18 4 20 20 22 17 24
REMARK H PARENT 10 19 4 21 20 23 17 25
REMARK Flexibility Score: inf
ROOT
ATOM      1  C   UNL     1      47.950  43.174  46.864  1.00  0.00     0.180 A 
ATOM      2  C   UNL     1      47.918  41.829  46.457  1.00  0.00     0.208 A 
ATOM      3  C   UNL     1      49.047  41.280  45.829  1.00  0.00     0.238 A 
ATOM      4  O   UNL     1      48.992  40.092  45.418  1.00  0.00    -0.285 OA
ATOM      5  C   UNL     1      50.200  42.077  45.629  1.00  0.00     0.111 A 
ATOM      6  C   UNL     1      51.413  41.613  45.040  1.00  0.00     0.134 A 
ATOM      7  C   UNL     1      52.444  42.523  44.773  1.00  0.00     0.093 A 
ATOM      8  C   UNL     1      52.328  43.868  45.135  1.00  0.00     0.123 A 
ATOM      9  C   UNL     1      51.171  44.318  45.764  1.00  0.00     0.094 A 
ATOM     10  C   UNL     1      50.112  43.441  46.011  1.00  0.00     0.146 A 
ATOM     11  O   UNL     1      49.022  43.914  46.604  1.00  0.00    -0.452 OA
ENDROOT
BRANCH   1  12
ATOM     12  C   UNL     1      46.809  43.817  47.555  1.00  0.00     0.021 A 
ATOM     13  C   UNL     1      45.954  44.667  46.835  1.00  0.00     0.016 A 
ATOM     14  C   UNL     1      44.884  45.302  47.473  1.00  0.00     0.047 A 
ATOM     15  C   UNL     1      44.664  45.107  48.840  1.00  0.00     0.115 A 
ATOM     16  C   UNL     1      46.595  43.641  48.934  1.00  0.00     0.016 A 
ATOM     17  C   UNL     1      45.524  44.277  49.570  1.00  0.00     0.047 A 
BRANCH  15  18
ATOM     18  O   UNL     1      43.593  45.745  49.463  1.00  0.00    -0.508 OA
ATOM     19  H   UNL     1      43.482  45.731  50.469  1.00  0.00     0.293 HD
ENDBRANCH  15  18
ENDBRANCH   1  12
BRANCH   2  20
ATOM     20  O   UNL     1      46.761  41.067  46.644  1.00  0.00    -0.502 OA
ATOM     21  H   UNL     1      45.899  41.463  46.998  1.00  0.00     0.293 HD
ENDBRANCH   2  20
BRANCH   6  22
ATOM     22  O   UNL     1      51.666  40.275  44.725  1.00  0.00    -0.507 OA
ATOM     23  H   UNL     1      52.460  39.950  44.192  1.00  0.00     0.293 HD
ENDBRANCH   6  22
BRANCH   8  24
ATOM     24  O   UNL     1      53.365  44.763  44.879  1.00  0.00    -0.508 OA
ATOM     25  H   UNL     1      53.804  44.821  43.967  1.00  0.00     0.293 HD
ENDBRANCH   8  24
TORSDOF 5
ENDMDL
MODEL 5
REMARK VINA RESULT:    -7.058      3.861      6.508
REMARK INTER + INTRA:          -8.273
REMARK INTER:                  -7.973
REMARK INTRA:                  -0.300
REMARK UNBOUND:                 0.023
REMARK SMILES O=c1c(O)c(-c2ccc(O)cc2)oc2cc(O)cc(O)c12
REMARK SMILES IDX 5 1 3 2 2 3 1 4 21 5 19 6 18 7 16 8 15 9 14 10 13 11 6 12
REMARK SMILES IDX 7 13 8 14 9 15 12 16 11 17 10 18 4 20 20 22 17 24
REMARK H PARENT 10 19 4 21 20 23 17 25
REMARK Flexibility Score: inf
ROOT
ATOM      1  C   UNL     1      47.721  43.056  47.290  1.00  0.00     0.180 A 
ATOM      2  C   UNL     1      47.328  41.841  46.703  1.00  0.00     0.208 A 
ATOM      3  C   UNL     1      48.287  40.833  46.516  1.00  0.00     0.238 A 
ATOM      4  O   UNL     1      47.941  39.769  45.940  1.00  0.00    -0.285 OA
ATOM      5  C   UNL     1      49.624  41.046  46.931  1.00  0.00     0.111 A 
ATOM      6  C   UNL     1      50.668  40.079  46.826  1.00  0.00     0.134 A 
ATOM      7  C   UNL     1      51.981  40.444  47.149  1.00  0.00     0.093 A 
ATOM      8  C   UNL     1      52.276  41.721  47.635  1.00  0.00     0.123 A 
ATOM      9  C   UNL     1      51.253  42.653  47.796  1.00  0.00     0.094 A 
ATOM     10  C   UNL     1      49.939  42.329  47.449  1.00  0.00     0.146 A 
ATOM     11  O   UNL     1      48.996  43.250  47.609  1.00  0.00    -0.452 OA
ENDROOT
BRANCH   1  12
ATOM     12  C   UNL     1      46.763  44.156  47.544  1.00  0.00     0.021 A 
ATOM     13  C   UNL     1      46.626  45.187  46.599  1.00  0.00     0.016 A 
ATOM     14  C   UNL     1      45.744  46.246  46.828  1.00  0.00     0.047 A 
ATOM     15  C   UNL     1      44.999  46.298  48.010  1.00  0.00     0.115 A 
ATOM     16  C   UNL     1      46.026  44.225  48.740  1.00  0.00     0.016 A 
ATOM     17  C   UNL     1      45.144  45.286  48.967  1.00  0.00     0.047 A 
BRANCH  15  18
ATOM     18  O   UNL     1      44.123  47.360  48.226  1.00  0.00    -0.508 OA
ATOM     19  H   UNL     1      44.460  48.305  48.360  1.00  0.00     0.293 HD
ENDBRANCH  15  18
ENDBRANCH   1  12
BRANCH   2  20
ATOM     20  O   UNL     1      46.008  41.660  46.280  1.00  0.00    -0.502 OA
ATOM     21  H   UNL     1      45.360  41.052  46.766  1.00  0.00     0.293 HD
ENDBRANCH   2  20
BRANCH   6  22
ATOM     22  O   UNL     1      50.467  38.751  46.440  1.00  0.00    -0.507 OA
ATOM     23  H   UNL     1      51.148  38.184  45.958  1.00  0.00     0.293 HD
ENDBRANCH   6  22
BRANCH   8  24
ATOM     24  O   UNL     1      53.582  42.070  47.968  1.00  0.00    -0.508 OA
ATOM     25  H   UNL     1      54.151  42.644  47.355  1.00  0.00     0.293 HD
ENDBRANCH   8  24
TORSDOF 5
ENDMDL
MODEL 6
REMARK VINA RESULT:    -7.049     11.002     12.186
REMARK INTER + INTRA:          -8.262
REMARK INTER:                  -7.994
REMARK INTRA:                  -0.268
REMARK UNBOUND:                 0.023
REMARK SMILES O=c1c(O)c(-c2ccc(O)cc2)oc2cc(O)cc(O)c12
REMARK SMILES IDX 5 1 3 2 2 3 1 4 21 5 19 6 18 7 16 8 15 9 14 10 13 11 6 12
REMARK SMILES IDX 7 13 8 14 9 15 12 16 11 17 10 18 4 20 20 22 17 24
REMARK H PARENT 10 19 4 21 20 23 17 25
REMARK Flexibility Score: inf
ROOT
ATOM      1  C   UNL     1      50.104  45.885  35.132  1.00  0.00     0.180 A 
ATOM      2  C   UNL     1      51.274  45.631  35.868  1.00  0.00     0.208 A 
ATOM      3  C   UNL     1      52.037  46.715  36.330  1.00  0.00     0.238 A 
ATOM      4  O   UNL     1      53.112  46.480  36.942  1.00  0.00    -0.285 OA
ATOM      5  C   UNL     1      51.615  48.039  36.063  1.00  0.00     0.111 A 
ATOM      6  C   UNL     1      52.290  49.212  36.517  1.00  0.00     0.134 A 
ATOM      7  C   UNL     1      51.854  50.470  36.083  1.00  0.00     0.093 A 
ATOM      8  C   UNL     1      50.728  50.601  35.266  1.00  0.00     0.123 A 
ATOM      9  C   UNL     1      50.028  49.465  34.867  1.00  0.00     0.094 A 
ATOM     10  C   UNL     1      50.460  48.194  35.254  1.00  0.00     0.146 A 
ATOM     11  O   UNL     1      49.769  47.138  34.842  1.00  0.00    -0.452 OA
ENDROOT
BRANCH   1  12
ATOM     12  C   UNL     1      49.233  44.796  34.634  1.00  0.00     0.021 A 
ATOM     13  C   UNL     1      49.261  44.456  33.271  1.00  0.00     0.016 A 
ATOM     14  C   UNL     1      48.431  43.446  32.776  1.00  0.00     0.047 A 
ATOM     15  C   UNL     1      47.553  42.775  33.631  1.00  0.00     0.115 A 
ATOM     16  C   UNL     1      48.332  44.131  35.485  1.00  0.00     0.016 A 
ATOM     17  C   UNL     1      47.503  43.122  34.987  1.00  0.00     0.047 A 
BRANCH  15  18
ATOM     18  O   UNL     1      46.732  41.770  33.124  1.00  0.00    -0.508 OA
ATOM     19  H   UNL     1      47.012  40.797  33.143  1.00  0.00     0.293 HD
ENDBRANCH  15  18
ENDBRANCH   1  12
BRANCH   2  20
ATOM     20  O   UNL     1      51.684  44.315  36.102  1.00  0.00    -0.502 OA
ATOM     21  H   UNL     1      51.821  43.647  35.353  1.00  0.00     0.293 HD
ENDBRANCH   2  20
BRANCH   6  22
ATOM     22  O   UNL     1      53.367  49.198  37.408  1.00  0.00    -0.507 OA
ATOM     23  H   UNL     1      53.737  48.369  37.847  1.00  0.00     0.293 HD
ENDBRANCH   6  22
BRANCH   8  24
ATOM     24  O   UNL     1      50.293  51.858  34.852  1.00  0.00    -0.508 OA
ATOM     25  H   UNL     1      49.307  52.084  34.789  1.00  0.00     0.293 HD
ENDBRANCH   8  24
TORSDOF 5
ENDMDL
MODEL 7
REMARK VINA RESULT:    -6.952      9.637     10.379
REMARK INTER + INTRA:          -8.148
REMARK INTER:                  -7.849
REMARK INTRA:                  -0.298
REMARK UNBOUND:                 0.023
REMARK SMILES O=c1c(O)c(-c2ccc(O)cc2)oc2cc(O)cc(O)c12
REMARK SMILES IDX 5 1 3 2 2 3 1 4 21 5 19 6 18 7 16 8 15 9 14 10 13 11 6 12
REMARK SMILES IDX 7 13 8 14 9 15 12 16 11 17 10 18 4 20 20 22 17 24
REMARK H PARENT 10 19 4 21 20 23 17 25
REMARK Flexibility Score: inf
ROOT
ATOM      1  C   UNL     1      49.604  45.002  35.923  1.00  0.00     0.180 A 
ATOM      2  C   UNL     1      49.058  46.205  36.402  1.00  0.00     0.208 A 
ATOM      3  C   UNL     1      49.784  46.958  37.339  1.00  0.00     0.238 A 
ATOM      4  O   UNL     1      49.265  48.006  37.804  1.00  0.00    -0.285 OA
ATOM      5  C   UNL     1      51.053  46.507  37.774  1.00  0.00     0.111 A 
ATOM      6  C   UNL     1      51.892  47.210  38.690  1.00  0.00     0.134 A 
ATOM      7  C   UNL     1      53.069  46.606  39.150  1.00  0.00     0.093 A 
ATOM      8  C   UNL     1      53.469  45.353  38.676  1.00  0.00     0.123 A 
ATOM      9  C   UNL     1      52.686  44.686  37.738  1.00  0.00     0.094 A 
ATOM     10  C   UNL     1      51.489  45.247  37.288  1.00  0.00     0.146 A 
ATOM     11  O   UNL     1      50.767  44.573  36.400  1.00  0.00    -0.452 OA
ENDROOT
BRANCH   1  12
ATOM     12  C   UNL     1      48.911  44.167  34.916  1.00  0.00     0.021 A 
ATOM     13  C   UNL     1      48.125  43.082  35.340  1.00  0.00     0.016 A 
ATOM     14  C   UNL     1      47.479  42.267  34.405  1.00  0.00     0.047 A 
ATOM     15  C   UNL     1      47.623  42.516  33.037  1.00  0.00     0.115 A 
ATOM     16  C   UNL     1      49.068  44.399  33.538  1.00  0.00     0.016 A 
ATOM     17  C   UNL     1      48.421  43.582  32.605  1.00  0.00     0.047 A 
BRANCH  15  18
ATOM     18  O   UNL     1      46.974  41.696  32.116  1.00  0.00    -0.508 OA
ATOM     19  H   UNL     1      47.422  41.411  31.253  1.00  0.00     0.293 HD
ENDBRANCH  15  18
ENDBRANCH   1  12
BRANCH   2  20
ATOM     20  O   UNL     1      47.793  46.621  35.976  1.00  0.00    -0.502 OA
ATOM     21  H   UNL     1      46.937  46.237  36.356  1.00  0.00     0.293 HD
ENDBRANCH   2  20
BRANCH   6  22
ATOM     22  O   UNL     1      51.632  48.503  39.153  1.00  0.00    -0.507 OA
ATOM     23  H   UNL     1      51.789  49.345  38.621  1.00  0.00     0.293 HD
ENDBRANCH   6  22
BRANCH   8  24
ATOM     24  O   UNL     1      54.650  44.768  39.128  1.00  0.00    -0.508 OA
ATOM     25  H   UNL     1      54.654  44.107  39.897  1.00  0.00     0.293 HD
ENDBRANCH   8  24
TORSDOF 5
ENDMDL
MODEL 8
REMARK VINA RESULT:    -6.511      3.150      6.303
REMARK INTER + INTRA:          -7.629
REMARK INTER:                  -7.375
REMARK INTRA:                  -0.254
REMARK UNBOUND:                 0.023
REMARK SMILES O=c1c(O)c(-c2ccc(O)cc2)oc2cc(O)cc(O)c12
REMARK SMILES IDX 5 1 3 2 2 3 1 4 21 5 19 6 18 7 16 8 15 9 14 10 13 11 6 12
REMARK SMILES IDX 7 13 8 14 9 15 12 16 11 17 10 18 4 20 20 22 17 24
REMARK H PARENT 10 19 4 21 20 23 17 25
REMARK Flexibility Score: inf
ROOT
ATOM      1  C   UNL     1      48.139  44.153  46.854  1.00  0.00     0.180 A 
ATOM      2  C   UNL     1      47.863  43.905  48.210  1.00  0.00     0.208 A 
ATOM      3  C   UNL     1      46.720  44.480  48.789  1.00  0.00     0.238 A 
ATOM      4  O   UNL     1      46.508  44.299  50.016  1.00  0.00    -0.285 OA
ATOM      5  C   UNL     1      45.860  45.284  48.002  1.00  0.00     0.111 A 
ATOM      6  C   UNL     1      44.655  45.884  48.474  1.00  0.00     0.134 A 
ATOM      7  C   UNL     1      43.951  46.765  47.644  1.00  0.00     0.093 A 
ATOM      8  C   UNL     1      44.374  47.016  46.336  1.00  0.00     0.123 A 
ATOM      9  C   UNL     1      45.517  46.389  45.847  1.00  0.00     0.094 A 
ATOM     10  C   UNL     1      46.260  45.533  46.663  1.00  0.00     0.146 A 
ATOM     11  O   UNL     1      47.349  44.964  46.160  1.00  0.00    -0.452 OA
ENDROOT
BRANCH   1  12
ATOM     12  C   UNL     1      49.310  43.561  46.167  1.00  0.00     0.021 A 
ATOM     13  C   UNL     1      49.269  42.216  45.765  1.00  0.00     0.016 A 
ATOM     14  C   UNL     1      50.371  41.631  45.134  1.00  0.00     0.047 A 
ATOM     15  C   UNL     1      51.532  42.377  44.911  1.00  0.00     0.115 A 
ATOM     16  C   UNL     1      50.488  44.301  45.958  1.00  0.00     0.016 A 
ATOM     17  C   UNL     1      51.589  43.713  45.327  1.00  0.00     0.047 A 
BRANCH  15  18
ATOM     18  O   UNL     1      52.623  41.782  44.281  1.00  0.00    -0.508 OA
ATOM     19  H   UNL     1      53.545  42.200  44.312  1.00  0.00     0.293 HD
ENDBRANCH  15  18
ENDBRANCH   1  12
BRANCH   2  20
ATOM     20  O   UNL     1      48.737  43.127  48.974  1.00  0.00    -0.502 OA
ATOM     21  H   UNL     1      48.474  42.734  49.870  1.00  0.00     0.293 HD
ENDBRANCH   2  20
BRANCH   6  22
ATOM     22  O   UNL     1      44.095  45.628  49.730  1.00  0.00    -0.507 OA
ATOM     23  H   UNL     1      44.073  44.723  50.175  1.00  0.00     0.293 HD
ENDBRANCH   6  22
BRANCH   8  24
ATOM     24  O   UNL     1      43.659  47.882  45.513  1.00  0.00    -0.508 OA
ATOM     25  H   UNL     1      43.057  48.603  45.895  1.00  0.00     0.293 HD
ENDBRANCH   8  24
TORSDOF 5
ENDMDL
MODEL 9
REMARK VINA RESULT:    -6.441      3.325      7.185
REMARK INTER + INTRA:          -7.547
REMARK INTER:                  -7.358
REMARK INTRA:                  -0.189
REMARK UNBOUND:                 0.023
REMARK SMILES O=c1c(O)c(-c2ccc(O)cc2)oc2cc(O)cc(O)c12
REMARK SMILES IDX 5 1 3 2 2 3 1 4 21 5 19 6 18 7 16 8 15 9 14 10 13 11 6 12
REMARK SMILES IDX 7 13 8 14 9 15 12 16 11 17 10 18 4 20 20 22 17 24
REMARK H PARENT 10 19 4 21 20 23 17 25
REMARK Flexibility Score: inf
ROOT
ATOM      1  C   UNL     1      47.899  41.576  46.582  1.00  0.00     0.180 A 
ATOM      2  C   UNL     1      47.149  41.870  45.430  1.00  0.00     0.208 A 
ATOM      3  C   UNL     1      46.361  43.031  45.408  1.00  0.00     0.238 A 
ATOM      4  O   UNL     1      45.649  43.260  44.396  1.00  0.00    -0.285 OA
ATOM      5  C   UNL     1      46.344  43.893  46.532  1.00  0.00     0.111 A 
ATOM      6  C   UNL     1      45.613  45.117  46.603  1.00  0.00     0.134 A 
ATOM      7  C   UNL     1      45.566  45.823  47.812  1.00  0.00     0.093 A 
ATOM      8  C   UNL     1      46.278  45.383  48.931  1.00  0.00     0.123 A 
ATOM      9  C   UNL     1      47.042  44.221  48.853  1.00  0.00     0.094 A 
ATOM     10  C   UNL     1      47.079  43.477  47.672  1.00  0.00     0.146 A 
ATOM     11  O   UNL     1      47.811  42.370  47.644  1.00  0.00    -0.452 OA
ENDROOT
BRANCH   1  12
ATOM     12  C   UNL     1      48.773  40.384  46.671  1.00  0.00     0.021 A 
ATOM     13  C   UNL     1      50.168  40.542  46.608  1.00  0.00     0.016 A 
ATOM     14  C   UNL     1      51.011  39.429  46.668  1.00  0.00     0.047 A 
ATOM     15  C   UNL     1      50.472  38.144  46.777  1.00  0.00     0.115 A 
ATOM     16  C   UNL     1      48.237  39.087  46.760  1.00  0.00     0.016 A 
ATOM     17  C   UNL     1      49.082  37.975  46.820  1.00  0.00     0.047 A 
BRANCH  15  18
ATOM     18  O   UNL     1      51.324  37.043  46.836  1.00  0.00    -0.508 OA
ATOM     19  H   UNL     1      52.093  36.934  46.187  1.00  0.00     0.293 HD
ENDBRANCH  15  18
ENDBRANCH   1  12
BRANCH   2  20
ATOM     20  O   UNL     1      47.162  40.994  44.341  1.00  0.00    -0.502 OA
ATOM     21  H   UNL     1      47.167  39.987  44.452  1.00  0.00     0.293 HD
ENDBRANCH   2  20
BRANCH   6  22
ATOM     22  O   UNL     1      44.944  45.691  45.518  1.00  0.00    -0.507 OA
ATOM     23  H   UNL     1      43.973  45.965  45.523  1.00  0.00     0.293 HD
ENDBRANCH   6  22
BRANCH   8  24
ATOM     24  O   UNL     1      46.238  46.101  50.125  1.00  0.00    -0.508 OA
ATOM     25  H   UNL     1      46.779  45.816  50.933  1.00  0.00     0.293 HD
ENDBRANCH   8  24
TORSDOF 5
ENDMDL
