MODEL 1
REMARK VINA RESULT:    -4.506      0.000      0.000
REMARK INTER + INTRA:         -10.366
REMARK INTER:                  -8.193
REMARK INTRA:                  -2.173
REMARK UNBOUND:                -2.173
REMARK SMILES CCCCCCCCCCCCCCCC(=O)[O-]
REMARK SMILES IDX 9 1 10 2 11 3 12 4 13 5 14 6 15 7 16 8 17 9 18 10 8 11 7 12
REMARK SMILES IDX 6 13 5 14 4 15 3 16 2 17 1 18
REMARK H PARENT
REMARK Flexibility Score: inf
ROOT
ATOM      1  C   UNL     1     -22.863  18.757 -21.666  1.00  0.00     0.000 C 
ENDROOT
BRANCH   1   2
ATOM      2  C   UNL     1     -22.864  20.238 -21.261  1.00  0.00     0.000 C 
BRANCH   2   3
ATOM      3  C   UNL     1     -23.904  21.028 -22.070  1.00  0.00     0.000 C 
BRANCH   3   4
ATOM      4  C   UNL     1     -23.348  22.350 -22.622  1.00  0.00     0.000 C 
BRANCH   4   5
ATOM      5  C   UNL     1     -23.331  22.388 -24.158  1.00  0.00     0.000 C 
BRANCH   5   6
ATOM      6  C   UNL     1     -22.031  21.781 -24.707  1.00  0.00     0.006 C 
BRANCH   6   7
ATOM      7  C   UNL     1     -21.367  22.682 -25.756  1.00  0.00     0.053 C 
BRANCH   7   8
ATOM      8  C   UNL     1     -21.236  24.095 -25.274  1.00  0.00     0.041 C 
ATOM      9  O   UNL     1     -21.825  25.028 -25.881  1.00  0.00    -0.550 OA
ATOM     10  O   UNL     1     -20.436  24.385 -24.176  1.00  0.00    -0.550 OA
ENDBRANCH   7   8
ENDBRANCH   6   7
ENDBRANCH   5   6
ENDBRANCH   4   5
ENDBRANCH   3   4
ENDBRANCH   2   3
ENDBRANCH   1   2
BRANCH   1  11
ATOM     11  C   UNL     1     -24.172  18.321 -22.347  1.00  0.00     0.000 C 
BRANCH  11  12
ATOM     12  C   UNL     1     -23.991  17.516 -23.650  1.00  0.00    -0.000 C 
BRANCH  12  13
ATOM     13  C   UNL     1     -23.296  18.276 -24.798  1.00  0.00    -0.000 C 
BRANCH  13  14
ATOM     14  C   UNL     1     -22.008  17.617 -25.326  1.00  0.00    -0.000 C 
BRANCH  14  15
ATOM     15  C   UNL     1     -20.735  18.345 -24.870  1.00  0.00    -0.000 C 
BRANCH  15  16
ATOM     16  C   UNL     1     -19.865  17.431 -23.996  1.00  0.00    -0.000 C 
BRANCH  16  17
ATOM     17  C   UNL     1     -20.549  16.091 -23.677  1.00  0.00    -0.003 C 
ATOM     18  C   UNL     1     -20.651  15.823 -22.176  1.00  0.00     0.004 C 
ENDBRANCH  16  17
ENDBRANCH  15  16
ENDBRANCH  14  15
ENDBRANCH  13  14
ENDBRANCH  12  13
ENDBRANCH  11  12
ENDBRANCH   1  11
TORSDOF 14
ENDMDL
MODEL 2
REMARK VINA RESULT:    -4.470      1.605      2.882
REMARK INTER + INTRA:         -10.300
REMARK INTER:                  -8.075
REMARK INTRA:                  -2.226
REMARK UNBOUND:                -2.173
REMARK SMILES CCCCCCCCCCCCCCCC(=O)[O-]
REMARK SMILES IDX 9 1 10 2 11 3 12 4 13 5 14 6 15 7 16 8 17 9 18 10 8 11 7 12
REMARK SMILES IDX 6 13 5 14 4 15 3 16 2 17 1 18
REMARK H PARENT
REMARK Flexibility Score: inf
ROOT
ATOM      1  C   UNL     1     -24.131  17.558 -23.351  1.00  0.00     0.000 C 
ENDROOT
BRANCH   1   2
ATOM      2  C   UNL     1     -24.239  18.304 -22.013  1.00  0.00     0.000 C 
BRANCH   2   3
ATOM      3  C   UNL     1     -22.877  18.873 -21.591  1.00  0.00     0.000 C 
BRANCH   3   4
ATOM      4  C   UNL     1     -22.959  20.343 -21.148  1.00  0.00     0.000 C 
BRANCH   4   5
ATOM      5  C   UNL     1     -24.393  20.892 -21.183  1.00  0.00     0.000 C 
BRANCH   5   6
ATOM      6  C   UNL     1     -24.457  22.203 -21.982  1.00  0.00     0.006 C 
BRANCH   6   7
ATOM      7  C   UNL     1     -23.159  22.477 -22.753  1.00  0.00     0.053 C 
BRANCH   7   8
ATOM      8  C   UNL     1     -23.369  22.424 -24.235  1.00  0.00     0.041 C 
ATOM      9  O   UNL     1     -22.625  21.708 -24.955  1.00  0.00    -0.550 OA
ATOM     10  O   UNL     1     -24.365  23.193 -24.825  1.00  0.00    -0.550 OA
ENDBRANCH   7   8
ENDBRANCH   6   7
ENDBRANCH   5   6
ENDBRANCH   4   5
ENDBRANCH   3   4
ENDBRANCH   2   3
ENDBRANCH   1   2
BRANCH   1  11
ATOM     11  C   UNL     1     -23.193  18.255 -24.351  1.00  0.00     0.000 C 
BRANCH  11  12
ATOM     12  C   UNL     1     -22.594  17.331 -25.432  1.00  0.00    -0.000 C 
BRANCH  12  13
ATOM     13  C   UNL     1     -21.240  16.689 -25.068  1.00  0.00    -0.000 C 
BRANCH  13  14
ATOM     14  C   UNL     1     -20.371  17.512 -24.100  1.00  0.00    -0.000 C 
BRANCH  14  15
ATOM     15  C   UNL     1     -20.013  16.745 -22.819  1.00  0.00    -0.000 C 
BRANCH  15  16
ATOM     16  C   UNL     1     -20.867  15.476 -22.684  1.00  0.00    -0.000 C 
BRANCH  16  17
ATOM     17  C   UNL     1     -21.349  15.239 -21.244  1.00  0.00    -0.003 C 
ATOM     18  C   UNL     1     -22.842  14.918 -21.166  1.00  0.00     0.004 C 
ENDBRANCH  16  17
ENDBRANCH  15  16
ENDBRANCH  14  15
ENDBRANCH  13  14
ENDBRANCH  12  13
ENDBRANCH  11  12
ENDBRANCH   1  11
TORSDOF 14
ENDMDL
MODEL 3
REMARK VINA RESULT:    -4.440      4.595      7.587
REMARK INTER + INTRA:         -10.246
REMARK INTER:                  -8.184
REMARK INTRA:                  -2.062
REMARK UNBOUND:                -2.173
REMARK SMILES CCCCCCCCCCCCCCCC(=O)[O-]
REMARK SMILES IDX 9 1 10 2 11 3 12 4 13 5 14 6 15 7 16 8 17 9 18 10 8 11 7 12
REMARK SMILES IDX 6 13 5 14 4 15 3 16 2 17 1 18
REMARK H PARENT
REMARK Flexibility Score: inf
ROOT
ATOM      1  C   UNL     1     -21.067  18.004 -24.703  1.00  0.00     0.000 C 
ENDROOT
BRANCH   1   2
ATOM      2  C   UNL     1     -20.037  17.187 -23.908  1.00  0.00     0.000 C 
BRANCH   2   3
ATOM      3  C   UNL     1     -20.626  15.837 -23.473  1.00  0.00     0.000 C 
BRANCH   3   4
ATOM      4  C   UNL     1     -20.764  15.713 -21.948  1.00  0.00     0.000 C 
BRANCH   4   5
ATOM      5  C   UNL     1     -20.745  14.254 -21.469  1.00  0.00     0.000 C 
BRANCH   5   6
ATOM      6  C   UNL     1     -21.676  14.062 -20.262  1.00  0.00     0.006 C 
BRANCH   6   7
ATOM      7  C   UNL     1     -23.130  14.430 -20.586  1.00  0.00     0.053 C 
BRANCH   7   8
ATOM      8  C   UNL     1     -24.016  13.223 -20.620  1.00  0.00     0.041 C 
ATOM      9  O   UNL     1     -25.120  13.230 -20.015  1.00  0.00    -0.550 OA
ATOM     10  O   UNL     1     -23.607  12.077 -21.291  1.00  0.00    -0.550 OA
ENDBRANCH   7   8
ENDBRANCH   6   7
ENDBRANCH   5   6
ENDBRANCH   4   5
ENDBRANCH   3   4
ENDBRANCH   2   3
ENDBRANCH   1   2
BRANCH   1  11
ATOM     11  C   UNL     1     -22.388  17.249 -24.925  1.00  0.00     0.000 C 
BRANCH  11  12
ATOM     12  C   UNL     1     -23.618  17.873 -24.233  1.00  0.00    -0.000 C 
BRANCH  12  13
ATOM     13  C   UNL     1     -24.072  17.162 -22.942  1.00  0.00    -0.000 C 
BRANCH  13  14
ATOM     14  C   UNL     1     -23.917  17.994 -21.655  1.00  0.00    -0.000 C 
BRANCH  14  15
ATOM     15  C   UNL     1     -22.654  18.868 -21.658  1.00  0.00    -0.000 C 
BRANCH  15  16
ATOM     16  C   UNL     1     -22.986  20.310 -21.248  1.00  0.00    -0.000 C 
BRANCH  16  17
ATOM     17  C   UNL     1     -23.746  21.075 -22.344  1.00  0.00    -0.003 C 
ATOM     18  C   UNL     1     -22.880  21.366 -23.569  1.00  0.00     0.004 C 
ENDBRANCH  16  17
ENDBRANCH  15  16
ENDBRANCH  14  15
ENDBRANCH  13  14
ENDBRANCH  12  13
ENDBRANCH  11  12
ENDBRANCH   1  11
TORSDOF 14
ENDMDL
MODEL 4
REMARK VINA RESULT:    -4.430      3.957      6.796
REMARK INTER + INTRA:         -10.229
REMARK INTER:                  -8.223
REMARK INTRA:                  -2.006
REMARK UNBOUND:                -2.173
REMARK SMILES CCCCCCCCCCCCCCCC(=O)[O-]
REMARK SMILES IDX 9 1 10 2 11 3 12 4 13 5 14 6 15 7 16 8 17 9 18 10 8 11 7 12
REMARK SMILES IDX 6 13 5 14 4 15 3 16 2 17 1 18
REMARK H PARENT
REMARK Flexibility Score: inf
ROOT
ATOM      1  C   UNL     1     -21.752  20.277 -25.781  1.00  0.00     0.000 C 
ENDROOT
BRANCH   1   2
ATOM      2  C   UNL     1     -20.978  19.132 -25.111  1.00  0.00     0.000 C 
BRANCH   2   3
ATOM      3  C   UNL     1     -21.469  17.768 -25.617  1.00  0.00     0.000 C 
BRANCH   3   4
ATOM      4  C   UNL     1     -21.231  16.638 -24.603  1.00  0.00     0.000 C 
BRANCH   4   5
ATOM      5  C   UNL     1     -20.198  17.014 -23.530  1.00  0.00     0.000 C 
BRANCH   5   6
ATOM      6  C   UNL     1     -20.403  16.179 -22.256  1.00  0.00     0.006 C 
BRANCH   6   7
ATOM      7  C   UNL     1     -21.868  15.766 -22.063  1.00  0.00     0.053 C 
BRANCH   7   8
ATOM      8  C   UNL     1     -22.025  14.770 -20.955  1.00  0.00     0.041 C 
ATOM      9  O   UNL     1     -23.168  14.505 -20.498  1.00  0.00    -0.550 OA
ATOM     10  O   UNL     1     -20.905  14.161 -20.403  1.00  0.00    -0.550 OA
ENDBRANCH   7   8
ENDBRANCH   6   7
ENDBRANCH   5   6
ENDBRANCH   4   5
ENDBRANCH   3   4
ENDBRANCH   2   3
ENDBRANCH   1   2
BRANCH   1  11
ATOM     11  C   UNL     1     -21.672  21.596 -24.993  1.00  0.00     0.000 C 
BRANCH  11  12
ATOM     12  C   UNL     1     -23.031  22.162 -24.533  1.00  0.00    -0.000 C 
BRANCH  12  13
ATOM     13  C   UNL     1     -23.023  22.841 -23.149  1.00  0.00    -0.000 C 
BRANCH  13  14
ATOM     14  C   UNL     1     -24.328  22.689 -22.344  1.00  0.00    -0.000 C 
BRANCH  14  15
ATOM     15  C   UNL     1     -24.491  21.291 -21.729  1.00  0.00    -0.000 C 
BRANCH  15  16
ATOM     16  C   UNL     1     -23.181  20.821 -21.082  1.00  0.00    -0.000 C 
BRANCH  16  17
ATOM     17  C   UNL     1     -22.728  19.445 -21.596  1.00  0.00    -0.003 C 
ATOM     18  C   UNL     1     -23.687  18.855 -22.629  1.00  0.00     0.004 C 
ENDBRANCH  16  17
ENDBRANCH  15  16
ENDBRANCH  14  15
ENDBRANCH  13  14
ENDBRANCH  12  13
ENDBRANCH  11  12
ENDBRANCH   1  11
TORSDOF 14
ENDMDL
MODEL 5
REMARK VINA RESULT:    -4.361      1.222      3.903
REMARK INTER + INTRA:         -10.103
REMARK INTER:                  -8.014
REMARK INTRA:                  -2.089
REMARK UNBOUND:                -2.173
REMARK SMILES CCCCCCCCCCCCCCCC(=O)[O-]
REMARK SMILES IDX 9 1 10 2 11 3 12 4 13 5 14 6 15 7 16 8 17 9 18 10 8 11 7 12
REMARK SMILES IDX 6 13 5 14 4 15 3 16 2 17 1 18
REMARK H PARENT
REMARK Flexibility Score: inf
ROOT
ATOM      1  C   UNL     1     -20.388  17.415 -24.288  1.00  0.00     0.000 C 
ENDROOT
BRANCH   1   2
ATOM      2  C   UNL     1     -21.737  17.284 -25.011  1.00  0.00     0.000 C 
BRANCH   2   3
ATOM      3  C   UNL     1     -22.432  18.647 -25.128  1.00  0.00     0.000 C 
BRANCH   3   4
ATOM      4  C   UNL     1     -21.535  19.719 -25.768  1.00  0.00     0.000 C 
BRANCH   4   5
ATOM      5  C   UNL     1     -21.510  21.027 -24.965  1.00  0.00     0.000 C 
BRANCH   5   6
ATOM      6  C   UNL     1     -22.920  21.627 -24.852  1.00  0.00     0.006 C 
BRANCH   6   7
ATOM      7  C   UNL     1     -22.972  22.810 -23.877  1.00  0.00     0.053 C 
BRANCH   7   8
ATOM      8  C   UNL     1     -22.105  23.945 -24.331  1.00  0.00     0.041 C 
ATOM      9  O   UNL     1     -21.243  24.434 -23.554  1.00  0.00    -0.550 OA
ATOM     10  O   UNL     1     -22.274  24.485 -25.600  1.00  0.00    -0.550 OA
ENDBRANCH   7   8
ENDBRANCH   6   7
ENDBRANCH   5   6
ENDBRANCH   4   5
ENDBRANCH   3   4
ENDBRANCH   2   3
ENDBRANCH   1   2
BRANCH   1  11
ATOM     11  C   UNL     1     -20.302  16.553 -23.017  1.00  0.00     0.000 C 
BRANCH  11  12
ATOM     12  C   UNL     1     -21.365  16.868 -21.945  1.00  0.00    -0.000 C 
BRANCH  12  13
ATOM     13  C   UNL     1     -22.217  15.664 -21.493  1.00  0.00    -0.000 C 
BRANCH  13  14
ATOM     14  C   UNL     1     -23.720  15.959 -21.329  1.00  0.00    -0.000 C 
BRANCH  14  15
ATOM     15  C   UNL     1     -24.232  17.021 -22.313  1.00  0.00    -0.000 C 
BRANCH  15  16
ATOM     16  C   UNL     1     -24.783  18.242 -21.563  1.00  0.00    -0.000 C 
BRANCH  16  17
ATOM     17  C   UNL     1     -24.202  19.567 -22.084  1.00  0.00    -0.003 C 
ATOM     18  C   UNL     1     -22.951  20.003 -21.322  1.00  0.00     0.004 C 
ENDBRANCH  16  17
ENDBRANCH  15  16
ENDBRANCH  14  15
ENDBRANCH  13  14
ENDBRANCH  12  13
ENDBRANCH  11  12
ENDBRANCH   1  11
TORSDOF 14
ENDMDL
MODEL 6
REMARK VINA RESULT:    -4.358      1.667      3.784
REMARK INTER + INTRA:         -10.098
REMARK INTER:                  -8.480
REMARK INTRA:                  -1.618
REMARK UNBOUND:                -2.173
REMARK SMILES CCCCCCCCCCCCCCCC(=O)[O-]
REMARK SMILES IDX 9 1 10 2 11 3 12 4 13 5 14 6 15 7 16 8 17 9 18 10 8 11 7 12
REMARK SMILES IDX 6 13 5 14 4 15 3 16 2 17 1 18
REMARK H PARENT
REMARK Flexibility Score: inf
ROOT
ATOM      1  C   UNL     1     -21.313  19.325 -25.064  1.00  0.00     0.000 C 
ENDROOT
BRANCH   1   2
ATOM      2  C   UNL     1     -21.733  20.688 -25.633  1.00  0.00     0.000 C 
BRANCH   2   3
ATOM      3  C   UNL     1     -22.719  21.396 -24.692  1.00  0.00     0.000 C 
BRANCH   3   4
ATOM      4  C   UNL     1     -22.477  22.911 -24.609  1.00  0.00     0.000 C 
BRANCH   4   5
ATOM      5  C   UNL     1     -21.132  23.330 -25.222  1.00  0.00     0.000 C 
BRANCH   5   6
ATOM      6  C   UNL     1     -21.149  24.816 -25.614  1.00  0.00     0.006 C 
BRANCH   6   7
ATOM      7  C   UNL     1     -22.465  25.223 -26.290  1.00  0.00     0.053 C 
BRANCH   7   8
ATOM      8  C   UNL     1     -22.236  25.801 -27.652  1.00  0.00     0.041 C 
ATOM      9  O   UNL     1     -21.256  26.563 -27.861  1.00  0.00    -0.550 OA
ATOM     10  O   UNL     1     -23.126  25.527 -28.684  1.00  0.00    -0.550 OA
ENDBRANCH   7   8
ENDBRANCH   6   7
ENDBRANCH   5   6
ENDBRANCH   4   5
ENDBRANCH   3   4
ENDBRANCH   2   3
ENDBRANCH   1   2
BRANCH   1  11
ATOM     11  C   UNL     1     -22.223  18.175 -25.530  1.00  0.00     0.000 C 
BRANCH  11  12
ATOM     12  C   UNL     1     -22.314  16.983 -24.556  1.00  0.00    -0.000 C 
BRANCH  12  13
ATOM     13  C   UNL     1     -21.333  17.031 -23.368  1.00  0.00    -0.000 C 
BRANCH  13  14
ATOM     14  C   UNL     1     -21.973  17.385 -22.012  1.00  0.00    -0.000 C 
BRANCH  14  15
ATOM     15  C   UNL     1     -23.502  17.510 -22.088  1.00  0.00    -0.000 C 
BRANCH  15  16
ATOM     16  C   UNL     1     -23.937  18.977 -21.974  1.00  0.00    -0.000 C 
BRANCH  16  17
ATOM     17  C   UNL     1     -22.847  19.872 -21.363  1.00  0.00    -0.003 C 
ATOM     18  C   UNL     1     -23.367  21.257 -20.979  1.00  0.00     0.004 C 
ENDBRANCH  16  17
ENDBRANCH  15  16
ENDBRANCH  14  15
ENDBRANCH  13  14
ENDBRANCH  12  13
ENDBRANCH  11  12
ENDBRANCH   1  11
TORSDOF 14
ENDMDL
MODEL 7
REMARK VINA RESULT:    -4.321      3.109      4.203
REMARK INTER + INTRA:         -10.030
REMARK INTER:                  -8.279
REMARK INTRA:                  -1.752
REMARK UNBOUND:                -2.173
REMARK SMILES CCCCCCCCCCCCCCCC(=O)[O-]
REMARK SMILES IDX 9 1 10 2 11 3 12 4 13 5 14 6 15 7 16 8 17 9 18 10 8 11 7 12
REMARK SMILES IDX 6 13 5 14 4 15 3 16 2 17 1 18
REMARK H PARENT
REMARK Flexibility Score: inf
ROOT
ATOM      1  C   UNL     1     -24.117  18.799 -21.640  1.00  0.00     0.000 C 
ENDROOT
BRANCH   1   2
ATOM      2  C   UNL     1     -22.869  19.609 -22.022  1.00  0.00     0.000 C 
BRANCH   2   3
ATOM      3  C   UNL     1     -23.240  21.058 -22.366  1.00  0.00     0.000 C 
BRANCH   3   4
ATOM      4  C   UNL     1     -22.858  21.443 -23.804  1.00  0.00     0.000 C 
BRANCH   4   5
ATOM      5  C   UNL     1     -22.744  20.225 -24.732  1.00  0.00     0.000 C 
BRANCH   5   6
ATOM      6  C   UNL     1     -21.362  20.175 -25.402  1.00  0.00     0.006 C 
BRANCH   6   7
ATOM      7  C   UNL     1     -20.728  18.780 -25.321  1.00  0.00     0.053 C 
BRANCH   7   8
ATOM      8  C   UNL     1     -21.413  17.803 -26.226  1.00  0.00     0.041 C 
ATOM      9  O   UNL     1     -21.384  17.968 -27.474  1.00  0.00    -0.550 OA
ATOM     10  O   UNL     1     -22.114  16.729 -25.690  1.00  0.00    -0.550 OA
ENDBRANCH   7   8
ENDBRANCH   6   7
ENDBRANCH   5   6
ENDBRANCH   4   5
ENDBRANCH   3   4
ENDBRANCH   2   3
ENDBRANCH   1   2
BRANCH   1  11
ATOM     11  C   UNL     1     -24.382  17.622 -22.595  1.00  0.00     0.000 C 
BRANCH  11  12
ATOM     12  C   UNL     1     -25.030  16.386 -21.940  1.00  0.00    -0.000 C 
BRANCH  12  13
ATOM     13  C   UNL     1     -24.247  15.788 -20.753  1.00  0.00    -0.000 C 
BRANCH  13  14
ATOM     14  C   UNL     1     -24.159  14.250 -20.743  1.00  0.00    -0.000 C 
BRANCH  14  15
ATOM     15  C   UNL     1     -22.724  13.732 -20.912  1.00  0.00    -0.000 C 
BRANCH  15  16
ATOM     16  C   UNL     1     -21.715  14.888 -20.861  1.00  0.00    -0.000 C 
BRANCH  16  17
ATOM     17  C   UNL     1     -21.023  15.129 -22.212  1.00  0.00    -0.003 C 
ATOM     18  C   UNL     1     -20.697  16.602 -22.453  1.00  0.00     0.004 C 
ENDBRANCH  16  17
ENDBRANCH  15  16
ENDBRANCH  14  15
ENDBRANCH  13  14
ENDBRANCH  12  13
ENDBRANCH  11  12
ENDBRANCH   1  11
TORSDOF 14
ENDMDL
MODEL 8
REMARK VINA RESULT:    -4.296      3.784      6.981
REMARK INTER + INTRA:          -9.984
REMARK INTER:                  -8.011
REMARK INTRA:                  -1.973
REMARK UNBOUND:                -2.173
REMARK SMILES CCCCCCCCCCCCCCCC(=O)[O-]
REMARK SMILES IDX 9 1 10 2 11 3 12 4 13 5 14 6 15 7 16 8 17 9 18 10 8 11 7 12
REMARK SMILES IDX 6 13 5 14 4 15 3 16 2 17 1 18
REMARK H PARENT
REMARK Flexibility Score: inf
ROOT
ATOM      1  C   UNL     1     -23.283  18.386 -24.406  1.00  0.00     0.000 C 
ENDROOT
BRANCH   1   2
ATOM      2  C   UNL     1     -22.549  17.112 -24.850  1.00  0.00     0.000 C 
BRANCH   2   3
ATOM      3  C   UNL     1     -21.058  17.392 -25.085  1.00  0.00     0.000 C 
BRANCH   3   4
ATOM      4  C   UNL     1     -20.192  17.069 -23.856  1.00  0.00     0.000 C 
BRANCH   4   5
ATOM      5  C   UNL     1     -20.560  15.725 -23.210  1.00  0.00     0.000 C 
BRANCH   5   6
ATOM      6  C   UNL     1     -20.810  15.893 -21.703  1.00  0.00     0.006 C 
BRANCH   6   7
ATOM      7  C   UNL     1     -21.198  14.571 -21.029  1.00  0.00     0.053 C 
BRANCH   7   8
ATOM      8  C   UNL     1     -22.684  14.396 -20.958  1.00  0.00     0.041 C 
ATOM      9  O   UNL     1     -23.189  13.243 -21.002  1.00  0.00    -0.550 OA
ATOM     10  O   UNL     1     -23.513  15.508 -20.880  1.00  0.00    -0.550 OA
ENDBRANCH   7   8
ENDBRANCH   6   7
ENDBRANCH   5   6
ENDBRANCH   4   5
ENDBRANCH   3   4
ENDBRANCH   2   3
ENDBRANCH   1   2
BRANCH   1  11
ATOM     11  C   UNL     1     -23.634  18.385 -22.908  1.00  0.00     0.000 C 
BRANCH  11  12
ATOM     12  C   UNL     1     -22.607  19.090 -21.999  1.00  0.00    -0.000 C 
BRANCH  12  13
ATOM     13  C   UNL     1     -23.136  20.333 -21.255  1.00  0.00    -0.000 C 
BRANCH  13  14
ATOM     14  C   UNL     1     -24.421  20.944 -21.846  1.00  0.00    -0.000 C 
BRANCH  14  15
ATOM     15  C   UNL     1     -24.244  22.409 -22.271  1.00  0.00    -0.000 C 
BRANCH  15  16
ATOM     16  C   UNL     1     -22.944  22.596 -23.066  1.00  0.00    -0.000 C 
BRANCH  16  17
ATOM     17  C   UNL     1     -23.067  22.119 -24.522  1.00  0.00    -0.003 C 
ATOM     18  C   UNL     1     -21.754  21.567 -25.076  1.00  0.00     0.004 C 
ENDBRANCH  16  17
ENDBRANCH  15  16
ENDBRANCH  14  15
ENDBRANCH  13  14
ENDBRANCH  12  13
ENDBRANCH  11  12
ENDBRANCH   1  11
TORSDOF 14
ENDMDL
MODEL 9
REMARK VINA RESULT:    -4.288      1.160      2.312
REMARK INTER + INTRA:          -9.970
REMARK INTER:                  -8.167
REMARK INTRA:                  -1.803
REMARK UNBOUND:                -2.173
REMARK SMILES CCCCCCCCCCCCCCCC(=O)[O-]
REMARK SMILES IDX 9 1 10 2 11 3 12 4 13 5 14 6 15 7 16 8 17 9 18 10 8 11 7 12
REMARK SMILES IDX 6 13 5 14 4 15 3 16 2 17 1 18
REMARK H PARENT
REMARK Flexibility Score: inf
ROOT
ATOM      1  C   UNL     1     -22.635  19.266 -21.772  1.00  0.00     0.000 C 
ENDROOT
BRANCH   1   2
ATOM      2  C   UNL     1     -23.275  20.546 -21.214  1.00  0.00     0.000 C 
BRANCH   2   3
ATOM      3  C   UNL     1     -23.582  21.542 -22.342  1.00  0.00     0.000 C 
BRANCH   3   4
ATOM      4  C   UNL     1     -22.899  21.167 -23.667  1.00  0.00     0.000 C 
BRANCH   4   5
ATOM      5  C   UNL     1     -22.847  22.340 -24.657  1.00  0.00     0.000 C 
BRANCH   5   6
ATOM      6  C   UNL     1     -21.829  23.397 -24.201  1.00  0.00     0.006 C 
BRANCH   6   7
ATOM      7  C   UNL     1     -22.235  24.815 -24.624  1.00  0.00     0.053 C 
BRANCH   7   8
ATOM      8  C   UNL     1     -22.235  24.974 -26.113  1.00  0.00     0.041 C 
ATOM      9  O   UNL     1     -21.220  24.652 -26.784  1.00  0.00    -0.550 OA
ATOM     10  O   UNL     1     -23.344  25.510 -26.756  1.00  0.00    -0.550 OA
ENDBRANCH   7   8
ENDBRANCH   6   7
ENDBRANCH   5   6
ENDBRANCH   4   5
ENDBRANCH   3   4
ENDBRANCH   2   3
ENDBRANCH   1   2
BRANCH   1  11
ATOM     11  C   UNL     1     -23.589  18.059 -21.746  1.00  0.00     0.000 C 
BRANCH  11  12
ATOM     12  C   UNL     1     -22.897  16.682 -21.809  1.00  0.00    -0.000 C 
BRANCH  12  13
ATOM     13  C   UNL     1     -21.357  16.725 -21.880  1.00  0.00    -0.000 C 
BRANCH  13  14
ATOM     14  C   UNL     1     -20.752  16.190 -23.191  1.00  0.00    -0.000 C 
BRANCH  14  15
ATOM     15  C   UNL     1     -19.871  17.223 -23.908  1.00  0.00    -0.000 C 
BRANCH  15  16
ATOM     16  C   UNL     1     -20.731  18.255 -24.650  1.00  0.00    -0.000 C 
BRANCH  16  17
ATOM     17  C   UNL     1     -21.678  17.610 -25.674  1.00  0.00    -0.003 C 
ATOM     18  C   UNL     1     -23.147  17.933 -25.404  1.00  0.00     0.004 C 
ENDBRANCH  16  17
ENDBRANCH  15  16
ENDBRANCH  14  15
ENDBRANCH  13  14
ENDBRANCH  12  13
ENDBRANCH  11  12
ENDBRANCH   1  11
TORSDOF 14
ENDMDL
