MODEL 1
REMARK VINA RESULT:    56.188      0.000      0.000
REMARK INTER + INTRA:          61.514
REMARK INTER:                  61.115
REMARK INTRA:                   0.399
REMARK UNBOUND:                 0.399
REMARK SMILES C[C@@H]1[C@H]2C3=CC[C@@H]4[C@]5(C)CC[C@H](O)C(C)(C)[C@@H]5CC[C@@]4(C)[C@]3(C)CC[C@@]2(C(=O)[O-])CC[C@@H]1C
REMARK SMILES IDX 26 1 30 2 25 3 3 4 31 5 24 6 4 7 2 8 32 9 22 10 5 11 1 12
REMARK SMILES IDX 33 13 23 14 20 15 6 16 7 17 19 18 21 19 8 20 18 21 17 22
REMARK SMILES IDX 10 23 9 24 14 25 11 26 12 27 15 28 16 29 27 30 28 31 29 32
REMARK SMILES IDX 13 33
REMARK H PARENT 13 34
REMARK Flexibility Score: inf
ROOT
ATOM      1  C   UNL     1      -1.553 -19.701 -12.712  1.00  0.00     0.017 C 
ATOM      2  C   UNL     1      -1.221 -20.326 -11.321  1.00  0.00     0.014 C 
ATOM      3  C   UNL     1      -2.677 -20.558 -13.399  1.00  0.00     0.014 C 
ATOM      4  C   UNL     1      -0.230 -19.642 -13.572  1.00  0.00     0.030 C 
ATOM      5  C   UNL     1      -0.084 -19.611 -10.580  1.00  0.00     0.004 C 
ATOM      6  C   UNL     1      -2.325 -21.046 -14.814  1.00  0.00     0.013 C 
ATOM      7  C   UNL     1       0.122 -21.025 -14.191  1.00  0.00    -0.063 C 
ATOM      8  C   UNL     1       0.945 -18.917 -12.815  1.00  0.00    -0.003 C 
ATOM      9  C   UNL     1       1.197 -19.576 -11.430  1.00  0.00    -0.011 C 
ATOM     10  C   UNL     1      -0.978 -21.838 -14.884  1.00  0.00    -0.006 C 
ATOM     11  C   UNL     1       1.404 -21.445 -14.343  1.00  0.00    -0.027 C 
ATOM     12  C   UNL     1       0.767 -17.381 -12.736  1.00  0.00     0.008 C 
ATOM     13  C   UNL     1       2.349 -18.916 -10.660  1.00  0.00     0.008 C 
ATOM     14  C   UNL     1      -1.177 -23.147 -14.049  1.00  0.00     0.017 C 
ATOM     15  C   UNL     1      -0.533 -22.135 -16.404  1.00  0.00    -0.020 C 
ATOM     16  C   UNL     1       1.896 -22.152 -15.584  1.00  0.00     0.032 C 
ATOM     17  C   UNL     1       0.822 -22.918 -16.404  1.00  0.00     0.006 C 
ATOM     18  C   UNL     1      -1.560 -23.043 -17.122  1.00  0.00     0.008 C 
ATOM     19  C   UNL     1      -0.381 -20.784 -17.177  1.00  0.00     0.012 C 
ATOM     20  C   UNL     1       1.348 -23.549 -17.792  1.00  0.00    -0.025 C 
ATOM     21  C   UNL     1      -1.215 -23.249 -18.588  1.00  0.00     0.005 C 
ATOM     22  C   UNL     1       0.183 -23.888 -18.849  1.00  0.00     0.003 C 
ATOM     23  C   UNL     1       2.446 -22.664 -18.460  1.00  0.00     0.010 C 
ATOM     24  C   UNL     1       2.063 -24.885 -17.382  1.00  0.00     0.012 C 
ATOM     25  C   UNL     1       0.582 -23.771 -20.396  1.00  0.00    -0.006 C 
ATOM     26  C   UNL     1       3.017 -23.196 -19.789  1.00  0.00     0.033 C 
ATOM     27  C   UNL     1       2.087 -24.118 -20.597  1.00  0.00     0.120 C 
ATOM     28  C   UNL     1      -0.254 -24.798 -21.208  1.00  0.00     0.014 C 
ATOM     29  C   UNL     1       0.300 -22.364 -21.006  1.00  0.00     0.014 C 
ENDROOT
BRANCH   1  30
ATOM     30  C   UNL     1      -2.142 -18.304 -12.538  1.00  0.00     0.048 C 
ATOM     31  O   UNL     1      -1.947 -17.422 -13.419  1.00  0.00    -0.550 OA
ATOM     32  O   UNL     1      -2.999 -18.012 -11.483  1.00  0.00    -0.550 OA
ENDBRANCH   1  30
BRANCH  27  33
ATOM     33  O   UNL     1       2.461 -24.021 -21.955  1.00  0.00    -0.393 OA
ATOM     34  H   UNL     1       2.741 -24.922 -22.260  1.00  0.00     0.210 HD
ENDBRANCH  27  33
TORSDOF 2
ENDMDL
