MODEL 1
REMARK VINA RESULT:    -5.413      0.000      0.000
REMARK INTER + INTRA:         -11.919
REMARK INTER:                 -10.159
REMARK INTRA:                  -1.760
REMARK UNBOUND:                -1.760
REMARK SMILES CCCCCCCCC=CCCCCCCCC(=O)[O-]
REMARK SMILES IDX 10 1 9 2 11 3 12 4 13 5 14 6 15 7 16 8 17 9 18 10 19 11
REMARK SMILES IDX 20 12 8 13 7 14 6 15 5 16 4 17 3 18 2 19 1 20
REMARK H PARENT
REMARK Flexibility Score: inf
ROOT
ATOM      1  C   UNL     1       5.197  11.121  19.027  1.00  0.00    -0.031 C 
ATOM      2  C   UNL     1       3.874  10.877  18.987  1.00  0.00    -0.031 C 
ENDROOT
BRANCH   1   3
ATOM      3  C   UNL     1       6.111  11.080  17.829  1.00  0.00     0.027 C 
BRANCH   3   4
ATOM      4  C   UNL     1       6.179  12.454  17.151  1.00  0.00     0.004 C 
BRANCH   4   5
ATOM      5  C   UNL     1       5.367  12.464  15.848  1.00  0.00     0.000 C 
BRANCH   5   6
ATOM      6  C   UNL     1       4.128  13.369  15.930  1.00  0.00     0.000 C 
BRANCH   6   7
ATOM      7  C   UNL     1       3.040  12.974  14.920  1.00  0.00     0.000 C 
BRANCH   7   8
ATOM      8  C   UNL     1       3.568  11.934  13.921  1.00  0.00     0.006 C 
BRANCH   8   9
ATOM      9  C   UNL     1       2.870  10.576  14.070  1.00  0.00     0.053 C 
BRANCH   9  10
ATOM     10  C   UNL     1       3.715   9.455  13.550  1.00  0.00     0.041 C 
ATOM     11  O   UNL     1       4.952   9.620  13.381  1.00  0.00    -0.550 OA
ATOM     12  O   UNL     1       3.132   8.238  13.219  1.00  0.00    -0.550 OA
ENDBRANCH   9  10
ENDBRANCH   8   9
ENDBRANCH   7   8
ENDBRANCH   6   7
ENDBRANCH   5   6
ENDBRANCH   4   5
ENDBRANCH   3   4
ENDBRANCH   1   3
BRANCH   2  13
ATOM     13  C   UNL     1       3.119  10.433  17.758  1.00  0.00     0.027 C 
BRANCH  13  14
ATOM     14  C   UNL     1       2.367   9.114  17.991  1.00  0.00     0.004 C 
BRANCH  14  15
ATOM     15  C   UNL     1       2.622   8.097  16.865  1.00  0.00     0.000 C 
BRANCH  15  16
ATOM     16  C   UNL     1       2.180   6.674  17.241  1.00  0.00     0.000 C 
BRANCH  16  17
ATOM     17  C   UNL     1       0.825   6.644  17.963  1.00  0.00    -0.000 C 
BRANCH  17  18
ATOM     18  C   UNL     1       0.820   5.585  19.076  1.00  0.00    -0.000 C 
BRANCH  18  19
ATOM     19  C   UNL     1       1.685   4.362  18.734  1.00  0.00    -0.003 C 
ATOM     20  C   UNL     1       2.646   3.984  19.861  1.00  0.00     0.004 C 
ENDBRANCH  18  19
ENDBRANCH  17  18
ENDBRANCH  16  17
ENDBRANCH  15  16
ENDBRANCH  14  15
ENDBRANCH  13  14
ENDBRANCH   2  13
TORSDOF 15
ENDMDL
MODEL 2
REMARK VINA RESULT:    -5.247      1.612      2.351
REMARK INTER + INTRA:         -11.609
REMARK INTER:                 -10.212
REMARK INTRA:                  -1.397
REMARK UNBOUND:                -1.760
REMARK SMILES CCCCCCCCC=CCCCCCCCC(=O)[O-]
REMARK SMILES IDX 10 1 9 2 11 3 12 4 13 5 14 6 15 7 16 8 17 9 18 10 19 11
REMARK SMILES IDX 20 12 8 13 7 14 6 15 5 16 4 17 3 18 2 19 1 20
REMARK H PARENT
REMARK Flexibility Score: inf
ROOT
ATOM      1  C   UNL     1       4.056  11.792  19.144  1.00  0.00    -0.031 C 
ATOM      2  C   UNL     1       3.105  11.131  18.456  1.00  0.00    -0.031 C 
ENDROOT
BRANCH   1   3
ATOM      3  C   UNL     1       5.107  11.132  20.000  1.00  0.00     0.027 C 
BRANCH   3   4
ATOM      4  C   UNL     1       6.471  11.160  19.300  1.00  0.00     0.004 C 
BRANCH   4   5
ATOM      5  C   UNL     1       6.336  11.654  17.853  1.00  0.00     0.000 C 
BRANCH   5   6
ATOM      6  C   UNL     1       6.141  10.506  16.850  1.00  0.00     0.000 C 
BRANCH   6   7
ATOM      7  C   UNL     1       5.175  10.871  15.713  1.00  0.00     0.000 C 
BRANCH   7   8
ATOM      8  C   UNL     1       4.961  12.390  15.640  1.00  0.00     0.006 C 
BRANCH   8   9
ATOM      9  C   UNL     1       4.340  12.827  14.307  1.00  0.00     0.053 C 
BRANCH   9  10
ATOM     10  C   UNL     1       2.843  12.784  14.350  1.00  0.00     0.041 C 
ATOM     11  O   UNL     1       2.200  13.692  14.939  1.00  0.00    -0.550 OA
ATOM     12  O   UNL     1       2.160  11.724  13.768  1.00  0.00    -0.550 OA
ENDBRANCH   9  10
ENDBRANCH   8   9
ENDBRANCH   7   8
ENDBRANCH   6   7
ENDBRANCH   5   6
ENDBRANCH   4   5
ENDBRANCH   3   4
ENDBRANCH   1   3
BRANCH   2  13
ATOM     13  C   UNL     1       2.886   9.639  18.511  1.00  0.00     0.027 C 
BRANCH  13  14
ATOM     14  C   UNL     1       2.063   9.134  17.316  1.00  0.00     0.004 C 
BRANCH  14  15
ATOM     15  C   UNL     1       2.759   7.972  16.585  1.00  0.00     0.000 C 
BRANCH  15  16
ATOM     16  C   UNL     1       2.351   6.598  17.138  1.00  0.00     0.000 C 
BRANCH  16  17
ATOM     17  C   UNL     1       0.972   6.614  17.813  1.00  0.00    -0.000 C 
BRANCH  17  18
ATOM     18  C   UNL     1       1.031   5.947  19.196  1.00  0.00    -0.000 C 
BRANCH  18  19
ATOM     19  C   UNL     1       1.261   4.430  19.113  1.00  0.00    -0.003 C 
ATOM     20  C   UNL     1       2.545   3.988  19.816  1.00  0.00     0.004 C 
ENDBRANCH  18  19
ENDBRANCH  17  18
ENDBRANCH  16  17
ENDBRANCH  15  16
ENDBRANCH  14  15
ENDBRANCH  13  14
ENDBRANCH   2  13
TORSDOF 15
ENDMDL
MODEL 3
REMARK VINA RESULT:    -5.238      2.704      6.230
REMARK INTER + INTRA:         -11.591
REMARK INTER:                  -9.749
REMARK INTRA:                  -1.842
REMARK UNBOUND:                -1.760
REMARK SMILES CCCCCCCCC=CCCCCCCCC(=O)[O-]
REMARK SMILES IDX 10 1 9 2 11 3 12 4 13 5 14 6 15 7 16 8 17 9 18 10 19 11
REMARK SMILES IDX 20 12 8 13 7 14 6 15 5 16 4 17 3 18 2 19 1 20
REMARK H PARENT
REMARK Flexibility Score: inf
ROOT
ATOM      1  C   UNL     1       4.975  11.385  19.378  1.00  0.00    -0.031 C 
ATOM      2  C   UNL     1       6.084  11.166  18.647  1.00  0.00    -0.031 C 
ENDROOT
BRANCH   1   3
ATOM      3  C   UNL     1       3.572  11.386  18.825  1.00  0.00     0.027 C 
BRANCH   3   4
ATOM      4  C   UNL     1       3.008   9.962  18.776  1.00  0.00     0.004 C 
BRANCH   4   5
ATOM      5  C   UNL     1       2.693   9.545  17.331  1.00  0.00     0.000 C 
BRANCH   5   6
ATOM      6  C   UNL     1       2.406   8.042  17.197  1.00  0.00     0.000 C 
BRANCH   6   7
ATOM      7  C   UNL     1       0.995   7.663  17.672  1.00  0.00     0.000 C 
BRANCH   7   8
ATOM      8  C   UNL     1       1.036   6.429  18.585  1.00  0.00     0.006 C 
BRANCH   8   9
ATOM      9  C   UNL     1       2.222   5.508  18.267  1.00  0.00     0.053 C 
BRANCH   9  10
ATOM     10  C   UNL     1       2.141   4.217  19.022  1.00  0.00     0.041 C 
ATOM     11  O   UNL     1       2.517   4.159  20.222  1.00  0.00    -0.550 OA
ATOM     12  O   UNL     1       1.681   3.068  18.389  1.00  0.00    -0.550 OA
ENDBRANCH   9  10
ENDBRANCH   8   9
ENDBRANCH   7   8
ENDBRANCH   6   7
ENDBRANCH   5   6
ENDBRANCH   4   5
ENDBRANCH   3   4
ENDBRANCH   1   3
BRANCH   2  13
ATOM     13  C   UNL     1       6.103  10.982  17.149  1.00  0.00     0.027 C 
BRANCH  13  14
ATOM     14  C   UNL     1       6.259  12.319  16.408  1.00  0.00     0.004 C 
BRANCH  14  15
ATOM     15  C   UNL     1       4.900  12.933  16.030  1.00  0.00     0.000 C 
BRANCH  15  16
ATOM     16  C   UNL     1       4.519  12.671  14.565  1.00  0.00     0.000 C 
BRANCH  16  17
ATOM     17  C   UNL     1       3.006  12.503  14.365  1.00  0.00    -0.000 C 
BRANCH  17  18
ATOM     18  C   UNL     1       2.671  11.084  13.878  1.00  0.00    -0.000 C 
BRANCH  18  19
ATOM     19  C   UNL     1       3.883  10.142  13.922  1.00  0.00    -0.003 C 
ATOM     20  C   UNL     1       3.544   8.721  13.470  1.00  0.00     0.004 C 
ENDBRANCH  18  19
ENDBRANCH  17  18
ENDBRANCH  16  17
ENDBRANCH  15  16
ENDBRANCH  14  15
ENDBRANCH  13  14
ENDBRANCH   2  13
TORSDOF 15
ENDMDL
MODEL 4
REMARK VINA RESULT:    -5.148      2.628      6.446
REMARK INTER + INTRA:         -11.422
REMARK INTER:                  -9.461
REMARK INTRA:                  -1.960
REMARK UNBOUND:                -1.760
REMARK SMILES CCCCCCCCC=CCCCCCCCC(=O)[O-]
REMARK SMILES IDX 10 1 9 2 11 3 12 4 13 5 14 6 15 7 16 8 17 9 18 10 19 11
REMARK SMILES IDX 20 12 8 13 7 14 6 15 5 16 4 17 3 18 2 19 1 20
REMARK H PARENT
REMARK Flexibility Score: inf
ROOT
ATOM      1  C   UNL     1       2.710  10.440  13.889  1.00  0.00    -0.031 C 
ATOM      2  C   UNL     1       2.610  11.783  13.889  1.00  0.00    -0.031 C 
ENDROOT
BRANCH   1   3
ATOM      3  C   UNL     1       3.874   9.669  14.458  1.00  0.00     0.027 C 
BRANCH   3   4
ATOM      4  C   UNL     1       3.404   8.717  15.564  1.00  0.00     0.004 C 
BRANCH   4   5
ATOM      5  C   UNL     1       2.629   9.476  16.651  1.00  0.00     0.000 C 
BRANCH   5   6
ATOM      6  C   UNL     1       1.982   8.538  17.681  1.00  0.00     0.000 C 
BRANCH   6   7
ATOM      7  C   UNL     1       2.186   7.054  17.342  1.00  0.00     0.000 C 
BRANCH   7   8
ATOM      8  C   UNL     1       0.977   6.218  17.787  1.00  0.00     0.006 C 
BRANCH   8   9
ATOM      9  C   UNL     1       1.129   5.691  19.220  1.00  0.00     0.053 C 
BRANCH   9  10
ATOM     10  C   UNL     1       1.816   4.361  19.254  1.00  0.00     0.041 C 
ATOM     11  O   UNL     1       1.592   3.508  18.356  1.00  0.00    -0.550 OA
ATOM     12  O   UNL     1       2.681   4.050  20.297  1.00  0.00    -0.550 OA
ENDBRANCH   9  10
ENDBRANCH   8   9
ENDBRANCH   7   8
ENDBRANCH   6   7
ENDBRANCH   5   6
ENDBRANCH   4   5
ENDBRANCH   3   4
ENDBRANCH   1   3
BRANCH   2  13
ATOM     13  C   UNL     1       3.686  12.724  14.371  1.00  0.00     0.027 C 
BRANCH  13  14
ATOM     14  C   UNL     1       3.312  13.390  15.704  1.00  0.00     0.004 C 
BRANCH  14  15
ATOM     15  C   UNL     1       3.914  12.647  16.909  1.00  0.00     0.000 C 
BRANCH  15  16
ATOM     16  C   UNL     1       5.358  12.188  16.660  1.00  0.00     0.000 C 
BRANCH  16  17
ATOM     17  C   UNL     1       5.752  10.975  17.515  1.00  0.00    -0.000 C 
BRANCH  17  18
ATOM     18  C   UNL     1       6.489  11.417  18.788  1.00  0.00    -0.000 C 
BRANCH  18  19
ATOM     19  C   UNL     1       5.622  11.286  20.050  1.00  0.00    -0.003 C 
ATOM     20  C   UNL     1       4.268  10.633  19.771  1.00  0.00     0.004 C 
ENDBRANCH  18  19
ENDBRANCH  17  18
ENDBRANCH  16  17
ENDBRANCH  15  16
ENDBRANCH  14  15
ENDBRANCH  13  14
ENDBRANCH   2  13
TORSDOF 15
ENDMDL
MODEL 5
REMARK VINA RESULT:    -5.045      2.204      3.903
REMARK INTER + INTRA:         -11.230
REMARK INTER:                 -10.049
REMARK INTRA:                  -1.181
REMARK UNBOUND:                -1.760
REMARK SMILES CCCCCCCCC=CCCCCCCCC(=O)[O-]
REMARK SMILES IDX 10 1 9 2 11 3 12 4 13 5 14 6 15 7 16 8 17 9 18 10 19 11
REMARK SMILES IDX 20 12 8 13 7 14 6 15 5 16 4 17 3 18 2 19 1 20
REMARK H PARENT
REMARK Flexibility Score: inf
ROOT
ATOM      1  C   UNL     1       3.314  10.596  13.600  1.00  0.00    -0.031 C 
ATOM      2  C   UNL     1       3.531   9.528  14.391  1.00  0.00    -0.031 C 
ENDROOT
BRANCH   1   3
ATOM      3  C   UNL     1       2.971  11.976  14.100  1.00  0.00     0.027 C 
BRANCH   3   4
ATOM      4  C   UNL     1       4.243  12.792  14.353  1.00  0.00     0.004 C 
BRANCH   4   5
ATOM      5  C   UNL     1       4.452  13.032  15.855  1.00  0.00     0.000 C 
BRANCH   5   6
ATOM      6  C   UNL     1       3.152  13.407  16.582  1.00  0.00     0.000 C 
BRANCH   6   7
ATOM      7  C   UNL     1       3.175  13.027  18.071  1.00  0.00     0.000 C 
BRANCH   7   8
ATOM      8  C   UNL     1       3.559  11.552  18.255  1.00  0.00     0.006 C 
BRANCH   8   9
ATOM      9  C   UNL     1       4.384  11.319  19.528  1.00  0.00     0.053 C 
BRANCH   9  10
ATOM     10  C   UNL     1       5.851  11.255  19.237  1.00  0.00     0.041 C 
ATOM     11  O   UNL     1       6.687  11.285  20.179  1.00  0.00    -0.550 OA
ATOM     12  O   UNL     1       6.298  11.195  17.922  1.00  0.00    -0.550 OA
ENDBRANCH   9  10
ENDBRANCH   8   9
ENDBRANCH   7   8
ENDBRANCH   6   7
ENDBRANCH   5   6
ENDBRANCH   4   5
ENDBRANCH   3   4
ENDBRANCH   1   3
BRANCH   2  13
ATOM     13  C   UNL     1       3.372   9.526  15.893  1.00  0.00     0.027 C 
BRANCH  13  14
ATOM     14  C   UNL     1       2.791   8.200  16.407  1.00  0.00     0.004 C 
BRANCH  14  15
ATOM     15  C   UNL     1       2.104   8.363  17.774  1.00  0.00     0.000 C 
BRANCH  15  16
ATOM     16  C   UNL     1       0.740   7.659  17.838  1.00  0.00     0.000 C 
BRANCH  16  17
ATOM     17  C   UNL     1       0.760   6.401  18.718  1.00  0.00    -0.000 C 
BRANCH  17  18
ATOM     18  C   UNL     1       1.830   5.410  18.235  1.00  0.00    -0.000 C 
BRANCH  18  19
ATOM     19  C   UNL     1       1.714   4.037  18.912  1.00  0.00    -0.003 C 
ATOM     20  C   UNL     1       2.587   3.919  20.162  1.00  0.00     0.004 C 
ENDBRANCH  18  19
ENDBRANCH  17  18
ENDBRANCH  16  17
ENDBRANCH  15  16
ENDBRANCH  14  15
ENDBRANCH  13  14
ENDBRANCH   2  13
TORSDOF 15
ENDMDL
MODEL 6
REMARK VINA RESULT:    -4.855      2.735      6.308
REMARK INTER + INTRA:         -10.873
REMARK INTER:                  -9.284
REMARK INTRA:                  -1.589
REMARK UNBOUND:                -1.760
REMARK SMILES CCCCCCCCC=CCCCCCCCC(=O)[O-]
REMARK SMILES IDX 10 1 9 2 11 3 12 4 13 5 14 6 15 7 16 8 17 9 18 10 19 11
REMARK SMILES IDX 20 12 8 13 7 14 6 15 5 16 4 17 3 18 2 19 1 20
REMARK H PARENT
REMARK Flexibility Score: inf
ROOT
ATOM      1  C   UNL     1       2.761  10.864  13.889  1.00  0.00    -0.031 C 
ATOM      2  C   UNL     1       2.748  12.177  14.187  1.00  0.00    -0.031 C 
ENDROOT
BRANCH   1   3
ATOM      3  C   UNL     1       3.975   9.975  13.990  1.00  0.00     0.027 C 
BRANCH   3   4
ATOM      4  C   UNL     1       4.135   9.437  15.417  1.00  0.00     0.004 C 
BRANCH   4   5
ATOM      5  C   UNL     1       2.766   9.218  16.078  1.00  0.00     0.000 C 
BRANCH   5   6
ATOM      6  C   UNL     1       2.702   7.915  16.889  1.00  0.00     0.000 C 
BRANCH   6   7
ATOM      7  C   UNL     1       1.634   7.957  17.993  1.00  0.00     0.000 C 
BRANCH   7   8
ATOM      8  C   UNL     1       1.071   6.554  18.265  1.00  0.00     0.006 C 
BRANCH   8   9
ATOM      9  C   UNL     1       2.101   5.449  17.990  1.00  0.00     0.053 C 
BRANCH   9  10
ATOM     10  C   UNL     1       1.913   4.275  18.899  1.00  0.00     0.041 C 
ATOM     11  O   UNL     1       1.863   3.108  18.427  1.00  0.00    -0.550 OA
ATOM     12  O   UNL     1       1.760   4.470  20.267  1.00  0.00    -0.550 OA
ENDBRANCH   9  10
ENDBRANCH   8   9
ENDBRANCH   7   8
ENDBRANCH   6   7
ENDBRANCH   5   6
ENDBRANCH   4   5
ENDBRANCH   3   4
ENDBRANCH   1   3
BRANCH   2  13
ATOM     13  C   UNL     1       3.964  12.981  14.576  1.00  0.00     0.027 C 
BRANCH  13  14
ATOM     14  C   UNL     1       4.283  12.853  16.073  1.00  0.00     0.004 C 
BRANCH  14  15
ATOM     15  C   UNL     1       3.167  13.440  16.954  1.00  0.00     0.000 C 
BRANCH  15  16
ATOM     16  C   UNL     1       3.142  12.828  18.363  1.00  0.00     0.000 C 
BRANCH  16  17
ATOM     17  C   UNL     1       3.575  11.355  18.379  1.00  0.00    -0.000 C 
BRANCH  17  18
ATOM     18  C   UNL     1       4.461  11.057  19.598  1.00  0.00    -0.000 C 
BRANCH  18  19
ATOM     19  C   UNL     1       5.941  11.387  19.349  1.00  0.00    -0.003 C 
ATOM     20  C   UNL     1       6.403  11.005  17.943  1.00  0.00     0.004 C 
ENDBRANCH  18  19
ENDBRANCH  17  18
ENDBRANCH  16  17
ENDBRANCH  15  16
ENDBRANCH  14  15
ENDBRANCH  13  14
ENDBRANCH   2  13
TORSDOF 15
ENDMDL
MODEL 7
REMARK VINA RESULT:    -4.816      2.850      6.801
REMARK INTER + INTRA:         -10.799
REMARK INTER:                  -9.233
REMARK INTRA:                  -1.567
REMARK UNBOUND:                -1.760
REMARK SMILES CCCCCCCCC=CCCCCCCCC(=O)[O-]
REMARK SMILES IDX 10 1 9 2 11 3 12 4 13 5 14 6 15 7 16 8 17 9 18 10 19 11
REMARK SMILES IDX 20 12 8 13 7 14 6 15 5 16 4 17 3 18 2 19 1 20
REMARK H PARENT
REMARK Flexibility Score: inf
ROOT
ATOM      1  C   UNL     1       3.254  11.386  18.739  1.00  0.00    -0.031 C 
ATOM      2  C   UNL     1       4.420  12.024  18.953  1.00  0.00    -0.031 C 
ENDROOT
BRANCH   1   3
ATOM      3  C   UNL     1       3.098   9.888  18.675  1.00  0.00     0.027 C 
BRANCH   3   4
ATOM      4  C   UNL     1       2.162   9.489  17.528  1.00  0.00     0.004 C 
BRANCH   4   5
ATOM      5  C   UNL     1       2.682   8.237  16.806  1.00  0.00     0.000 C 
BRANCH   5   6
ATOM      6  C   UNL     1       2.169   6.933  17.437  1.00  0.00     0.000 C 
BRANCH   6   7
ATOM      7  C   UNL     1       0.844   7.121  18.190  1.00  0.00     0.000 C 
BRANCH   7   8
ATOM      8  C   UNL     1       0.568   5.931  19.121  1.00  0.00     0.006 C 
BRANCH   8   9
ATOM      9  C   UNL     1       0.883   4.585  18.455  1.00  0.00     0.053 C 
BRANCH   9  10
ATOM     10  C   UNL     1       1.922   3.818  19.214  1.00  0.00     0.041 C 
ATOM     11  O   UNL     1       2.450   4.313  20.244  1.00  0.00    -0.550 OA
ATOM     12  O   UNL     1       2.332   2.568  18.764  1.00  0.00    -0.550 OA
ENDBRANCH   9  10
ENDBRANCH   8   9
ENDBRANCH   7   8
ENDBRANCH   6   7
ENDBRANCH   5   6
ENDBRANCH   4   5
ENDBRANCH   3   4
ENDBRANCH   1   3
BRANCH   2  13
ATOM     13  C   UNL     1       5.763  11.344  19.068  1.00  0.00     0.027 C 
BRANCH  13  14
ATOM     14  C   UNL     1       6.524  11.347  17.733  1.00  0.00     0.004 C 
BRANCH  14  15
ATOM     15  C   UNL     1       5.653  11.858  16.572  1.00  0.00     0.000 C 
BRANCH  15  16
ATOM     16  C   UNL     1       5.004  10.717  15.773  1.00  0.00     0.000 C 
BRANCH  16  17
ATOM     17  C   UNL     1       4.140  11.223  14.609  1.00  0.00    -0.000 C 
BRANCH  17  18
ATOM     18  C   UNL     1       4.095  12.759  14.586  1.00  0.00    -0.000 C 
BRANCH  18  19
ATOM     19  C   UNL     1       2.704  13.316  14.922  1.00  0.00    -0.003 C 
ATOM     20  C   UNL     1       2.663  14.026  16.276  1.00  0.00     0.004 C 
ENDBRANCH  18  19
ENDBRANCH  17  18
ENDBRANCH  16  17
ENDBRANCH  15  16
ENDBRANCH  14  15
ENDBRANCH  13  14
ENDBRANCH   2  13
TORSDOF 15
ENDMDL
MODEL 8
REMARK VINA RESULT:    -4.614      3.580      4.200
REMARK INTER + INTRA:         -10.420
REMARK INTER:                 -10.007
REMARK INTRA:                  -0.412
REMARK UNBOUND:                -1.760
REMARK SMILES CCCCCCCCC=CCCCCCCCC(=O)[O-]
REMARK SMILES IDX 10 1 9 2 11 3 12 4 13 5 14 6 15 7 16 8 17 9 18 10 19 11
REMARK SMILES IDX 20 12 8 13 7 14 6 15 5 16 4 17 3 18 2 19 1 20
REMARK H PARENT
REMARK Flexibility Score: inf
ROOT
ATOM      1  C   UNL     1       5.442  11.169  18.213  1.00  0.00    -0.031 C 
ATOM      2  C   UNL     1       4.317  10.845  18.879  1.00  0.00    -0.031 C 
ENDROOT
BRANCH   1   3
ATOM      3  C   UNL     1       5.578  11.167  16.712  1.00  0.00     0.027 C 
BRANCH   3   4
ATOM      4  C   UNL     1       5.447  12.589  16.154  1.00  0.00     0.004 C 
BRANCH   4   5
ATOM      5  C   UNL     1       4.572  12.605  14.892  1.00  0.00     0.000 C 
BRANCH   5   6
ATOM      6  C   UNL     1       3.209  13.275  15.125  1.00  0.00     0.000 C 
BRANCH   6   7
ATOM      7  C   UNL     1       2.968  13.630  16.599  1.00  0.00     0.000 C 
BRANCH   7   8
ATOM      8  C   UNL     1       1.902  14.728  16.732  1.00  0.00     0.006 C 
BRANCH   8   9
ATOM      9  C   UNL     1       1.576  15.049  18.197  1.00  0.00     0.053 C 
BRANCH   9  10
ATOM     10  C   UNL     1       0.579  16.160  18.315  1.00  0.00     0.041 C 
ATOM     11  O   UNL     1       0.967  17.357  18.376  1.00  0.00    -0.550 OA
ATOM     12  O   UNL     1      -0.779  15.873  18.390  1.00  0.00    -0.550 OA
ENDBRANCH   9  10
ENDBRANCH   8   9
ENDBRANCH   7   8
ENDBRANCH   6   7
ENDBRANCH   5   6
ENDBRANCH   4   5
ENDBRANCH   3   4
ENDBRANCH   1   3
BRANCH   2  13
ATOM     13  C   UNL     1       3.051  10.340  18.230  1.00  0.00     0.027 C 
BRANCH  13  14
ATOM     14  C   UNL     1       3.301   9.829  16.803  1.00  0.00     0.004 C 
BRANCH  14  15
ATOM     15  C   UNL     1       2.791   8.390  16.607  1.00  0.00     0.000 C 
BRANCH  15  16
ATOM     16  C   UNL     1       1.926   7.905  17.781  1.00  0.00     0.000 C 
BRANCH  16  17
ATOM     17  C   UNL     1       1.702   6.386  17.765  1.00  0.00    -0.000 C 
BRANCH  17  18
ATOM     18  C   UNL     1       0.952   5.929  19.026  1.00  0.00    -0.000 C 
BRANCH  18  19
ATOM     19  C   UNL     1       1.131   4.431  19.311  1.00  0.00    -0.003 C 
ATOM     20  C   UNL     1       2.548   4.080  19.764  1.00  0.00     0.004 C 
ENDBRANCH  18  19
ENDBRANCH  17  18
ENDBRANCH  16  17
ENDBRANCH  15  16
ENDBRANCH  14  15
ENDBRANCH  13  14
ENDBRANCH   2  13
TORSDOF 15
ENDMDL
MODEL 9
REMARK VINA RESULT:    -4.612      4.368      5.312
REMARK INTER + INTRA:         -10.417
REMARK INTER:                  -9.269
REMARK INTRA:                  -1.147
REMARK UNBOUND:                -1.760
REMARK SMILES CCCCCCCCC=CCCCCCCCC(=O)[O-]
REMARK SMILES IDX 10 1 9 2 11 3 12 4 13 5 14 6 15 7 16 8 17 9 18 10 19 11
REMARK SMILES IDX 20 12 8 13 7 14 6 15 5 16 4 17 3 18 2 19 1 20
REMARK H PARENT
REMARK Flexibility Score: inf
ROOT
ATOM      1  C   UNL     1       4.076  10.965  14.980  1.00  0.00    -0.031 C 
ATOM      2  C   UNL     1       4.004  10.123  16.029  1.00  0.00    -0.031 C 
ENDROOT
BRANCH   1   3
ATOM      3  C   UNL     1       4.210  12.462  15.092  1.00  0.00     0.027 C 
BRANCH   3   4
ATOM      4  C   UNL     1       2.851  13.144  14.900  1.00  0.00     0.004 C 
BRANCH   4   5
ATOM      5  C   UNL     1       2.618  14.218  15.973  1.00  0.00     0.000 C 
BRANCH   5   6
ATOM      6  C   UNL     1       2.792  13.677  17.401  1.00  0.00     0.000 C 
BRANCH   6   7
ATOM      7  C   UNL     1       2.060  14.528  18.449  1.00  0.00     0.000 C 
BRANCH   7   8
ATOM      8  C   UNL     1       1.344  15.715  17.790  1.00  0.00     0.006 C 
BRANCH   8   9
ATOM      9  C   UNL     1      -0.045  15.965  18.392  1.00  0.00     0.053 C 
BRANCH   9  10
ATOM     10  C   UNL     1      -0.232  17.396  18.789  1.00  0.00     0.041 C 
ATOM     11  O   UNL     1      -1.200  17.731  19.520  1.00  0.00    -0.550 OA
ATOM     12  O   UNL     1       0.646  18.368  18.323  1.00  0.00    -0.550 OA
ENDBRANCH   9  10
ENDBRANCH   8   9
ENDBRANCH   7   8
ENDBRANCH   6   7
ENDBRANCH   5   6
ENDBRANCH   4   5
ENDBRANCH   3   4
ENDBRANCH   1   3
BRANCH   2  13
ATOM     13  C   UNL     1       3.950  10.555  17.474  1.00  0.00     0.027 C 
BRANCH  13  14
ATOM     14  C   UNL     1       2.914   9.752  18.276  1.00  0.00     0.004 C 
BRANCH  14  15
ATOM     15  C   UNL     1       2.018   8.894  17.365  1.00  0.00     0.000 C 
BRANCH  15  16
ATOM     16  C   UNL     1       2.046   7.405  17.743  1.00  0.00     0.000 C 
BRANCH  16  17
ATOM     17  C   UNL     1       0.678   6.886  18.211  1.00  0.00    -0.000 C 
BRANCH  17  18
ATOM     18  C   UNL     1       0.811   5.498  18.858  1.00  0.00    -0.000 C 
BRANCH  18  19
ATOM     19  C   UNL     1       2.223   4.912  18.717  1.00  0.00    -0.003 C 
ATOM     20  C   UNL     1       2.608   4.009  19.889  1.00  0.00     0.004 C 
ENDBRANCH  18  19
ENDBRANCH  17  18
ENDBRANCH  16  17
ENDBRANCH  15  16
ENDBRANCH  14  15
ENDBRANCH  13  14
ENDBRANCH   2  13
TORSDOF 15
ENDMDL
