MODEL 1
REMARK VINA RESULT:    -8.412      0.000      0.000
REMARK INTER + INTRA:          -9.929
REMARK INTER:                 -10.379
REMARK INTRA:                   0.451
REMARK UNBOUND:                 0.451
REMARK SMILES Oc1cc(O)c2cc(O)c(-c3cc(O)c(O)c(O)c3)[o+]c2c1
REMARK SMILES IDX 10 1 20 2 21 3 22 4 2 5 3 6 4 7 6 8 7 9 8 10 11 11 12 12
REMARK SMILES IDX 13 13 19 14 15 15 17 16 14 17 16 19 18 21 9 23 1 25 5 27
REMARK H PARENT 14 18 16 20 18 22 9 24 1 26 5 28
REMARK Flexibility Score: inf
ROOT
ATOM      1  C   UNL     1     -12.680 -28.885 -10.983  1.00  0.00     0.402 A 
ATOM      2  O   UNL     1     -13.591 -29.183 -11.906  1.00  0.00    -0.202 OA
ATOM      3  C   UNL     1     -13.488 -30.226 -12.722  1.00  0.00     0.368 A 
ATOM      4  C   UNL     1     -14.499 -30.459 -13.658  1.00  0.00     0.162 A 
ATOM      5  C   UNL     1     -14.419 -31.548 -14.527  1.00  0.00     0.128 A 
ATOM      6  C   UNL     1     -13.321 -32.414 -14.459  1.00  0.00     0.093 A 
ATOM      7  C   UNL     1     -12.295 -32.202 -13.530  1.00  0.00     0.136 A 
ATOM      8  C   UNL     1     -12.372 -31.094 -12.647  1.00  0.00     0.125 A 
ATOM      9  C   UNL     1     -11.385 -30.796 -11.693  1.00  0.00     0.078 A 
ATOM     10  C   UNL     1     -11.528 -29.682 -10.860  1.00  0.00     0.223 A 
ENDROOT
BRANCH   1  11
ATOM     11  C   UNL     1     -12.914 -27.699 -10.126  1.00  0.00     0.091 A 
ATOM     12  C   UNL     1     -14.111 -26.970 -10.199  1.00  0.00     0.068 A 
ATOM     13  C   UNL     1     -14.303 -25.839  -9.396  1.00  0.00     0.162 A 
ATOM     14  C   UNL     1     -11.900 -27.260  -9.263  1.00  0.00     0.068 A 
ATOM     15  C   UNL     1     -13.298 -25.414  -8.517  1.00  0.00     0.200 A 
ATOM     16  C   UNL     1     -12.079 -26.132  -8.454  1.00  0.00     0.162 A 
BRANCH  13  17
ATOM     17  O   UNL     1     -15.498 -25.123  -9.469  1.00  0.00    -0.504 OA
ATOM     18  H   UNL     1     -15.810 -24.532  -8.706  1.00  0.00     0.293 HD
ENDBRANCH  13  17
BRANCH  15  19
ATOM     19  O   UNL     1     -13.544 -24.285  -7.733  1.00  0.00    -0.502 OA
ATOM     20  H   UNL     1     -14.368 -23.706  -7.815  1.00  0.00     0.293 HD
ENDBRANCH  15  19
BRANCH  16  21
ATOM     21  O   UNL     1     -11.028 -25.762  -7.612  1.00  0.00    -0.504 OA
ATOM     22  H   UNL     1     -10.141 -25.409  -7.936  1.00  0.00     0.293 HD
ENDBRANCH  16  21
ENDBRANCH   1  11
BRANCH  10  23
ATOM     23  O   UNL     1     -10.524 -29.358  -9.947  1.00  0.00    -0.500 OA
ATOM     24  H   UNL     1      -9.988 -28.502 -10.028  1.00  0.00     0.294 HD
ENDBRANCH  10  23
BRANCH   5  25
ATOM     25  O   UNL     1     -15.436 -31.764 -15.453  1.00  0.00    -0.507 OA
ATOM     26  H   UNL     1     -15.233 -31.988 -16.420  1.00  0.00     0.293 HD
ENDBRANCH   5  25
BRANCH   7  27
ATOM     27  O   UNL     1     -11.235 -33.113 -13.522  1.00  0.00    -0.507 OA
ATOM     28  H   UNL     1     -11.024 -33.736 -12.757  1.00  0.00     0.293 HD
ENDBRANCH   7  27
TORSDOF 7
ENDMDL
MODEL 2
REMARK VINA RESULT:    -8.266      2.189      7.646
REMARK INTER + INTRA:          -9.749
REMARK INTER:                  -9.634
REMARK INTRA:                  -0.114
REMARK UNBOUND:                 0.451
REMARK SMILES Oc1cc(O)c2cc(O)c(-c3cc(O)c(O)c(O)c3)[o+]c2c1
REMARK SMILES IDX 10 1 20 2 21 3 22 4 2 5 3 6 4 7 6 8 7 9 8 10 11 11 12 12
REMARK SMILES IDX 13 13 19 14 15 15 17 16 14 17 16 19 18 21 9 23 1 25 5 27
REMARK H PARENT 14 18 16 20 18 22 9 24 1 26 5 28
REMARK Flexibility Score: inf
ROOT
ATOM      1  C   UNL     1     -13.792 -30.462 -13.869  1.00  0.00     0.402 A 
ATOM      2  O   UNL     1     -13.752 -30.093 -12.592  1.00  0.00    -0.202 OA
ATOM      3  C   UNL     1     -13.955 -28.845 -12.185  1.00  0.00     0.368 A 
ATOM      4  C   UNL     1     -13.894 -28.556 -10.820  1.00  0.00     0.162 A 
ATOM      5  C   UNL     1     -14.105 -27.254 -10.364  1.00  0.00     0.128 A 
ATOM      6  C   UNL     1     -14.381 -26.231 -11.279  1.00  0.00     0.093 A 
ATOM      7  C   UNL     1     -14.446 -26.495 -12.653  1.00  0.00     0.136 A 
ATOM      8  C   UNL     1     -14.229 -27.817 -13.121  1.00  0.00     0.125 A 
ATOM      9  C   UNL     1     -14.263 -28.172 -14.478  1.00  0.00     0.078 A 
ATOM     10  C   UNL     1     -14.035 -29.497 -14.864  1.00  0.00     0.223 A 
ENDROOT
BRANCH   1  11
ATOM     11  C   UNL     1     -13.559 -31.888 -14.194  1.00  0.00     0.091 A 
ATOM     12  C   UNL     1     -14.453 -32.608 -15.004  1.00  0.00     0.068 A 
ATOM     13  C   UNL     1     -14.226 -33.962 -15.281  1.00  0.00     0.162 A 
ATOM     14  C   UNL     1     -12.456 -32.552 -13.639  1.00  0.00     0.068 A 
ATOM     15  C   UNL     1     -13.110 -34.618 -14.744  1.00  0.00     0.200 A 
ATOM     16  C   UNL     1     -12.217 -33.904 -13.909  1.00  0.00     0.162 A 
BRANCH  13  17
ATOM     17  O   UNL     1     -15.113 -34.669 -16.092  1.00  0.00    -0.504 OA
ATOM     18  H   UNL     1     -16.092 -34.768 -15.847  1.00  0.00     0.293 HD
ENDBRANCH  13  17
BRANCH  15  19
ATOM     19  O   UNL     1     -12.927 -35.966 -15.058  1.00  0.00    -0.502 OA
ATOM     20  H   UNL     1     -12.025 -36.396 -15.207  1.00  0.00     0.293 HD
ENDBRANCH  15  19
BRANCH  16  21
ATOM     21  O   UNL     1     -11.091 -34.493 -13.329  1.00  0.00    -0.504 OA
ATOM     22  H   UNL     1     -11.094 -34.959 -12.435  1.00  0.00     0.293 HD
ENDBRANCH  16  21
ENDBRANCH   1  11
BRANCH  10  23
ATOM     23  O   UNL     1     -14.018 -29.840 -16.216  1.00  0.00    -0.500 OA
ATOM     24  H   UNL     1     -13.323 -29.466 -16.851  1.00  0.00     0.294 HD
ENDBRANCH  10  23
BRANCH   5  25
ATOM     25  O   UNL     1     -14.041 -26.986  -8.999  1.00  0.00    -0.507 OA
ATOM     26  H   UNL     1     -14.534 -27.557  -8.323  1.00  0.00     0.293 HD
ENDBRANCH   5  25
BRANCH   7  27
ATOM     27  O   UNL     1     -14.729 -25.422 -13.502  1.00  0.00    -0.507 OA
ATOM     28  H   UNL     1     -15.141 -25.513 -14.419  1.00  0.00     0.293 HD
ENDBRANCH   7  27
TORSDOF 7
ENDMDL
MODEL 3
REMARK VINA RESULT:    -8.124      1.243      7.280
REMARK INTER + INTRA:          -9.573
REMARK INTER:                  -9.957
REMARK INTRA:                   0.384
REMARK UNBOUND:                 0.451
REMARK SMILES Oc1cc(O)c2cc(O)c(-c3cc(O)c(O)c(O)c3)[o+]c2c1
REMARK SMILES IDX 10 1 20 2 21 3 22 4 2 5 3 6 4 7 6 8 7 9 8 10 11 11 12 12
REMARK SMILES IDX 13 13 19 14 15 15 17 16 14 17 16 19 18 21 9 23 1 25 5 27
REMARK H PARENT 14 18 16 20 18 22 9 24 1 26 5 28
REMARK Flexibility Score: inf
ROOT
ATOM      1  C   UNL     1     -13.226 -29.350 -11.816  1.00  0.00     0.402 A 
ATOM      2  O   UNL     1     -12.245 -29.285 -10.920  1.00  0.00    -0.202 OA
ATOM      3  C   UNL     1     -12.142 -28.314 -10.019  1.00  0.00     0.368 A 
ATOM      4  C   UNL     1     -11.076 -28.334  -9.116  1.00  0.00     0.162 A 
ATOM      5  C   UNL     1     -10.944 -27.328  -8.157  1.00  0.00     0.128 A 
ATOM      6  C   UNL     1     -11.885 -26.294  -8.099  1.00  0.00     0.093 A 
ATOM      7  C   UNL     1     -12.962 -26.251  -8.993  1.00  0.00     0.136 A 
ATOM      8  C   UNL     1     -13.098 -27.270  -9.971  1.00  0.00     0.125 A 
ATOM      9  C   UNL     1     -14.137 -27.302 -10.915  1.00  0.00     0.078 A 
ATOM     10  C   UNL     1     -14.203 -28.338 -11.852  1.00  0.00     0.223 A 
ENDROOT
BRANCH   1  11
ATOM     11  C   UNL     1     -13.236 -30.490 -12.762  1.00  0.00     0.091 A 
ATOM     12  C   UNL     1     -14.256 -30.639 -13.715  1.00  0.00     0.068 A 
ATOM     13  C   UNL     1     -14.260 -31.736 -14.585  1.00  0.00     0.162 A 
ATOM     14  C   UNL     1     -12.241 -31.473 -12.669  1.00  0.00     0.068 A 
ATOM     15  C   UNL     1     -13.251 -32.706 -14.508  1.00  0.00     0.200 A 
ATOM     16  C   UNL     1     -12.232 -32.574 -13.533  1.00  0.00     0.162 A 
BRANCH  13  17
ATOM     17  O   UNL     1     -15.272 -31.873 -15.535  1.00  0.00    -0.504 OA
ATOM     18  H   UNL     1     -16.045 -32.515 -15.398  1.00  0.00     0.293 HD
ENDBRANCH  13  17
BRANCH  15  19
ATOM     19  O   UNL     1     -13.297 -33.775 -15.404  1.00  0.00    -0.502 OA
ATOM     20  H   UNL     1     -13.652 -33.710 -16.347  1.00  0.00     0.293 HD
ENDBRANCH  15  19
BRANCH  16  21
ATOM     21  O   UNL     1     -11.201 -33.505 -13.389  1.00  0.00    -0.504 OA
ATOM     22  H   UNL     1     -10.311 -33.302 -12.959  1.00  0.00     0.293 HD
ENDBRANCH  16  21
ENDBRANCH   1  11
BRANCH  10  23
ATOM     23  O   UNL     1     -15.206 -28.343 -12.822  1.00  0.00    -0.500 OA
ATOM     24  H   UNL     1     -15.201 -27.689 -13.596  1.00  0.00     0.294 HD
ENDBRANCH  10  23
BRANCH   5  25
ATOM     25  O   UNL     1      -9.875 -27.366  -7.266  1.00  0.00    -0.507 OA
ATOM     26  H   UNL     1      -9.600 -28.225  -6.805  1.00  0.00     0.293 HD
ENDBRANCH   5  25
BRANCH   7  27
ATOM     27  O   UNL     1     -13.860 -25.187  -8.869  1.00  0.00    -0.507 OA
ATOM     28  H   UNL     1     -13.590 -24.229  -8.704  1.00  0.00     0.293 HD
ENDBRANCH   7  27
TORSDOF 7
ENDMDL
MODEL 4
REMARK VINA RESULT:    -8.045      1.214      7.514
REMARK INTER + INTRA:          -9.475
REMARK INTER:                  -9.936
REMARK INTRA:                   0.460
REMARK UNBOUND:                 0.451
REMARK SMILES Oc1cc(O)c2cc(O)c(-c3cc(O)c(O)c(O)c3)[o+]c2c1
REMARK SMILES IDX 10 1 20 2 21 3 22 4 2 5 3 6 4 7 6 8 7 9 8 10 11 11 12 12
REMARK SMILES IDX 13 13 19 14 15 15 17 16 14 17 16 19 18 21 9 23 1 25 5 27
REMARK H PARENT 14 18 16 20 18 22 9 24 1 26 5 28
REMARK Flexibility Score: inf
ROOT
ATOM      1  C   UNL     1     -13.409 -29.386 -11.926  1.00  0.00     0.402 A 
ATOM      2  O   UNL     1     -12.455 -29.272 -11.006  1.00  0.00    -0.202 OA
ATOM      3  C   UNL     1     -12.392 -28.265 -10.141  1.00  0.00     0.368 A 
ATOM      4  C   UNL     1     -11.353 -28.234  -9.208  1.00  0.00     0.162 A 
ATOM      5  C   UNL     1     -11.263 -27.190  -8.286  1.00  0.00     0.128 A 
ATOM      6  C   UNL     1     -12.219 -26.168  -8.296  1.00  0.00     0.093 A 
ATOM      7  C   UNL     1     -13.270 -26.176  -9.221  1.00  0.00     0.136 A 
ATOM      8  C   UNL     1     -13.364 -27.235 -10.162  1.00  0.00     0.125 A 
ATOM      9  C   UNL     1     -14.374 -27.318 -11.133  1.00  0.00     0.078 A 
ATOM     10  C   UNL     1     -14.398 -28.391 -12.030  1.00  0.00     0.223 A 
ENDROOT
BRANCH   1  11
ATOM     11  C   UNL     1     -13.376 -30.562 -12.826  1.00  0.00     0.091 A 
ATOM     12  C   UNL     1     -12.341 -31.509 -12.754  1.00  0.00     0.068 A 
ATOM     13  C   UNL     1     -12.316 -32.601 -13.629  1.00  0.00     0.162 A 
ATOM     14  C   UNL     1     -14.365 -30.708 -13.809  1.00  0.00     0.068 A 
ATOM     15  C   UNL     1     -13.319 -32.758 -14.596  1.00  0.00     0.200 A 
ATOM     16  C   UNL     1     -14.353 -31.796 -14.689  1.00  0.00     0.162 A 
BRANCH  13  17
ATOM     17  O   UNL     1     -11.289 -33.541 -13.547  1.00  0.00    -0.504 OA
ATOM     18  H   UNL     1     -11.025 -34.109 -14.344  1.00  0.00     0.293 HD
ENDBRANCH  13  17
BRANCH  15  19
ATOM     19  O   UNL     1     -13.251 -33.870 -15.439  1.00  0.00    -0.502 OA
ATOM     20  H   UNL     1     -13.338 -34.826 -15.124  1.00  0.00     0.293 HD
ENDBRANCH  15  19
BRANCH  16  21
ATOM     21  O   UNL     1     -15.378 -31.879 -15.634  1.00  0.00    -0.504 OA
ATOM     22  H   UNL     1     -15.699 -31.101 -16.191  1.00  0.00     0.293 HD
ENDBRANCH  16  21
ENDBRANCH   1  11
BRANCH  10  23
ATOM     23  O   UNL     1     -15.372 -28.449 -13.027  1.00  0.00    -0.500 OA
ATOM     24  H   UNL     1     -16.153 -29.092 -12.971  1.00  0.00     0.294 HD
ENDBRANCH  10  23
BRANCH   5  25
ATOM     25  O   UNL     1     -10.219 -27.177  -7.364  1.00  0.00    -0.507 OA
ATOM     26  H   UNL     1     -10.289 -27.664  -6.479  1.00  0.00     0.293 HD
ENDBRANCH   5  25
BRANCH   7  27
ATOM     27  O   UNL     1     -14.186 -25.122  -9.164  1.00  0.00    -0.507 OA
ATOM     28  H   UNL     1     -15.028 -25.127  -8.606  1.00  0.00     0.293 HD
ENDBRANCH   7  27
TORSDOF 7
ENDMDL
MODEL 5
REMARK VINA RESULT:    -7.991      0.867      6.853
REMARK INTER + INTRA:          -9.409
REMARK INTER:                  -9.841
REMARK INTRA:                   0.432
REMARK UNBOUND:                 0.451
REMARK SMILES Oc1cc(O)c2cc(O)c(-c3cc(O)c(O)c(O)c3)[o+]c2c1
REMARK SMILES IDX 10 1 20 2 21 3 22 4 2 5 3 6 4 7 6 8 7 9 8 10 11 11 12 12
REMARK SMILES IDX 13 13 19 14 15 15 17 16 14 17 16 19 18 21 9 23 1 25 5 27
REMARK H PARENT 14 18 16 20 18 22 9 24 1 26 5 28
REMARK Flexibility Score: inf
ROOT
ATOM      1  C   UNL     1     -12.458 -29.435 -11.428  1.00  0.00     0.402 A 
ATOM      2  O   UNL     1     -13.446 -28.565 -11.236  1.00  0.00    -0.202 OA
ATOM      3  C   UNL     1     -13.378 -27.562 -10.367  1.00  0.00     0.368 A 
ATOM      4  C   UNL     1     -14.469 -26.698 -10.238  1.00  0.00     0.162 A 
ATOM      5  C   UNL     1     -14.424 -25.635  -9.336  1.00  0.00     0.128 A 
ATOM      6  C   UNL     1     -13.280 -25.431  -8.555  1.00  0.00     0.093 A 
ATOM      7  C   UNL     1     -12.174 -26.284  -8.665  1.00  0.00     0.136 A 
ATOM      8  C   UNL     1     -12.217 -27.368  -9.580  1.00  0.00     0.125 A 
ATOM      9  C   UNL     1     -11.162 -28.279  -9.748  1.00  0.00     0.078 A 
ATOM     10  C   UNL     1     -11.279 -29.326 -10.667  1.00  0.00     0.223 A 
ENDROOT
BRANCH   1  11
ATOM     11  C   UNL     1     -12.652 -30.504 -12.434  1.00  0.00     0.091 A 
ATOM     12  C   UNL     1     -13.749 -30.493 -13.309  1.00  0.00     0.068 A 
ATOM     13  C   UNL     1     -13.927 -31.526 -14.238  1.00  0.00     0.162 A 
ATOM     14  C   UNL     1     -11.755 -31.581 -12.479  1.00  0.00     0.068 A 
ATOM     15  C   UNL     1     -13.016 -32.590 -14.298  1.00  0.00     0.200 A 
ATOM     16  C   UNL     1     -11.919 -32.619 -13.403  1.00  0.00     0.162 A 
BRANCH  13  17
ATOM     17  O   UNL     1     -15.015 -31.505 -15.110  1.00  0.00    -0.504 OA
ATOM     18  H   UNL     1     -15.759 -32.190 -15.047  1.00  0.00     0.293 HD
ENDBRANCH  13  17
BRANCH  15  19
ATOM     19  O   UNL     1     -13.235 -33.589 -15.249  1.00  0.00    -0.502 OA
ATOM     20  H   UNL     1     -13.747 -33.452 -16.108  1.00  0.00     0.293 HD
ENDBRANCH  15  19
BRANCH  16  21
ATOM     21  O   UNL     1     -10.979 -33.651 -13.396  1.00  0.00    -0.504 OA
ATOM     22  H   UNL     1     -10.197 -33.699 -12.760  1.00  0.00     0.293 HD
ENDBRANCH  16  21
ENDBRANCH   1  11
BRANCH  10  23
ATOM     23  O   UNL     1     -10.252 -30.261 -10.799  1.00  0.00    -0.500 OA
ATOM     24  H   UNL     1      -9.686 -30.544 -10.007  1.00  0.00     0.294 HD
ENDBRANCH  10  23
BRANCH   5  25
ATOM     25  O   UNL     1     -15.521 -24.785  -9.222  1.00  0.00    -0.507 OA
ATOM     26  H   UNL     1     -15.565 -24.071  -8.505  1.00  0.00     0.293 HD
ENDBRANCH   5  25
BRANCH   7  27
ATOM     27  O   UNL     1     -11.069 -26.012  -7.854  1.00  0.00    -0.507 OA
ATOM     28  H   UNL     1     -10.793 -25.088  -7.556  1.00  0.00     0.293 HD
ENDBRANCH   7  27
TORSDOF 7
ENDMDL
MODEL 6
REMARK VINA RESULT:    -7.985      1.208      3.212
REMARK INTER + INTRA:          -9.401
REMARK INTER:                  -9.719
REMARK INTRA:                   0.318
REMARK UNBOUND:                 0.451
REMARK SMILES Oc1cc(O)c2cc(O)c(-c3cc(O)c(O)c(O)c3)[o+]c2c1
REMARK SMILES IDX 10 1 20 2 21 3 22 4 2 5 3 6 4 7 6 8 7 9 8 10 11 11 12 12
REMARK SMILES IDX 13 13 19 14 15 15 17 16 14 17 16 19 18 21 9 23 1 25 5 27
REMARK H PARENT 14 18 16 20 18 22 9 24 1 26 5 28
REMARK Flexibility Score: inf
ROOT
ATOM      1  C   UNL     1     -13.353 -29.031 -12.026  1.00  0.00     0.402 A 
ATOM      2  O   UNL     1     -12.685 -30.177 -12.127  1.00  0.00    -0.202 OA
ATOM      3  C   UNL     1     -12.994 -31.126 -13.004  1.00  0.00     0.368 A 
ATOM      4  C   UNL     1     -12.230 -32.296 -13.036  1.00  0.00     0.162 A 
ATOM      5  C   UNL     1     -12.529 -33.309 -13.948  1.00  0.00     0.128 A 
ATOM      6  C   UNL     1     -13.600 -33.153 -14.837  1.00  0.00     0.093 A 
ATOM      7  C   UNL     1     -14.381 -31.991 -14.823  1.00  0.00     0.136 A 
ATOM      8  C   UNL     1     -14.081 -30.959 -13.895  1.00  0.00     0.125 A 
ATOM      9  C   UNL     1     -14.816 -29.767 -13.802  1.00  0.00     0.078 A 
ATOM     10  C   UNL     1     -14.463 -28.797 -12.858  1.00  0.00     0.223 A 
ENDROOT
BRANCH   1  11
ATOM     11  C   UNL     1     -12.905 -28.046 -11.014  1.00  0.00     0.091 A 
ATOM     12  C   UNL     1     -11.591 -28.055 -10.519  1.00  0.00     0.068 A 
ATOM     13  C   UNL     1     -11.193 -27.129  -9.546  1.00  0.00     0.162 A 
ATOM     14  C   UNL     1     -13.822 -27.121 -10.497  1.00  0.00     0.068 A 
ATOM     15  C   UNL     1     -12.105 -26.189  -9.047  1.00  0.00     0.200 A 
ATOM     16  C   UNL     1     -13.438 -26.190  -9.525  1.00  0.00     0.162 A 
BRANCH  13  17
ATOM     17  O   UNL     1      -9.885 -27.139  -9.064  1.00  0.00    -0.504 OA
ATOM     18  H   UNL     1      -9.518 -26.374  -8.508  1.00  0.00     0.293 HD
ENDBRANCH  13  17
BRANCH  15  19
ATOM     19  O   UNL     1     -11.655 -25.284  -8.083  1.00  0.00    -0.502 OA
ATOM     20  H   UNL     1     -11.025 -25.524  -7.331  1.00  0.00     0.293 HD
ENDBRANCH  15  19
BRANCH  16  21
ATOM     21  O   UNL     1     -14.404 -25.292  -9.066  1.00  0.00    -0.504 OA
ATOM     22  H   UNL     1     -14.234 -24.310  -8.908  1.00  0.00     0.293 HD
ENDBRANCH  16  21
ENDBRANCH   1  11
BRANCH  10  23
ATOM     23  O   UNL     1     -15.223 -27.634 -12.731  1.00  0.00    -0.500 OA
ATOM     24  H   UNL     1     -15.164 -26.883 -13.408  1.00  0.00     0.294 HD
ENDBRANCH  10  23
BRANCH   5  25
ATOM     25  O   UNL     1     -11.757 -34.467 -13.965  1.00  0.00    -0.507 OA
ATOM     26  H   UNL     1     -11.452 -34.914 -13.108  1.00  0.00     0.293 HD
ENDBRANCH   5  25
BRANCH   7  27
ATOM     27  O   UNL     1     -15.430 -31.909 -15.743  1.00  0.00    -0.507 OA
ATOM     28  H   UNL     1     -15.856 -32.705 -16.194  1.00  0.00     0.293 HD
ENDBRANCH   7  27
TORSDOF 7
ENDMDL
MODEL 7
REMARK VINA RESULT:    -7.906      1.169      7.171
REMARK INTER + INTRA:          -9.304
REMARK INTER:                  -9.596
REMARK INTRA:                   0.292
REMARK UNBOUND:                 0.451
REMARK SMILES Oc1cc(O)c2cc(O)c(-c3cc(O)c(O)c(O)c3)[o+]c2c1
REMARK SMILES IDX 10 1 20 2 21 3 22 4 2 5 3 6 4 7 6 8 7 9 8 10 11 11 12 12
REMARK SMILES IDX 13 13 19 14 15 15 17 16 14 17 16 19 18 21 9 23 1 25 5 27
REMARK H PARENT 14 18 16 20 18 22 9 24 1 26 5 28
REMARK Flexibility Score: inf
ROOT
ATOM      1  C   UNL     1     -12.662 -30.014 -12.094  1.00  0.00     0.402 A 
ATOM      2  O   UNL     1     -13.641 -29.179 -11.755  1.00  0.00    -0.202 OA
ATOM      3  C   UNL     1     -13.462 -28.130 -10.960  1.00  0.00     0.368 A 
ATOM      4  C   UNL     1     -14.552 -27.308 -10.662  1.00  0.00     0.162 A 
ATOM      5  C   UNL     1     -14.393 -26.197  -9.832  1.00  0.00     0.128 A 
ATOM      6  C   UNL     1     -13.134 -25.904  -9.295  1.00  0.00     0.093 A 
ATOM      7  C   UNL     1     -12.026 -26.713  -9.577  1.00  0.00     0.136 A 
ATOM      8  C   UNL     1     -12.184 -27.844 -10.419  1.00  0.00     0.125 A 
ATOM      9  C   UNL     1     -11.134 -28.717 -10.745  1.00  0.00     0.078 A 
ATOM     10  C   UNL     1     -11.369 -29.815 -11.579  1.00  0.00     0.223 A 
ENDROOT
BRANCH   1  11
ATOM     11  C   UNL     1     -12.987 -31.143 -12.997  1.00  0.00     0.091 A 
ATOM     12  C   UNL     1     -12.190 -32.298 -13.038  1.00  0.00     0.068 A 
ATOM     13  C   UNL     1     -12.501 -33.344 -13.914  1.00  0.00     0.162 A 
ATOM     14  C   UNL     1     -14.078 -31.036 -13.871  1.00  0.00     0.068 A 
ATOM     15  C   UNL     1     -13.606 -33.247 -14.771  1.00  0.00     0.200 A 
ATOM     16  C   UNL     1     -14.401 -32.075 -14.752  1.00  0.00     0.162 A 
BRANCH  13  17
ATOM     17  O   UNL     1     -11.710 -34.492 -13.944  1.00  0.00    -0.504 OA
ATOM     18  H   UNL     1     -10.709 -34.451 -13.790  1.00  0.00     0.293 HD
ENDBRANCH  13  17
BRANCH  15  19
ATOM     19  O   UNL     1     -13.877 -34.322 -15.620  1.00  0.00    -0.502 OA
ATOM     20  H   UNL     1     -14.738 -34.435 -16.136  1.00  0.00     0.293 HD
ENDBRANCH  15  19
BRANCH  16  21
ATOM     21  O   UNL     1     -15.509 -31.901 -15.584  1.00  0.00    -0.504 OA
ATOM     22  H   UNL     1     -15.962 -31.014 -15.745  1.00  0.00     0.293 HD
ENDBRANCH  16  21
ENDBRANCH   1  11
BRANCH  10  23
ATOM     23  O   UNL     1     -10.337 -30.711 -11.863  1.00  0.00    -0.500 OA
ATOM     24  H   UNL     1     -10.448 -31.709 -11.731  1.00  0.00     0.294 HD
ENDBRANCH  10  23
BRANCH   5  25
ATOM     25  O   UNL     1     -15.491 -25.390  -9.548  1.00  0.00    -0.507 OA
ATOM     26  H   UNL     1     -16.167 -25.646  -8.838  1.00  0.00     0.293 HD
ENDBRANCH   5  25
BRANCH   7  27
ATOM     27  O   UNL     1     -10.803 -26.352  -9.005  1.00  0.00    -0.507 OA
ATOM     28  H   UNL     1     -10.647 -25.504  -8.480  1.00  0.00     0.293 HD
ENDBRANCH   7  27
TORSDOF 7
ENDMDL
MODEL 8
REMARK VINA RESULT:    -7.882      1.210      2.731
REMARK INTER + INTRA:          -9.275
REMARK INTER:                  -9.534
REMARK INTRA:                   0.259
REMARK UNBOUND:                 0.451
REMARK SMILES Oc1cc(O)c2cc(O)c(-c3cc(O)c(O)c(O)c3)[o+]c2c1
REMARK SMILES IDX 10 1 20 2 21 3 22 4 2 5 3 6 4 7 6 8 7 9 8 10 11 11 12 12
REMARK SMILES IDX 13 13 19 14 15 15 17 16 14 17 16 19 18 21 9 23 1 25 5 27
REMARK H PARENT 14 18 16 20 18 22 9 24 1 26 5 28
REMARK Flexibility Score: inf
ROOT
ATOM      1  C   UNL     1     -13.417 -29.048 -12.000  1.00  0.00     0.402 A 
ATOM      2  O   UNL     1     -12.743 -30.191 -12.089  1.00  0.00    -0.202 OA
ATOM      3  C   UNL     1     -13.028 -31.139 -12.975  1.00  0.00     0.368 A 
ATOM      4  C   UNL     1     -12.260 -32.306 -12.994  1.00  0.00     0.162 A 
ATOM      5  C   UNL     1     -12.535 -33.318 -13.915  1.00  0.00     0.128 A 
ATOM      6  C   UNL     1     -13.585 -33.162 -14.828  1.00  0.00     0.093 A 
ATOM      7  C   UNL     1     -14.370 -32.003 -14.829  1.00  0.00     0.136 A 
ATOM      8  C   UNL     1     -14.095 -30.973 -13.892  1.00  0.00     0.125 A 
ATOM      9  C   UNL     1     -14.836 -29.783 -13.812  1.00  0.00     0.078 A 
ATOM     10  C   UNL     1     -14.508 -28.815 -12.857  1.00  0.00     0.223 A 
ENDROOT
BRANCH   1  11
ATOM     11  C   UNL     1     -12.996 -28.065 -10.976  1.00  0.00     0.091 A 
ATOM     12  C   UNL     1     -13.896 -27.124 -10.451  1.00  0.00     0.068 A 
ATOM     13  C   UNL     1     -13.472 -26.188  -9.500  1.00  0.00     0.162 A 
ATOM     14  C   UNL     1     -11.657 -28.032 -10.559  1.00  0.00     0.068 A 
ATOM     15  C   UNL     1     -12.139 -26.172  -9.067  1.00  0.00     0.200 A 
ATOM     16  C   UNL     1     -11.220 -27.103  -9.608  1.00  0.00     0.162 A 
BRANCH  13  17
ATOM     17  O   UNL     1     -14.374 -25.261  -8.979  1.00  0.00    -0.504 OA
ATOM     18  H   UNL     1     -15.021 -25.509  -8.238  1.00  0.00     0.293 HD
ENDBRANCH  13  17
BRANCH  15  19
ATOM     19  O   UNL     1     -11.770 -25.223  -8.111  1.00  0.00    -0.502 OA
ATOM     20  H   UNL     1     -11.297 -24.357  -8.325  1.00  0.00     0.293 HD
ENDBRANCH  15  19
BRANCH  16  21
ATOM     21  O   UNL     1      -9.875 -27.140  -9.234  1.00  0.00    -0.504 OA
ATOM     22  H   UNL     1      -9.440 -26.468  -8.619  1.00  0.00     0.293 HD
ENDBRANCH  16  21
ENDBRANCH   1  11
BRANCH  10  23
ATOM     23  O   UNL     1     -15.275 -27.655 -12.745  1.00  0.00    -0.500 OA
ATOM     24  H   UNL     1     -14.899 -26.744 -12.978  1.00  0.00     0.294 HD
ENDBRANCH  10  23
BRANCH   5  25
ATOM     25  O   UNL     1     -11.758 -34.473 -13.918  1.00  0.00    -0.507 OA
ATOM     26  H   UNL     1     -12.063 -35.318 -13.447  1.00  0.00     0.293 HD
ENDBRANCH   5  25
BRANCH   7  27
ATOM     27  O   UNL     1     -15.397 -31.922 -15.773  1.00  0.00    -0.507 OA
ATOM     28  H   UNL     1     -16.044 -31.151 -15.847  1.00  0.00     0.293 HD
ENDBRANCH   7  27
TORSDOF 7
ENDMDL
MODEL 9
REMARK VINA RESULT:    -7.514      1.453      6.899
REMARK INTER + INTRA:          -8.821
REMARK INTER:                  -8.835
REMARK INTRA:                   0.014
REMARK UNBOUND:                 0.451
REMARK SMILES Oc1cc(O)c2cc(O)c(-c3cc(O)c(O)c(O)c3)[o+]c2c1
REMARK SMILES IDX 10 1 20 2 21 3 22 4 2 5 3 6 4 7 6 8 7 9 8 10 11 11 12 12
REMARK SMILES IDX 13 13 19 14 15 15 17 16 14 17 16 19 18 21 9 23 1 25 5 27
REMARK H PARENT 14 18 16 20 18 22 9 24 1 26 5 28
REMARK Flexibility Score: inf
ROOT
ATOM      1  C   UNL     1     -12.492 -29.031 -11.519  1.00  0.00     0.402 A 
ATOM      2  O   UNL     1     -13.110 -27.975 -10.998  1.00  0.00    -0.202 OA
ATOM      3  C   UNL     1     -12.680 -27.339  -9.913  1.00  0.00     0.368 A 
ATOM      4  C   UNL     1     -13.396 -26.236  -9.443  1.00  0.00     0.162 A 
ATOM      5  C   UNL     1     -12.967 -25.547  -8.307  1.00  0.00     0.128 A 
ATOM      6  C   UNL     1     -11.810 -25.962  -7.637  1.00  0.00     0.093 A 
ATOM      7  C   UNL     1     -11.075 -27.065  -8.088  1.00  0.00     0.136 A 
ATOM      8  C   UNL     1     -11.510 -27.770  -9.241  1.00  0.00     0.125 A 
ATOM      9  C   UNL     1     -10.844 -28.892  -9.757  1.00  0.00     0.078 A 
ATOM     10  C   UNL     1     -11.337 -29.538 -10.896  1.00  0.00     0.223 A 
ENDROOT
BRANCH   1  11
ATOM     11  C   UNL     1     -13.065 -29.647 -12.738  1.00  0.00     0.091 A 
ATOM     12  C   UNL     1     -13.213 -31.038 -12.853  1.00  0.00     0.068 A 
ATOM     13  C   UNL     1     -13.737 -31.602 -14.023  1.00  0.00     0.162 A 
ATOM     14  C   UNL     1     -13.417 -28.832 -13.824  1.00  0.00     0.068 A 
ATOM     15  C   UNL     1     -14.110 -30.784 -15.099  1.00  0.00     0.200 A 
ATOM     16  C   UNL     1     -13.942 -29.382 -14.998  1.00  0.00     0.162 A 
BRANCH  13  17
ATOM     17  O   UNL     1     -13.888 -32.984 -14.128  1.00  0.00    -0.504 OA
ATOM     18  H   UNL     1     -14.182 -33.422 -14.994  1.00  0.00     0.293 HD
ENDBRANCH  13  17
BRANCH  15  19
ATOM     19  O   UNL     1     -14.634 -31.397 -16.239  1.00  0.00    -0.502 OA
ATOM     20  H   UNL     1     -14.260 -31.277 -17.170  1.00  0.00     0.293 HD
ENDBRANCH  15  19
BRANCH  16  21
ATOM     21  O   UNL     1     -14.280 -28.506 -16.032  1.00  0.00    -0.504 OA
ATOM     22  H   UNL     1     -13.616 -27.923 -16.519  1.00  0.00     0.293 HD
ENDBRANCH  16  21
ENDBRANCH   1  11
BRANCH  10  23
ATOM     23  O   UNL     1     -10.704 -30.683 -11.381  1.00  0.00    -0.500 OA
ATOM     24  H   UNL     1     -10.750 -30.943 -12.359  1.00  0.00     0.294 HD
ENDBRANCH  10  23
BRANCH   5  25
ATOM     25  O   UNL     1     -13.694 -24.450  -7.853  1.00  0.00    -0.507 OA
ATOM     26  H   UNL     1     -14.605 -24.224  -8.235  1.00  0.00     0.293 HD
ENDBRANCH   5  25
BRANCH   7  27
ATOM     27  O   UNL     1      -9.930 -27.415  -7.366  1.00  0.00    -0.507 OA
ATOM     28  H   UNL     1      -9.845 -27.344  -6.363  1.00  0.00     0.293 HD
ENDBRANCH   7  27
TORSDOF 7
ENDMDL
