MODEL 1
REMARK VINA RESULT:    -4.453      0.000      0.000
REMARK INTER + INTRA:          -8.134
REMARK INTER:                  -7.057
REMARK INTRA:                  -1.077
REMARK UNBOUND:                -1.077
REMARK SMILES CCCCCCCCCCCC(=O)[O-]
REMARK SMILES IDX 7 1 8 2 9 3 10 4 11 5 12 6 13 7 14 8 6 9 5 10 4 11 3 12 2 13
REMARK SMILES IDX 1 14
REMARK H PARENT
REMARK Flexibility Score: inf
ROOT
ATOM      1  C   UNL     1       5.354  -5.647  32.376  1.00  0.00     0.000 C 
ENDROOT
BRANCH   1   2
ATOM      2  C   UNL     1       4.911  -7.122  32.404  1.00  0.00     0.000 C 
BRANCH   2   3
ATOM      3  C   UNL     1       4.734  -7.783  31.023  1.00  0.00     0.000 C 
BRANCH   3   4
ATOM      4  C   UNL     1       5.911  -8.667  30.563  1.00  0.00     0.006 C 
BRANCH   4   5
ATOM      5  C   UNL     1       5.653  -9.435  29.256  1.00  0.00     0.053 C 
BRANCH   5   6
ATOM      6  C   UNL     1       6.366  -8.814  28.093  1.00  0.00     0.041 C 
ATOM      7  O   UNL     1       7.529  -9.189  27.790  1.00  0.00    -0.550 OA
ATOM      8  O   UNL     1       5.758  -7.797  27.366  1.00  0.00    -0.550 OA
ENDBRANCH   5   6
ENDBRANCH   4   5
ENDBRANCH   3   4
ENDBRANCH   2   3
ENDBRANCH   1   2
BRANCH   1   9
ATOM      9  C   UNL     1       6.763  -5.436  32.957  1.00  0.00     0.000 C 
BRANCH   9  10
ATOM     10  C   UNL     1       7.868  -5.928  32.009  1.00  0.00    -0.000 C 
BRANCH  10  11
ATOM     11  C   UNL     1       7.616  -5.529  30.544  1.00  0.00    -0.000 C 
BRANCH  11  12
ATOM     12  C   UNL     1       8.539  -6.266  29.557  1.00  0.00    -0.000 C 
BRANCH  12  13
ATOM     13  C   UNL     1       8.652  -5.612  28.169  1.00  0.00    -0.003 C 
ATOM     14  C   UNL     1       7.494  -4.666  27.858  1.00  0.00     0.004 C 
ENDBRANCH  12  13
ENDBRANCH  11  12
ENDBRANCH  10  11
ENDBRANCH   9  10
ENDBRANCH   1   9
TORSDOF 10
ENDMDL
MODEL 2
REMARK VINA RESULT:    -4.450      1.135      3.751
REMARK INTER + INTRA:          -8.129
REMARK INTER:                  -7.057
REMARK INTRA:                  -1.072
REMARK UNBOUND:                -1.077
REMARK SMILES CCCCCCCCCCCC(=O)[O-]
REMARK SMILES IDX 7 1 8 2 9 3 10 4 11 5 12 6 13 7 14 8 6 9 5 10 4 11 3 12 2 13
REMARK SMILES IDX 1 14
REMARK H PARENT
REMARK Flexibility Score: inf
ROOT
ATOM      1  C   UNL     1       5.999  -5.361  32.087  1.00  0.00     0.000 C 
ENDROOT
BRANCH   1   2
ATOM      2  C   UNL     1       7.449  -5.794  32.372  1.00  0.00     0.000 C 
BRANCH   2   3
ATOM      3  C   UNL     1       8.231  -6.318  31.152  1.00  0.00     0.000 C 
BRANCH   3   4
ATOM      4  C   UNL     1       7.823  -5.705  29.798  1.00  0.00     0.006 C 
BRANCH   4   5
ATOM      5  C   UNL     1       8.770  -6.046  28.636  1.00  0.00     0.053 C 
BRANCH   5   6
ATOM      6  C   UNL     1       8.217  -7.132  27.763  1.00  0.00     0.041 C 
ATOM      7  O   UNL     1       7.072  -7.012  27.254  1.00  0.00    -0.550 OA
ATOM      8  O   UNL     1       8.953  -8.289  27.540  1.00  0.00    -0.550 OA
ENDBRANCH   5   6
ENDBRANCH   4   5
ENDBRANCH   3   4
ENDBRANCH   2   3
ENDBRANCH   1   2
BRANCH   1   9
ATOM      9  C   UNL     1       4.960  -6.315  32.703  1.00  0.00     0.000 C 
BRANCH   9  10
ATOM     10  C   UNL     1       5.114  -7.757  32.196  1.00  0.00    -0.000 C 
BRANCH  10  11
ATOM     11  C   UNL     1       4.843  -7.889  30.686  1.00  0.00    -0.000 C 
BRANCH  11  12
ATOM     12  C   UNL     1       5.812  -8.861  29.990  1.00  0.00    -0.000 C 
BRANCH  12  13
ATOM     13  C   UNL     1       5.145  -9.838  29.004  1.00  0.00    -0.003 C 
ATOM     14  C   UNL     1       3.622  -9.861  29.123  1.00  0.00     0.004 C 
ENDBRANCH  12  13
ENDBRANCH  11  12
ENDBRANCH  10  11
ENDBRANCH   9  10
ENDBRANCH   1   9
TORSDOF 10
ENDMDL
MODEL 3
REMARK VINA RESULT:    -4.411      2.050      4.251
REMARK INTER + INTRA:          -8.067
REMARK INTER:                  -6.935
REMARK INTRA:                  -1.132
REMARK UNBOUND:                -1.077
REMARK SMILES CCCCCCCCCCCC(=O)[O-]
REMARK SMILES IDX 7 1 8 2 9 3 10 4 11 5 12 6 13 7 14 8 6 9 5 10 4 11 3 12 2 13
REMARK SMILES IDX 1 14
REMARK H PARENT
REMARK Flexibility Score: inf
ROOT
ATOM      1  C   UNL     1       5.608  -8.671  29.780  1.00  0.00     0.000 C 
ENDROOT
BRANCH   1   2
ATOM      2  C   UNL     1       4.587  -7.782  29.045  1.00  0.00     0.000 C 
BRANCH   2   3
ATOM      3  C   UNL     1       5.193  -6.740  28.084  1.00  0.00     0.000 C 
BRANCH   3   4
ATOM      4  C   UNL     1       5.937  -5.575  28.765  1.00  0.00     0.006 C 
BRANCH   4   5
ATOM      5  C   UNL     1       7.266  -5.193  28.093  1.00  0.00     0.053 C 
BRANCH   5   6
ATOM      6  C   UNL     1       7.085  -4.118  27.065  1.00  0.00     0.041 C 
ATOM      7  O   UNL     1       7.179  -2.906  27.393  1.00  0.00    -0.550 OA
ATOM      8  O   UNL     1       6.778  -4.454  25.752  1.00  0.00    -0.550 OA
ENDBRANCH   5   6
ENDBRANCH   4   5
ENDBRANCH   3   4
ENDBRANCH   2   3
ENDBRANCH   1   2
BRANCH   1   9
ATOM      9  C   UNL     1       5.785  -8.279  31.257  1.00  0.00     0.000 C 
BRANCH   9  10
ATOM     10  C   UNL     1       4.521  -7.635  31.850  1.00  0.00    -0.000 C 
BRANCH  10  11
ATOM     11  C   UNL     1       4.838  -6.606  32.949  1.00  0.00    -0.000 C 
BRANCH  11  12
ATOM     12  C   UNL     1       5.560  -5.359  32.409  1.00  0.00    -0.000 C 
BRANCH  12  13
ATOM     13  C   UNL     1       7.008  -5.188  32.903  1.00  0.00    -0.003 C 
ATOM     14  C   UNL     1       8.038  -5.813  31.964  1.00  0.00     0.004 C 
ENDBRANCH  12  13
ENDBRANCH  11  12
ENDBRANCH  10  11
ENDBRANCH   9  10
ENDBRANCH   1   9
TORSDOF 10
ENDMDL
MODEL 4
REMARK VINA RESULT:    -4.401      2.286      4.490
REMARK INTER + INTRA:          -8.050
REMARK INTER:                  -6.691
REMARK INTRA:                  -1.360
REMARK UNBOUND:                -1.077
REMARK SMILES CCCCCCCCCCCC(=O)[O-]
REMARK SMILES IDX 7 1 8 2 9 3 10 4 11 5 12 6 13 7 14 8 6 9 5 10 4 11 3 12 2 13
REMARK SMILES IDX 1 14
REMARK H PARENT
REMARK Flexibility Score: inf
ROOT
ATOM      1  C   UNL     1       7.926  -5.544  29.969  1.00  0.00     0.000 C 
ENDROOT
BRANCH   1   2
ATOM      2  C   UNL     1       8.577  -6.474  28.929  1.00  0.00     0.000 C 
BRANCH   2   3
ATOM      3  C   UNL     1       7.727  -6.755  27.674  1.00  0.00     0.000 C 
BRANCH   3   4
ATOM      4  C   UNL     1       6.425  -5.939  27.567  1.00  0.00     0.006 C 
BRANCH   4   5
ATOM      5  C   UNL     1       6.330  -5.060  26.309  1.00  0.00     0.053 C 
BRANCH   5   6
ATOM      6  C   UNL     1       7.169  -3.824  26.425  1.00  0.00     0.041 C 
ATOM      7  O   UNL     1       7.194  -3.175  27.504  1.00  0.00    -0.550 OA
ATOM      8  O   UNL     1       7.896  -3.370  25.332  1.00  0.00    -0.550 OA
ENDBRANCH   5   6
ENDBRANCH   4   5
ENDBRANCH   3   4
ENDBRANCH   2   3
ENDBRANCH   1   2
BRANCH   1   9
ATOM      9  C   UNL     1       7.689  -6.236  31.323  1.00  0.00     0.000 C 
BRANCH   9  10
ATOM     10  C   UNL     1       6.296  -5.937  31.900  1.00  0.00    -0.000 C 
BRANCH  10  11
ATOM     11  C   UNL     1       5.285  -7.065  31.628  1.00  0.00    -0.000 C 
BRANCH  11  12
ATOM     12  C   UNL     1       5.940  -8.319  31.023  1.00  0.00    -0.000 C 
BRANCH  12  13
ATOM     13  C   UNL     1       5.239  -8.871  29.768  1.00  0.00    -0.003 C 
ATOM     14  C   UNL     1       6.064  -9.929  29.038  1.00  0.00     0.004 C 
ENDBRANCH  12  13
ENDBRANCH  11  12
ENDBRANCH  10  11
ENDBRANCH   9  10
ENDBRANCH   1   9
TORSDOF 10
ENDMDL
MODEL 5
REMARK VINA RESULT:    -4.383      1.857      4.714
REMARK INTER + INTRA:          -8.022
REMARK INTER:                  -6.736
REMARK INTRA:                  -1.285
REMARK UNBOUND:                -1.077
REMARK SMILES CCCCCCCCCCCC(=O)[O-]
REMARK SMILES IDX 7 1 8 2 9 3 10 4 11 5 12 6 13 7 14 8 6 9 5 10 4 11 3 12 2 13
REMARK SMILES IDX 1 14
REMARK H PARENT
REMARK Flexibility Score: inf
ROOT
ATOM      1  C   UNL     1       6.960  -9.176  28.496  1.00  0.00     0.000 C 
ENDROOT
BRANCH   1   2
ATOM      2  C   UNL     1       7.182  -7.835  27.772  1.00  0.00     0.000 C 
BRANCH   2   3
ATOM      3  C   UNL     1       8.431  -7.046  28.215  1.00  0.00     0.000 C 
BRANCH   3   4
ATOM      4  C   UNL     1       8.154  -5.631  28.759  1.00  0.00     0.006 C 
BRANCH   4   5
ATOM      5  C   UNL     1       6.776  -5.065  28.380  1.00  0.00     0.053 C 
BRANCH   5   6
ATOM      6  C   UNL     1       6.846  -4.185  27.169  1.00  0.00     0.041 C 
ATOM      7  O   UNL     1       7.176  -2.976  27.284  1.00  0.00    -0.550 OA
ATOM      8  O   UNL     1       6.515  -4.693  25.919  1.00  0.00    -0.550 OA
ENDBRANCH   5   6
ENDBRANCH   4   5
ENDBRANCH   3   4
ENDBRANCH   2   3
ENDBRANCH   1   2
BRANCH   1   9
ATOM      9  C   UNL     1       5.522  -9.340  29.019  1.00  0.00     0.000 C 
BRANCH   9  10
ATOM     10  C   UNL     1       5.086  -8.170  29.915  1.00  0.00    -0.000 C 
BRANCH  10  11
ATOM     11  C   UNL     1       5.948  -8.039  31.183  1.00  0.00    -0.000 C 
BRANCH  11  12
ATOM     12  C   UNL     1       5.393  -7.003  32.177  1.00  0.00    -0.000 C 
BRANCH  12  13
ATOM     13  C   UNL     1       5.975  -5.586  32.022  1.00  0.00    -0.003 C 
ATOM     14  C   UNL     1       7.459  -5.507  32.376  1.00  0.00     0.004 C 
ENDBRANCH  12  13
ENDBRANCH  11  12
ENDBRANCH  10  11
ENDBRANCH   9  10
ENDBRANCH   1   9
TORSDOF 10
ENDMDL
MODEL 6
REMARK VINA RESULT:    -4.383      2.586      4.285
REMARK INTER + INTRA:          -8.022
REMARK INTER:                  -6.416
REMARK INTRA:                  -1.606
REMARK UNBOUND:                -1.077
REMARK SMILES CCCCCCCCCCCC(=O)[O-]
REMARK SMILES IDX 7 1 8 2 9 3 10 4 11 5 12 6 13 7 14 8 6 9 5 10 4 11 3 12 2 13
REMARK SMILES IDX 1 14
REMARK H PARENT
REMARK Flexibility Score: inf
ROOT
ATOM      1  C   UNL     1       6.286  -8.657  27.365  1.00  0.00     0.000 C 
ENDROOT
BRANCH   1   2
ATOM      2  C   UNL     1       5.251  -8.586  28.502  1.00  0.00     0.000 C 
BRANCH   2   3
ATOM      3  C   UNL     1       5.831  -8.680  29.928  1.00  0.00     0.000 C 
BRANCH   3   4
ATOM      4  C   UNL     1       5.497  -7.493  30.852  1.00  0.00     0.006 C 
BRANCH   4   5
ATOM      5  C   UNL     1       6.705  -6.925  31.616  1.00  0.00     0.053 C 
BRANCH   5   6
ATOM      6  C   UNL     1       6.344  -5.701  32.402  1.00  0.00     0.041 C 
ATOM      7  O   UNL     1       5.150  -5.496  32.741  1.00  0.00    -0.550 OA
ATOM      8  O   UNL     1       7.323  -4.772  32.730  1.00  0.00    -0.550 OA
ENDBRANCH   5   6
ENDBRANCH   4   5
ENDBRANCH   3   4
ENDBRANCH   2   3
ENDBRANCH   1   2
BRANCH   1   9
ATOM      9  C   UNL     1       7.734  -8.736  27.881  1.00  0.00     0.000 C 
BRANCH   9  10
ATOM     10  C   UNL     1       8.555  -7.489  27.517  1.00  0.00    -0.000 C 
BRANCH  10  11
ATOM     11  C   UNL     1       8.902  -6.626  28.744  1.00  0.00    -0.000 C 
BRANCH  11  12
ATOM     12  C   UNL     1       8.207  -5.253  28.723  1.00  0.00    -0.000 C 
BRANCH  12  13
ATOM     13  C   UNL     1       7.276  -5.021  27.519  1.00  0.00    -0.003 C 
ATOM     14  C   UNL     1       5.797  -5.005  27.902  1.00  0.00     0.004 C 
ENDBRANCH  12  13
ENDBRANCH  11  12
ENDBRANCH  10  11
ENDBRANCH   9  10
ENDBRANCH   1   9
TORSDOF 10
ENDMDL
MODEL 7
REMARK VINA RESULT:    -4.346     14.197     16.881
REMARK INTER + INTRA:          -7.964
REMARK INTER:                  -7.089
REMARK INTRA:                  -0.875
REMARK UNBOUND:                -1.077
REMARK SMILES CCCCCCCCCCCC(=O)[O-]
REMARK SMILES IDX 7 1 8 2 9 3 10 4 11 5 12 6 13 7 14 8 6 9 5 10 4 11 3 12 2 13
REMARK SMILES IDX 1 14
REMARK H PARENT
REMARK Flexibility Score: inf
ROOT
ATOM      1  C   UNL     1      14.108  -6.817  12.900  1.00  0.00     0.000 C 
ENDROOT
BRANCH   1   2
ATOM      2  C   UNL     1      15.516  -7.221  13.373  1.00  0.00     0.000 C 
BRANCH   2   3
ATOM      3  C   UNL     1      15.937  -8.665  13.032  1.00  0.00     0.000 C 
BRANCH   3   4
ATOM      4  C   UNL     1      15.362  -9.752  13.961  1.00  0.00     0.006 C 
BRANCH   4   5
ATOM      5  C   UNL     1      16.102  -9.897  15.301  1.00  0.00     0.053 C 
BRANCH   5   6
ATOM      6  C   UNL     1      15.169  -9.796  16.469  1.00  0.00     0.041 C 
ATOM      7  O   UNL     1      13.961 -10.125  16.344  1.00  0.00    -0.550 OA
ATOM      8  O   UNL     1      15.627  -9.306  17.686  1.00  0.00    -0.550 OA
ENDBRANCH   5   6
ENDBRANCH   4   5
ENDBRANCH   3   4
ENDBRANCH   2   3
ENDBRANCH   1   2
BRANCH   1   9
ATOM      9  C   UNL     1      13.034  -7.022  13.982  1.00  0.00     0.000 C 
BRANCH   9  10
ATOM     10  C   UNL     1      13.568  -6.755  15.398  1.00  0.00    -0.000 C 
BRANCH  10  11
ATOM     11  C   UNL     1      12.506  -6.989  16.487  1.00  0.00    -0.000 C 
BRANCH  11  12
ATOM     12  C   UNL     1      12.686  -6.064  17.704  1.00  0.00    -0.000 C 
BRANCH  12  13
ATOM     13  C   UNL     1      14.118  -6.013  18.267  1.00  0.00    -0.003 C 
ATOM     14  C   UNL     1      14.593  -4.591  18.562  1.00  0.00     0.004 C 
ENDBRANCH  12  13
ENDBRANCH  11  12
ENDBRANCH  10  11
ENDBRANCH   9  10
ENDBRANCH   1   9
TORSDOF 10
ENDMDL
MODEL 8
REMARK VINA RESULT:    -4.337      1.952      4.007
REMARK INTER + INTRA:          -7.949
REMARK INTER:                  -6.480
REMARK INTRA:                  -1.469
REMARK UNBOUND:                -1.077
REMARK SMILES CCCCCCCCCCCC(=O)[O-]
REMARK SMILES IDX 7 1 8 2 9 3 10 4 11 5 12 6 13 7 14 8 6 9 5 10 4 11 3 12 2 13
REMARK SMILES IDX 1 14
REMARK H PARENT
REMARK Flexibility Score: inf
ROOT
ATOM      1  C   UNL     1       5.715  -6.626  31.588  1.00  0.00     0.000 C 
ENDROOT
BRANCH   1   2
ATOM      2  C   UNL     1       6.870  -5.643  31.320  1.00  0.00     0.000 C 
BRANCH   2   3
ATOM      3  C   UNL     1       7.959  -6.154  30.355  1.00  0.00     0.000 C 
BRANCH   3   4
ATOM      4  C   UNL     1       8.044  -5.408  29.008  1.00  0.00     0.006 C 
BRANCH   4   5
ATOM      5  C   UNL     1       6.685  -4.963  28.443  1.00  0.00     0.053 C 
BRANCH   5   6
ATOM      6  C   UNL     1       6.834  -4.214  27.154  1.00  0.00     0.041 C 
ATOM      7  O   UNL     1       7.147  -2.995  27.163  1.00  0.00    -0.550 OA
ATOM      8  O   UNL     1       6.595  -4.855  25.945  1.00  0.00    -0.550 OA
ENDBRANCH   5   6
ENDBRANCH   4   5
ENDBRANCH   3   4
ENDBRANCH   2   3
ENDBRANCH   1   2
BRANCH   1   9
ATOM      9  C   UNL     1       6.076  -8.080  31.236  1.00  0.00     0.000 C 
BRANCH   9  10
ATOM     10  C   UNL     1       5.265  -8.615  30.046  1.00  0.00    -0.000 C 
BRANCH  10  11
ATOM     11  C   UNL     1       6.156  -9.150  28.911  1.00  0.00    -0.000 C 
BRANCH  11  12
ATOM     12  C   UNL     1       5.905  -8.440  27.569  1.00  0.00    -0.000 C 
BRANCH  12  13
ATOM     13  C   UNL     1       7.156  -8.261  26.691  1.00  0.00    -0.003 C 
ATOM     14  C   UNL     1       8.445  -8.686  27.393  1.00  0.00     0.004 C 
ENDBRANCH  12  13
ENDBRANCH  11  12
ENDBRANCH  10  11
ENDBRANCH   9  10
ENDBRANCH   1   9
TORSDOF 10
ENDMDL
MODEL 9
REMARK VINA RESULT:    -4.335      1.541      3.864
REMARK INTER + INTRA:          -7.947
REMARK INTER:                  -6.372
REMARK INTRA:                  -1.575
REMARK UNBOUND:                -1.077
REMARK SMILES CCCCCCCCCCCC(=O)[O-]
REMARK SMILES IDX 7 1 8 2 9 3 10 4 11 5 12 6 13 7 14 8 6 9 5 10 4 11 3 12 2 13
REMARK SMILES IDX 1 14
REMARK H PARENT
REMARK Flexibility Score: inf
ROOT
ATOM      1  C   UNL     1       7.247  -5.611  31.304  1.00  0.00     0.000 C 
ENDROOT
BRANCH   1   2
ATOM      2  C   UNL     1       8.157  -6.411  30.353  1.00  0.00     0.000 C 
BRANCH   2   3
ATOM      3  C   UNL     1       8.063  -6.017  28.865  1.00  0.00     0.000 C 
BRANCH   3   4
ATOM      4  C   UNL     1       7.106  -4.849  28.555  1.00  0.00     0.006 C 
BRANCH   4   5
ATOM      5  C   UNL     1       5.774  -5.273  27.915  1.00  0.00     0.053 C 
BRANCH   5   6
ATOM      6  C   UNL     1       5.931  -5.602  26.462  1.00  0.00     0.041 C 
ATOM      7  O   UNL     1       5.516  -6.702  26.013  1.00  0.00    -0.550 OA
ATOM      8  O   UNL     1       6.566  -4.706  25.610  1.00  0.00    -0.550 OA
ENDBRANCH   5   6
ENDBRANCH   4   5
ENDBRANCH   3   4
ENDBRANCH   2   3
ENDBRANCH   1   2
BRANCH   1   9
ATOM      9  C   UNL     1       6.134  -6.470  31.927  1.00  0.00     0.000 C 
BRANCH   9  10
ATOM     10  C   UNL     1       6.054  -7.872  31.302  1.00  0.00    -0.000 C 
BRANCH  10  11
ATOM     11  C   UNL     1       4.729  -8.116  30.558  1.00  0.00    -0.000 C 
BRANCH  11  12
ATOM     12  C   UNL     1       4.936  -8.650  29.130  1.00  0.00    -0.000 C 
BRANCH  12  13
ATOM     13  C   UNL     1       6.041  -9.713  28.994  1.00  0.00    -0.003 C 
ATOM     14  C   UNL     1       7.015  -9.421  27.853  1.00  0.00     0.004 C 
ENDBRANCH  12  13
ENDBRANCH  11  12
ENDBRANCH  10  11
ENDBRANCH   9  10
ENDBRANCH   1   9
TORSDOF 10
ENDMDL
