MODEL 1
REMARK VINA RESULT:    -5.410      0.000      0.000
REMARK INTER + INTRA:          -6.499
REMARK INTER:                  -6.359
REMARK INTRA:                  -0.140
REMARK UNBOUND:                -0.140
REMARK SMILES O=C([O-])C=Cc1ccc(O)c(O)c1
REMARK SMILES IDX 6 1 13 2 7 3 11 4 8 5 9 6 5 7 4 8 2 9 1 10 3 11 12 12 10 14
REMARK H PARENT 12 13 10 15
REMARK Flexibility Score: inf
ROOT
ATOM      1  C   UNL     1      30.129  -5.442  34.176  1.00  0.00    -0.022 A 
ATOM      2  C   UNL     1      30.920  -4.923  33.137  1.00  0.00     0.058 A 
ATOM      3  C   UNL     1      29.845  -4.625  35.288  1.00  0.00     0.012 A 
ATOM      4  C   UNL     1      31.400  -3.607  33.191  1.00  0.00     0.157 A 
ATOM      5  C   UNL     1      30.324  -3.313  35.341  1.00  0.00     0.051 A 
ATOM      6  C   UNL     1      31.099  -2.800  34.294  1.00  0.00     0.157 A 
ENDROOT
BRANCH   1   7
ATOM      7  C   UNL     1      29.654  -6.845  34.074  1.00  0.00     0.010 C 
ATOM      8  C   UNL     1      28.931  -7.457  35.021  1.00  0.00     0.025 C 
BRANCH   8   9
ATOM      9  C   UNL     1      28.471  -8.847  34.873  1.00  0.00     0.064 C 
ATOM     10  O   UNL     1      29.309  -9.759  34.654  1.00  0.00    -0.545 OA
ATOM     11  O   UNL     1      27.122  -9.170  34.969  1.00  0.00    -0.545 OA
ENDBRANCH   8   9
ENDBRANCH   1   7
BRANCH   4  12
ATOM     12  O   UNL     1      32.176  -3.094  32.153  1.00  0.00    -0.504 OA
ATOM     13  H   UNL     1      33.112  -3.437  31.971  1.00  0.00     0.293 HD
ENDBRANCH   4  12
BRANCH   6  14
ATOM     14  O   UNL     1      31.577  -1.491  34.345  1.00  0.00    -0.504 OA
ATOM     15  H   UNL     1      31.629  -0.979  35.217  1.00  0.00     0.293 HD
ENDBRANCH   6  14
TORSDOF 4
ENDMDL
MODEL 2
REMARK VINA RESULT:    -5.274      3.166      4.664
REMARK INTER + INTRA:          -6.339
REMARK INTER:                  -6.212
REMARK INTRA:                  -0.127
REMARK UNBOUND:                -0.140
REMARK SMILES O=C([O-])C=Cc1ccc(O)c(O)c1
REMARK SMILES IDX 6 1 13 2 7 3 11 4 8 5 9 6 5 7 4 8 2 9 1 10 3 11 12 12 10 14
REMARK H PARENT 12 13 10 15
REMARK Flexibility Score: inf
ROOT
ATOM      1  C   UNL     1      30.027  -3.883  35.119  1.00  0.00    -0.022 A 
ATOM      2  C   UNL     1      30.946  -2.964  34.586  1.00  0.00     0.058 A 
ATOM      3  C   UNL     1      29.959  -5.176  34.565  1.00  0.00     0.012 A 
ATOM      4  C   UNL     1      31.800  -3.331  33.536  1.00  0.00     0.157 A 
ATOM      5  C   UNL     1      30.811  -5.543  33.519  1.00  0.00     0.051 A 
ATOM      6  C   UNL     1      31.734  -4.624  33.004  1.00  0.00     0.157 A 
ENDROOT
BRANCH   1   7
ATOM      7  C   UNL     1      29.138  -3.440  36.222  1.00  0.00     0.010 C 
ATOM      8  C   UNL     1      28.202  -2.491  36.090  1.00  0.00     0.025 C 
BRANCH   8   9
ATOM      9  C   UNL     1      27.334  -2.091  37.208  1.00  0.00     0.064 C 
ATOM     10  O   UNL     1      26.165  -1.690  36.976  1.00  0.00    -0.545 OA
ATOM     11  O   UNL     1      27.787  -2.147  38.522  1.00  0.00    -0.545 OA
ENDBRANCH   8   9
ENDBRANCH   1   7
BRANCH   4  12
ATOM     12  O   UNL     1      32.716  -2.418  33.018  1.00  0.00    -0.504 OA
ATOM     13  H   UNL     1      32.494  -1.432  32.937  1.00  0.00     0.293 HD
ENDBRANCH   4  12
BRANCH   6  14
ATOM     14  O   UNL     1      32.586  -4.987  31.962  1.00  0.00    -0.504 OA
ATOM     15  H   UNL     1      32.829  -4.337  31.224  1.00  0.00     0.293 HD
ENDBRANCH   6  14
TORSDOF 4
ENDMDL
MODEL 3
REMARK VINA RESULT:    -5.210      3.098      4.706
REMARK INTER + INTRA:          -6.264
REMARK INTER:                  -6.135
REMARK INTRA:                  -0.129
REMARK UNBOUND:                -0.140
REMARK SMILES O=C([O-])C=Cc1ccc(O)c(O)c1
REMARK SMILES IDX 6 1 13 2 7 3 11 4 8 5 9 6 5 7 4 8 2 9 1 10 3 11 12 12 10 14
REMARK H PARENT 12 13 10 15
REMARK Flexibility Score: inf
ROOT
ATOM      1  C   UNL     1      30.141  -3.730  35.298  1.00  0.00    -0.022 A 
ATOM      2  C   UNL     1      29.642  -4.364  34.147  1.00  0.00     0.058 A 
ATOM      3  C   UNL     1      31.533  -3.561  35.431  1.00  0.00     0.012 A 
ATOM      4  C   UNL     1      30.510  -4.801  33.136  1.00  0.00     0.157 A 
ATOM      5  C   UNL     1      32.398  -3.996  34.423  1.00  0.00     0.051 A 
ATOM      6  C   UNL     1      31.890  -4.613  33.274  1.00  0.00     0.157 A 
ENDROOT
BRANCH   1   7
ATOM      7  C   UNL     1      29.180  -3.297  36.343  1.00  0.00     0.010 C 
ATOM      8  C   UNL     1      28.175  -2.440  36.122  1.00  0.00     0.025 C 
BRANCH   8   9
ATOM      9  C   UNL     1      27.238  -2.047  37.186  1.00  0.00     0.064 C 
ATOM     10  O   UNL     1      27.610  -2.085  38.387  1.00  0.00    -0.545 OA
ATOM     11  O   UNL     1      25.944  -1.636  36.886  1.00  0.00    -0.545 OA
ENDBRANCH   8   9
ENDBRANCH   1   7
BRANCH   4  12
ATOM     12  O   UNL     1      30.009  -5.420  31.993  1.00  0.00    -0.504 OA
ATOM     13  H   UNL     1      29.013  -5.552  31.854  1.00  0.00     0.293 HD
ENDBRANCH   4  12
BRANCH   6  14
ATOM     14  O   UNL     1      32.751  -5.047  32.266  1.00  0.00    -0.504 OA
ATOM     15  H   UNL     1      32.677  -5.975  31.868  1.00  0.00     0.293 HD
ENDBRANCH   6  14
TORSDOF 4
ENDMDL
MODEL 4
REMARK VINA RESULT:    -5.123      3.909      4.847
REMARK INTER + INTRA:          -6.161
REMARK INTER:                  -6.029
REMARK INTRA:                  -0.132
REMARK UNBOUND:                -0.140
REMARK SMILES O=C([O-])C=Cc1ccc(O)c(O)c1
REMARK SMILES IDX 6 1 13 2 7 3 11 4 8 5 9 6 5 7 4 8 2 9 1 10 3 11 12 12 10 14
REMARK H PARENT 12 13 10 15
REMARK Flexibility Score: inf
ROOT
ATOM      1  C   UNL     1      27.311  -3.318  34.484  1.00  0.00    -0.022 A 
ATOM      2  C   UNL     1      27.714  -2.537  35.580  1.00  0.00     0.058 A 
ATOM      3  C   UNL     1      26.127  -2.973  33.802  1.00  0.00     0.012 A 
ATOM      4  C   UNL     1      26.967  -1.418  35.976  1.00  0.00     0.157 A 
ATOM      5  C   UNL     1      25.383  -1.857  34.197  1.00  0.00     0.051 A 
ATOM      6  C   UNL     1      25.801  -1.077  35.281  1.00  0.00     0.157 A 
ENDROOT
BRANCH   1   7
ATOM      7  C   UNL     1      28.131  -4.498  34.112  1.00  0.00     0.010 C 
ATOM      8  C   UNL     1      29.399  -4.678  34.506  1.00  0.00     0.025 C 
BRANCH   8   9
ATOM      9  C   UNL     1      30.171  -5.870  34.123  1.00  0.00     0.064 C 
ATOM     10  O   UNL     1      31.367  -5.743  33.753  1.00  0.00    -0.545 OA
ATOM     11  O   UNL     1      29.600  -7.137  34.162  1.00  0.00    -0.545 OA
ENDBRANCH   8   9
ENDBRANCH   1   7
BRANCH   4  12
ATOM     12  O   UNL     1      27.378  -0.642  37.058  1.00  0.00    -0.504 OA
ATOM     13  H   UNL     1      28.002  -1.008  37.768  1.00  0.00     0.293 HD
ENDBRANCH   4  12
BRANCH   6  14
ATOM     14  O   UNL     1      25.061   0.037  35.676  1.00  0.00    -0.504 OA
ATOM     15  H   UNL     1      24.424  -0.001  36.463  1.00  0.00     0.293 HD
ENDBRANCH   6  14
TORSDOF 4
ENDMDL
MODEL 5
REMARK VINA RESULT:    -5.083      5.817      7.335
REMARK INTER + INTRA:          -6.115
REMARK INTER:                  -5.981
REMARK INTRA:                  -0.134
REMARK UNBOUND:                -0.140
REMARK SMILES O=C([O-])C=Cc1ccc(O)c(O)c1
REMARK SMILES IDX 6 1 13 2 7 3 11 4 8 5 9 6 5 7 4 8 2 9 1 10 3 11 12 12 10 14
REMARK H PARENT 12 13 10 15
REMARK Flexibility Score: inf
ROOT
ATOM      1  C   UNL     1      25.955  -1.685  35.434  1.00  0.00    -0.022 A 
ATOM      2  C   UNL     1      25.131  -1.208  36.468  1.00  0.00     0.058 A 
ATOM      3  C   UNL     1      25.373  -1.988  34.187  1.00  0.00     0.012 A 
ATOM      4  C   UNL     1      23.759  -1.013  36.259  1.00  0.00     0.157 A 
ATOM      5  C   UNL     1      24.005  -1.792  33.979  1.00  0.00     0.051 A 
ATOM      6  C   UNL     1      23.195  -1.303  35.011  1.00  0.00     0.157 A 
ENDROOT
BRANCH   1   7
ATOM      7  C   UNL     1      27.399  -1.884  35.711  1.00  0.00     0.010 C 
ATOM      8  C   UNL     1      28.080  -2.983  35.361  1.00  0.00     0.025 C 
BRANCH   8   9
ATOM      9  C   UNL     1      29.515  -3.133  35.645  1.00  0.00     0.064 C 
ATOM     10  O   UNL     1      29.890  -3.916  36.556  1.00  0.00    -0.545 OA
ATOM     11  O   UNL     1      30.467  -2.421  34.924  1.00  0.00    -0.545 OA
ENDBRANCH   8   9
ENDBRANCH   1   7
BRANCH   4  12
ATOM     12  O   UNL     1      22.949  -0.530  37.286  1.00  0.00    -0.504 OA
ATOM     13  H   UNL     1      23.063   0.407  37.655  1.00  0.00     0.293 HD
ENDBRANCH   4  12
BRANCH   6  14
ATOM     14  O   UNL     1      21.830  -1.106  34.805  1.00  0.00    -0.504 OA
ATOM     15  H   UNL     1      21.298  -1.699  34.180  1.00  0.00     0.293 HD
ENDBRANCH   6  14
TORSDOF 4
ENDMDL
MODEL 6
REMARK VINA RESULT:    -4.885      3.791      4.534
REMARK INTER + INTRA:          -5.882
REMARK INTER:                  -5.758
REMARK INTRA:                  -0.123
REMARK UNBOUND:                -0.140
REMARK SMILES O=C([O-])C=Cc1ccc(O)c(O)c1
REMARK SMILES IDX 6 1 13 2 7 3 11 4 8 5 9 6 5 7 4 8 2 9 1 10 3 11 12 12 10 14
REMARK H PARENT 12 13 10 15
REMARK Flexibility Score: inf
ROOT
ATOM      1  C   UNL     1      31.792  -3.406  34.531  1.00  0.00    -0.022 A 
ATOM      2  C   UNL     1      31.828  -3.927  33.226  1.00  0.00     0.058 A 
ATOM      3  C   UNL     1      32.934  -3.532  35.345  1.00  0.00     0.012 A 
ATOM      4  C   UNL     1      32.987  -4.541  32.732  1.00  0.00     0.157 A 
ATOM      5  C   UNL     1      34.090  -4.144  34.851  1.00  0.00     0.051 A 
ATOM      6  C   UNL     1      34.121  -4.647  33.545  1.00  0.00     0.157 A 
ENDROOT
BRANCH   1   7
ATOM      7  C   UNL     1      30.536  -2.775  35.009  1.00  0.00     0.010 C 
ATOM      8  C   UNL     1      29.518  -3.458  35.549  1.00  0.00     0.025 C 
BRANCH   8   9
ATOM      9  C   UNL     1      28.296  -2.790  36.022  1.00  0.00     0.064 C 
ATOM     10  O   UNL     1      27.369  -2.540  35.208  1.00  0.00    -0.545 OA
ATOM     11  O   UNL     1      28.148  -2.426  37.356  1.00  0.00    -0.545 OA
ENDBRANCH   8   9
ENDBRANCH   1   7
BRANCH   4  12
ATOM     12  O   UNL     1      33.019  -5.047  31.433  1.00  0.00    -0.504 OA
ATOM     13  H   UNL     1      32.371  -5.764  31.127  1.00  0.00     0.293 HD
ENDBRANCH   4  12
BRANCH   6  14
ATOM     14  O   UNL     1      35.273  -5.257  33.050  1.00  0.00    -0.504 OA
ATOM     15  H   UNL     1      35.814  -5.902  33.612  1.00  0.00     0.293 HD
ENDBRANCH   6  14
TORSDOF 4
ENDMDL
MODEL 7
REMARK VINA RESULT:    -4.844      4.099      4.933
REMARK INTER + INTRA:          -5.833
REMARK INTER:                  -5.693
REMARK INTRA:                  -0.140
REMARK UNBOUND:                -0.140
REMARK SMILES O=C([O-])C=Cc1ccc(O)c(O)c1
REMARK SMILES IDX 6 1 13 2 7 3 11 4 8 5 9 6 5 7 4 8 2 9 1 10 3 11 12 12 10 14
REMARK H PARENT 12 13 10 15
REMARK Flexibility Score: inf
ROOT
ATOM      1  C   UNL     1      27.488  -3.244  34.719  1.00  0.00    -0.022 A 
ATOM      2  C   UNL     1      26.286  -2.921  34.067  1.00  0.00     0.058 A 
ATOM      3  C   UNL     1      27.923  -2.430  35.783  1.00  0.00     0.012 A 
ATOM      4  C   UNL     1      25.518  -1.824  34.482  1.00  0.00     0.157 A 
ATOM      5  C   UNL     1      27.157  -1.337  36.197  1.00  0.00     0.051 A 
ATOM      6  C   UNL     1      25.953  -1.032  35.550  1.00  0.00     0.157 A 
ENDROOT
BRANCH   1   7
ATOM      7  C   UNL     1      28.269  -4.409  34.234  1.00  0.00     0.010 C 
ATOM      8  C   UNL     1      29.533  -4.662  34.598  1.00  0.00     0.025 C 
BRANCH   8   9
ATOM      9  C   UNL     1      30.266  -5.837  34.101  1.00  0.00     0.064 C 
ATOM     10  O   UNL     1      29.664  -6.934  33.967  1.00  0.00    -0.545 OA
ATOM     11  O   UNL     1      31.616  -5.757  33.778  1.00  0.00    -0.545 OA
ENDBRANCH   8   9
ENDBRANCH   1   7
BRANCH   4  12
ATOM     12  O   UNL     1      24.321  -1.515  33.837  1.00  0.00    -0.504 OA
ATOM     13  H   UNL     1      23.714  -0.776  34.172  1.00  0.00     0.293 HD
ENDBRANCH   4  12
BRANCH   6  14
ATOM     14  O   UNL     1      25.186   0.057  35.961  1.00  0.00    -0.504 OA
ATOM     15  H   UNL     1      25.334   0.984  35.580  1.00  0.00     0.293 HD
ENDBRANCH   6  14
TORSDOF 4
ENDMDL
MODEL 8
REMARK VINA RESULT:    -4.769      5.431      6.438
REMARK INTER + INTRA:          -5.745
REMARK INTER:                  -5.607
REMARK INTRA:                  -0.138
REMARK UNBOUND:                -0.140
REMARK SMILES O=C([O-])C=Cc1ccc(O)c(O)c1
REMARK SMILES IDX 6 1 13 2 7 3 11 4 8 5 9 6 5 7 4 8 2 9 1 10 3 11 12 12 10 14
REMARK H PARENT 12 13 10 15
REMARK Flexibility Score: inf
ROOT
ATOM      1  C   UNL     1      26.357  -2.467  34.672  1.00  0.00    -0.022 A 
ATOM      2  C   UNL     1      26.961  -3.502  33.939  1.00  0.00     0.058 A 
ATOM      3  C   UNL     1      27.022  -1.959  35.805  1.00  0.00     0.012 A 
ATOM      4  C   UNL     1      28.214  -4.007  34.311  1.00  0.00     0.157 A 
ATOM      5  C   UNL     1      28.272  -2.462  36.176  1.00  0.00     0.051 A 
ATOM      6  C   UNL     1      28.873  -3.485  35.430  1.00  0.00     0.157 A 
ENDROOT
BRANCH   1   7
ATOM      7  C   UNL     1      25.024  -1.976  34.242  1.00  0.00     0.010 C 
ATOM      8  C   UNL     1      24.119  -1.448  35.078  1.00  0.00     0.025 C 
BRANCH   8   9
ATOM      9  C   UNL     1      22.813  -0.962  34.606  1.00  0.00     0.064 C 
ATOM     10  O   UNL     1      21.775  -1.628  34.855  1.00  0.00    -0.545 OA
ATOM     11  O   UNL     1      22.707   0.222  33.884  1.00  0.00    -0.545 OA
ENDBRANCH   8   9
ENDBRANCH   1   7
BRANCH   4  12
ATOM     12  O   UNL     1      28.812  -5.028  33.573  1.00  0.00    -0.504 OA
ATOM     13  H   UNL     1      29.070  -4.898  32.601  1.00  0.00     0.293 HD
ENDBRANCH   4  12
BRANCH   6  14
ATOM     14  O   UNL     1      30.120  -3.987  35.796  1.00  0.00    -0.504 OA
ATOM     15  H   UNL     1      30.586  -4.700  35.248  1.00  0.00     0.293 HD
ENDBRANCH   6  14
TORSDOF 4
ENDMDL
MODEL 9
REMARK VINA RESULT:    -4.671      2.994      5.350
REMARK INTER + INTRA:          -5.630
REMARK INTER:                  -5.504
REMARK INTRA:                  -0.126
REMARK UNBOUND:                -0.140
REMARK SMILES O=C([O-])C=Cc1ccc(O)c(O)c1
REMARK SMILES IDX 6 1 13 2 7 3 11 4 8 5 9 6 5 7 4 8 2 9 1 10 3 11 12 12 10 14
REMARK H PARENT 12 13 10 15
REMARK Flexibility Score: inf
ROOT
ATOM      1  C   UNL     1      31.575  -4.798  34.001  1.00  0.00    -0.022 A 
ATOM      2  C   UNL     1      31.184  -3.607  34.637  1.00  0.00     0.058 A 
ATOM      3  C   UNL     1      30.581  -5.709  33.595  1.00  0.00     0.012 A 
ATOM      4  C   UNL     1      29.828  -3.318  34.845  1.00  0.00     0.157 A 
ATOM      5  C   UNL     1      29.229  -5.420  33.801  1.00  0.00     0.051 A 
ATOM      6  C   UNL     1      28.849  -4.225  34.424  1.00  0.00     0.157 A 
ENDROOT
BRANCH   1   7
ATOM      7  C   UNL     1      33.024  -5.061  33.815  1.00  0.00     0.010 C 
ATOM      8  C   UNL     1      33.844  -4.260  33.122  1.00  0.00     0.025 C 
BRANCH   8   9
ATOM      9  C   UNL     1      35.278  -4.554  32.973  1.00  0.00     0.064 C 
ATOM     10  O   UNL     1      35.662  -5.333  32.063  1.00  0.00    -0.545 OA
ATOM     11  O   UNL     1      36.218  -3.987  33.827  1.00  0.00    -0.545 OA
ENDBRANCH   8   9
ENDBRANCH   1   7
BRANCH   4  12
ATOM     12  O   UNL     1      29.446  -2.131  35.468  1.00  0.00    -0.504 OA
ATOM     13  H   UNL     1      28.485  -1.961  35.741  1.00  0.00     0.293 HD
ENDBRANCH   4  12
BRANCH   6  14
ATOM     14  O   UNL     1      27.501  -3.934  34.630  1.00  0.00    -0.504 OA
ATOM     15  H   UNL     1      27.127  -3.785  35.559  1.00  0.00     0.293 HD
ENDBRANCH   6  14
TORSDOF 4
ENDMDL
