MODEL 1
REMARK VINA RESULT:    -4.518      0.000      0.000
REMARK INTER + INTRA:         -12.542
REMARK INTER:                 -10.329
REMARK INTRA:                  -2.213
REMARK UNBOUND:                -2.213
REMARK SMILES CCCCCCCCCCCCCCCCCCCCCCCC(=O)[O-]
REMARK SMILES IDX 13 1 14 2 15 3 16 4 17 5 18 6 19 7 20 8 21 9 22 10 23 11
REMARK SMILES IDX 24 12 25 13 26 14 12 15 11 16 10 17 9 18 8 19 7 20 6 21 5 22
REMARK SMILES IDX 4 23 3 24 2 25 1 26
REMARK H PARENT
REMARK Flexibility Score: inf
ROOT
ATOM      1  C   UNL     1      15.946  20.531 -12.130  1.00  0.00     0.000 C 
ENDROOT
BRANCH   1   2
ATOM      2  C   UNL     1      14.858  21.592 -11.902  1.00  0.00     0.000 C 
BRANCH   2   3
ATOM      3  C   UNL     1      15.097  22.875 -12.713  1.00  0.00     0.000 C 
BRANCH   3   4
ATOM      4  C   UNL     1      13.790  23.385 -13.333  1.00  0.00     0.000 C 
BRANCH   4   5
ATOM      5  C   UNL     1      12.577  22.655 -12.739  1.00  0.00     0.000 C 
BRANCH   5   6
ATOM      6  C   UNL     1      11.722  23.565 -11.843  1.00  0.00     0.000 C 
BRANCH   6   7
ATOM      7  C   UNL     1      11.734  25.032 -12.308  1.00  0.00     0.000 C 
BRANCH   7   8
ATOM      8  C   UNL     1      12.130  26.006 -11.186  1.00  0.00     0.000 C 
BRANCH   8   9
ATOM      9  C   UNL     1      13.602  26.443 -11.279  1.00  0.00     0.000 C 
BRANCH   9  10
ATOM     10  C   UNL     1      14.523  25.665 -10.319  1.00  0.00     0.006 C 
BRANCH  10  11
ATOM     11  C   UNL     1      15.220  26.549  -9.268  1.00  0.00     0.053 C 
BRANCH  11  12
ATOM     12  C   UNL     1      14.859  26.172  -7.864  1.00  0.00     0.041 C 
ATOM     13  O   UNL     1      15.565  26.566  -6.898  1.00  0.00    -0.550 OA
ATOM     14  O   UNL     1      13.727  25.404  -7.619  1.00  0.00    -0.550 OA
ENDBRANCH  11  12
ENDBRANCH  10  11
ENDBRANCH   9  10
ENDBRANCH   8   9
ENDBRANCH   7   8
ENDBRANCH   6   7
ENDBRANCH   5   6
ENDBRANCH   4   5
ENDBRANCH   3   4
ENDBRANCH   2   3
ENDBRANCH   1   2
BRANCH   1  15
ATOM     15  C   UNL     1      17.178  21.097 -12.858  1.00  0.00     0.000 C 
BRANCH  15  16
ATOM     16  C   UNL     1      17.802  20.088 -13.837  1.00  0.00     0.000 C 
BRANCH  16  17
ATOM     17  C   UNL     1      19.339  20.093 -13.790  1.00  0.00     0.000 C 
BRANCH  17  18
ATOM     18  C   UNL     1      19.921  18.747 -13.327  1.00  0.00    -0.000 C 
BRANCH  18  19
ATOM     19  C   UNL     1      18.874  17.863 -12.627  1.00  0.00    -0.000 C 
BRANCH  19  20
ATOM     20  C   UNL     1      18.834  18.079 -11.103  1.00  0.00    -0.000 C 
BRANCH  20  21
ATOM     21  C   UNL     1      20.205  18.311 -10.435  1.00  0.00    -0.000 C 
BRANCH  21  22
ATOM     22  C   UNL     1      21.032  17.038 -10.179  1.00  0.00    -0.000 C 
BRANCH  22  23
ATOM     23  C   UNL     1      22.373  17.036 -10.926  1.00  0.00    -0.000 C 
BRANCH  23  24
ATOM     24  C   UNL     1      23.550  16.993  -9.939  1.00  0.00    -0.000 C 
BRANCH  24  25
ATOM     25  C   UNL     1      23.279  16.077  -8.736  1.00  0.00    -0.003 C 
ATOM     26  C   UNL     1      23.628  14.616  -9.014  1.00  0.00     0.004 C 
ENDBRANCH  24  25
ENDBRANCH  23  24
ENDBRANCH  22  23
ENDBRANCH  21  22
ENDBRANCH  20  21
ENDBRANCH  19  20
ENDBRANCH  18  19
ENDBRANCH  17  18
ENDBRANCH  16  17
ENDBRANCH  15  16
ENDBRANCH   1  15
TORSDOF 22
ENDMDL
MODEL 2
REMARK VINA RESULT:    -4.470      3.157      9.785
REMARK INTER + INTRA:         -12.433
REMARK INTER:                  -9.786
REMARK INTRA:                  -2.647
REMARK UNBOUND:                -2.213
REMARK SMILES CCCCCCCCCCCCCCCCCCCCCCCC(=O)[O-]
REMARK SMILES IDX 13 1 14 2 15 3 16 4 17 5 18 6 19 7 20 8 21 9 22 10 23 11
REMARK SMILES IDX 24 12 25 13 26 14 12 15 11 16 10 17 9 18 8 19 7 20 6 21 5 22
REMARK SMILES IDX 4 23 3 24 2 25 1 26
REMARK H PARENT
REMARK Flexibility Score: inf
ROOT
ATOM      1  C   UNL     1      11.968  22.886 -12.461  1.00  0.00     0.000 C 
ENDROOT
BRANCH   1   2
ATOM      2  C   UNL     1      12.531  23.083 -13.877  1.00  0.00     0.000 C 
BRANCH   2   3
ATOM      3  C   UNL     1      13.893  23.793 -13.883  1.00  0.00     0.000 C 
BRANCH   3   4
ATOM      4  C   UNL     1      14.632  23.574 -12.557  1.00  0.00     0.000 C 
BRANCH   4   5
ATOM      5  C   UNL     1      15.736  22.518 -12.709  1.00  0.00     0.000 C 
BRANCH   5   6
ATOM      6  C   UNL     1      15.396  21.202 -11.991  1.00  0.00     0.000 C 
BRANCH   6   7
ATOM      7  C   UNL     1      16.410  20.085 -12.295  1.00  0.00     0.000 C 
BRANCH   7   8
ATOM      8  C   UNL     1      17.413  20.478 -13.391  1.00  0.00     0.000 C 
BRANCH   8   9
ATOM      9  C   UNL     1      18.199  19.271 -13.930  1.00  0.00     0.000 C 
BRANCH   9  10
ATOM     10  C   UNL     1      19.471  18.968 -13.116  1.00  0.00     0.006 C 
BRANCH  10  11
ATOM     11  C   UNL     1      19.449  17.601 -12.406  1.00  0.00     0.053 C 
BRANCH  11  12
ATOM     12  C   UNL     1      19.544  17.722 -10.915  1.00  0.00     0.041 C 
ATOM     13  O   UNL     1      20.207  16.883 -10.251  1.00  0.00    -0.550 OA
ATOM     14  O   UNL     1      18.922  18.779 -10.262  1.00  0.00    -0.550 OA
ENDBRANCH  11  12
ENDBRANCH  10  11
ENDBRANCH   9  10
ENDBRANCH   8   9
ENDBRANCH   7   8
ENDBRANCH   6   7
ENDBRANCH   5   6
ENDBRANCH   4   5
ENDBRANCH   3   4
ENDBRANCH   2   3
ENDBRANCH   1   2
BRANCH   1  15
ATOM     15  C   UNL     1      10.470  23.226 -12.369  1.00  0.00     0.000 C 
BRANCH  15  16
ATOM     16  C   UNL     1      10.161  24.240 -11.255  1.00  0.00     0.000 C 
BRANCH  16  17
ATOM     17  C   UNL     1      11.393  25.072 -10.857  1.00  0.00     0.000 C 
BRANCH  17  18
ATOM     18  C   UNL     1      11.082  26.575 -10.755  1.00  0.00    -0.000 C 
BRANCH  18  19
ATOM     19  C   UNL     1      10.691  27.000  -9.329  1.00  0.00    -0.000 C 
BRANCH  19  20
ATOM     20  C   UNL     1      11.050  25.940  -8.271  1.00  0.00    -0.000 C 
BRANCH  20  21
ATOM     21  C   UNL     1      11.737  26.483  -7.001  1.00  0.00    -0.000 C 
BRANCH  21  22
ATOM     22  C   UNL     1      13.165  27.019  -7.209  1.00  0.00    -0.000 C 
BRANCH  22  23
ATOM     23  C   UNL     1      14.189  25.906  -7.472  1.00  0.00    -0.000 C 
BRANCH  23  24
ATOM     24  C   UNL     1      15.146  26.300  -8.606  1.00  0.00    -0.000 C 
BRANCH  24  25
ATOM     25  C   UNL     1      14.518  27.298  -9.591  1.00  0.00    -0.003 C 
ATOM     26  C   UNL     1      14.765  26.924 -11.052  1.00  0.00     0.004 C 
ENDBRANCH  24  25
ENDBRANCH  23  24
ENDBRANCH  22  23
ENDBRANCH  21  22
ENDBRANCH  20  21
ENDBRANCH  19  20
ENDBRANCH  18  19
ENDBRANCH  17  18
ENDBRANCH  16  17
ENDBRANCH  15  16
ENDBRANCH   1  15
TORSDOF 22
ENDMDL
MODEL 3
REMARK VINA RESULT:    -4.423      2.486      5.624
REMARK INTER + INTRA:         -12.325
REMARK INTER:                  -9.424
REMARK INTRA:                  -2.901
REMARK UNBOUND:                -2.213
REMARK SMILES CCCCCCCCCCCCCCCCCCCCCCCC(=O)[O-]
REMARK SMILES IDX 13 1 14 2 15 3 16 4 17 5 18 6 19 7 20 8 21 9 22 10 23 11
REMARK SMILES IDX 24 12 25 13 26 14 12 15 11 16 10 17 9 18 8 19 7 20 6 21 5 22
REMARK SMILES IDX 4 23 3 24 2 25 1 26
REMARK H PARENT
REMARK Flexibility Score: inf
ROOT
ATOM      1  C   UNL     1      20.365  17.247 -10.427  1.00  0.00     0.000 C 
ENDROOT
BRANCH   1   2
ATOM      2  C   UNL     1      19.580  18.261 -11.274  1.00  0.00     0.000 C 
BRANCH   2   3
ATOM      3  C   UNL     1      19.268  17.743 -12.686  1.00  0.00     0.000 C 
BRANCH   3   4
ATOM      4  C   UNL     1      20.020  18.554 -13.748  1.00  0.00     0.000 C 
BRANCH   4   5
ATOM      5  C   UNL     1      19.464  19.982 -13.847  1.00  0.00     0.000 C 
BRANCH   5   6
ATOM      6  C   UNL     1      17.927  20.015 -13.882  1.00  0.00     0.000 C 
BRANCH   6   7
ATOM      7  C   UNL     1      17.330  20.885 -12.763  1.00  0.00     0.000 C 
BRANCH   7   8
ATOM      8  C   UNL     1      16.054  20.277 -12.158  1.00  0.00     0.000 C 
BRANCH   8   9
ATOM      9  C   UNL     1      14.985  21.340 -11.851  1.00  0.00     0.000 C 
BRANCH   9  10
ATOM     10  C   UNL     1      15.083  22.576 -12.766  1.00  0.00     0.006 C 
BRANCH  10  11
ATOM     11  C   UNL     1      14.395  23.831 -12.198  1.00  0.00     0.053 C 
BRANCH  11  12
ATOM     12  C   UNL     1      12.900  23.729 -12.217  1.00  0.00     0.041 C 
ATOM     13  O   UNL     1      12.216  24.255 -11.300  1.00  0.00    -0.550 OA
ATOM     14  O   UNL     1      12.260  23.074 -13.262  1.00  0.00    -0.550 OA
ENDBRANCH  11  12
ENDBRANCH  10  11
ENDBRANCH   9  10
ENDBRANCH   8   9
ENDBRANCH   7   8
ENDBRANCH   6   7
ENDBRANCH   5   6
ENDBRANCH   4   5
ENDBRANCH   3   4
ENDBRANCH   2   3
ENDBRANCH   1   2
BRANCH   1  15
ATOM     15  C   UNL     1      21.750  17.772 -10.011  1.00  0.00     0.000 C 
BRANCH  15  16
ATOM     16  C   UNL     1      22.901  16.953 -10.621  1.00  0.00     0.000 C 
BRANCH  16  17
ATOM     17  C   UNL     1      22.979  17.095 -12.151  1.00  0.00     0.000 C 
BRANCH  17  18
ATOM     18  C   UNL     1      23.065  15.736 -12.866  1.00  0.00    -0.000 C 
BRANCH  18  19
ATOM     19  C   UNL     1      22.387  14.608 -12.070  1.00  0.00    -0.000 C 
BRANCH  19  20
ATOM     20  C   UNL     1      20.953  14.317 -12.551  1.00  0.00    -0.000 C 
BRANCH  20  21
ATOM     21  C   UNL     1      20.166  13.302 -11.697  1.00  0.00    -0.000 C 
BRANCH  21  22
ATOM     22  C   UNL     1      19.761  13.800 -10.297  1.00  0.00    -0.000 C 
BRANCH  22  23
ATOM     23  C   UNL     1      20.614  13.190  -9.176  1.00  0.00    -0.000 C 
BRANCH  23  24
ATOM     24  C   UNL     1      21.458  14.269  -8.482  1.00  0.00    -0.000 C 
BRANCH  24  25
ATOM     25  C   UNL     1      21.908  13.854  -7.073  1.00  0.00    -0.003 C 
ATOM     26  C   UNL     1      20.738  13.465  -6.169  1.00  0.00     0.004 C 
ENDBRANCH  24  25
ENDBRANCH  23  24
ENDBRANCH  22  23
ENDBRANCH  21  22
ENDBRANCH  20  21
ENDBRANCH  19  20
ENDBRANCH  18  19
ENDBRANCH  17  18
ENDBRANCH  16  17
ENDBRANCH  15  16
ENDBRANCH   1  15
TORSDOF 22
ENDMDL
MODEL 4
REMARK VINA RESULT:    -4.409      3.700     10.077
REMARK INTER + INTRA:         -12.292
REMARK INTER:                 -10.398
REMARK INTRA:                  -1.894
REMARK UNBOUND:                -2.213
REMARK SMILES CCCCCCCCCCCCCCCCCCCCCCCC(=O)[O-]
REMARK SMILES IDX 13 1 14 2 15 3 16 4 17 5 18 6 19 7 20 8 21 9 22 10 23 11
REMARK SMILES IDX 24 12 25 13 26 14 12 15 11 16 10 17 9 18 8 19 7 20 6 21 5 22
REMARK SMILES IDX 4 23 3 24 2 25 1 26
REMARK H PARENT
REMARK Flexibility Score: inf
ROOT
ATOM      1  C   UNL     1      14.138  23.386 -12.877  1.00  0.00     0.000 C 
ENDROOT
BRANCH   1   2
ATOM      2  C   UNL     1      15.464  22.653 -12.618  1.00  0.00     0.000 C 
BRANCH   2   3
ATOM      3  C   UNL     1      15.263  21.264 -11.992  1.00  0.00     0.000 C 
BRANCH   3   4
ATOM      4  C   UNL     1      16.499  20.381 -12.207  1.00  0.00     0.000 C 
BRANCH   4   5
ATOM      5  C   UNL     1      17.396  20.949 -13.316  1.00  0.00     0.000 C 
BRANCH   5   6
ATOM      6  C   UNL     1      18.614  20.056 -13.605  1.00  0.00     0.000 C 
BRANCH   6   7
ATOM      7  C   UNL     1      18.216  18.612 -13.956  1.00  0.00     0.000 C 
BRANCH   7   8
ATOM      8  C   UNL     1      18.913  17.572 -13.064  1.00  0.00     0.000 C 
BRANCH   8   9
ATOM      9  C   UNL     1      20.000  18.197 -12.172  1.00  0.00     0.000 C 
BRANCH   9  10
ATOM     10  C   UNL     1      19.979  17.657 -10.729  1.00  0.00     0.006 C 
BRANCH  10  11
ATOM     11  C   UNL     1      21.301  17.860  -9.965  1.00  0.00     0.053 C 
BRANCH  11  12
ATOM     12  C   UNL     1      21.826  16.589  -9.371  1.00  0.00     0.041 C 
ATOM     13  O   UNL     1      21.646  16.336  -8.151  1.00  0.00    -0.550 OA
ATOM     14  O   UNL     1      22.493  15.670 -10.173  1.00  0.00    -0.550 OA
ENDBRANCH  11  12
ENDBRANCH  10  11
ENDBRANCH   9  10
ENDBRANCH   8   9
ENDBRANCH   7   8
ENDBRANCH   6   7
ENDBRANCH   5   6
ENDBRANCH   4   5
ENDBRANCH   3   4
ENDBRANCH   2   3
ENDBRANCH   1   2
BRANCH   1  15
ATOM     15  C   UNL     1      12.910  22.498 -12.608  1.00  0.00     0.000 C 
BRANCH  15  16
ATOM     16  C   UNL     1      11.775  22.738 -13.618  1.00  0.00     0.000 C 
BRANCH  16  17
ATOM     17  C   UNL     1      10.861  23.907 -13.212  1.00  0.00     0.000 C 
BRANCH  17  18
ATOM     18  C   UNL     1      10.068  23.617 -11.926  1.00  0.00    -0.000 C 
BRANCH  18  19
ATOM     19  C   UNL     1      10.315  24.671 -10.833  1.00  0.00    -0.000 C 
BRANCH  19  20
ATOM     20  C   UNL     1      11.320  25.755 -11.265  1.00  0.00    -0.000 C 
BRANCH  20  21
ATOM     21  C   UNL     1      12.680  25.718 -10.538  1.00  0.00    -0.000 C 
BRANCH  21  22
ATOM     22  C   UNL     1      12.863  26.781  -9.438  1.00  0.00    -0.000 C 
BRANCH  22  23
ATOM     23  C   UNL     1      12.669  26.215  -8.024  1.00  0.00    -0.000 C 
BRANCH  23  24
ATOM     24  C   UNL     1      14.018  25.831  -7.398  1.00  0.00    -0.000 C 
BRANCH  24  25
ATOM     25  C   UNL     1      15.208  26.511  -8.093  1.00  0.00    -0.003 C 
ATOM     26  C   UNL     1      16.335  26.867  -7.124  1.00  0.00     0.004 C 
ENDBRANCH  24  25
ENDBRANCH  23  24
ENDBRANCH  22  23
ENDBRANCH  21  22
ENDBRANCH  20  21
ENDBRANCH  19  20
ENDBRANCH  18  19
ENDBRANCH  17  18
ENDBRANCH  16  17
ENDBRANCH  15  16
ENDBRANCH   1  15
TORSDOF 22
ENDMDL
MODEL 5
REMARK VINA RESULT:    -4.359      3.668     10.290
REMARK INTER + INTRA:         -12.177
REMARK INTER:                  -9.674
REMARK INTRA:                  -2.503
REMARK UNBOUND:                -2.213
REMARK SMILES CCCCCCCCCCCCCCCCCCCCCCCC(=O)[O-]
REMARK SMILES IDX 13 1 14 2 15 3 16 4 17 5 18 6 19 7 20 8 21 9 22 10 23 11
REMARK SMILES IDX 24 12 25 13 26 14 12 15 11 16 10 17 9 18 8 19 7 20 6 21 5 22
REMARK SMILES IDX 4 23 3 24 2 25 1 26
REMARK H PARENT
REMARK Flexibility Score: inf
ROOT
ATOM      1  C   UNL     1      13.397  22.957 -12.648  1.00  0.00     0.000 C 
ENDROOT
BRANCH   1   2
ATOM      2  C   UNL     1      14.824  23.513 -12.776  1.00  0.00     0.000 C 
BRANCH   2   3
ATOM      3  C   UNL     1      15.878  22.410 -12.957  1.00  0.00     0.000 C 
BRANCH   3   4
ATOM      4  C   UNL     1      15.578  21.209 -12.052  1.00  0.00     0.000 C 
BRANCH   4   5
ATOM      5  C   UNL     1      16.627  20.103 -12.237  1.00  0.00     0.000 C 
BRANCH   5   6
ATOM      6  C   UNL     1      17.618  20.414 -13.371  1.00  0.00     0.000 C 
BRANCH   6   7
ATOM      7  C   UNL     1      18.179  19.142 -14.030  1.00  0.00     0.000 C 
BRANCH   7   8
ATOM      8  C   UNL     1      19.478  18.654 -13.368  1.00  0.00     0.000 C 
BRANCH   8   9
ATOM      9  C   UNL     1      19.235  17.508 -12.372  1.00  0.00     0.000 C 
BRANCH   9  10
ATOM     10  C   UNL     1      19.406  17.939 -10.902  1.00  0.00     0.006 C 
BRANCH  10  11
ATOM     11  C   UNL     1      20.862  17.893 -10.402  1.00  0.00     0.053 C 
BRANCH  11  12
ATOM     12  C   UNL     1      21.189  16.614  -9.692  1.00  0.00     0.041 C 
ATOM     13  O   UNL     1      21.619  16.636  -8.509  1.00  0.00    -0.550 OA
ATOM     14  O   UNL     1      20.993  15.395 -10.329  1.00  0.00    -0.550 OA
ENDBRANCH  11  12
ENDBRANCH  10  11
ENDBRANCH   9  10
ENDBRANCH   8   9
ENDBRANCH   7   8
ENDBRANCH   6   7
ENDBRANCH   5   6
ENDBRANCH   4   5
ENDBRANCH   3   4
ENDBRANCH   2   3
ENDBRANCH   1   2
BRANCH   1  15
ATOM     15  C   UNL     1      12.536  23.252 -13.888  1.00  0.00     0.000 C 
BRANCH  15  16
ATOM     16  C   UNL     1      11.029  23.117 -13.607  1.00  0.00     0.000 C 
BRANCH  16  17
ATOM     17  C   UNL     1      10.706  23.133 -12.103  1.00  0.00     0.000 C 
BRANCH  17  18
ATOM     18  C   UNL     1       9.280  23.630 -11.811  1.00  0.00    -0.000 C 
BRANCH  18  19
ATOM     19  C   UNL     1       9.246  24.709 -10.716  1.00  0.00    -0.000 C 
BRANCH  19  20
ATOM     20  C   UNL     1      10.234  25.861 -10.981  1.00  0.00    -0.000 C 
BRANCH  20  21
ATOM     21  C   UNL     1      11.408  25.963  -9.986  1.00  0.00    -0.000 C 
BRANCH  21  22
ATOM     22  C   UNL     1      12.810  25.851 -10.614  1.00  0.00    -0.000 C 
BRANCH  22  23
ATOM     23  C   UNL     1      13.197  27.089 -11.436  1.00  0.00    -0.000 C 
BRANCH  23  24
ATOM     24  C   UNL     1      13.136  26.788 -12.941  1.00  0.00    -0.000 C 
BRANCH  24  25
ATOM     25  C   UNL     1      14.445  27.135 -13.667  1.00  0.00    -0.003 C 
ATOM     26  C   UNL     1      15.654  27.150 -12.733  1.00  0.00     0.004 C 
ENDBRANCH  24  25
ENDBRANCH  23  24
ENDBRANCH  22  23
ENDBRANCH  21  22
ENDBRANCH  20  21
ENDBRANCH  19  20
ENDBRANCH  18  19
ENDBRANCH  17  18
ENDBRANCH  16  17
ENDBRANCH  15  16
ENDBRANCH   1  15
TORSDOF 22
ENDMDL
MODEL 6
REMARK VINA RESULT:    -4.350      1.330      2.797
REMARK INTER + INTRA:         -12.157
REMARK INTER:                  -9.979
REMARK INTRA:                  -2.178
REMARK UNBOUND:                -2.213
REMARK SMILES CCCCCCCCCCCCCCCCCCCCCCCC(=O)[O-]
REMARK SMILES IDX 13 1 14 2 15 3 16 4 17 5 18 6 19 7 20 8 21 9 22 10 23 11
REMARK SMILES IDX 24 12 25 13 26 14 12 15 11 16 10 17 9 18 8 19 7 20 6 21 5 22
REMARK SMILES IDX 4 23 3 24 2 25 1 26
REMARK H PARENT
REMARK Flexibility Score: inf
ROOT
ATOM      1  C   UNL     1      13.280  21.630 -12.388  1.00  0.00     0.000 C 
ENDROOT
BRANCH   1   2
ATOM      2  C   UNL     1      12.886  22.983 -13.000  1.00  0.00     0.000 C 
BRANCH   2   3
ATOM      3  C   UNL     1      11.842  22.849 -14.119  1.00  0.00     0.000 C 
BRANCH   3   4
ATOM      4  C   UNL     1      10.666  23.806 -13.891  1.00  0.00     0.000 C 
BRANCH   4   5
ATOM      5  C   UNL     1       9.984  23.531 -12.543  1.00  0.00     0.000 C 
BRANCH   5   6
ATOM      6  C   UNL     1       9.809  24.804 -11.699  1.00  0.00     0.000 C 
BRANCH   6   7
ATOM      7  C   UNL     1      10.967  25.021 -10.710  1.00  0.00     0.000 C 
BRANCH   7   8
ATOM      8  C   UNL     1      11.919  26.145 -11.151  1.00  0.00     0.000 C 
BRANCH   8   9
ATOM      9  C   UNL     1      13.399  25.748 -11.017  1.00  0.00     0.000 C 
BRANCH   9  10
ATOM     10  C   UNL     1      14.011  26.153  -9.662  1.00  0.00     0.006 C 
BRANCH  10  11
ATOM     11  C   UNL     1      13.032  26.890  -8.728  1.00  0.00     0.053 C 
BRANCH  11  12
ATOM     12  C   UNL     1      12.733  26.118  -7.479  1.00  0.00     0.041 C 
ATOM     13  O   UNL     1      11.566  26.100  -7.008  1.00  0.00    -0.550 OA
ATOM     14  O   UNL     1      13.740  25.397  -6.849  1.00  0.00    -0.550 OA
ENDBRANCH  11  12
ENDBRANCH  10  11
ENDBRANCH   9  10
ENDBRANCH   8   9
ENDBRANCH   7   8
ENDBRANCH   6   7
ENDBRANCH   5   6
ENDBRANCH   4   5
ENDBRANCH   3   4
ENDBRANCH   2   3
ENDBRANCH   1   2
BRANCH   1  15
ATOM     15  C   UNL     1      14.720  21.624 -11.846  1.00  0.00     0.000 C 
BRANCH  15  16
ATOM     16  C   UNL     1      15.698  22.384 -12.759  1.00  0.00     0.000 C 
BRANCH  16  17
ATOM     17  C   UNL     1      17.014  21.619 -12.979  1.00  0.00     0.000 C 
BRANCH  17  18
ATOM     18  C   UNL     1      16.876  20.112 -12.701  1.00  0.00    -0.000 C 
BRANCH  18  19
ATOM     19  C   UNL     1      17.482  19.250 -13.821  1.00  0.00    -0.000 C 
BRANCH  19  20
ATOM     20  C   UNL     1      18.977  19.537 -14.053  1.00  0.00    -0.000 C 
BRANCH  20  21
ATOM     21  C   UNL     1      19.943  18.442 -13.557  1.00  0.00    -0.000 C 
BRANCH  21  22
ATOM     22  C   UNL     1      19.272  17.123 -13.129  1.00  0.00    -0.000 C 
BRANCH  22  23
ATOM     23  C   UNL     1      19.679  16.676 -11.718  1.00  0.00    -0.000 C 
BRANCH  23  24
ATOM     24  C   UNL     1      19.715  17.872 -10.754  1.00  0.00    -0.000 C 
BRANCH  24  25
ATOM     25  C   UNL     1      21.009  17.926  -9.926  1.00  0.00    -0.003 C 
ATOM     26  C   UNL     1      22.157  17.150 -10.571  1.00  0.00     0.004 C 
ENDBRANCH  24  25
ENDBRANCH  23  24
ENDBRANCH  22  23
ENDBRANCH  21  22
ENDBRANCH  20  21
ENDBRANCH  19  20
ENDBRANCH  18  19
ENDBRANCH  17  18
ENDBRANCH  16  17
ENDBRANCH  15  16
ENDBRANCH   1  15
TORSDOF 22
ENDMDL
MODEL 7
REMARK VINA RESULT:    -4.347      1.343      2.234
REMARK INTER + INTRA:         -12.150
REMARK INTER:                 -10.017
REMARK INTRA:                  -2.133
REMARK UNBOUND:                -2.213
REMARK SMILES CCCCCCCCCCCCCCCCCCCCCCCC(=O)[O-]
REMARK SMILES IDX 13 1 14 2 15 3 16 4 17 5 18 6 19 7 20 8 21 9 22 10 23 11
REMARK SMILES IDX 24 12 25 13 26 14 12 15 11 16 10 17 9 18 8 19 7 20 6 21 5 22
REMARK SMILES IDX 4 23 3 24 2 25 1 26
REMARK H PARENT
REMARK Flexibility Score: inf
ROOT
ATOM      1  C   UNL     1      15.179  21.551 -12.076  1.00  0.00     0.000 C 
ENDROOT
BRANCH   1   2
ATOM      2  C   UNL     1      15.602  22.802 -12.862  1.00  0.00     0.000 C 
BRANCH   2   3
ATOM      3  C   UNL     1      14.432  23.461 -13.608  1.00  0.00     0.000 C 
BRANCH   3   4
ATOM      4  C   UNL     1      13.322  23.872 -12.634  1.00  0.00     0.000 C 
BRANCH   4   5
ATOM      5  C   UNL     1      13.858  24.829 -11.559  1.00  0.00     0.000 C 
BRANCH   5   6
ATOM      6  C   UNL     1      14.297  26.183 -12.140  1.00  0.00     0.000 C 
BRANCH   6   7
ATOM      7  C   UNL     1      15.779  26.492 -11.861  1.00  0.00     0.000 C 
BRANCH   7   8
ATOM      8  C   UNL     1      16.100  26.540 -10.358  1.00  0.00     0.000 C 
BRANCH   8   9
ATOM      9  C   UNL     1      15.411  27.716  -9.647  1.00  0.00     0.000 C 
BRANCH   9  10
ATOM     10  C   UNL     1      14.365  27.264  -8.609  1.00  0.00     0.006 C 
BRANCH  10  11
ATOM     11  C   UNL     1      14.889  26.217  -7.609  1.00  0.00     0.053 C 
BRANCH  11  12
ATOM     12  C   UNL     1      13.957  26.002  -6.456  1.00  0.00     0.041 C 
ATOM     13  O   UNL     1      12.748  25.716  -6.660  1.00  0.00    -0.550 OA
ATOM     14  O   UNL     1      14.430  26.093  -5.152  1.00  0.00    -0.550 OA
ENDBRANCH  11  12
ENDBRANCH  10  11
ENDBRANCH   9  10
ENDBRANCH   8   9
ENDBRANCH   7   8
ENDBRANCH   6   7
ENDBRANCH   5   6
ENDBRANCH   4   5
ENDBRANCH   3   4
ENDBRANCH   2   3
ENDBRANCH   1   2
BRANCH   1  15
ATOM     15  C   UNL     1      16.176  20.390 -12.232  1.00  0.00     0.000 C 
BRANCH  15  16
ATOM     16  C   UNL     1      17.380  20.760 -13.114  1.00  0.00     0.000 C 
BRANCH  16  17
ATOM     17  C   UNL     1      17.881  19.575 -13.957  1.00  0.00     0.000 C 
BRANCH  17  18
ATOM     18  C   UNL     1      19.261  19.068 -13.503  1.00  0.00    -0.000 C 
BRANCH  18  19
ATOM     19  C   UNL     1      19.301  17.540 -13.336  1.00  0.00    -0.000 C 
BRANCH  19  20
ATOM     20  C   UNL     1      19.241  17.099 -11.861  1.00  0.00    -0.000 C 
BRANCH  20  21
ATOM     21  C   UNL     1      19.464  18.223 -10.829  1.00  0.00    -0.000 C 
BRANCH  21  22
ATOM     22  C   UNL     1      20.737  18.083  -9.974  1.00  0.00    -0.000 C 
BRANCH  22  23
ATOM     23  C   UNL     1      21.746  17.087 -10.564  1.00  0.00    -0.000 C 
BRANCH  23  24
ATOM     24  C   UNL     1      22.090  15.989  -9.546  1.00  0.00    -0.000 C 
BRANCH  24  25
ATOM     25  C   UNL     1      21.134  14.789  -9.625  1.00  0.00    -0.003 C 
ATOM     26  C   UNL     1      21.216  14.053 -10.962  1.00  0.00     0.004 C 
ENDBRANCH  24  25
ENDBRANCH  23  24
ENDBRANCH  22  23
ENDBRANCH  21  22
ENDBRANCH  20  21
ENDBRANCH  19  20
ENDBRANCH  18  19
ENDBRANCH  17  18
ENDBRANCH  16  17
ENDBRANCH  15  16
ENDBRANCH   1  15
TORSDOF 22
ENDMDL
MODEL 8
REMARK VINA RESULT:    -4.335      3.588     10.397
REMARK INTER + INTRA:         -12.124
REMARK INTER:                  -9.060
REMARK INTRA:                  -3.064
REMARK UNBOUND:                -2.213
REMARK SMILES CCCCCCCCCCCCCCCCCCCCCCCC(=O)[O-]
REMARK SMILES IDX 13 1 14 2 15 3 16 4 17 5 18 6 19 7 20 8 21 9 22 10 23 11
REMARK SMILES IDX 24 12 25 13 26 14 12 15 11 16 10 17 9 18 8 19 7 20 6 21 5 22
REMARK SMILES IDX 4 23 3 24 2 25 1 26
REMARK H PARENT
REMARK Flexibility Score: inf
ROOT
ATOM      1  C   UNL     1      11.791  23.229 -12.009  1.00  0.00     0.000 C 
ENDROOT
BRANCH   1   2
ATOM      2  C   UNL     1      12.171  22.824 -13.442  1.00  0.00     0.000 C 
BRANCH   2   3
ATOM      3  C   UNL     1      13.503  23.438 -13.900  1.00  0.00     0.000 C 
BRANCH   3   4
ATOM      4  C   UNL     1      14.473  23.587 -12.722  1.00  0.00     0.000 C 
BRANCH   4   5
ATOM      5  C   UNL     1      15.597  22.544 -12.798  1.00  0.00     0.000 C 
BRANCH   5   6
ATOM      6  C   UNL     1      15.263  21.260 -12.022  1.00  0.00     0.000 C 
BRANCH   6   7
ATOM      7  C   UNL     1      16.328  20.164 -12.207  1.00  0.00     0.000 C 
BRANCH   7   8
ATOM      8  C   UNL     1      17.385  20.539 -13.258  1.00  0.00     0.000 C 
BRANCH   8   9
ATOM      9  C   UNL     1      18.719  19.804 -13.039  1.00  0.00     0.000 C 
BRANCH   9  10
ATOM     10  C   UNL     1      18.582  18.563 -12.135  1.00  0.00     0.006 C 
BRANCH  10  11
ATOM     11  C   UNL     1      19.765  17.583 -12.235  1.00  0.00     0.053 C 
BRANCH  11  12
ATOM     12  C   UNL     1      20.242  17.114 -10.895  1.00  0.00     0.041 C 
ATOM     13  O   UNL     1      20.068  17.828  -9.872  1.00  0.00    -0.550 OA
ATOM     14  O   UNL     1      20.856  15.873 -10.769  1.00  0.00    -0.550 OA
ENDBRANCH  11  12
ENDBRANCH  10  11
ENDBRANCH   9  10
ENDBRANCH   8   9
ENDBRANCH   7   8
ENDBRANCH   6   7
ENDBRANCH   5   6
ENDBRANCH   4   5
ENDBRANCH   3   4
ENDBRANCH   2   3
ENDBRANCH   1   2
BRANCH   1  15
ATOM     15  C   UNL     1      10.278  23.120 -11.746  1.00  0.00     0.000 C 
BRANCH  15  16
ATOM     16  C   UNL     1       9.674  24.432 -11.218  1.00  0.00     0.000 C 
BRANCH  16  17
ATOM     17  C   UNL     1       9.223  25.372 -12.349  1.00  0.00     0.000 C 
BRANCH  17  18
ATOM     18  C   UNL     1       9.849  26.773 -12.238  1.00  0.00    -0.000 C 
BRANCH  18  19
ATOM     19  C   UNL     1      11.288  26.819 -12.779  1.00  0.00    -0.000 C 
BRANCH  19  20
ATOM     20  C   UNL     1      12.261  27.541 -11.827  1.00  0.00    -0.000 C 
BRANCH  20  21
ATOM     21  C   UNL     1      13.545  26.760 -11.482  1.00  0.00    -0.000 C 
BRANCH  21  22
ATOM     22  C   UNL     1      13.542  26.073 -10.104  1.00  0.00    -0.000 C 
BRANCH  22  23
ATOM     23  C   UNL     1      12.744  26.852  -9.049  1.00  0.00    -0.000 C 
BRANCH  23  24
ATOM     24  C   UNL     1      11.628  25.981  -8.453  1.00  0.00    -0.000 C 
BRANCH  24  25
ATOM     25  C   UNL     1      10.261  26.682  -8.462  1.00  0.00    -0.003 C 
ATOM     26  C   UNL     1       9.141  25.801  -7.910  1.00  0.00     0.004 C 
ENDBRANCH  24  25
ENDBRANCH  23  24
ENDBRANCH  22  23
ENDBRANCH  21  22
ENDBRANCH  20  21
ENDBRANCH  19  20
ENDBRANCH  18  19
ENDBRANCH  17  18
ENDBRANCH  16  17
ENDBRANCH  15  16
ENDBRANCH   1  15
TORSDOF 22
ENDMDL
MODEL 9
REMARK VINA RESULT:    -4.328     10.117     11.514
REMARK INTER + INTRA:         -12.106
REMARK INTER:                  -9.213
REMARK INTRA:                  -2.893
REMARK UNBOUND:                -2.213
REMARK SMILES CCCCCCCCCCCCCCCCCCCCCCCC(=O)[O-]
REMARK SMILES IDX 13 1 14 2 15 3 16 4 17 5 18 6 19 7 20 8 21 9 22 10 23 11
REMARK SMILES IDX 24 12 25 13 26 14 12 15 11 16 10 17 9 18 8 19 7 20 6 21 5 22
REMARK SMILES IDX 4 23 3 24 2 25 1 26
REMARK H PARENT
REMARK Flexibility Score: inf
ROOT
ATOM      1  C   UNL     1      12.245  12.502 -10.897  1.00  0.00     0.000 C 
ENDROOT
BRANCH   1   2
ATOM      2  C   UNL     1      10.972  13.180 -10.369  1.00  0.00     0.000 C 
BRANCH   2   3
ATOM      3  C   UNL     1       9.686  12.506 -10.872  1.00  0.00     0.000 C 
BRANCH   3   4
ATOM      4  C   UNL     1       8.461  13.386 -10.597  1.00  0.00     0.000 C 
BRANCH   4   5
ATOM      5  C   UNL     1       8.860  14.672  -9.857  1.00  0.00     0.000 C 
BRANCH   5   6
ATOM      6  C   UNL     1       7.742  15.196  -8.941  1.00  0.00     0.000 C 
BRANCH   6   7
ATOM      7  C   UNL     1       7.077  14.076  -8.122  1.00  0.00     0.000 C 
BRANCH   7   8
ATOM      8  C   UNL     1       5.567  14.298  -7.932  1.00  0.00     0.000 C 
BRANCH   8   9
ATOM      9  C   UNL     1       5.134  15.730  -8.290  1.00  0.00     0.000 C 
BRANCH   9  10
ATOM     10  C   UNL     1       4.431  16.455  -7.126  1.00  0.00     0.006 C 
BRANCH  10  11
ATOM     11  C   UNL     1       5.047  17.823  -6.778  1.00  0.00     0.053 C 
BRANCH  11  12
ATOM     12  C   UNL     1       6.188  17.714  -5.813  1.00  0.00     0.041 C 
ATOM     13  O   UNL     1       7.259  17.147  -6.157  1.00  0.00    -0.550 OA
ATOM     14  O   UNL     1       6.079  18.263  -4.541  1.00  0.00    -0.550 OA
ENDBRANCH  11  12
ENDBRANCH  10  11
ENDBRANCH   9  10
ENDBRANCH   8   9
ENDBRANCH   7   8
ENDBRANCH   6   7
ENDBRANCH   5   6
ENDBRANCH   4   5
ENDBRANCH   3   4
ENDBRANCH   2   3
ENDBRANCH   1   2
BRANCH   1  15
ATOM     15  C   UNL     1      12.066  10.988 -11.103  1.00  0.00     0.000 C 
BRANCH  15  16
ATOM     16  C   UNL     1      13.273  10.177 -10.602  1.00  0.00     0.000 C 
BRANCH  16  17
ATOM     17  C   UNL     1      14.612  10.889 -10.862  1.00  0.00     0.000 C 
BRANCH  17  18
ATOM     18  C   UNL     1      15.788  10.221 -10.131  1.00  0.00    -0.000 C 
BRANCH  18  19
ATOM     19  C   UNL     1      16.299  11.060  -8.948  1.00  0.00    -0.000 C 
BRANCH  19  20
ATOM     20  C   UNL     1      15.352  12.218  -8.584  1.00  0.00    -0.000 C 
BRANCH  20  21
ATOM     21  C   UNL     1      15.141  12.448  -7.073  1.00  0.00    -0.000 C 
BRANCH  21  22
ATOM     22  C   UNL     1      13.730  12.914  -6.673  1.00  0.00    -0.000 C 
BRANCH  22  23
ATOM     23  C   UNL     1      12.619  12.049  -7.286  1.00  0.00    -0.000 C 
BRANCH  23  24
ATOM     24  C   UNL     1      11.553  11.702  -6.236  1.00  0.00    -0.000 C 
BRANCH  24  25
ATOM     25  C   UNL     1      10.150  11.550  -6.844  1.00  0.00    -0.003 C 
ATOM     26  C   UNL     1      10.085  10.464  -7.918  1.00  0.00     0.004 C 
ENDBRANCH  24  25
ENDBRANCH  23  24
ENDBRANCH  22  23
ENDBRANCH  21  22
ENDBRANCH  20  21
ENDBRANCH  19  20
ENDBRANCH  18  19
ENDBRANCH  17  18
ENDBRANCH  16  17
ENDBRANCH  15  16
ENDBRANCH   1  15
TORSDOF 22
ENDMDL
