MODEL 1
REMARK VINA RESULT:    -5.083      0.000      0.000
REMARK INTER + INTRA:          -6.107
REMARK INTER:                  -5.974
REMARK INTRA:                  -0.133
REMARK UNBOUND:                -0.133
REMARK SMILES O=C([O-])C=Cc1ccc(O)c(O)c1
REMARK SMILES IDX 6 1 13 2 7 3 11 4 8 5 9 6 5 7 4 8 2 9 1 10 3 11 12 12 10 14
REMARK H PARENT 12 13 10 15
REMARK Flexibility Score: inf
ROOT
ATOM      1  C   UNL     1      19.566  -0.959 -18.276  1.00  0.00    -0.022 A 
ATOM      2  C   UNL     1      19.019  -0.921 -19.570  1.00  0.00     0.058 A 
ATOM      3  C   UNL     1      20.805  -0.331 -18.044  1.00  0.00     0.012 A 
ATOM      4  C   UNL     1      19.681  -0.250 -20.608  1.00  0.00     0.157 A 
ATOM      5  C   UNL     1      21.465   0.338 -19.078  1.00  0.00     0.051 A 
ATOM      6  C   UNL     1      20.905   0.384 -20.361  1.00  0.00     0.157 A 
ENDROOT
BRANCH   1   7
ATOM      7  C   UNL     1      18.831  -1.691 -17.215  1.00  0.00     0.010 C 
ATOM      8  C   UNL     1      18.396  -1.123 -16.082  1.00  0.00     0.025 C 
BRANCH   8   9
ATOM      9  C   UNL     1      17.661  -1.887 -15.061  1.00  0.00     0.064 C 
ATOM     10  O   UNL     1      18.134  -2.974 -14.638  1.00  0.00    -0.545 OA
ATOM     11  O   UNL     1      16.449  -1.427 -14.556  1.00  0.00    -0.545 OA
ENDBRANCH   8   9
ENDBRANCH   1   7
BRANCH   4  12
ATOM     12  O   UNL     1      19.127  -0.207 -21.886  1.00  0.00    -0.504 OA
ATOM     13  H   UNL     1      18.234  -0.638 -22.092  1.00  0.00     0.293 HD
ENDBRANCH   4  12
BRANCH   6  14
ATOM     14  O   UNL     1      21.559   1.050 -21.395  1.00  0.00    -0.504 OA
ATOM     15  H   UNL     1      22.330   1.684 -21.213  1.00  0.00     0.293 HD
ENDBRANCH   6  14
TORSDOF 4
ENDMDL
MODEL 2
REMARK VINA RESULT:    -5.076     14.048     17.354
REMARK INTER + INTRA:          -6.099
REMARK INTER:                  -5.966
REMARK INTRA:                  -0.133
REMARK UNBOUND:                -0.133
REMARK SMILES O=C([O-])C=Cc1ccc(O)c(O)c1
REMARK SMILES IDX 6 1 13 2 7 3 11 4 8 5 9 6 5 7 4 8 2 9 1 10 3 11 12 12 10 14
REMARK H PARENT 12 13 10 15
REMARK Flexibility Score: inf
ROOT
ATOM      1  C   UNL     1       7.853  -6.931  -7.831  1.00  0.00    -0.022 A 
ATOM      2  C   UNL     1       7.840  -5.758  -7.056  1.00  0.00     0.058 A 
ATOM      3  C   UNL     1       7.869  -8.177  -7.175  1.00  0.00     0.012 A 
ATOM      4  C   UNL     1       7.817  -5.825  -5.656  1.00  0.00     0.157 A 
ATOM      5  C   UNL     1       7.848  -8.244  -5.780  1.00  0.00     0.051 A 
ATOM      6  C   UNL     1       7.818  -7.070  -5.016  1.00  0.00     0.157 A 
ENDROOT
BRANCH   1   7
ATOM      7  C   UNL     1       7.886  -6.805  -9.309  1.00  0.00     0.010 C 
ATOM      8  C   UNL     1       8.322  -5.714  -9.954  1.00  0.00     0.025 C 
BRANCH   8   9
ATOM      9  C   UNL     1       8.347  -5.638 -11.423  1.00  0.00     0.064 C 
ATOM     10  O   UNL     1       8.826  -6.595 -12.087  1.00  0.00    -0.545 OA
ATOM     11  O   UNL     1       7.851  -4.524 -12.093  1.00  0.00    -0.545 OA
ENDBRANCH   8   9
ENDBRANCH   1   7
BRANCH   4  12
ATOM     12  O   UNL     1       7.793  -4.658  -4.894  1.00  0.00    -0.504 OA
ATOM     13  H   UNL     1       7.202  -3.874  -5.143  1.00  0.00     0.293 HD
ENDBRANCH   4  12
BRANCH   6  14
ATOM     14  O   UNL     1       7.796  -7.133  -3.624  1.00  0.00    -0.504 OA
ATOM     15  H   UNL     1       8.652  -7.169  -3.082  1.00  0.00     0.293 HD
ENDBRANCH   6  14
TORSDOF 4
ENDMDL
MODEL 3
REMARK VINA RESULT:    -4.917     13.240     16.146
REMARK INTER + INTRA:          -5.913
REMARK INTER:                  -5.777
REMARK INTRA:                  -0.136
REMARK UNBOUND:                -0.133
REMARK SMILES O=C([O-])C=Cc1ccc(O)c(O)c1
REMARK SMILES IDX 6 1 13 2 7 3 11 4 8 5 9 6 5 7 4 8 2 9 1 10 3 11 12 12 10 14
REMARK H PARENT 12 13 10 15
REMARK Flexibility Score: inf
ROOT
ATOM      1  C   UNL     1       9.238  -6.872  -8.101  1.00  0.00    -0.022 A 
ATOM      2  C   UNL     1      10.165  -6.163  -7.319  1.00  0.00     0.058 A 
ATOM      3  C   UNL     1       7.879  -6.845  -7.734  1.00  0.00     0.012 A 
ATOM      4  C   UNL     1       9.744  -5.420  -6.207  1.00  0.00     0.157 A 
ATOM      5  C   UNL     1       7.460  -6.105  -6.626  1.00  0.00     0.051 A 
ATOM      6  C   UNL     1       8.388  -5.388  -5.861  1.00  0.00     0.157 A 
ENDROOT
BRANCH   1   7
ATOM      7  C   UNL     1       9.737  -7.651  -9.261  1.00  0.00     0.010 C 
ATOM      8  C   UNL     1      10.976  -7.536  -9.759  1.00  0.00     0.025 C 
BRANCH   8   9
ATOM      9  C   UNL     1      11.431  -8.337 -10.906  1.00  0.00     0.064 C 
ATOM     10  O   UNL     1      10.608  -9.066 -11.520  1.00  0.00    -0.545 OA
ATOM     11  O   UNL     1      12.757  -8.305 -11.323  1.00  0.00    -0.545 OA
ENDBRANCH   8   9
ENDBRANCH   1   7
BRANCH   4  12
ATOM     12  O   UNL     1      10.668  -4.710  -5.442  1.00  0.00    -0.504 OA
ATOM     13  H   UNL     1      11.568  -5.105  -5.194  1.00  0.00     0.293 HD
ENDBRANCH   4  12
BRANCH   6  14
ATOM     14  O   UNL     1       7.973  -4.648  -4.756  1.00  0.00    -0.504 OA
ATOM     15  H   UNL     1       7.461  -3.779  -4.861  1.00  0.00     0.293 HD
ENDBRANCH   6  14
TORSDOF 4
ENDMDL
MODEL 4
REMARK VINA RESULT:    -4.905      0.801      2.092
REMARK INTER + INTRA:          -5.898
REMARK INTER:                  -5.771
REMARK INTRA:                  -0.127
REMARK UNBOUND:                -0.133
REMARK SMILES O=C([O-])C=Cc1ccc(O)c(O)c1
REMARK SMILES IDX 6 1 13 2 7 3 11 4 8 5 9 6 5 7 4 8 2 9 1 10 3 11 12 12 10 14
REMARK H PARENT 12 13 10 15
REMARK Flexibility Score: inf
ROOT
ATOM      1  C   UNL     1      19.452  -1.045 -18.291  1.00  0.00    -0.022 A 
ATOM      2  C   UNL     1      20.621  -0.322 -18.000  1.00  0.00     0.058 A 
ATOM      3  C   UNL     1      18.988  -1.079 -19.621  1.00  0.00     0.012 A 
ATOM      4  C   UNL     1      21.329   0.335 -19.016  1.00  0.00     0.157 A 
ATOM      5  C   UNL     1      19.694  -0.424 -20.633  1.00  0.00     0.051 A 
ATOM      6  C   UNL     1      20.867   0.281 -20.336  1.00  0.00     0.157 A 
ENDROOT
BRANCH   1   7
ATOM      7  C   UNL     1      18.734  -1.713 -17.178  1.00  0.00     0.010 C 
ATOM      8  C   UNL     1      18.374  -1.094 -16.045  1.00  0.00     0.025 C 
BRANCH   8   9
ATOM      9  C   UNL     1      17.653  -1.794 -14.971  1.00  0.00     0.064 C 
ATOM     10  O   UNL     1      16.509  -1.395 -14.628  1.00  0.00    -0.545 OA
ATOM     11  O   UNL     1      18.215  -2.891 -14.326  1.00  0.00    -0.545 OA
ENDBRANCH   8   9
ENDBRANCH   1   7
BRANCH   4  12
ATOM     12  O   UNL     1      22.494   1.041 -18.721  1.00  0.00    -0.504 OA
ATOM     13  H   UNL     1      23.406   0.702 -19.004  1.00  0.00     0.293 HD
ENDBRANCH   4  12
BRANCH   6  14
ATOM     14  O   UNL     1      21.573   0.934 -21.344  1.00  0.00    -0.504 OA
ATOM     15  H   UNL     1      21.537   1.942 -21.449  1.00  0.00     0.293 HD
ENDBRANCH   6  14
TORSDOF 4
ENDMDL
MODEL 5
REMARK VINA RESULT:    -4.806     12.487     17.003
REMARK INTER + INTRA:          -5.782
REMARK INTER:                  -5.650
REMARK INTRA:                  -0.132
REMARK UNBOUND:                -0.133
REMARK SMILES O=C([O-])C=Cc1ccc(O)c(O)c1
REMARK SMILES IDX 6 1 13 2 7 3 11 4 8 5 9 6 5 7 4 8 2 9 1 10 3 11 12 12 10 14
REMARK H PARENT 12 13 10 15
REMARK Flexibility Score: inf
ROOT
ATOM      1  C   UNL     1       9.170  -6.569  -7.253  1.00  0.00    -0.022 A 
ATOM      2  C   UNL     1       8.938  -5.663  -6.205  1.00  0.00     0.058 A 
ATOM      3  C   UNL     1       8.744  -7.903  -7.104  1.00  0.00     0.012 A 
ATOM      4  C   UNL     1       8.273  -6.069  -5.040  1.00  0.00     0.157 A 
ATOM      5  C   UNL     1       8.081  -8.308  -5.942  1.00  0.00     0.051 A 
ATOM      6  C   UNL     1       7.840  -7.394  -4.909  1.00  0.00     0.157 A 
ENDROOT
BRANCH   1   7
ATOM      7  C   UNL     1       9.887  -6.090  -8.461  1.00  0.00     0.010 C 
ATOM      8  C   UNL     1      11.070  -6.573  -8.865  1.00  0.00     0.025 C 
BRANCH   8   9
ATOM      9  C   UNL     1      11.741  -6.075 -10.076  1.00  0.00     0.064 C 
ATOM     10  O   UNL     1      12.897  -5.586  -9.989  1.00  0.00    -0.545 OA
ATOM     11  O   UNL     1      11.117  -6.136 -11.318  1.00  0.00    -0.545 OA
ENDBRANCH   8   9
ENDBRANCH   1   7
BRANCH   4  12
ATOM     12  O   UNL     1       8.037  -5.162  -4.008  1.00  0.00    -0.504 OA
ATOM     13  H   UNL     1       7.142  -5.116  -3.536  1.00  0.00     0.293 HD
ENDBRANCH   4  12
BRANCH   6  14
ATOM     14  O   UNL     1       7.179  -7.795  -3.750  1.00  0.00    -0.504 OA
ATOM     15  H   UNL     1       6.191  -8.024  -3.756  1.00  0.00     0.293 HD
ENDBRANCH   6  14
TORSDOF 4
ENDMDL
MODEL 6
REMARK VINA RESULT:    -4.717     10.165     11.110
REMARK INTER + INTRA:          -5.678
REMARK INTER:                  -5.540
REMARK INTRA:                  -0.137
REMARK UNBOUND:                -0.133
REMARK SMILES O=C([O-])C=Cc1ccc(O)c(O)c1
REMARK SMILES IDX 6 1 13 2 7 3 11 4 8 5 9 6 5 7 4 8 2 9 1 10 3 11 12 12 10 14
REMARK H PARENT 12 13 10 15
REMARK Flexibility Score: inf
ROOT
ATOM      1  C   UNL     1      11.919   5.920 -19.269  1.00  0.00    -0.022 A 
ATOM      2  C   UNL     1      11.199   5.097 -20.152  1.00  0.00     0.058 A 
ATOM      3  C   UNL     1      12.613   5.323 -18.198  1.00  0.00     0.012 A 
ATOM      4  C   UNL     1      11.192   3.705 -19.988  1.00  0.00     0.157 A 
ATOM      5  C   UNL     1      12.605   3.936 -18.035  1.00  0.00     0.051 A 
ATOM      6  C   UNL     1      11.898   3.122 -18.929  1.00  0.00     0.157 A 
ENDROOT
BRANCH   1   7
ATOM      7  C   UNL     1      11.886   7.388 -19.480  1.00  0.00     0.010 C 
ATOM      8  C   UNL     1      12.694   8.250 -18.847  1.00  0.00     0.025 C 
BRANCH   8   9
ATOM      9  C   UNL     1      12.634   9.699 -19.097  1.00  0.00     0.064 C 
ATOM     10  O   UNL     1      13.660  10.301 -19.507  1.00  0.00    -0.545 OA
ATOM     11  O   UNL     1      11.460  10.415 -18.887  1.00  0.00    -0.545 OA
ENDBRANCH   8   9
ENDBRANCH   1   7
BRANCH   4  12
ATOM     12  O   UNL     1      10.484   2.894 -20.874  1.00  0.00    -0.504 OA
ATOM     13  H   UNL     1      10.940   2.153 -21.395  1.00  0.00     0.293 HD
ENDBRANCH   4  12
BRANCH   6  14
ATOM     14  O   UNL     1      11.888   1.738 -18.770  1.00  0.00    -0.504 OA
ATOM     15  H   UNL     1      12.526   1.274 -18.133  1.00  0.00     0.293 HD
ENDBRANCH   6  14
TORSDOF 4
ENDMDL
MODEL 7
REMARK VINA RESULT:    -4.669     14.549     17.832
REMARK INTER + INTRA:          -5.621
REMARK INTER:                  -5.480
REMARK INTRA:                  -0.141
REMARK UNBOUND:                -0.133
REMARK SMILES O=C([O-])C=Cc1ccc(O)c(O)c1
REMARK SMILES IDX 6 1 13 2 7 3 11 4 8 5 9 6 5 7 4 8 2 9 1 10 3 11 12 12 10 14
REMARK H PARENT 12 13 10 15
REMARK Flexibility Score: inf
ROOT
ATOM      1  C   UNL     1       7.999  -6.808  -7.096  1.00  0.00    -0.022 A 
ATOM      2  C   UNL     1       7.560  -7.847  -6.258  1.00  0.00     0.058 A 
ATOM      3  C   UNL     1       8.419  -5.597  -6.513  1.00  0.00     0.012 A 
ATOM      4  C   UNL     1       7.563  -7.693  -4.865  1.00  0.00     0.157 A 
ATOM      5  C   UNL     1       8.422  -5.444  -5.125  1.00  0.00     0.051 A 
ATOM      6  C   UNL     1       7.997  -6.490  -4.296  1.00  0.00     0.157 A 
ENDROOT
BRANCH   1   7
ATOM      7  C   UNL     1       7.966  -7.019  -8.565  1.00  0.00     0.010 C 
ATOM      8  C   UNL     1       8.314  -6.084  -9.460  1.00  0.00     0.025 C 
BRANCH   8   9
ATOM      9  C   UNL     1       8.276  -6.341 -10.908  1.00  0.00     0.064 C 
ATOM     10  O   UNL     1       8.536  -7.494 -11.341  1.00  0.00    -0.545 OA
ATOM     11  O   UNL     1       7.959  -5.330 -11.808  1.00  0.00    -0.545 OA
ENDBRANCH   8   9
ENDBRANCH   1   7
BRANCH   4  12
ATOM     12  O   UNL     1       7.136  -8.732  -4.039  1.00  0.00    -0.504 OA
ATOM     13  H   UNL     1       6.232  -8.708  -3.580  1.00  0.00     0.293 HD
ENDBRANCH   4  12
BRANCH   6  14
ATOM     14  O   UNL     1       8.000  -6.340  -2.911  1.00  0.00    -0.504 OA
ATOM     15  H   UNL     1       7.400  -6.902  -2.316  1.00  0.00     0.293 HD
ENDBRANCH   6  14
TORSDOF 4
ENDMDL
MODEL 8
REMARK VINA RESULT:    -4.597     12.272     15.577
REMARK INTER + INTRA:          -5.536
REMARK INTER:                  -5.395
REMARK INTRA:                  -0.141
REMARK UNBOUND:                -0.133
REMARK SMILES O=C([O-])C=Cc1ccc(O)c(O)c1
REMARK SMILES IDX 6 1 13 2 7 3 11 4 8 5 9 6 5 7 4 8 2 9 1 10 3 11 12 12 10 14
REMARK H PARENT 12 13 10 15
REMARK Flexibility Score: inf
ROOT
ATOM      1  C   UNL     1       9.321  -6.300  -8.978  1.00  0.00    -0.022 A 
ATOM      2  C   UNL     1       8.065  -5.680  -9.086  1.00  0.00     0.058 A 
ATOM      3  C   UNL     1       9.919  -6.407  -7.707  1.00  0.00     0.012 A 
ATOM      4  C   UNL     1       7.404  -5.197  -7.948  1.00  0.00     0.157 A 
ATOM      5  C   UNL     1       9.261  -5.925  -6.573  1.00  0.00     0.051 A 
ATOM      6  C   UNL     1       8.002  -5.322  -6.688  1.00  0.00     0.157 A 
ENDROOT
BRANCH   1   7
ATOM      7  C   UNL     1       9.982  -6.785 -10.215  1.00  0.00     0.010 C 
ATOM      8  C   UNL     1      11.280  -7.112 -10.287  1.00  0.00     0.025 C 
BRANCH   8   9
ATOM      9  C   UNL     1      11.892  -7.600 -11.533  1.00  0.00     0.064 C 
ATOM     10  O   UNL     1      11.154  -7.970 -12.483  1.00  0.00    -0.545 OA
ATOM     11  O   UNL     1      13.273  -7.659 -11.679  1.00  0.00    -0.545 OA
ENDBRANCH   8   9
ENDBRANCH   1   7
BRANCH   4  12
ATOM     12  O   UNL     1       6.153  -4.593  -8.061  1.00  0.00    -0.504 OA
ATOM     13  H   UNL     1       5.825  -3.920  -7.378  1.00  0.00     0.293 HD
ENDBRANCH   4  12
BRANCH   6  14
ATOM     14  O   UNL     1       7.342  -4.841  -5.559  1.00  0.00    -0.504 OA
ATOM     15  H   UNL     1       6.365  -5.050  -5.387  1.00  0.00     0.293 HD
ENDBRANCH   6  14
TORSDOF 4
ENDMDL
MODEL 9
REMARK VINA RESULT:    -4.477      8.707     10.724
REMARK INTER + INTRA:          -5.395
REMARK INTER:                  -5.265
REMARK INTRA:                  -0.130
REMARK UNBOUND:                -0.133
REMARK SMILES O=C([O-])C=Cc1ccc(O)c(O)c1
REMARK SMILES IDX 6 1 13 2 7 3 11 4 8 5 9 6 5 7 4 8 2 9 1 10 3 11 12 12 10 14
REMARK H PARENT 12 13 10 15
REMARK Flexibility Score: inf
ROOT
ATOM      1  C   UNL     1      25.117   7.069 -18.833  1.00  0.00    -0.022 A 
ATOM      2  C   UNL     1      25.085   6.254 -17.689  1.00  0.00     0.058 A 
ATOM      3  C   UNL     1      25.125   8.468 -18.670  1.00  0.00     0.012 A 
ATOM      4  C   UNL     1      25.085   6.820 -16.406  1.00  0.00     0.157 A 
ATOM      5  C   UNL     1      25.125   9.032 -17.392  1.00  0.00     0.051 A 
ATOM      6  C   UNL     1      25.108   8.212 -16.257  1.00  0.00     0.157 A 
ENDROOT
BRANCH   1   7
ATOM      7  C   UNL     1      25.105   6.421 -20.168  1.00  0.00     0.010 C 
ATOM      8  C   UNL     1      23.986   6.065 -20.813  1.00  0.00     0.025 C 
BRANCH   8   9
ATOM      9  C   UNL     1      24.021   5.434 -22.142  1.00  0.00     0.064 C 
ATOM     10  O   UNL     1      25.079   5.480 -22.823  1.00  0.00    -0.545 OA
ATOM     11  O   UNL     1      22.904   4.786 -22.658  1.00  0.00    -0.545 OA
ENDBRANCH   8   9
ENDBRANCH   1   7
BRANCH   4  12
ATOM     12  O   UNL     1      25.063   6.005 -15.275  1.00  0.00    -0.504 OA
ATOM     13  H   UNL     1      24.913   5.005 -15.345  1.00  0.00     0.293 HD
ENDBRANCH   4  12
BRANCH   6  14
ATOM     14  O   UNL     1      25.109   8.771 -14.980  1.00  0.00    -0.504 OA
ATOM     15  H   UNL     1      24.246   9.032 -14.516  1.00  0.00     0.293 HD
ENDBRANCH   6  14
TORSDOF 4
ENDMDL
