MODEL 1
REMARK VINA RESULT:    28.489      0.000      0.000
REMARK INTER + INTRA:          32.756
REMARK INTER:                  30.987
REMARK INTRA:                   1.769
REMARK UNBOUND:                 1.769
REMARK SMILES C[C@@H]1[C@@H](C)CC[C@]2(C(=O)[O-])CC[C@@]3(C)C(=CC[C@@H]4[C@@]5(C)CC[C@H](O)C(C)(C)[C@@H]5CC[C@]43C)[C@@H]12
REMARK SMILES IDX 7 1 6 2 11 3 33 4 5 5 12 6 15 7 2 8 3 9 13 10 16 11 1 12
REMARK SMILES IDX 4 13 14 14 31 15 17 16 18 17 30 18 32 19 19 20 29 21 28 22
REMARK SMILES IDX 21 23 20 24 25 25 22 26 23 27 26 28 27 29 8 30 9 31 10 32
REMARK SMILES IDX 24 33
REMARK H PARENT 24 34
REMARK Flexibility Score: inf
ROOT
ATOM      1  C   UNL     1       4.612  49.838 286.174  1.00  0.00     0.017 C 
ATOM      2  C   UNL     1       3.708  49.589 287.430  1.00  0.00     0.014 C 
ATOM      3  C   UNL     1       4.625  51.350 285.769  1.00  0.00     0.014 C 
ATOM      4  C   UNL     1       3.983  49.066 284.965  1.00  0.00     0.030 C 
ATOM      5  C   UNL     1       2.876  48.277 287.392  1.00  0.00     0.004 C 
ATOM      6  C   UNL     1       5.488  51.670 284.502  1.00  0.00     0.013 C 
ATOM      7  C   UNL     1       4.355  49.631 283.570  1.00  0.00    -0.063 C 
ATOM      8  C   UNL     1       4.025  47.524 285.141  1.00  0.00    -0.003 C 
ATOM      9  C   UNL     1       3.476  47.098 286.560  1.00  0.00    -0.011 C 
ATOM     10  C   UNL     1       5.623  50.510 283.412  1.00  0.00    -0.006 C 
ATOM     11  C   UNL     1       3.323  49.699 282.674  1.00  0.00    -0.027 C 
ATOM     12  C   UNL     1       3.246  46.797 284.039  1.00  0.00     0.008 C 
ATOM     13  C   UNL     1       4.493  46.305 287.388  1.00  0.00     0.008 C 
ATOM     14  C   UNL     1       6.916  49.669 283.740  1.00  0.00     0.017 C 
ATOM     15  C   UNL     1       5.760  51.075 281.890  1.00  0.00    -0.020 C 
ATOM     16  C   UNL     1       3.365  50.431 281.362  1.00  0.00     0.032 C 
ATOM     17  C   UNL     1       4.346  51.613 281.422  1.00  0.00     0.006 C 
ATOM     18  C   UNL     1       6.840  52.204 281.838  1.00  0.00     0.008 C 
ATOM     19  C   UNL     1       6.221  49.912 280.944  1.00  0.00     0.012 C 
ATOM     20  C   UNL     1       4.289  52.584 280.157  1.00  0.00    -0.025 C 
ATOM     21  C   UNL     1       6.804  53.015 280.544  1.00  0.00     0.005 C 
ATOM     22  C   UNL     1       5.415  53.666 280.339  1.00  0.00     0.003 C 
ATOM     23  C   UNL     1       2.876  53.278 280.141  1.00  0.00     0.010 C 
ATOM     24  C   UNL     1       4.448  51.822 278.793  1.00  0.00     0.012 C 
ATOM     25  C   UNL     1       5.400  54.870 279.315  1.00  0.00    -0.006 C 
ATOM     26  C   UNL     1       2.892  54.801 279.902  1.00  0.00     0.033 C 
ATOM     27  C   UNL     1       3.922  55.219 278.851  1.00  0.00     0.120 C 
ATOM     28  C   UNL     1       5.963  56.125 280.051  1.00  0.00     0.014 C 
ATOM     29  C   UNL     1       6.338  54.617 278.098  1.00  0.00     0.014 C 
ENDROOT
BRANCH   1  30
ATOM     30  C   UNL     1       6.029  49.451 286.613  1.00  0.00     0.048 C 
ATOM     31  O   UNL     1       6.295  48.339 287.138  1.00  0.00    -0.550 OA
ATOM     32  O   UNL     1       7.058  50.376 286.490  1.00  0.00    -0.550 OA
ENDBRANCH   1  30
BRANCH  27  33
ATOM     33  O   UNL     1       3.550  54.668 277.615  1.00  0.00    -0.393 OA
ATOM     34  H   UNL     1       4.277  54.054 277.341  1.00  0.00     0.210 HD
ENDBRANCH  27  33
TORSDOF 2
ENDMDL
