MODEL 1
REMARK VINA RESULT:    -3.572      0.000      0.000
REMARK INTER + INTRA:         -12.650
REMARK INTER:                  -8.165
REMARK INTRA:                  -4.484
REMARK UNBOUND:                -4.484
REMARK SMILES CCCCCCCCCCCCCCCCCCCCCCCC(=O)[O-]
REMARK SMILES IDX 13 1 14 2 15 3 16 4 17 5 18 6 19 7 20 8 21 9 22 10 23 11
REMARK SMILES IDX 24 12 25 13 26 14 12 15 11 16 10 17 9 18 8 19 7 20 6 21 5 22
REMARK SMILES IDX 4 23 3 24 2 25 1 26
REMARK H PARENT
REMARK Flexibility Score: inf
ROOT
ATOM      1  C   UNL     1      -2.286  27.307   2.547  1.00  0.00     0.000 C 
ENDROOT
BRANCH   1   2
ATOM      2  C   UNL     1      -1.616  28.689   2.599  1.00  0.00     0.000 C 
BRANCH   2   3
ATOM      3  C   UNL     1      -2.629  29.841   2.492  1.00  0.00     0.000 C 
BRANCH   3   4
ATOM      4  C   UNL     1      -2.419  30.704   1.236  1.00  0.00     0.000 C 
BRANCH   4   5
ATOM      5  C   UNL     1      -3.464  30.500   0.119  1.00  0.00     0.000 C 
BRANCH   5   6
ATOM      6  C   UNL     1      -4.687  29.649   0.508  1.00  0.00     0.000 C 
BRANCH   6   7
ATOM      7  C   UNL     1      -4.918  28.462  -0.445  1.00  0.00     0.000 C 
BRANCH   7   8
ATOM      8  C   UNL     1      -5.285  27.166   0.301  1.00  0.00     0.000 C 
BRANCH   8   9
ATOM      9  C   UNL     1      -5.838  27.375   1.723  1.00  0.00     0.000 C 
BRANCH   9  10
ATOM     10  C   UNL     1      -5.976  26.057   2.508  1.00  0.00     0.006 C 
BRANCH  10  11
ATOM     11  C   UNL     1      -6.330  24.873   1.595  1.00  0.00     0.053 C 
BRANCH  11  12
ATOM     12  C   UNL     1      -7.811  24.693   1.462  1.00  0.00     0.041 C 
ATOM     13  O   UNL     1      -8.277  23.855   0.644  1.00  0.00    -0.550 OA
ATOM     14  O   UNL     1      -8.677  25.462   2.228  1.00  0.00    -0.550 OA
ENDBRANCH  11  12
ENDBRANCH  10  11
ENDBRANCH   9  10
ENDBRANCH   8   9
ENDBRANCH   7   8
ENDBRANCH   6   7
ENDBRANCH   5   6
ENDBRANCH   4   5
ENDBRANCH   3   4
ENDBRANCH   2   3
ENDBRANCH   1   2
BRANCH   1  15
ATOM     15  C   UNL     1      -1.880  26.504   1.299  1.00  0.00     0.000 C 
BRANCH  15  16
ATOM     16  C   UNL     1      -1.250  27.384   0.208  1.00  0.00     0.000 C 
BRANCH  16  17
ATOM     17  C   UNL     1      -0.594  26.563  -0.913  1.00  0.00     0.000 C 
BRANCH  17  18
ATOM     18  C   UNL     1      -0.055  25.233  -0.371  1.00  0.00    -0.000 C 
BRANCH  18  19
ATOM     19  C   UNL     1       0.298  24.273  -1.513  1.00  0.00    -0.000 C 
BRANCH  19  20
ATOM     20  C   UNL     1       0.013  22.817  -1.113  1.00  0.00    -0.000 C 
BRANCH  20  21
ATOM     21  C   UNL     1      -1.037  22.699   0.006  1.00  0.00    -0.000 C 
BRANCH  21  22
ATOM     22  C   UNL     1      -2.256  21.815  -0.333  1.00  0.00    -0.000 C 
BRANCH  22  23
ATOM     23  C   UNL     1      -3.624  22.482  -0.108  1.00  0.00    -0.000 C 
BRANCH  23  24
ATOM     24  C   UNL     1      -3.625  23.978  -0.471  1.00  0.00    -0.000 C 
BRANCH  24  25
ATOM     25  C   UNL     1      -4.192  24.245  -1.873  1.00  0.00    -0.003 C 
ATOM     26  C   UNL     1      -3.120  24.685  -2.868  1.00  0.00     0.004 C 
ENDBRANCH  24  25
ENDBRANCH  23  24
ENDBRANCH  22  23
ENDBRANCH  21  22
ENDBRANCH  20  21
ENDBRANCH  19  20
ENDBRANCH  18  19
ENDBRANCH  17  18
ENDBRANCH  16  17
ENDBRANCH  15  16
ENDBRANCH   1  15
TORSDOF 22
ENDMDL
MODEL 2
REMARK VINA RESULT:    -3.527      2.346      4.238
REMARK INTER + INTRA:         -12.548
REMARK INTER:                  -8.647
REMARK INTRA:                  -3.901
REMARK UNBOUND:                -4.484
REMARK SMILES CCCCCCCCCCCCCCCCCCCCCCCC(=O)[O-]
REMARK SMILES IDX 13 1 14 2 15 3 16 4 17 5 18 6 19 7 20 8 21 9 22 10 23 11
REMARK SMILES IDX 24 12 25 13 26 14 12 15 11 16 10 17 9 18 8 19 7 20 6 21 5 22
REMARK SMILES IDX 4 23 3 24 2 25 1 26
REMARK H PARENT
REMARK Flexibility Score: inf
ROOT
ATOM      1  C   UNL     1      -2.950  27.066   3.084  1.00  0.00     0.000 C 
ENDROOT
BRANCH   1   2
ATOM      2  C   UNL     1      -2.619  28.444   3.678  1.00  0.00     0.000 C 
BRANCH   2   3
ATOM      3  C   UNL     1      -2.060  29.420   2.628  1.00  0.00     0.000 C 
BRANCH   3   4
ATOM      4  C   UNL     1      -0.820  28.870   1.904  1.00  0.00     0.000 C 
BRANCH   4   5
ATOM      5  C   UNL     1      -0.993  28.644   0.387  1.00  0.00     0.000 C 
BRANCH   5   6
ATOM      6  C   UNL     1      -1.152  27.174  -0.047  1.00  0.00     0.000 C 
BRANCH   6   7
ATOM      7  C   UNL     1      -2.467  26.912  -0.802  1.00  0.00     0.000 C 
BRANCH   7   8
ATOM      8  C   UNL     1      -3.395  28.140  -0.820  1.00  0.00     0.000 C 
BRANCH   8   9
ATOM      9  C   UNL     1      -4.816  27.883  -0.286  1.00  0.00     0.000 C 
BRANCH   9  10
ATOM     10  C   UNL     1      -5.273  28.948   0.727  1.00  0.00     0.006 C 
BRANCH  10  11
ATOM     11  C   UNL     1      -4.729  30.344   0.388  1.00  0.00     0.053 C 
BRANCH  11  12
ATOM     12  C   UNL     1      -5.814  31.274  -0.059  1.00  0.00     0.041 C 
ATOM     13  O   UNL     1      -5.549  32.239  -0.824  1.00  0.00    -0.550 OA
ATOM     14  O   UNL     1      -7.117  31.085   0.384  1.00  0.00    -0.550 OA
ENDBRANCH  11  12
ENDBRANCH  10  11
ENDBRANCH   9  10
ENDBRANCH   8   9
ENDBRANCH   7   8
ENDBRANCH   6   7
ENDBRANCH   5   6
ENDBRANCH   4   5
ENDBRANCH   3   4
ENDBRANCH   2   3
ENDBRANCH   1   2
BRANCH   1  15
ATOM     15  C   UNL     1      -4.326  26.547   3.537  1.00  0.00     0.000 C 
BRANCH  15  16
ATOM     16  C   UNL     1      -5.003  25.664   2.477  1.00  0.00     0.000 C 
BRANCH  16  17
ATOM     17  C   UNL     1      -4.000  24.808   1.688  1.00  0.00     0.000 C 
BRANCH  17  18
ATOM     18  C   UNL     1      -4.704  23.620   1.019  1.00  0.00    -0.000 C 
BRANCH  18  19
ATOM     19  C   UNL     1      -3.912  23.120  -0.195  1.00  0.00    -0.000 C 
BRANCH  19  20
ATOM     20  C   UNL     1      -3.471  21.662   0.001  1.00  0.00    -0.000 C 
BRANCH  20  21
ATOM     21  C   UNL     1      -1.949  21.475  -0.124  1.00  0.00    -0.000 C 
BRANCH  21  22
ATOM     22  C   UNL     1      -1.135  22.783  -0.209  1.00  0.00    -0.000 C 
BRANCH  22  23
ATOM     23  C   UNL     1      -0.250  22.918  -1.460  1.00  0.00    -0.000 C 
BRANCH  23  24
ATOM     24  C   UNL     1       1.058  23.682  -1.186  1.00  0.00    -0.000 C 
BRANCH  24  25
ATOM     25  C   UNL     1       1.090  25.060  -1.862  1.00  0.00    -0.003 C 
ATOM     26  C   UNL     1       0.081  25.180  -3.003  1.00  0.00     0.004 C 
ENDBRANCH  24  25
ENDBRANCH  23  24
ENDBRANCH  22  23
ENDBRANCH  21  22
ENDBRANCH  20  21
ENDBRANCH  19  20
ENDBRANCH  18  19
ENDBRANCH  17  18
ENDBRANCH  16  17
ENDBRANCH  15  16
ENDBRANCH   1  15
TORSDOF 22
ENDMDL
MODEL 3
REMARK VINA RESULT:    -3.469      2.817      5.820
REMARK INTER + INTRA:         -12.415
REMARK INTER:                  -8.876
REMARK INTRA:                  -3.538
REMARK UNBOUND:                -4.484
REMARK SMILES CCCCCCCCCCCCCCCCCCCCCCCC(=O)[O-]
REMARK SMILES IDX 13 1 14 2 15 3 16 4 17 5 18 6 19 7 20 8 21 9 22 10 23 11
REMARK SMILES IDX 24 12 25 13 26 14 12 15 11 16 10 17 9 18 8 19 7 20 6 21 5 22
REMARK SMILES IDX 4 23 3 24 2 25 1 26
REMARK H PARENT
REMARK Flexibility Score: inf
ROOT
ATOM      1  C   UNL     1      -3.656  27.213  -0.750  1.00  0.00     0.000 C 
ENDROOT
BRANCH   1   2
ATOM      2  C   UNL     1      -2.134  26.998  -0.765  1.00  0.00     0.000 C 
BRANCH   2   3
ATOM      3  C   UNL     1      -1.531  26.950   0.649  1.00  0.00     0.000 C 
BRANCH   3   4
ATOM      4  C   UNL     1      -1.129  28.340   1.173  1.00  0.00     0.000 C 
BRANCH   4   5
ATOM      5  C   UNL     1      -1.537  28.632   2.633  1.00  0.00     0.000 C 
BRANCH   5   6
ATOM      6  C   UNL     1      -2.602  29.730   2.812  1.00  0.00     0.000 C 
BRANCH   6   7
ATOM      7  C   UNL     1      -3.649  29.738   1.685  1.00  0.00     0.000 C 
BRANCH   7   8
ATOM      8  C   UNL     1      -3.644  31.050   0.880  1.00  0.00     0.000 C 
BRANCH   8   9
ATOM      9  C   UNL     1      -3.244  30.898  -0.599  1.00  0.00     0.000 C 
BRANCH   9  10
ATOM     10  C   UNL     1      -4.446  31.013  -1.555  1.00  0.00     0.006 C 
BRANCH  10  11
ATOM     11  C   UNL     1      -5.777  30.702  -0.854  1.00  0.00     0.053 C 
BRANCH  11  12
ATOM     12  C   UNL     1      -6.866  31.636  -1.284  1.00  0.00     0.041 C 
ATOM     13  O   UNL     1      -6.581  32.745  -1.810  1.00  0.00    -0.550 OA
ATOM     14  O   UNL     1      -8.197  31.288  -1.088  1.00  0.00    -0.550 OA
ENDBRANCH  11  12
ENDBRANCH  10  11
ENDBRANCH   9  10
ENDBRANCH   8   9
ENDBRANCH   7   8
ENDBRANCH   6   7
ENDBRANCH   5   6
ENDBRANCH   4   5
ENDBRANCH   3   4
ENDBRANCH   2   3
ENDBRANCH   1   2
BRANCH   1  15
ATOM     15  C   UNL     1      -4.393  26.256  -1.704  1.00  0.00     0.000 C 
BRANCH  15  16
ATOM     16  C   UNL     1      -5.174  25.163  -0.958  1.00  0.00     0.000 C 
BRANCH  16  17
ATOM     17  C   UNL     1      -4.368  23.865  -0.794  1.00  0.00     0.000 C 
BRANCH  17  18
ATOM     18  C   UNL     1      -3.725  23.794   0.597  1.00  0.00    -0.000 C 
BRANCH  18  19
ATOM     19  C   UNL     1      -4.658  24.372   1.667  1.00  0.00    -0.000 C 
BRANCH  19  20
ATOM     20  C   UNL     1      -3.905  25.355   2.577  1.00  0.00    -0.000 C 
BRANCH  20  21
ATOM     21  C   UNL     1      -4.821  26.437   3.176  1.00  0.00    -0.000 C 
BRANCH  21  22
ATOM     22  C   UNL     1      -6.028  26.829   2.300  1.00  0.00    -0.000 C 
BRANCH  22  23
ATOM     23  C   UNL     1      -7.402  26.651   2.969  1.00  0.00    -0.000 C 
BRANCH  23  24
ATOM     24  C   UNL     1      -7.371  25.651   4.138  1.00  0.00    -0.000 C 
BRANCH  24  25
ATOM     25  C   UNL     1      -7.029  26.319   5.478  1.00  0.00    -0.003 C 
ATOM     26  C   UNL     1      -7.471  25.487   6.681  1.00  0.00     0.004 C 
ENDBRANCH  24  25
ENDBRANCH  23  24
ENDBRANCH  22  23
ENDBRANCH  21  22
ENDBRANCH  20  21
ENDBRANCH  19  20
ENDBRANCH  18  19
ENDBRANCH  17  18
ENDBRANCH  16  17
ENDBRANCH  15  16
ENDBRANCH   1  15
TORSDOF 22
ENDMDL
MODEL 4
REMARK VINA RESULT:    -3.450      1.291      2.453
REMARK INTER + INTRA:         -12.371
REMARK INTER:                  -8.460
REMARK INTRA:                  -3.911
REMARK UNBOUND:                -4.484
REMARK SMILES CCCCCCCCCCCCCCCCCCCCCCCC(=O)[O-]
REMARK SMILES IDX 13 1 14 2 15 3 16 4 17 5 18 6 19 7 20 8 21 9 22 10 23 11
REMARK SMILES IDX 24 12 25 13 26 14 12 15 11 16 10 17 9 18 8 19 7 20 6 21 5 22
REMARK SMILES IDX 4 23 3 24 2 25 1 26
REMARK H PARENT
REMARK Flexibility Score: inf
ROOT
ATOM      1  C   UNL     1      -3.193  28.648  -1.325  1.00  0.00     0.000 C 
ENDROOT
BRANCH   1   2
ATOM      2  C   UNL     1      -4.480  28.611  -0.486  1.00  0.00     0.000 C 
BRANCH   2   3
ATOM      3  C   UNL     1      -4.709  29.913   0.301  1.00  0.00     0.000 C 
BRANCH   3   4
ATOM      4  C   UNL     1      -3.397  30.564   0.770  1.00  0.00     0.000 C 
BRANCH   4   5
ATOM      5  C   UNL     1      -3.042  30.328   2.254  1.00  0.00     0.000 C 
BRANCH   5   6
ATOM      6  C   UNL     1      -1.906  29.320   2.508  1.00  0.00     0.000 C 
BRANCH   6   7
ATOM      7  C   UNL     1      -2.341  28.138   3.392  1.00  0.00     0.000 C 
BRANCH   7   8
ATOM      8  C   UNL     1      -3.632  27.467   2.889  1.00  0.00     0.000 C 
BRANCH   8   9
ATOM      9  C   UNL     1      -3.709  25.949   3.138  1.00  0.00     0.000 C 
BRANCH   9  10
ATOM     10  C   UNL     1      -4.777  25.257   2.272  1.00  0.00     0.006 C 
BRANCH  10  11
ATOM     11  C   UNL     1      -6.143  25.197   2.971  1.00  0.00     0.053 C 
BRANCH  11  12
ATOM     12  C   UNL     1      -7.181  25.991   2.239  1.00  0.00     0.041 C 
ATOM     13  O   UNL     1      -6.851  27.015   1.582  1.00  0.00    -0.550 OA
ATOM     14  O   UNL     1      -8.516  25.610   2.296  1.00  0.00    -0.550 OA
ENDBRANCH  11  12
ENDBRANCH  10  11
ENDBRANCH   9  10
ENDBRANCH   8   9
ENDBRANCH   7   8
ENDBRANCH   6   7
ENDBRANCH   5   6
ENDBRANCH   4   5
ENDBRANCH   3   4
ENDBRANCH   2   3
ENDBRANCH   1   2
BRANCH   1  15
ATOM     15  C   UNL     1      -2.691  27.240  -1.694  1.00  0.00     0.000 C 
BRANCH  15  16
ATOM     16  C   UNL     1      -2.577  26.314  -0.473  1.00  0.00     0.000 C 
BRANCH  16  17
ATOM     17  C   UNL     1      -1.203  26.397   0.209  1.00  0.00     0.000 C 
BRANCH  17  18
ATOM     18  C   UNL     1      -0.208  25.433  -0.450  1.00  0.00    -0.000 C 
BRANCH  18  19
ATOM     19  C   UNL     1      -0.500  23.981  -0.053  1.00  0.00    -0.000 C 
BRANCH  19  20
ATOM     20  C   UNL     1       0.044  23.005  -1.108  1.00  0.00    -0.000 C 
BRANCH  20  21
ATOM     21  C   UNL     1      -0.791  21.717  -1.217  1.00  0.00    -0.000 C 
BRANCH  21  22
ATOM     22  C   UNL     1      -1.801  21.494  -0.073  1.00  0.00    -0.000 C 
BRANCH  22  23
ATOM     23  C   UNL     1      -3.278  21.471  -0.506  1.00  0.00    -0.000 C 
BRANCH  23  24
ATOM     24  C   UNL     1      -4.004  22.796  -0.213  1.00  0.00    -0.000 C 
BRANCH  24  25
ATOM     25  C   UNL     1      -4.590  23.440  -1.478  1.00  0.00    -0.003 C 
ATOM     26  C   UNL     1      -5.751  24.385  -1.176  1.00  0.00     0.004 C 
ENDBRANCH  24  25
ENDBRANCH  23  24
ENDBRANCH  22  23
ENDBRANCH  21  22
ENDBRANCH  20  21
ENDBRANCH  19  20
ENDBRANCH  18  19
ENDBRANCH  17  18
ENDBRANCH  16  17
ENDBRANCH  15  16
ENDBRANCH   1  15
TORSDOF 22
ENDMDL
MODEL 5
REMARK VINA RESULT:    -3.447      2.327      4.927
REMARK INTER + INTRA:         -12.365
REMARK INTER:                  -8.906
REMARK INTRA:                  -3.459
REMARK UNBOUND:                -4.484
REMARK SMILES CCCCCCCCCCCCCCCCCCCCCCCC(=O)[O-]
REMARK SMILES IDX 13 1 14 2 15 3 16 4 17 5 18 6 19 7 20 8 21 9 22 10 23 11
REMARK SMILES IDX 24 12 25 13 26 14 12 15 11 16 10 17 9 18 8 19 7 20 6 21 5 22
REMARK SMILES IDX 4 23 3 24 2 25 1 26
REMARK H PARENT
REMARK Flexibility Score: inf
ROOT
ATOM      1  C   UNL     1      -1.689  26.791  -0.792  1.00  0.00     0.000 C 
ENDROOT
BRANCH   1   2
ATOM      2  C   UNL     1      -2.785  26.884   0.282  1.00  0.00     0.000 C 
BRANCH   2   3
ATOM      3  C   UNL     1      -2.276  26.493   1.680  1.00  0.00     0.000 C 
BRANCH   3   4
ATOM      4  C   UNL     1      -3.232  26.926   2.805  1.00  0.00     0.000 C 
BRANCH   4   5
ATOM      5  C   UNL     1      -2.829  28.219   3.546  1.00  0.00     0.000 C 
BRANCH   5   6
ATOM      6  C   UNL     1      -1.484  28.833   3.115  1.00  0.00     0.000 C 
BRANCH   6   7
ATOM      7  C   UNL     1      -1.633  30.249   2.531  1.00  0.00     0.000 C 
BRANCH   7   8
ATOM      8  C   UNL     1      -1.431  30.285   1.005  1.00  0.00     0.000 C 
BRANCH   8   9
ATOM      9  C   UNL     1      -2.699  30.609   0.194  1.00  0.00     0.000 C 
BRANCH   9  10
ATOM     10  C   UNL     1      -3.963  30.687   1.070  1.00  0.00     0.006 C 
BRANCH  10  11
ATOM     11  C   UNL     1      -5.176  30.024   0.401  1.00  0.00     0.053 C 
BRANCH  11  12
ATOM     12  C   UNL     1      -6.133  31.035  -0.151  1.00  0.00     0.041 C 
ATOM     13  O   UNL     1      -5.848  31.673  -1.199  1.00  0.00    -0.550 OA
ATOM     14  O   UNL     1      -7.332  31.286   0.503  1.00  0.00    -0.550 OA
ENDBRANCH  11  12
ENDBRANCH  10  11
ENDBRANCH   9  10
ENDBRANCH   8   9
ENDBRANCH   7   8
ENDBRANCH   6   7
ENDBRANCH   5   6
ENDBRANCH   4   5
ENDBRANCH   3   4
ENDBRANCH   2   3
ENDBRANCH   1   2
BRANCH   1  15
ATOM     15  C   UNL     1      -1.522  25.363  -1.339  1.00  0.00     0.000 C 
BRANCH  15  16
ATOM     16  C   UNL     1      -0.368  24.602  -0.667  1.00  0.00     0.000 C 
BRANCH  16  17
ATOM     17  C   UNL     1      -0.856  23.444   0.218  1.00  0.00     0.000 C 
BRANCH  17  18
ATOM     18  C   UNL     1      -1.626  22.409  -0.613  1.00  0.00    -0.000 C 
BRANCH  18  19
ATOM     19  C   UNL     1      -2.940  22.019   0.071  1.00  0.00    -0.000 C 
BRANCH  19  20
ATOM     20  C   UNL     1      -4.030  23.068  -0.196  1.00  0.00    -0.000 C 
BRANCH  20  21
ATOM     21  C   UNL     1      -4.709  23.566   1.092  1.00  0.00    -0.000 C 
BRANCH  21  22
ATOM     22  C   UNL     1      -5.575  24.832   0.926  1.00  0.00    -0.000 C 
BRANCH  22  23
ATOM     23  C   UNL     1      -7.072  24.569   0.689  1.00  0.00    -0.000 C 
BRANCH  23  24
ATOM     24  C   UNL     1      -7.954  25.056   1.853  1.00  0.00    -0.000 C 
BRANCH  24  25
ATOM     25  C   UNL     1      -7.242  24.966   3.211  1.00  0.00    -0.003 C 
ATOM     26  C   UNL     1      -7.755  25.997   4.214  1.00  0.00     0.004 C 
ENDBRANCH  24  25
ENDBRANCH  23  24
ENDBRANCH  22  23
ENDBRANCH  21  22
ENDBRANCH  20  21
ENDBRANCH  19  20
ENDBRANCH  18  19
ENDBRANCH  17  18
ENDBRANCH  16  17
ENDBRANCH  15  16
ENDBRANCH   1  15
TORSDOF 22
ENDMDL
MODEL 6
REMARK VINA RESULT:    -3.444      3.447      6.665
REMARK INTER + INTRA:         -12.357
REMARK INTER:                  -8.537
REMARK INTRA:                  -3.820
REMARK UNBOUND:                -4.484
REMARK SMILES CCCCCCCCCCCCCCCCCCCCCCCC(=O)[O-]
REMARK SMILES IDX 13 1 14 2 15 3 16 4 17 5 18 6 19 7 20 8 21 9 22 10 23 11
REMARK SMILES IDX 24 12 25 13 26 14 12 15 11 16 10 17 9 18 8 19 7 20 6 21 5 22
REMARK SMILES IDX 4 23 3 24 2 25 1 26
REMARK H PARENT
REMARK Flexibility Score: inf
ROOT
ATOM      1  C   UNL     1      -0.818  21.821  -1.157  1.00  0.00     0.000 C 
ENDROOT
BRANCH   1   2
ATOM      2  C   UNL     1       0.123  23.015  -0.931  1.00  0.00     0.000 C 
BRANCH   2   3
ATOM      3  C   UNL     1      -0.479  24.070   0.014  1.00  0.00     0.000 C 
BRANCH   3   4
ATOM      4  C   UNL     1      -0.513  25.477  -0.608  1.00  0.00     0.000 C 
BRANCH   4   5
ATOM      5  C   UNL     1      -1.222  26.552   0.243  1.00  0.00     0.000 C 
BRANCH   5   6
ATOM      6  C   UNL     1      -2.091  26.013   1.395  1.00  0.00     0.000 C 
BRANCH   6   7
ATOM      7  C   UNL     1      -2.409  27.083   2.455  1.00  0.00     0.000 C 
BRANCH   7   8
ATOM      8  C   UNL     1      -2.267  28.516   1.911  1.00  0.00     0.000 C 
BRANCH   8   9
ATOM      9  C   UNL     1      -1.660  29.526   2.902  1.00  0.00     0.000 C 
BRANCH   9  10
ATOM     10  C   UNL     1      -0.128  29.628   2.786  1.00  0.00     0.006 C 
BRANCH  10  11
ATOM     11  C   UNL     1       0.309  30.791   1.884  1.00  0.00     0.053 C 
BRANCH  11  12
ATOM     12  C   UNL     1       1.125  30.320   0.719  1.00  0.00     0.041 C 
ATOM     13  O   UNL     1       0.633  29.516  -0.117  1.00  0.00    -0.550 OA
ATOM     14  O   UNL     1       2.435  30.755   0.567  1.00  0.00    -0.550 OA
ENDBRANCH  11  12
ENDBRANCH  10  11
ENDBRANCH   9  10
ENDBRANCH   8   9
ENDBRANCH   7   8
ENDBRANCH   6   7
ENDBRANCH   5   6
ENDBRANCH   4   5
ENDBRANCH   3   4
ENDBRANCH   2   3
ENDBRANCH   1   2
BRANCH   1  15
ATOM     15  C   UNL     1      -1.839  21.653  -0.018  1.00  0.00     0.000 C 
BRANCH  15  16
ATOM     16  C   UNL     1      -3.289  21.833  -0.491  1.00  0.00     0.000 C 
BRANCH  16  17
ATOM     17  C   UNL     1      -4.094  22.786   0.407  1.00  0.00     0.000 C 
BRANCH  17  18
ATOM     18  C   UNL     1      -4.953  23.736  -0.437  1.00  0.00    -0.000 C 
BRANCH  18  19
ATOM     19  C   UNL     1      -4.087  24.554  -1.402  1.00  0.00    -0.000 C 
BRANCH  19  20
ATOM     20  C   UNL     1      -4.449  26.045  -1.334  1.00  0.00    -0.000 C 
BRANCH  20  21
ATOM     21  C   UNL     1      -5.704  26.318  -0.487  1.00  0.00    -0.000 C 
BRANCH  21  22
ATOM     22  C   UNL     1      -5.565  27.461   0.539  1.00  0.00    -0.000 C 
BRANCH  22  23
ATOM     23  C   UNL     1      -6.024  27.114   1.966  1.00  0.00    -0.000 C 
BRANCH  23  24
ATOM     24  C   UNL     1      -5.815  25.629   2.314  1.00  0.00    -0.000 C 
BRANCH  24  25
ATOM     25  C   UNL     1      -7.134  24.903   2.618  1.00  0.00    -0.003 C 
ATOM     26  C   UNL     1      -8.211  25.840   3.160  1.00  0.00     0.004 C 
ENDBRANCH  24  25
ENDBRANCH  23  24
ENDBRANCH  22  23
ENDBRANCH  21  22
ENDBRANCH  20  21
ENDBRANCH  19  20
ENDBRANCH  18  19
ENDBRANCH  17  18
ENDBRANCH  16  17
ENDBRANCH  15  16
ENDBRANCH   1  15
TORSDOF 22
ENDMDL
MODEL 7
REMARK VINA RESULT:    -3.434      2.594      5.722
REMARK INTER + INTRA:         -12.334
REMARK INTER:                  -8.185
REMARK INTRA:                  -4.149
REMARK UNBOUND:                -4.484
REMARK SMILES CCCCCCCCCCCCCCCCCCCCCCCC(=O)[O-]
REMARK SMILES IDX 13 1 14 2 15 3 16 4 17 5 18 6 19 7 20 8 21 9 22 10 23 11
REMARK SMILES IDX 24 12 25 13 26 14 12 15 11 16 10 17 9 18 8 19 7 20 6 21 5 22
REMARK SMILES IDX 4 23 3 24 2 25 1 26
REMARK H PARENT
REMARK Flexibility Score: inf
ROOT
ATOM      1  C   UNL     1      -2.037  24.404   0.461  1.00  0.00     0.000 C 
ENDROOT
BRANCH   1   2
ATOM      2  C   UNL     1      -1.219  25.687   0.244  1.00  0.00     0.000 C 
BRANCH   2   3
ATOM      3  C   UNL     1      -1.924  26.937   0.799  1.00  0.00     0.000 C 
BRANCH   3   4
ATOM      4  C   UNL     1      -2.272  26.811   2.293  1.00  0.00     0.000 C 
BRANCH   4   5
ATOM      5  C   UNL     1      -2.331  28.145   3.066  1.00  0.00     0.000 C 
BRANCH   5   6
ATOM      6  C   UNL     1      -1.872  29.385   2.278  1.00  0.00     0.000 C 
BRANCH   6   7
ATOM      7  C   UNL     1      -3.037  30.317   1.898  1.00  0.00     0.000 C 
BRANCH   7   8
ATOM      8  C   UNL     1      -3.057  30.658   0.397  1.00  0.00     0.000 C 
BRANCH   8   9
ATOM      9  C   UNL     1      -3.480  32.103   0.069  1.00  0.00     0.000 C 
BRANCH   9  10
ATOM     10  C   UNL     1      -4.856  32.178  -0.617  1.00  0.00     0.006 C 
BRANCH  10  11
ATOM     11  C   UNL     1      -5.923  31.364   0.130  1.00  0.00     0.053 C 
BRANCH  11  12
ATOM     12  C   UNL     1      -7.311  31.798  -0.230  1.00  0.00     0.041 C 
ATOM     13  O   UNL     1      -7.512  32.493  -1.262  1.00  0.00    -0.550 OA
ATOM     14  O   UNL     1      -8.381  31.450   0.584  1.00  0.00    -0.550 OA
ENDBRANCH  11  12
ENDBRANCH  10  11
ENDBRANCH   9  10
ENDBRANCH   8   9
ENDBRANCH   7   8
ENDBRANCH   6   7
ENDBRANCH   5   6
ENDBRANCH   4   5
ENDBRANCH   3   4
ENDBRANCH   2   3
ENDBRANCH   1   2
BRANCH   1  15
ATOM     15  C   UNL     1      -3.246  24.311  -0.487  1.00  0.00     0.000 C 
BRANCH  15  16
ATOM     16  C   UNL     1      -4.465  23.649   0.173  1.00  0.00     0.000 C 
BRANCH  16  17
ATOM     17  C   UNL     1      -4.691  24.125   1.617  1.00  0.00     0.000 C 
BRANCH  17  18
ATOM     18  C   UNL     1      -6.190  24.226   1.930  1.00  0.00    -0.000 C 
BRANCH  18  19
ATOM     19  C   UNL     1      -6.753  25.586   1.504  1.00  0.00    -0.000 C 
BRANCH  19  20
ATOM     20  C   UNL     1      -5.838  26.729   1.971  1.00  0.00    -0.000 C 
BRANCH  20  21
ATOM     21  C   UNL     1      -5.655  27.822   0.905  1.00  0.00    -0.000 C 
BRANCH  21  22
ATOM     22  C   UNL     1      -5.056  27.337  -0.432  1.00  0.00    -0.000 C 
BRANCH  22  23
ATOM     23  C   UNL     1      -5.256  28.296  -1.619  1.00  0.00    -0.000 C 
BRANCH  23  24
ATOM     24  C   UNL     1      -3.995  28.434  -2.491  1.00  0.00    -0.000 C 
BRANCH  24  25
ATOM     25  C   UNL     1      -3.881  29.818  -3.148  1.00  0.00    -0.003 C 
ATOM     26  C   UNL     1      -5.139  30.210  -3.920  1.00  0.00     0.004 C 
ENDBRANCH  24  25
ENDBRANCH  23  24
ENDBRANCH  22  23
ENDBRANCH  21  22
ENDBRANCH  20  21
ENDBRANCH  19  20
ENDBRANCH  18  19
ENDBRANCH  17  18
ENDBRANCH  16  17
ENDBRANCH  15  16
ENDBRANCH   1  15
TORSDOF 22
ENDMDL
MODEL 8
REMARK VINA RESULT:    -3.350      2.409      5.506
REMARK INTER + INTRA:         -12.142
REMARK INTER:                  -7.675
REMARK INTRA:                  -4.467
REMARK UNBOUND:                -4.484
REMARK SMILES CCCCCCCCCCCCCCCCCCCCCCCC(=O)[O-]
REMARK SMILES IDX 13 1 14 2 15 3 16 4 17 5 18 6 19 7 20 8 21 9 22 10 23 11
REMARK SMILES IDX 24 12 25 13 26 14 12 15 11 16 10 17 9 18 8 19 7 20 6 21 5 22
REMARK SMILES IDX 4 23 3 24 2 25 1 26
REMARK H PARENT
REMARK Flexibility Score: inf
ROOT
ATOM      1  C   UNL     1      -0.447  27.957  -0.166  1.00  0.00     0.000 C 
ENDROOT
BRANCH   1   2
ATOM      2  C   UNL     1      -0.432  29.400  -0.697  1.00  0.00     0.000 C 
BRANCH   2   3
ATOM      3  C   UNL     1      -0.432  30.444   0.433  1.00  0.00     0.000 C 
BRANCH   3   4
ATOM      4  C   UNL     1      -0.757  29.835   1.807  1.00  0.00     0.000 C 
BRANCH   4   5
ATOM      5  C   UNL     1      -2.147  30.198   2.373  1.00  0.00     0.000 C 
BRANCH   5   6
ATOM      6  C   UNL     1      -3.130  29.021   2.511  1.00  0.00     0.000 C 
BRANCH   6   7
ATOM      7  C   UNL     1      -2.493  27.783   3.165  1.00  0.00     0.000 C 
BRANCH   7   8
ATOM      8  C   UNL     1      -2.967  26.465   2.525  1.00  0.00     0.000 C 
BRANCH   8   9
ATOM      9  C   UNL     1      -4.111  25.759   3.275  1.00  0.00     0.000 C 
BRANCH   9  10
ATOM     10  C   UNL     1      -5.482  25.975   2.609  1.00  0.00     0.006 C 
BRANCH  10  11
ATOM     11  C   UNL     1      -5.896  24.784   1.732  1.00  0.00     0.053 C 
BRANCH  11  12
ATOM     12  C   UNL     1      -7.378  24.737   1.515  1.00  0.00     0.041 C 
ATOM     13  O   UNL     1      -7.876  23.897   0.720  1.00  0.00    -0.550 OA
ATOM     14  O   UNL     1      -8.206  25.633   2.179  1.00  0.00    -0.550 OA
ENDBRANCH  11  12
ENDBRANCH  10  11
ENDBRANCH   9  10
ENDBRANCH   8   9
ENDBRANCH   7   8
ENDBRANCH   6   7
ENDBRANCH   5   6
ENDBRANCH   4   5
ENDBRANCH   3   4
ENDBRANCH   2   3
ENDBRANCH   1   2
BRANCH   1  15
ATOM     15  C   UNL     1      -1.605  27.129  -0.750  1.00  0.00     0.000 C 
BRANCH  15  16
ATOM     16  C   UNL     1      -2.862  27.972  -1.012  1.00  0.00     0.000 C 
BRANCH  16  17
ATOM     17  C   UNL     1      -4.156  27.146  -0.944  1.00  0.00     0.000 C 
BRANCH  17  18
ATOM     18  C   UNL     1      -5.296  27.967  -0.329  1.00  0.00    -0.000 C 
BRANCH  18  19
ATOM     19  C   UNL     1      -5.327  29.387  -0.904  1.00  0.00    -0.000 C 
BRANCH  19  20
ATOM     20  C   UNL     1      -5.457  30.430   0.217  1.00  0.00    -0.000 C 
BRANCH  20  21
ATOM     21  C   UNL     1      -5.169  31.863  -0.262  1.00  0.00    -0.000 C 
BRANCH  21  22
ATOM     22  C   UNL     1      -3.682  32.272  -0.244  1.00  0.00    -0.000 C 
BRANCH  22  23
ATOM     23  C   UNL     1      -3.105  32.688  -1.609  1.00  0.00    -0.000 C 
BRANCH  23  24
ATOM     24  C   UNL     1      -2.840  31.488  -2.535  1.00  0.00    -0.000 C 
BRANCH  24  25
ATOM     25  C   UNL     1      -3.450  31.673  -3.931  1.00  0.00    -0.003 C 
ATOM     26  C   UNL     1      -4.977  31.619  -3.920  1.00  0.00     0.004 C 
ENDBRANCH  24  25
ENDBRANCH  23  24
ENDBRANCH  22  23
ENDBRANCH  21  22
ENDBRANCH  20  21
ENDBRANCH  19  20
ENDBRANCH  18  19
ENDBRANCH  17  18
ENDBRANCH  16  17
ENDBRANCH  15  16
ENDBRANCH   1  15
TORSDOF 22
ENDMDL
MODEL 9
REMARK VINA RESULT:    -3.312      1.298      5.290
REMARK INTER + INTRA:         -12.056
REMARK INTER:                  -7.901
REMARK INTRA:                  -4.155
REMARK UNBOUND:                -4.484
REMARK SMILES CCCCCCCCCCCCCCCCCCCCCCCC(=O)[O-]
REMARK SMILES IDX 13 1 14 2 15 3 16 4 17 5 18 6 19 7 20 8 21 9 22 10 23 11
REMARK SMILES IDX 24 12 25 13 26 14 12 15 11 16 10 17 9 18 8 19 7 20 6 21 5 22
REMARK SMILES IDX 4 23 3 24 2 25 1 26
REMARK H PARENT
REMARK Flexibility Score: inf
ROOT
ATOM      1  C   UNL     1      -0.899  22.858  -0.033  1.00  0.00     0.000 C 
ENDROOT
BRANCH   1   2
ATOM      2  C   UNL     1      -1.811  21.749  -0.580  1.00  0.00     0.000 C 
BRANCH   2   3
ATOM      3  C   UNL     1      -3.239  21.825  -0.012  1.00  0.00     0.000 C 
BRANCH   3   4
ATOM      4  C   UNL     1      -4.151  22.767  -0.817  1.00  0.00     0.000 C 
BRANCH   4   5
ATOM      5  C   UNL     1      -4.478  24.109  -0.129  1.00  0.00     0.000 C 
BRANCH   5   6
ATOM      6  C   UNL     1      -3.736  24.368   1.196  1.00  0.00     0.000 C 
BRANCH   6   7
ATOM      7  C   UNL     1      -3.546  25.866   1.492  1.00  0.00     0.000 C 
BRANCH   7   8
ATOM      8  C   UNL     1      -3.675  26.194   2.991  1.00  0.00     0.000 C 
BRANCH   8   9
ATOM      9  C   UNL     1      -5.122  26.303   3.505  1.00  0.00     0.000 C 
BRANCH   9  10
ATOM     10  C   UNL     1      -6.114  26.729   2.407  1.00  0.00     0.006 C 
BRANCH  10  11
ATOM     11  C   UNL     1      -7.495  26.084   2.591  1.00  0.00     0.053 C 
BRANCH  11  12
ATOM     12  C   UNL     1      -7.596  24.767   1.884  1.00  0.00     0.041 C 
ATOM     13  O   UNL     1      -8.268  24.665   0.823  1.00  0.00    -0.550 OA
ATOM     14  O   UNL     1      -6.960  23.647   2.406  1.00  0.00    -0.550 OA
ENDBRANCH  11  12
ENDBRANCH  10  11
ENDBRANCH   9  10
ENDBRANCH   8   9
ENDBRANCH   7   8
ENDBRANCH   6   7
ENDBRANCH   5   6
ENDBRANCH   4   5
ENDBRANCH   3   4
ENDBRANCH   2   3
ENDBRANCH   1   2
BRANCH   1  15
ATOM     15  C   UNL     1      -0.728  24.021  -1.026  1.00  0.00     0.000 C 
BRANCH  15  16
ATOM     16  C   UNL     1      -0.072  25.255  -0.385  1.00  0.00     0.000 C 
BRANCH  16  17
ATOM     17  C   UNL     1      -0.694  26.575  -0.865  1.00  0.00     0.000 C 
BRANCH  17  18
ATOM     18  C   UNL     1      -1.847  26.312  -1.842  1.00  0.00    -0.000 C 
BRANCH  18  19
ATOM     19  C   UNL     1      -2.834  27.484  -1.861  1.00  0.00    -0.000 C 
BRANCH  19  20
ATOM     20  C   UNL     1      -4.284  26.979  -1.922  1.00  0.00    -0.000 C 
BRANCH  20  21
ATOM     21  C   UNL     1      -5.257  27.855  -1.113  1.00  0.00    -0.000 C 
BRANCH  21  22
ATOM     22  C   UNL     1      -5.198  29.363  -1.432  1.00  0.00    -0.000 C 
BRANCH  22  23
ATOM     23  C   UNL     1      -4.809  30.263  -0.246  1.00  0.00    -0.000 C 
BRANCH  23  24
ATOM     24  C   UNL     1      -4.297  29.464   0.966  1.00  0.00    -0.000 C 
BRANCH  24  25
ATOM     25  C   UNL     1      -3.297  30.259   1.818  1.00  0.00    -0.003 C 
ATOM     26  C   UNL     1      -2.037  29.461   2.146  1.00  0.00     0.004 C 
ENDBRANCH  24  25
ENDBRANCH  23  24
ENDBRANCH  22  23
ENDBRANCH  21  22
ENDBRANCH  20  21
ENDBRANCH  19  20
ENDBRANCH  18  19
ENDBRANCH  17  18
ENDBRANCH  16  17
ENDBRANCH  15  16
ENDBRANCH   1  15
TORSDOF 22
ENDMDL
