MODEL 1
REMARK VINA RESULT:    -5.037      0.000      0.000
REMARK INTER + INTRA:          -6.199
REMARK INTER:                  -5.921
REMARK INTRA:                  -0.278
REMARK UNBOUND:                -0.278
REMARK SMILES O=c1cc(-c2ccc(O)c(O)c2)oc2cc(O)cc(O)c12
REMARK SMILES IDX 4 1 3 2 2 3 1 4 21 5 19 6 18 7 16 8 15 9 14 10 13 11 5 12
REMARK SMILES IDX 6 13 7 14 8 15 12 16 10 17 9 18 11 20 20 22 17 24
REMARK H PARENT 9 19 11 21 20 23 17 25
REMARK Flexibility Score: inf
ROOT
ATOM      1  C   UNL     1     -29.095  21.073  48.195  1.00  0.00     0.138 A 
ATOM      2  C   UNL     1     -28.990  20.016  49.109  1.00  0.00     0.100 A 
ATOM      3  C   UNL     1     -29.103  20.272  50.476  1.00  0.00     0.197 A 
ATOM      4  O   UNL     1     -29.067  19.294  51.268  1.00  0.00    -0.289 OA
ATOM      5  C   UNL     1     -29.290  21.599  50.930  1.00  0.00     0.107 A 
ATOM      6  C   UNL     1     -29.378  21.984  52.302  1.00  0.00     0.134 A 
ATOM      7  C   UNL     1     -29.680  23.311  52.627  1.00  0.00     0.093 A 
ATOM      8  C   UNL     1     -29.838  24.280  51.633  1.00  0.00     0.123 A 
ATOM      9  C   UNL     1     -29.701  23.925  50.294  1.00  0.00     0.094 A 
ATOM     10  C   UNL     1     -29.434  22.602  49.934  1.00  0.00     0.146 A 
ATOM     11  O   UNL     1     -29.326  22.302  48.645  1.00  0.00    -0.456 OA
ENDROOT
BRANCH   1  12
ATOM     12  C   UNL     1     -28.983  20.857  46.730  1.00  0.00     0.021 A 
ATOM     13  C   UNL     1     -29.852  21.488  45.820  1.00  0.00     0.016 A 
ATOM     14  C   UNL     1     -29.730  21.259  44.447  1.00  0.00     0.051 A 
ATOM     15  C   UNL     1     -28.748  20.392  43.959  1.00  0.00     0.157 A 
ATOM     16  C   UNL     1     -28.006  19.976  46.233  1.00  0.00     0.062 A 
ATOM     17  C   UNL     1     -27.883  19.744  44.855  1.00  0.00     0.158 A 
BRANCH  15  18
ATOM     18  O   UNL     1     -28.651  20.183  42.584  1.00  0.00    -0.504 OA
ATOM     19  H   UNL     1     -29.454  20.250  41.971  1.00  0.00     0.293 HD
ENDBRANCH  15  18
BRANCH  17  20
ATOM     20  O   UNL     1     -26.903  18.875  44.376  1.00  0.00    -0.504 OA
ATOM     21  H   UNL     1     -26.651  18.849  43.394  1.00  0.00     0.293 HD
ENDBRANCH  17  20
ENDBRANCH   1  12
BRANCH   6  22
ATOM     22  O   UNL     1     -29.153  21.114  53.373  1.00  0.00    -0.507 OA
ATOM     23  H   UNL     1     -29.563  20.197  53.468  1.00  0.00     0.293 HD
ENDBRANCH   6  22
BRANCH   8  24
ATOM     24  O   UNL     1     -30.124  25.602  51.968  1.00  0.00    -0.508 OA
ATOM     25  H   UNL     1     -29.461  26.349  51.792  1.00  0.00     0.293 HD
ENDBRANCH   8  24
TORSDOF 5
ENDMDL
MODEL 2
REMARK VINA RESULT:    -4.505      1.499      6.982
REMARK INTER + INTRA:          -5.573
REMARK INTER:                  -5.281
REMARK INTRA:                  -0.292
REMARK UNBOUND:                -0.278
REMARK SMILES O=c1cc(-c2ccc(O)c(O)c2)oc2cc(O)cc(O)c12
REMARK SMILES IDX 4 1 3 2 2 3 1 4 21 5 19 6 18 7 16 8 15 9 14 10 13 11 5 12
REMARK SMILES IDX 6 13 7 14 8 15 12 16 10 17 9 18 11 20 20 22 17 24
REMARK H PARENT 9 19 11 21 20 23 17 25
REMARK Flexibility Score: inf
ROOT
ATOM      1  C   UNL     1     -28.790  21.319  48.303  1.00  0.00     0.138 A 
ATOM      2  C   UNL     1     -27.913  20.244  48.103  1.00  0.00     0.100 A 
ATOM      3  C   UNL     1     -27.648  19.802  46.806  1.00  0.00     0.197 A 
ATOM      4  O   UNL     1     -26.809  18.875  46.655  1.00  0.00    -0.289 OA
ATOM      5  C   UNL     1     -28.289  20.420  45.707  1.00  0.00     0.107 A 
ATOM      6  C   UNL     1     -28.126  20.027  44.345  1.00  0.00     0.134 A 
ATOM      7  C   UNL     1     -28.722  20.788  43.331  1.00  0.00     0.093 A 
ATOM      8  C   UNL     1     -29.523  21.891  43.634  1.00  0.00     0.123 A 
ATOM      9  C   UNL     1     -29.731  22.251  44.963  1.00  0.00     0.094 A 
ATOM     10  C   UNL     1     -29.124  21.533  45.996  1.00  0.00     0.146 A 
ATOM     11  O   UNL     1     -29.337  21.918  47.249  1.00  0.00    -0.456 OA
ENDROOT
BRANCH   1  12
ATOM     12  C   UNL     1     -29.108  21.830  49.660  1.00  0.00     0.021 A 
ATOM     13  C   UNL     1     -29.455  20.963  50.714  1.00  0.00     0.016 A 
ATOM     14  C   UNL     1     -29.760  21.471  51.979  1.00  0.00     0.051 A 
ATOM     15  C   UNL     1     -29.733  22.849  52.214  1.00  0.00     0.157 A 
ATOM     16  C   UNL     1     -29.096  23.216  49.900  1.00  0.00     0.062 A 
ATOM     17  C   UNL     1     -29.402  23.727  51.170  1.00  0.00     0.158 A 
BRANCH  15  18
ATOM     18  O   UNL     1     -30.041  23.325  53.488  1.00  0.00    -0.504 OA
ATOM     19  H   UNL     1     -30.961  23.216  53.895  1.00  0.00     0.293 HD
ENDBRANCH  15  18
BRANCH  17  20
ATOM     20  O   UNL     1     -29.377  25.102  51.396  1.00  0.00    -0.504 OA
ATOM     21  H   UNL     1     -28.664  25.532  51.973  1.00  0.00     0.293 HD
ENDBRANCH  17  20
ENDBRANCH   1  12
BRANCH   6  22
ATOM     22  O   UNL     1     -27.418  18.893  43.939  1.00  0.00    -0.507 OA
ATOM     23  H   UNL     1     -26.460  18.894  43.619  1.00  0.00     0.293 HD
ENDBRANCH   6  22
BRANCH   8  24
ATOM     24  O   UNL     1     -30.124  22.634  42.619  1.00  0.00    -0.508 OA
ATOM     25  H   UNL     1     -30.025  22.377  41.644  1.00  0.00     0.293 HD
ENDBRANCH   8  24
TORSDOF 5
ENDMDL
MODEL 3
REMARK VINA RESULT:    -3.881      1.277      2.686
REMARK INTER + INTRA:          -4.839
REMARK INTER:                  -4.536
REMARK INTRA:                  -0.303
REMARK UNBOUND:                -0.278
REMARK SMILES O=c1cc(-c2ccc(O)c(O)c2)oc2cc(O)cc(O)c12
REMARK SMILES IDX 4 1 3 2 2 3 1 4 21 5 19 6 18 7 16 8 15 9 14 10 13 11 5 12
REMARK SMILES IDX 6 13 7 14 8 15 12 16 10 17 9 18 11 20 20 22 17 24
REMARK H PARENT 9 19 11 21 20 23 17 25
REMARK Flexibility Score: inf
ROOT
ATOM      1  C   UNL     1     -29.064  21.808  48.427  1.00  0.00     0.138 A 
ATOM      2  C   UNL     1     -29.653  23.025  48.797  1.00  0.00     0.100 A 
ATOM      3  C   UNL     1     -29.643  23.416  50.137  1.00  0.00     0.197 A 
ATOM      4  O   UNL     1     -30.125  24.542  50.430  1.00  0.00    -0.289 OA
ATOM      5  C   UNL     1     -29.069  22.569  51.114  1.00  0.00     0.107 A 
ATOM      6  C   UNL     1     -29.038  22.845  52.513  1.00  0.00     0.134 A 
ATOM      7  C   UNL     1     -28.339  21.987  53.371  1.00  0.00     0.093 A 
ATOM      8  C   UNL     1     -27.721  20.832  52.888  1.00  0.00     0.123 A 
ATOM      9  C   UNL     1     -27.790  20.525  51.531  1.00  0.00     0.094 A 
ATOM     10  C   UNL     1     -28.451  21.378  50.645  1.00  0.00     0.146 A 
ATOM     11  O   UNL     1     -28.482  21.056  49.356  1.00  0.00    -0.456 OA
ENDROOT
BRANCH   1  12
ATOM     12  C   UNL     1     -29.046  21.343  47.017  1.00  0.00     0.021 A 
ATOM     13  C   UNL     1     -30.122  21.592  46.143  1.00  0.00     0.016 A 
ATOM     14  C   UNL     1     -30.084  21.134  44.823  1.00  0.00     0.051 A 
ATOM     15  C   UNL     1     -28.980  20.414  44.355  1.00  0.00     0.157 A 
ATOM     16  C   UNL     1     -27.946  20.607  46.543  1.00  0.00     0.062 A 
ATOM     17  C   UNL     1     -27.906  20.146  45.219  1.00  0.00     0.158 A 
BRANCH  15  18
ATOM     18  O   UNL     1     -28.971  19.971  43.033  1.00  0.00    -0.504 OA
ATOM     19  H   UNL     1     -28.110  19.826  42.520  1.00  0.00     0.293 HD
ENDBRANCH  15  18
BRANCH  17  20
ATOM     20  O   UNL     1     -26.804  19.426  44.761  1.00  0.00    -0.504 OA
ATOM     21  H   UNL     1     -26.644  19.273  43.772  1.00  0.00     0.293 HD
ENDBRANCH  17  20
ENDBRANCH   1  12
BRANCH   6  22
ATOM     22  O   UNL     1     -29.694  23.926  53.110  1.00  0.00    -0.507 OA
ATOM     23  H   UNL     1     -30.573  23.867  53.601  1.00  0.00     0.293 HD
ENDBRANCH   6  22
BRANCH   8  24
ATOM     24  O   UNL     1     -27.039  19.976  53.751  1.00  0.00    -0.508 OA
ATOM     25  H   UNL     1     -27.362  19.809  54.697  1.00  0.00     0.293 HD
ENDBRANCH   8  24
TORSDOF 5
ENDMDL
MODEL 4
REMARK VINA RESULT:    -3.674      1.460      3.006
REMARK INTER + INTRA:          -4.596
REMARK INTER:                  -4.305
REMARK INTRA:                  -0.291
REMARK UNBOUND:                -0.278
REMARK SMILES O=c1cc(-c2ccc(O)c(O)c2)oc2cc(O)cc(O)c12
REMARK SMILES IDX 4 1 3 2 2 3 1 4 21 5 19 6 18 7 16 8 15 9 14 10 13 11 5 12
REMARK SMILES IDX 6 13 7 14 8 15 12 16 10 17 9 18 11 20 20 22 17 24
REMARK H PARENT 9 19 11 21 20 23 17 25
REMARK Flexibility Score: inf
ROOT
ATOM      1  C   UNL     1     -29.236  21.442  48.244  1.00  0.00     0.138 A 
ATOM      2  C   UNL     1     -29.763  22.701  48.562  1.00  0.00     0.100 A 
ATOM      3  C   UNL     1     -29.699  23.163  49.877  1.00  0.00     0.197 A 
ATOM      4  O   UNL     1     -30.125  24.323  50.120  1.00  0.00    -0.289 OA
ATOM      5  C   UNL     1     -29.133  22.346  50.884  1.00  0.00     0.107 A 
ATOM      6  C   UNL     1     -29.051  22.696  52.265  1.00  0.00     0.134 A 
ATOM      7  C   UNL     1     -28.365  21.856  53.150  1.00  0.00     0.093 A 
ATOM      8  C   UNL     1     -27.809  20.650  52.716  1.00  0.00     0.123 A 
ATOM      9  C   UNL     1     -27.930  20.274  51.380  1.00  0.00     0.094 A 
ATOM     10  C   UNL     1     -28.579  21.106  50.465  1.00  0.00     0.146 A 
ATOM     11  O   UNL     1     -28.660  20.717  49.197  1.00  0.00    -0.456 OA
ENDROOT
BRANCH   1  12
ATOM     12  C   UNL     1     -29.278  20.901  46.861  1.00  0.00     0.021 A 
ATOM     13  C   UNL     1     -29.083  19.533  46.596  1.00  0.00     0.016 A 
ATOM     14  C   UNL     1     -29.117  19.053  45.284  1.00  0.00     0.051 A 
ATOM     15  C   UNL     1     -29.337  19.927  44.216  1.00  0.00     0.157 A 
ATOM     16  C   UNL     1     -29.485  21.778  45.781  1.00  0.00     0.062 A 
ATOM     17  C   UNL     1     -29.519  21.297  44.464  1.00  0.00     0.158 A 
BRANCH  15  18
ATOM     18  O   UNL     1     -29.367  19.418  42.918  1.00  0.00    -0.504 OA
ATOM     19  H   UNL     1     -28.637  18.815  42.560  1.00  0.00     0.293 HD
ENDBRANCH  15  18
BRANCH  17  20
ATOM     20  O   UNL     1     -29.735  22.176  43.403  1.00  0.00    -0.504 OA
ATOM     21  H   UNL     1     -30.032  23.132  43.558  1.00  0.00     0.293 HD
ENDBRANCH  17  20
ENDBRANCH   1  12
BRANCH   6  22
ATOM     22  O   UNL     1     -29.644  23.834  52.818  1.00  0.00    -0.507 OA
ATOM     23  H   UNL     1     -29.372  24.260  53.692  1.00  0.00     0.293 HD
ENDBRANCH   6  22
BRANCH   8  24
ATOM     24  O   UNL     1     -27.140  19.813  53.606  1.00  0.00    -0.508 OA
ATOM     25  H   UNL     1     -26.544  20.185  54.336  1.00  0.00     0.293 HD
ENDBRANCH   8  24
TORSDOF 5
ENDMDL
