MODEL 1
REMARK VINA RESULT:    -3.629      0.000      0.000
REMARK INTER + INTRA:         -14.541
REMARK INTER:                  -9.569
REMARK INTRA:                  -4.972
REMARK UNBOUND:                -4.972
REMARK SMILES CCCCCCCCCCCCCCCCCCCCCCCCCCCCCC(=O)[O-]
REMARK SMILES IDX 16 1 17 2 18 3 19 4 20 5 21 6 22 7 23 8 24 9 25 10 26 11
REMARK SMILES IDX 27 12 28 13 29 14 30 15 31 16 32 17 15 18 14 19 13 20 12 21
REMARK SMILES IDX 11 22 10 23 9 24 8 25 7 26 6 27 5 28 4 29 3 30 2 31 1 32
REMARK H PARENT
REMARK Flexibility Score: inf
ROOT
ATOM      1  C   UNL     1     -19.426 -24.925 -15.768  1.00  0.00     0.000 C 
ENDROOT
BRANCH   1   2
ATOM      2  C   UNL     1     -18.125 -24.866 -14.947  1.00  0.00     0.000 C 
BRANCH   2   3
ATOM      3  C   UNL     1     -17.016 -24.079 -15.671  1.00  0.00     0.000 C 
BRANCH   3   4
ATOM      4  C   UNL     1     -15.633 -24.758 -15.604  1.00  0.00     0.000 C 
BRANCH   4   5
ATOM      5  C   UNL     1     -15.721 -26.220 -15.130  1.00  0.00     0.000 C 
BRANCH   5   6
ATOM      6  C   UNL     1     -15.025 -27.199 -16.099  1.00  0.00     0.000 C 
BRANCH   6   7
ATOM      7  C   UNL     1     -15.954 -28.294 -16.656  1.00  0.00     0.000 C 
BRANCH   7   8
ATOM      8  C   UNL     1     -17.280 -27.787 -17.244  1.00  0.00     0.000 C 
BRANCH   8   9
ATOM      9  C   UNL     1     -17.113 -27.193 -18.655  1.00  0.00     0.000 C 
BRANCH   9  10
ATOM     10  C   UNL     1     -17.891 -25.880 -18.848  1.00  0.00     0.000 C 
BRANCH  10  11
ATOM     11  C   UNL     1     -19.025 -25.945 -19.892  1.00  0.00     0.000 C 
BRANCH  11  12
ATOM     12  C   UNL     1     -19.645 -27.350 -20.050  1.00  0.00     0.000 C 
BRANCH  12  13
ATOM     13  C   UNL     1     -20.781 -27.368 -21.084  1.00  0.00     0.006 C 
BRANCH  13  14
ATOM     14  C   UNL     1     -20.900 -28.740 -21.751  1.00  0.00     0.053 C 
BRANCH  14  15
ATOM     15  C   UNL     1     -20.418 -28.678 -23.167  1.00  0.00     0.041 C 
ATOM     16  O   UNL     1     -20.553 -29.672 -23.928  1.00  0.00    -0.550 OA
ATOM     17  O   UNL     1     -19.784 -27.532 -23.635  1.00  0.00    -0.550 OA
ENDBRANCH  14  15
ENDBRANCH  13  14
ENDBRANCH  12  13
ENDBRANCH  11  12
ENDBRANCH  10  11
ENDBRANCH   9  10
ENDBRANCH   8   9
ENDBRANCH   7   8
ENDBRANCH   6   7
ENDBRANCH   5   6
ENDBRANCH   4   5
ENDBRANCH   3   4
ENDBRANCH   2   3
ENDBRANCH   1   2
BRANCH   1  18
ATOM     18  C   UNL     1     -20.072 -26.319 -15.751  1.00  0.00     0.000 C 
BRANCH  18  19
ATOM     19  C   UNL     1     -21.182 -26.467 -16.806  1.00  0.00     0.000 C 
BRANCH  19  20
ATOM     20  C   UNL     1     -21.914 -25.145 -17.098  1.00  0.00     0.000 C 
BRANCH  20  21
ATOM     21  C   UNL     1     -22.189 -24.899 -18.596  1.00  0.00     0.000 C 
BRANCH  21  22
ATOM     22  C   UNL     1     -23.415 -25.676 -19.104  1.00  0.00     0.000 C 
BRANCH  22  23
ATOM     23  C   UNL     1     -24.564 -25.704 -18.081  1.00  0.00     0.000 C 
BRANCH  23  24
ATOM     24  C   UNL     1     -25.717 -24.763 -18.465  1.00  0.00    -0.000 C 
BRANCH  24  25
ATOM     25  C   UNL     1     -26.063 -23.807 -17.313  1.00  0.00    -0.000 C 
BRANCH  25  26
ATOM     26  C   UNL     1     -24.818 -23.323 -16.552  1.00  0.00    -0.000 C 
BRANCH  26  27
ATOM     27  C   UNL     1     -24.307 -21.960 -17.050  1.00  0.00    -0.000 C 
BRANCH  27  28
ATOM     28  C   UNL     1     -23.490 -21.214 -15.974  1.00  0.00    -0.000 C 
BRANCH  28  29
ATOM     29  C   UNL     1     -22.510 -20.178 -16.551  1.00  0.00    -0.000 C 
BRANCH  29  30
ATOM     30  C   UNL     1     -21.462 -20.804 -17.485  1.00  0.00    -0.000 C 
BRANCH  30  31
ATOM     31  C   UNL     1     -20.467 -21.701 -16.734  1.00  0.00    -0.003 C 
ATOM     32  C   UNL     1     -19.937 -21.054 -15.454  1.00  0.00     0.004 C 
ENDBRANCH  30  31
ENDBRANCH  29  30
ENDBRANCH  28  29
ENDBRANCH  27  28
ENDBRANCH  26  27
ENDBRANCH  25  26
ENDBRANCH  24  25
ENDBRANCH  23  24
ENDBRANCH  22  23
ENDBRANCH  21  22
ENDBRANCH  20  21
ENDBRANCH  19  20
ENDBRANCH  18  19
ENDBRANCH   1  18
TORSDOF 28
ENDMDL
MODEL 2
REMARK VINA RESULT:    -3.601      1.617      4.338
REMARK INTER + INTRA:         -14.468
REMARK INTER:                 -10.947
REMARK INTRA:                  -3.521
REMARK UNBOUND:                -4.972
REMARK SMILES CCCCCCCCCCCCCCCCCCCCCCCCCCCCCC(=O)[O-]
REMARK SMILES IDX 16 1 17 2 18 3 19 4 20 5 21 6 22 7 23 8 24 9 25 10 26 11
REMARK SMILES IDX 27 12 28 13 29 14 30 15 31 16 32 17 15 18 14 19 13 20 12 21
REMARK SMILES IDX 11 22 10 23 9 24 8 25 7 26 6 27 5 28 4 29 3 30 2 31 1 32
REMARK H PARENT
REMARK Flexibility Score: inf
ROOT
ATOM      1  C   UNL     1     -18.172 -28.576 -15.427  1.00  0.00     0.000 C 
ENDROOT
BRANCH   1   2
ATOM      2  C   UNL     1     -16.684 -28.467 -15.045  1.00  0.00     0.000 C 
BRANCH   2   3
ATOM      3  C   UNL     1     -15.929 -29.792 -15.264  1.00  0.00     0.000 C 
BRANCH   3   4
ATOM      4  C   UNL     1     -15.066 -29.806 -16.541  1.00  0.00     0.000 C 
BRANCH   4   5
ATOM      5  C   UNL     1     -13.910 -28.791 -16.478  1.00  0.00     0.000 C 
BRANCH   5   6
ATOM      6  C   UNL     1     -13.667 -28.086 -17.829  1.00  0.00     0.000 C 
BRANCH   6   7
ATOM      7  C   UNL     1     -14.548 -26.842 -18.053  1.00  0.00     0.000 C 
BRANCH   7   8
ATOM      8  C   UNL     1     -15.552 -26.953 -19.211  1.00  0.00     0.000 C 
BRANCH   8   9
ATOM      9  C   UNL     1     -17.005 -27.095 -18.722  1.00  0.00     0.000 C 
BRANCH   9  10
ATOM     10  C   UNL     1     -17.850 -25.836 -18.984  1.00  0.00     0.000 C 
BRANCH  10  11
ATOM     11  C   UNL     1     -18.821 -25.943 -20.178  1.00  0.00     0.000 C 
BRANCH  11  12
ATOM     12  C   UNL     1     -19.920 -27.011 -19.992  1.00  0.00     0.000 C 
BRANCH  12  13
ATOM     13  C   UNL     1     -19.722 -28.214 -20.927  1.00  0.00     0.006 C 
BRANCH  13  14
ATOM     14  C   UNL     1     -20.893 -28.355 -21.902  1.00  0.00     0.053 C 
BRANCH  14  15
ATOM     15  C   UNL     1     -20.391 -28.583 -23.294  1.00  0.00     0.041 C 
ATOM     16  O   UNL     1     -20.511 -29.713 -23.835  1.00  0.00    -0.550 OA
ATOM     17  O   UNL     1     -19.754 -27.555 -23.980  1.00  0.00    -0.550 OA
ENDBRANCH  14  15
ENDBRANCH  13  14
ENDBRANCH  12  13
ENDBRANCH  11  12
ENDBRANCH  10  11
ENDBRANCH   9  10
ENDBRANCH   8   9
ENDBRANCH   7   8
ENDBRANCH   6   7
ENDBRANCH   5   6
ENDBRANCH   4   5
ENDBRANCH   3   4
ENDBRANCH   2   3
ENDBRANCH   1   2
BRANCH   1  18
ATOM     18  C   UNL     1     -18.795 -27.214 -15.771  1.00  0.00     0.000 C 
BRANCH  18  19
ATOM     19  C   UNL     1     -18.266 -26.081 -14.875  1.00  0.00     0.000 C 
BRANCH  19  20
ATOM     20  C   UNL     1     -17.010 -25.400 -15.444  1.00  0.00     0.000 C 
BRANCH  20  21
ATOM     21  C   UNL     1     -17.173 -23.886 -15.689  1.00  0.00     0.000 C 
BRANCH  21  22
ATOM     22  C   UNL     1     -18.456 -23.322 -15.053  1.00  0.00     0.000 C 
BRANCH  22  23
ATOM     23  C   UNL     1     -19.388 -22.663 -16.084  1.00  0.00     0.000 C 
BRANCH  23  24
ATOM     24  C   UNL     1     -19.880 -23.655 -17.150  1.00  0.00    -0.000 C 
BRANCH  24  25
ATOM     25  C   UNL     1     -21.053 -24.499 -16.626  1.00  0.00    -0.000 C 
BRANCH  25  26
ATOM     26  C   UNL     1     -21.496 -25.579 -17.627  1.00  0.00    -0.000 C 
BRANCH  26  27
ATOM     27  C   UNL     1     -22.998 -25.506 -17.957  1.00  0.00    -0.000 C 
BRANCH  27  28
ATOM     28  C   UNL     1     -23.692 -24.321 -17.254  1.00  0.00    -0.000 C 
BRANCH  28  29
ATOM     29  C   UNL     1     -25.218 -24.482 -17.136  1.00  0.00    -0.000 C 
BRANCH  29  30
ATOM     30  C   UNL     1     -25.822 -25.305 -18.286  1.00  0.00    -0.000 C 
BRANCH  30  31
ATOM     31  C   UNL     1     -27.352 -25.403 -18.199  1.00  0.00    -0.003 C 
ATOM     32  C   UNL     1     -27.990 -24.154 -17.589  1.00  0.00     0.004 C 
ENDBRANCH  30  31
ENDBRANCH  29  30
ENDBRANCH  28  29
ENDBRANCH  27  28
ENDBRANCH  26  27
ENDBRANCH  25  26
ENDBRANCH  24  25
ENDBRANCH  23  24
ENDBRANCH  22  23
ENDBRANCH  21  22
ENDBRANCH  20  21
ENDBRANCH  19  20
ENDBRANCH  18  19
ENDBRANCH   1  18
TORSDOF 28
ENDMDL
MODEL 3
REMARK VINA RESULT:    -3.562      3.135      5.900
REMARK INTER + INTRA:         -14.365
REMARK INTER:                 -10.346
REMARK INTRA:                  -4.019
REMARK UNBOUND:                -4.972
REMARK SMILES CCCCCCCCCCCCCCCCCCCCCCCCCCCCCC(=O)[O-]
REMARK SMILES IDX 16 1 17 2 18 3 19 4 20 5 21 6 22 7 23 8 24 9 25 10 26 11
REMARK SMILES IDX 27 12 28 13 29 14 30 15 31 16 32 17 15 18 14 19 13 20 12 21
REMARK SMILES IDX 11 22 10 23 9 24 8 25 7 26 6 27 5 28 4 29 3 30 2 31 1 32
REMARK H PARENT
REMARK Flexibility Score: inf
ROOT
ATOM      1  C   UNL     1     -19.313 -22.286 -15.113  1.00  0.00     0.000 C 
ENDROOT
BRANCH   1   2
ATOM      2  C   UNL     1     -18.632 -23.384 -15.951  1.00  0.00     0.000 C 
BRANCH   2   3
ATOM      3  C   UNL     1     -17.190 -23.661 -15.485  1.00  0.00     0.000 C 
BRANCH   3   4
ATOM      4  C   UNL     1     -16.813 -25.156 -15.503  1.00  0.00     0.000 C 
BRANCH   4   5
ATOM      5  C   UNL     1     -17.929 -26.049 -14.932  1.00  0.00     0.000 C 
BRANCH   5   6
ATOM      6  C   UNL     1     -18.243 -27.257 -15.840  1.00  0.00     0.000 C 
BRANCH   6   7
ATOM      7  C   UNL     1     -18.922 -26.880 -17.171  1.00  0.00     0.000 C 
BRANCH   7   8
ATOM      8  C   UNL     1     -18.142 -27.271 -18.435  1.00  0.00     0.000 C 
BRANCH   8   9
ATOM      9  C   UNL     1     -17.105 -26.208 -18.844  1.00  0.00     0.000 C 
BRANCH   9  10
ATOM     10  C   UNL     1     -15.671 -26.760 -18.897  1.00  0.00     0.000 C 
BRANCH  10  11
ATOM     11  C   UNL     1     -15.514 -28.210 -18.396  1.00  0.00     0.000 C 
BRANCH  11  12
ATOM     12  C   UNL     1     -15.149 -28.315 -16.899  1.00  0.00     0.000 C 
BRANCH  12  13
ATOM     13  C   UNL     1     -13.960 -27.415 -16.529  1.00  0.00     0.006 C 
BRANCH  13  14
ATOM     14  C   UNL     1     -12.629 -28.089 -16.870  1.00  0.00     0.053 C 
BRANCH  14  15
ATOM     15  C   UNL     1     -11.714 -27.124 -17.556  1.00  0.00     0.041 C 
ATOM     16  O   UNL     1     -10.474 -27.158 -17.337  1.00  0.00    -0.550 OA
ATOM     17  O   UNL     1     -12.235 -26.159 -18.411  1.00  0.00    -0.550 OA
ENDBRANCH  14  15
ENDBRANCH  13  14
ENDBRANCH  12  13
ENDBRANCH  11  12
ENDBRANCH  10  11
ENDBRANCH   9  10
ENDBRANCH   8   9
ENDBRANCH   7   8
ENDBRANCH   6   7
ENDBRANCH   5   6
ENDBRANCH   4   5
ENDBRANCH   3   4
ENDBRANCH   2   3
ENDBRANCH   1   2
BRANCH   1  18
ATOM     18  C   UNL     1     -18.511 -20.975 -15.092  1.00  0.00     0.000 C 
BRANCH  18  19
ATOM     19  C   UNL     1     -19.409 -19.733 -15.220  1.00  0.00     0.000 C 
BRANCH  19  20
ATOM     20  C   UNL     1     -19.190 -18.965 -16.535  1.00  0.00     0.000 C 
BRANCH  20  21
ATOM     21  C   UNL     1     -20.436 -18.204 -17.032  1.00  0.00     0.000 C 
BRANCH  21  22
ATOM     22  C   UNL     1     -21.697 -18.547 -16.220  1.00  0.00     0.000 C 
BRANCH  22  23
ATOM     23  C   UNL     1     -22.989 -18.396 -17.042  1.00  0.00     0.000 C 
BRANCH  23  24
ATOM     24  C   UNL     1     -23.928 -19.603 -16.888  1.00  0.00    -0.000 C 
BRANCH  24  25
ATOM     25  C   UNL     1     -23.292 -20.696 -16.015  1.00  0.00    -0.000 C 
BRANCH  25  26
ATOM     26  C   UNL     1     -23.365 -22.088 -16.666  1.00  0.00    -0.000 C 
BRANCH  26  27
ATOM     27  C   UNL     1     -22.029 -22.523 -17.294  1.00  0.00    -0.000 C 
BRANCH  27  28
ATOM     28  C   UNL     1     -21.892 -24.058 -17.369  1.00  0.00    -0.000 C 
BRANCH  28  29
ATOM     29  C   UNL     1     -22.021 -24.619 -18.796  1.00  0.00    -0.000 C 
BRANCH  29  30
ATOM     30  C   UNL     1     -23.161 -25.642 -18.935  1.00  0.00    -0.000 C 
BRANCH  30  31
ATOM     31  C   UNL     1     -24.161 -25.569 -17.771  1.00  0.00    -0.003 C 
ATOM     32  C   UNL     1     -25.504 -24.966 -18.182  1.00  0.00     0.004 C 
ENDBRANCH  30  31
ENDBRANCH  29  30
ENDBRANCH  28  29
ENDBRANCH  27  28
ENDBRANCH  26  27
ENDBRANCH  25  26
ENDBRANCH  24  25
ENDBRANCH  23  24
ENDBRANCH  22  23
ENDBRANCH  21  22
ENDBRANCH  20  21
ENDBRANCH  19  20
ENDBRANCH  18  19
ENDBRANCH   1  18
TORSDOF 28
ENDMDL
MODEL 4
REMARK VINA RESULT:    -3.509      2.672      4.860
REMARK INTER + INTRA:         -14.224
REMARK INTER:                  -9.081
REMARK INTRA:                  -5.143
REMARK UNBOUND:                -4.972
REMARK SMILES CCCCCCCCCCCCCCCCCCCCCCCCCCCCCC(=O)[O-]
REMARK SMILES IDX 16 1 17 2 18 3 19 4 20 5 21 6 22 7 23 8 24 9 25 10 26 11
REMARK SMILES IDX 27 12 28 13 29 14 30 15 31 16 32 17 15 18 14 19 13 20 12 21
REMARK SMILES IDX 11 22 10 23 9 24 8 25 7 26 6 27 5 28 4 29 3 30 2 31 1 32
REMARK H PARENT
REMARK Flexibility Score: inf
ROOT
ATOM      1  C   UNL     1     -17.852 -27.256 -18.347  1.00  0.00     0.000 C 
ENDROOT
BRANCH   1   2
ATOM      2  C   UNL     1     -19.003 -27.766 -17.460  1.00  0.00     0.000 C 
BRANCH   2   3
ATOM      3  C   UNL     1     -18.548 -28.027 -16.011  1.00  0.00     0.000 C 
BRANCH   3   4
ATOM      4  C   UNL     1     -19.465 -27.384 -14.952  1.00  0.00     0.000 C 
BRANCH   4   5
ATOM      5  C   UNL     1     -20.685 -26.686 -15.578  1.00  0.00     0.000 C 
BRANCH   5   6
ATOM      6  C   UNL     1     -20.843 -25.228 -15.098  1.00  0.00     0.000 C 
BRANCH   6   7
ATOM      7  C   UNL     1     -19.507 -24.492 -14.883  1.00  0.00     0.000 C 
BRANCH   7   8
ATOM      8  C   UNL     1     -18.805 -24.026 -16.167  1.00  0.00     0.000 C 
BRANCH   8   9
ATOM      9  C   UNL     1     -17.279 -23.904 -15.996  1.00  0.00     0.000 C 
BRANCH   9  10
ATOM     10  C   UNL     1     -16.709 -24.903 -14.976  1.00  0.00     0.000 C 
BRANCH  10  11
ATOM     11  C   UNL     1     -15.797 -25.994 -15.574  1.00  0.00     0.000 C 
BRANCH  11  12
ATOM     12  C   UNL     1     -15.070 -25.556 -16.864  1.00  0.00     0.000 C 
BRANCH  12  13
ATOM     13  C   UNL     1     -14.285 -26.710 -17.506  1.00  0.00     0.006 C 
BRANCH  13  14
ATOM     14  C   UNL     1     -13.622 -27.587 -16.441  1.00  0.00     0.053 C 
BRANCH  14  15
ATOM     15  C   UNL     1     -14.023 -29.019 -16.617  1.00  0.00     0.041 C 
ATOM     16  O   UNL     1     -15.240 -29.337 -16.649  1.00  0.00    -0.550 OA
ATOM     17  O   UNL     1     -13.049 -30.007 -16.708  1.00  0.00    -0.550 OA
ENDBRANCH  14  15
ENDBRANCH  13  14
ENDBRANCH  12  13
ENDBRANCH  11  12
ENDBRANCH  10  11
ENDBRANCH   9  10
ENDBRANCH   8   9
ENDBRANCH   7   8
ENDBRANCH   6   7
ENDBRANCH   5   6
ENDBRANCH   4   5
ENDBRANCH   3   4
ENDBRANCH   2   3
ENDBRANCH   1   2
BRANCH   1  18
ATOM     18  C   UNL     1     -18.165 -25.901 -19.001  1.00  0.00     0.000 C 
BRANCH  18  19
ATOM     19  C   UNL     1     -19.445 -25.940 -19.854  1.00  0.00     0.000 C 
BRANCH  19  20
ATOM     20  C   UNL     1     -20.546 -25.002 -19.331  1.00  0.00     0.000 C 
BRANCH  20  21
ATOM     21  C   UNL     1     -21.670 -25.723 -18.559  1.00  0.00     0.000 C 
BRANCH  21  22
ATOM     22  C   UNL     1     -22.995 -25.751 -19.341  1.00  0.00     0.000 C 
BRANCH  22  23
ATOM     23  C   UNL     1     -24.198 -25.324 -18.482  1.00  0.00     0.000 C 
BRANCH  23  24
ATOM     24  C   UNL     1     -23.979 -25.597 -16.986  1.00  0.00    -0.000 C 
BRANCH  24  25
ATOM     25  C   UNL     1     -24.186 -24.324 -16.151  1.00  0.00    -0.000 C 
BRANCH  25  26
ATOM     26  C   UNL     1     -24.331 -23.064 -17.021  1.00  0.00    -0.000 C 
BRANCH  26  27
ATOM     27  C   UNL     1     -23.766 -21.803 -16.343  1.00  0.00    -0.000 C 
BRANCH  27  28
ATOM     28  C   UNL     1     -22.228 -21.846 -16.221  1.00  0.00    -0.000 C 
BRANCH  28  29
ATOM     29  C   UNL     1     -21.537 -20.549 -16.677  1.00  0.00    -0.000 C 
BRANCH  29  30
ATOM     30  C   UNL     1     -20.005 -20.620 -16.572  1.00  0.00    -0.000 C 
BRANCH  30  31
ATOM     31  C   UNL     1     -19.386 -19.295 -16.101  1.00  0.00    -0.003 C 
ATOM     32  C   UNL     1     -19.215 -18.287 -17.238  1.00  0.00     0.004 C 
ENDBRANCH  30  31
ENDBRANCH  29  30
ENDBRANCH  28  29
ENDBRANCH  27  28
ENDBRANCH  26  27
ENDBRANCH  25  26
ENDBRANCH  24  25
ENDBRANCH  23  24
ENDBRANCH  22  23
ENDBRANCH  21  22
ENDBRANCH  20  21
ENDBRANCH  19  20
ENDBRANCH  18  19
ENDBRANCH   1  18
TORSDOF 28
ENDMDL
MODEL 5
REMARK VINA RESULT:    -3.444      1.080      2.536
REMARK INTER + INTRA:         -14.054
REMARK INTER:                  -9.247
REMARK INTRA:                  -4.808
REMARK UNBOUND:                -4.972
REMARK SMILES CCCCCCCCCCCCCCCCCCCCCCCCCCCCCC(=O)[O-]
REMARK SMILES IDX 16 1 17 2 18 3 19 4 20 5 21 6 22 7 23 8 24 9 25 10 26 11
REMARK SMILES IDX 27 12 28 13 29 14 30 15 31 16 32 17 15 18 14 19 13 20 12 21
REMARK SMILES IDX 11 22 10 23 9 24 8 25 7 26 6 27 5 28 4 29 3 30 2 31 1 32
REMARK H PARENT
REMARK Flexibility Score: inf
ROOT
ATOM      1  C   UNL     1     -21.350 -26.113 -16.410  1.00  0.00     0.000 C 
ENDROOT
BRANCH   1   2
ATOM      2  C   UNL     1     -21.163 -25.624 -14.962  1.00  0.00     0.000 C 
BRANCH   2   3
ATOM      3  C   UNL     1     -20.388 -24.294 -14.893  1.00  0.00     0.000 C 
BRANCH   3   4
ATOM      4  C   UNL     1     -19.748 -23.883 -16.233  1.00  0.00     0.000 C 
BRANCH   4   5
ATOM      5  C   UNL     1     -18.227 -23.675 -16.117  1.00  0.00     0.000 C 
BRANCH   5   6
ATOM      6  C   UNL     1     -17.517 -24.865 -15.438  1.00  0.00     0.000 C 
BRANCH   6   7
ATOM      7  C   UNL     1     -16.580 -25.652 -16.375  1.00  0.00     0.000 C 
BRANCH   7   8
ATOM      8  C   UNL     1     -17.019 -27.093 -16.677  1.00  0.00     0.000 C 
BRANCH   8   9
ATOM      9  C   UNL     1     -18.096 -27.166 -17.775  1.00  0.00     0.000 C 
BRANCH   9  10
ATOM     10  C   UNL     1     -17.907 -26.103 -18.871  1.00  0.00     0.000 C 
BRANCH  10  11
ATOM     11  C   UNL     1     -19.009 -26.078 -19.949  1.00  0.00     0.000 C 
BRANCH  11  12
ATOM     12  C   UNL     1     -20.013 -27.246 -19.839  1.00  0.00     0.000 C 
BRANCH  12  13
ATOM     13  C   UNL     1     -20.837 -27.424 -21.124  1.00  0.00     0.006 C 
BRANCH  13  14
ATOM     14  C   UNL     1     -20.456 -28.715 -21.851  1.00  0.00     0.053 C 
BRANCH  14  15
ATOM     15  C   UNL     1     -20.351 -28.475 -23.325  1.00  0.00     0.041 C 
ATOM     16  O   UNL     1     -19.670 -27.512 -23.764  1.00  0.00    -0.550 OA
ATOM     17  O   UNL     1     -21.040 -29.295 -24.213  1.00  0.00    -0.550 OA
ENDBRANCH  14  15
ENDBRANCH  13  14
ENDBRANCH  12  13
ENDBRANCH  11  12
ENDBRANCH  10  11
ENDBRANCH   9  10
ENDBRANCH   8   9
ENDBRANCH   7   8
ENDBRANCH   6   7
ENDBRANCH   5   6
ENDBRANCH   4   5
ENDBRANCH   3   4
ENDBRANCH   2   3
ENDBRANCH   1   2
BRANCH   1  18
ATOM     18  C   UNL     1     -22.735 -25.766 -16.977  1.00  0.00     0.000 C 
BRANCH  18  19
ATOM     19  C   UNL     1     -22.680 -25.361 -18.460  1.00  0.00     0.000 C 
BRANCH  19  20
ATOM     20  C   UNL     1     -23.954 -25.739 -19.235  1.00  0.00     0.000 C 
BRANCH  20  21
ATOM     21  C   UNL     1     -25.207 -25.890 -18.348  1.00  0.00     0.000 C 
BRANCH  21  22
ATOM     22  C   UNL     1     -26.072 -24.617 -18.331  1.00  0.00     0.000 C 
BRANCH  22  23
ATOM     23  C   UNL     1     -25.931 -23.823 -17.021  1.00  0.00     0.000 C 
BRANCH  23  24
ATOM     24  C   UNL     1     -24.946 -22.651 -17.146  1.00  0.00    -0.000 C 
BRANCH  24  25
ATOM     25  C   UNL     1     -23.755 -22.819 -16.189  1.00  0.00    -0.000 C 
BRANCH  25  26
ATOM     26  C   UNL     1     -22.834 -21.588 -16.171  1.00  0.00    -0.000 C 
BRANCH  26  27
ATOM     27  C   UNL     1     -22.022 -21.432 -17.469  1.00  0.00    -0.000 C 
BRANCH  27  28
ATOM     28  C   UNL     1     -21.070 -20.218 -17.419  1.00  0.00    -0.000 C 
BRANCH  28  29
ATOM     29  C   UNL     1     -21.060 -19.497 -16.060  1.00  0.00    -0.000 C 
BRANCH  29  30
ATOM     30  C   UNL     1     -19.645 -19.108 -15.601  1.00  0.00    -0.000 C 
BRANCH  30  31
ATOM     31  C   UNL     1     -18.849 -20.308 -15.067  1.00  0.00    -0.003 C 
ATOM     32  C   UNL     1     -17.338 -20.080 -15.109  1.00  0.00     0.004 C 
ENDBRANCH  30  31
ENDBRANCH  29  30
ENDBRANCH  28  29
ENDBRANCH  27  28
ENDBRANCH  26  27
ENDBRANCH  25  26
ENDBRANCH  24  25
ENDBRANCH  23  24
ENDBRANCH  22  23
ENDBRANCH  21  22
ENDBRANCH  20  21
ENDBRANCH  19  20
ENDBRANCH  18  19
ENDBRANCH   1  18
TORSDOF 28
ENDMDL
MODEL 6
REMARK VINA RESULT:    -3.423      3.050      5.394
REMARK INTER + INTRA:         -13.999
REMARK INTER:                  -9.854
REMARK INTRA:                  -4.146
REMARK UNBOUND:                -4.972
REMARK SMILES CCCCCCCCCCCCCCCCCCCCCCCCCCCCCC(=O)[O-]
REMARK SMILES IDX 16 1 17 2 18 3 19 4 20 5 21 6 22 7 23 8 24 9 25 10 26 11
REMARK SMILES IDX 27 12 28 13 29 14 30 15 31 16 32 17 15 18 14 19 13 20 12 21
REMARK SMILES IDX 11 22 10 23 9 24 8 25 7 26 6 27 5 28 4 29 3 30 2 31 1 32
REMARK H PARENT
REMARK Flexibility Score: inf
ROOT
ATOM      1  C   UNL     1     -18.112 -27.358 -18.584  1.00  0.00     0.000 C 
ENDROOT
BRANCH   1   2
ATOM      2  C   UNL     1     -19.116 -27.755 -17.487  1.00  0.00     0.000 C 
BRANCH   2   3
ATOM      3  C   UNL     1     -18.414 -28.228 -16.200  1.00  0.00     0.000 C 
BRANCH   3   4
ATOM      4  C   UNL     1     -19.143 -27.809 -14.909  1.00  0.00     0.000 C 
BRANCH   4   5
ATOM      5  C   UNL     1     -20.195 -26.713 -15.160  1.00  0.00     0.000 C 
BRANCH   5   6
ATOM      6  C   UNL     1     -19.639 -25.294 -14.917  1.00  0.00     0.000 C 
BRANCH   6   7
ATOM      7  C   UNL     1     -18.101 -25.223 -14.875  1.00  0.00     0.000 C 
BRANCH   7   8
ATOM      8  C   UNL     1     -17.457 -24.372 -15.980  1.00  0.00     0.000 C 
BRANCH   8   9
ATOM      9  C   UNL     1     -15.924 -24.513 -16.018  1.00  0.00     0.000 C 
BRANCH   9  10
ATOM     10  C   UNL     1     -15.454 -25.726 -16.837  1.00  0.00     0.000 C 
BRANCH  10  11
ATOM     11  C   UNL     1     -14.893 -26.896 -16.003  1.00  0.00     0.000 C 
BRANCH  11  12
ATOM     12  C   UNL     1     -14.841 -28.236 -16.768  1.00  0.00     0.000 C 
BRANCH  12  13
ATOM     13  C   UNL     1     -13.463 -28.489 -17.398  1.00  0.00     0.006 C 
BRANCH  13  14
ATOM     14  C   UNL     1     -12.367 -27.714 -16.662  1.00  0.00     0.053 C 
BRANCH  14  15
ATOM     15  C   UNL     1     -11.607 -26.848 -17.617  1.00  0.00     0.041 C 
ATOM     16  O   UNL     1     -10.352 -26.771 -17.543  1.00  0.00    -0.550 OA
ATOM     17  O   UNL     1     -12.288 -26.095 -18.567  1.00  0.00    -0.550 OA
ENDBRANCH  14  15
ENDBRANCH  13  14
ENDBRANCH  12  13
ENDBRANCH  11  12
ENDBRANCH  10  11
ENDBRANCH   9  10
ENDBRANCH   8   9
ENDBRANCH   7   8
ENDBRANCH   6   7
ENDBRANCH   5   6
ENDBRANCH   4   5
ENDBRANCH   3   4
ENDBRANCH   2   3
ENDBRANCH   1   2
BRANCH   1  18
ATOM     18  C   UNL     1     -18.386 -25.958 -19.157  1.00  0.00     0.000 C 
BRANCH  18  19
ATOM     19  C   UNL     1     -19.800 -25.830 -19.749  1.00  0.00     0.000 C 
BRANCH  19  20
ATOM     20  C   UNL     1     -20.722 -24.926 -18.913  1.00  0.00     0.000 C 
BRANCH  20  21
ATOM     21  C   UNL     1     -21.830 -25.689 -18.157  1.00  0.00     0.000 C 
BRANCH  21  22
ATOM     22  C   UNL     1     -23.242 -25.247 -18.581  1.00  0.00     0.000 C 
BRANCH  22  23
ATOM     23  C   UNL     1     -23.939 -24.388 -17.511  1.00  0.00     0.000 C 
BRANCH  23  24
ATOM     24  C   UNL     1     -23.111 -24.268 -16.222  1.00  0.00    -0.000 C 
BRANCH  24  25
ATOM     25  C   UNL     1     -22.719 -22.809 -15.945  1.00  0.00    -0.000 C 
BRANCH  25  26
ATOM     26  C   UNL     1     -21.302 -22.473 -16.441  1.00  0.00    -0.000 C 
BRANCH  26  27
ATOM     27  C   UNL     1     -21.025 -20.960 -16.474  1.00  0.00    -0.000 C 
BRANCH  27  28
ATOM     28  C   UNL     1     -21.898 -20.229 -17.517  1.00  0.00    -0.000 C 
BRANCH  28  29
ATOM     29  C   UNL     1     -22.218 -18.772 -17.140  1.00  0.00    -0.000 C 
BRANCH  29  30
ATOM     30  C   UNL     1     -23.646 -18.595 -16.599  1.00  0.00    -0.000 C 
BRANCH  30  31
ATOM     31  C   UNL     1     -24.716 -19.054 -17.602  1.00  0.00    -0.003 C 
ATOM     32  C   UNL     1     -24.553 -18.406 -18.977  1.00  0.00     0.004 C 
ENDBRANCH  30  31
ENDBRANCH  29  30
ENDBRANCH  28  29
ENDBRANCH  27  28
ENDBRANCH  26  27
ENDBRANCH  25  26
ENDBRANCH  24  25
ENDBRANCH  23  24
ENDBRANCH  22  23
ENDBRANCH  21  22
ENDBRANCH  20  21
ENDBRANCH  19  20
ENDBRANCH  18  19
ENDBRANCH   1  18
TORSDOF 28
ENDMDL
MODEL 7
REMARK VINA RESULT:    -3.384      2.774      7.827
REMARK INTER + INTRA:         -13.895
REMARK INTER:                 -10.016
REMARK INTRA:                  -3.879
REMARK UNBOUND:                -4.972
REMARK SMILES CCCCCCCCCCCCCCCCCCCCCCCCCCCCCC(=O)[O-]
REMARK SMILES IDX 16 1 17 2 18 3 19 4 20 5 21 6 22 7 23 8 24 9 25 10 26 11
REMARK SMILES IDX 27 12 28 13 29 14 30 15 31 16 32 17 15 18 14 19 13 20 12 21
REMARK SMILES IDX 11 22 10 23 9 24 8 25 7 26 6 27 5 28 4 29 3 30 2 31 1 32
REMARK H PARENT
REMARK Flexibility Score: inf
ROOT
ATOM      1  C   UNL     1     -16.205 -23.991 -15.647  1.00  0.00     0.000 C 
ENDROOT
BRANCH   1   2
ATOM      2  C   UNL     1     -16.601 -22.719 -14.875  1.00  0.00     0.000 C 
BRANCH   2   3
ATOM      3  C   UNL     1     -15.849 -21.474 -15.381  1.00  0.00     0.000 C 
BRANCH   3   4
ATOM      4  C   UNL     1     -16.755 -20.243 -15.577  1.00  0.00     0.000 C 
BRANCH   4   5
ATOM      5  C   UNL     1     -18.116 -20.400 -14.876  1.00  0.00     0.000 C 
BRANCH   5   6
ATOM      6  C   UNL     1     -19.032 -19.175 -15.081  1.00  0.00     0.000 C 
BRANCH   6   7
ATOM      7  C   UNL     1     -19.375 -18.890 -16.555  1.00  0.00     0.000 C 
BRANCH   7   8
ATOM      8  C   UNL     1     -20.762 -18.274 -16.795  1.00  0.00     0.000 C 
BRANCH   8   9
ATOM      9  C   UNL     1     -21.891 -19.319 -16.744  1.00  0.00     0.000 C 
BRANCH   9  10
ATOM     10  C   UNL     1     -21.420 -20.729 -17.142  1.00  0.00     0.000 C 
BRANCH  10  11
ATOM     11  C   UNL     1     -22.539 -21.787 -17.226  1.00  0.00     0.000 C 
BRANCH  11  12
ATOM     12  C   UNL     1     -22.800 -22.522 -15.893  1.00  0.00     0.000 C 
BRANCH  12  13
ATOM     13  C   UNL     1     -23.582 -23.829 -16.097  1.00  0.00     0.006 C 
BRANCH  13  14
ATOM     14  C   UNL     1     -23.809 -24.112 -17.584  1.00  0.00     0.053 C 
BRANCH  14  15
ATOM     15  C   UNL     1     -25.142 -24.758 -17.796  1.00  0.00     0.041 C 
ATOM     16  O   UNL     1     -25.248 -25.764 -18.546  1.00  0.00    -0.550 OA
ATOM     17  O   UNL     1     -26.277 -24.225 -17.195  1.00  0.00    -0.550 OA
ENDBRANCH  14  15
ENDBRANCH  13  14
ENDBRANCH  12  13
ENDBRANCH  11  12
ENDBRANCH  10  11
ENDBRANCH   9  10
ENDBRANCH   8   9
ENDBRANCH   7   8
ENDBRANCH   6   7
ENDBRANCH   5   6
ENDBRANCH   4   5
ENDBRANCH   3   4
ENDBRANCH   2   3
ENDBRANCH   1   2
BRANCH   1  18
ATOM     18  C   UNL     1     -17.416 -24.863 -16.013  1.00  0.00     0.000 C 
BRANCH  18  19
ATOM     19  C   UNL     1     -18.755 -24.166 -15.715  1.00  0.00     0.000 C 
BRANCH  19  20
ATOM     20  C   UNL     1     -19.534 -23.791 -16.988  1.00  0.00     0.000 C 
BRANCH  20  21
ATOM     21  C   UNL     1     -20.254 -24.981 -17.655  1.00  0.00     0.000 C 
BRANCH  21  22
ATOM     22  C   UNL     1     -19.963 -25.073 -19.163  1.00  0.00     0.000 C 
BRANCH  22  23
ATOM     23  C   UNL     1     -19.111 -26.302 -19.527  1.00  0.00     0.000 C 
BRANCH  23  24
ATOM     24  C   UNL     1     -17.603 -26.014 -19.454  1.00  0.00    -0.000 C 
BRANCH  24  25
ATOM     25  C   UNL     1     -16.857 -27.136 -18.715  1.00  0.00    -0.000 C 
BRANCH  25  26
ATOM     26  C   UNL     1     -15.373 -27.217 -19.109  1.00  0.00    -0.000 C 
BRANCH  26  27
ATOM     27  C   UNL     1     -14.473 -26.334 -18.227  1.00  0.00    -0.000 C 
BRANCH  27  28
ATOM     28  C   UNL     1     -13.183 -27.063 -17.795  1.00  0.00    -0.000 C 
BRANCH  28  29
ATOM     29  C   UNL     1     -13.385 -28.024 -16.610  1.00  0.00    -0.000 C 
BRANCH  29  30
ATOM     30  C   UNL     1     -14.730 -27.813 -15.894  1.00  0.00    -0.000 C 
BRANCH  30  31
ATOM     31  C   UNL     1     -15.295 -29.117 -15.310  1.00  0.00    -0.003 C 
ATOM     32  C   UNL     1     -15.158 -30.301 -16.266  1.00  0.00     0.004 C 
ENDBRANCH  30  31
ENDBRANCH  29  30
ENDBRANCH  28  29
ENDBRANCH  27  28
ENDBRANCH  26  27
ENDBRANCH  25  26
ENDBRANCH  24  25
ENDBRANCH  23  24
ENDBRANCH  22  23
ENDBRANCH  21  22
ENDBRANCH  20  21
ENDBRANCH  19  20
ENDBRANCH  18  19
ENDBRANCH   1  18
TORSDOF 28
ENDMDL
MODEL 8
REMARK VINA RESULT:    -3.350      2.850      5.020
REMARK INTER + INTRA:         -13.805
REMARK INTER:                  -9.669
REMARK INTRA:                  -4.137
REMARK UNBOUND:                -4.972
REMARK SMILES CCCCCCCCCCCCCCCCCCCCCCCCCCCCCC(=O)[O-]
REMARK SMILES IDX 16 1 17 2 18 3 19 4 20 5 21 6 22 7 23 8 24 9 25 10 26 11
REMARK SMILES IDX 27 12 28 13 29 14 30 15 31 16 32 17 15 18 14 19 13 20 12 21
REMARK SMILES IDX 11 22 10 23 9 24 8 25 7 26 6 27 5 28 4 29 3 30 2 31 1 32
REMARK H PARENT
REMARK Flexibility Score: inf
ROOT
ATOM      1  C   UNL     1     -20.931 -25.703 -18.513  1.00  0.00     0.000 C 
ENDROOT
BRANCH   1   2
ATOM      2  C   UNL     1     -19.760 -26.557 -19.034  1.00  0.00     0.000 C 
BRANCH   2   3
ATOM      3  C   UNL     1     -18.858 -25.776 -20.009  1.00  0.00     0.000 C 
BRANCH   3   4
ATOM      4  C   UNL     1     -17.360 -26.108 -19.864  1.00  0.00     0.000 C 
BRANCH   4   5
ATOM      5  C   UNL     1     -17.002 -26.593 -18.447  1.00  0.00     0.000 C 
BRANCH   5   6
ATOM      6  C   UNL     1     -17.122 -25.474 -17.391  1.00  0.00     0.000 C 
BRANCH   6   7
ATOM      7  C   UNL     1     -16.023 -25.511 -16.312  1.00  0.00     0.000 C 
BRANCH   7   8
ATOM      8  C   UNL     1     -16.388 -26.284 -15.035  1.00  0.00     0.000 C 
BRANCH   8   9
ATOM      9  C   UNL     1     -17.412 -27.404 -15.294  1.00  0.00     0.000 C 
BRANCH   9  10
ATOM     10  C   UNL     1     -16.757 -28.782 -15.486  1.00  0.00     0.000 C 
BRANCH  10  11
ATOM     11  C   UNL     1     -15.221 -28.796 -15.348  1.00  0.00     0.000 C 
BRANCH  11  12
ATOM     12  C   UNL     1     -14.520 -29.790 -16.300  1.00  0.00     0.000 C 
BRANCH  12  13
ATOM     13  C   UNL     1     -13.251 -29.193 -16.928  1.00  0.00     0.006 C 
BRANCH  13  14
ATOM     14  C   UNL     1     -13.102 -27.712 -16.571  1.00  0.00     0.053 C 
BRANCH  14  15
ATOM     15  C   UNL     1     -12.582 -26.941 -17.744  1.00  0.00     0.041 C 
ATOM     16  O   UNL     1     -11.342 -26.857 -17.950  1.00  0.00    -0.550 OA
ATOM     17  O   UNL     1     -13.466 -26.282 -18.591  1.00  0.00    -0.550 OA
ENDBRANCH  14  15
ENDBRANCH  13  14
ENDBRANCH  12  13
ENDBRANCH  11  12
ENDBRANCH  10  11
ENDBRANCH   9  10
ENDBRANCH   8   9
ENDBRANCH   7   8
ENDBRANCH   6   7
ENDBRANCH   5   6
ENDBRANCH   4   5
ENDBRANCH   3   4
ENDBRANCH   2   3
ENDBRANCH   1   2
BRANCH   1  18
ATOM     18  C   UNL     1     -20.532 -24.239 -18.270  1.00  0.00     0.000 C 
BRANCH  18  19
ATOM     19  C   UNL     1     -20.405 -23.904 -16.774  1.00  0.00     0.000 C 
BRANCH  19  20
ATOM     20  C   UNL     1     -20.376 -25.153 -15.878  1.00  0.00     0.000 C 
BRANCH  20  21
ATOM     21  C   UNL     1     -21.548 -25.236 -14.878  1.00  0.00     0.000 C 
BRANCH  21  22
ATOM     22  C   UNL     1     -22.847 -25.732 -15.535  1.00  0.00     0.000 C 
BRANCH  22  23
ATOM     23  C   UNL     1     -23.933 -24.643 -15.595  1.00  0.00     0.000 C 
BRANCH  23  24
ATOM     24  C   UNL     1     -24.022 -23.977 -16.977  1.00  0.00    -0.000 C 
BRANCH  24  25
ATOM     25  C   UNL     1     -24.091 -22.447 -16.854  1.00  0.00    -0.000 C 
BRANCH  25  26
ATOM     26  C   UNL     1     -23.128 -21.897 -15.788  1.00  0.00    -0.000 C 
BRANCH  26  27
ATOM     27  C   UNL     1     -22.573 -20.506 -16.147  1.00  0.00    -0.000 C 
BRANCH  27  28
ATOM     28  C   UNL     1     -21.839 -20.504 -17.505  1.00  0.00    -0.000 C 
BRANCH  28  29
ATOM     29  C   UNL     1     -20.447 -19.852 -17.452  1.00  0.00    -0.000 C 
BRANCH  29  30
ATOM     30  C   UNL     1     -20.028 -19.454 -16.027  1.00  0.00    -0.000 C 
BRANCH  30  31
ATOM     31  C   UNL     1     -18.855 -20.296 -15.502  1.00  0.00    -0.003 C 
ATOM     32  C   UNL     1     -17.554 -19.500 -15.404  1.00  0.00     0.004 C 
ENDBRANCH  30  31
ENDBRANCH  29  30
ENDBRANCH  28  29
ENDBRANCH  27  28
ENDBRANCH  26  27
ENDBRANCH  25  26
ENDBRANCH  24  25
ENDBRANCH  23  24
ENDBRANCH  22  23
ENDBRANCH  21  22
ENDBRANCH  20  21
ENDBRANCH  19  20
ENDBRANCH  18  19
ENDBRANCH   1  18
TORSDOF 28
ENDMDL
MODEL 9
REMARK VINA RESULT:    -3.161      2.968      7.829
REMARK INTER + INTRA:         -13.306
REMARK INTER:                  -9.754
REMARK INTRA:                  -3.552
REMARK UNBOUND:                -4.972
REMARK SMILES CCCCCCCCCCCCCCCCCCCCCCCCCCCCCC(=O)[O-]
REMARK SMILES IDX 16 1 17 2 18 3 19 4 20 5 21 6 22 7 23 8 24 9 25 10 26 11
REMARK SMILES IDX 27 12 28 13 29 14 30 15 31 16 32 17 15 18 14 19 13 20 12 21
REMARK SMILES IDX 11 22 10 23 9 24 8 25 7 26 6 27 5 28 4 29 3 30 2 31 1 32
REMARK H PARENT
REMARK Flexibility Score: inf
ROOT
ATOM      1  C   UNL     1     -23.031 -24.719 -16.240  1.00  0.00     0.000 C 
ENDROOT
BRANCH   1   2
ATOM      2  C   UNL     1     -23.037 -25.542 -14.938  1.00  0.00     0.000 C 
BRANCH   2   3
ATOM      3  C   UNL     1     -22.163 -26.806 -15.045  1.00  0.00     0.000 C 
BRANCH   3   4
ATOM      4  C   UNL     1     -20.849 -26.583 -15.820  1.00  0.00     0.000 C 
BRANCH   4   5
ATOM      5  C   UNL     1     -19.677 -26.216 -14.893  1.00  0.00     0.000 C 
BRANCH   5   6
ATOM      6  C   UNL     1     -18.883 -24.993 -15.400  1.00  0.00     0.000 C 
BRANCH   6   7
ATOM      7  C   UNL     1     -19.768 -23.807 -15.829  1.00  0.00     0.000 C 
BRANCH   7   8
ATOM      8  C   UNL     1     -19.754 -22.603 -14.875  1.00  0.00     0.000 C 
BRANCH   8   9
ATOM      9  C   UNL     1     -18.814 -21.481 -15.352  1.00  0.00     0.000 C 
BRANCH   9  10
ATOM     10  C   UNL     1     -19.464 -20.088 -15.288  1.00  0.00     0.000 C 
BRANCH  10  11
ATOM     11  C   UNL     1     -18.992 -19.100 -16.374  1.00  0.00     0.000 C 
BRANCH  11  12
ATOM     12  C   UNL     1     -20.147 -18.439 -17.157  1.00  0.00     0.000 C 
BRANCH  12  13
ATOM     13  C   UNL     1     -21.514 -18.708 -16.508  1.00  0.00     0.006 C 
BRANCH  13  14
ATOM     14  C   UNL     1     -22.514 -19.252 -17.531  1.00  0.00     0.053 C 
BRANCH  14  15
ATOM     15  C   UNL     1     -22.790 -20.701 -17.273  1.00  0.00     0.041 C 
ATOM     16  O   UNL     1     -23.898 -21.060 -16.793  1.00  0.00    -0.550 OA
ATOM     17  O   UNL     1     -21.808 -21.652 -17.526  1.00  0.00    -0.550 OA
ENDBRANCH  14  15
ENDBRANCH  13  14
ENDBRANCH  12  13
ENDBRANCH  11  12
ENDBRANCH  10  11
ENDBRANCH   9  10
ENDBRANCH   8   9
ENDBRANCH   7   8
ENDBRANCH   6   7
ENDBRANCH   5   6
ENDBRANCH   4   5
ENDBRANCH   3   4
ENDBRANCH   2   3
ENDBRANCH   1   2
BRANCH   1  18
ATOM     18  C   UNL     1     -24.425 -24.608 -16.876  1.00  0.00     0.000 C 
BRANCH  18  19
ATOM     19  C   UNL     1     -24.515 -25.333 -18.230  1.00  0.00     0.000 C 
BRANCH  19  20
ATOM     20  C   UNL     1     -23.149 -25.821 -18.742  1.00  0.00     0.000 C 
BRANCH  20  21
ATOM     21  C   UNL     1     -22.189 -24.685 -19.151  1.00  0.00     0.000 C 
BRANCH  21  22
ATOM     22  C   UNL     1     -20.710 -25.094 -19.037  1.00  0.00     0.000 C 
BRANCH  22  23
ATOM     23  C   UNL     1     -20.490 -26.594 -19.298  1.00  0.00     0.000 C 
BRANCH  23  24
ATOM     24  C   UNL     1     -19.043 -27.033 -19.021  1.00  0.00    -0.000 C 
BRANCH  24  25
ATOM     25  C   UNL     1     -18.088 -25.829 -19.011  1.00  0.00    -0.000 C 
BRANCH  25  26
ATOM     26  C   UNL     1     -16.610 -26.249 -18.966  1.00  0.00    -0.000 C 
BRANCH  26  27
ATOM     27  C   UNL     1     -16.318 -27.289 -17.869  1.00  0.00    -0.000 C 
BRANCH  27  28
ATOM     28  C   UNL     1     -15.064 -28.132 -18.182  1.00  0.00    -0.000 C 
BRANCH  28  29
ATOM     29  C   UNL     1     -14.611 -29.022 -17.012  1.00  0.00    -0.000 C 
BRANCH  29  30
ATOM     30  C   UNL     1     -13.133 -28.814 -16.641  1.00  0.00    -0.000 C 
BRANCH  30  31
ATOM     31  C   UNL     1     -12.508 -27.613 -17.367  1.00  0.00    -0.003 C 
ATOM     32  C   UNL     1     -11.052 -27.374 -16.968  1.00  0.00     0.004 C 
ENDBRANCH  30  31
ENDBRANCH  29  30
ENDBRANCH  28  29
ENDBRANCH  27  28
ENDBRANCH  26  27
ENDBRANCH  25  26
ENDBRANCH  24  25
ENDBRANCH  23  24
ENDBRANCH  22  23
ENDBRANCH  21  22
ENDBRANCH  20  21
ENDBRANCH  19  20
ENDBRANCH  18  19
ENDBRANCH   1  18
TORSDOF 28
ENDMDL
