MODEL 1
REMARK VINA RESULT:    -6.139      0.000      0.000
REMARK INTER + INTRA:          -7.530
REMARK INTER:                  -7.216
REMARK INTRA:                  -0.314
REMARK UNBOUND:                -0.314
REMARK SMILES O=c1cc(-c2ccc(O)c(O)c2)oc2cc(O)cc(O)c12
REMARK SMILES IDX 4 1 3 2 2 3 1 4 21 5 19 6 18 7 16 8 15 9 14 10 13 11 5 12
REMARK SMILES IDX 6 13 7 14 8 15 12 16 10 17 9 18 11 20 20 22 17 24
REMARK H PARENT 9 19 11 21 20 23 17 25
REMARK Flexibility Score: inf
ROOT
ATOM      1  C   UNL     1     -57.982  30.870 -21.343  1.00  0.00     0.138 A 
ATOM      2  C   UNL     1     -59.285  30.753 -20.841  1.00  0.00     0.100 A 
ATOM      3  C   UNL     1     -60.367  30.747 -21.723  1.00  0.00     0.197 A 
ATOM      4  O   UNL     1     -61.520  30.585 -21.246  1.00  0.00    -0.289 OA
ATOM      5  C   UNL     1     -60.144  30.895 -23.113  1.00  0.00     0.107 A 
ATOM      6  C   UNL     1     -61.171  30.937 -24.104  1.00  0.00     0.134 A 
ATOM      7  C   UNL     1     -60.822  30.988 -25.459  1.00  0.00     0.093 A 
ATOM      8  C   UNL     1     -59.484  31.055 -25.857  1.00  0.00     0.123 A 
ATOM      9  C   UNL     1     -58.475  31.065 -24.896  1.00  0.00     0.094 A 
ATOM     10  C   UNL     1     -58.790  30.981 -23.538  1.00  0.00     0.146 A 
ATOM     11  O   UNL     1     -57.797  30.975 -22.655  1.00  0.00    -0.456 OA
ENDROOT
BRANCH   1  12
ATOM     12  C   UNL     1     -56.795  30.885 -20.452  1.00  0.00     0.021 A 
ATOM     13  C   UNL     1     -56.912  31.125 -19.069  1.00  0.00     0.016 A 
ATOM     14  C   UNL     1     -55.777  31.123 -18.252  1.00  0.00     0.051 A 
ATOM     15  C   UNL     1     -54.514  30.878 -18.795  1.00  0.00     0.157 A 
ATOM     16  C   UNL     1     -55.522  30.626 -20.990  1.00  0.00     0.062 A 
ATOM     17  C   UNL     1     -54.384  30.625 -20.171  1.00  0.00     0.158 A 
BRANCH  15  18
ATOM     18  O   UNL     1     -53.401  30.884 -17.955  1.00  0.00    -0.504 OA
ATOM     19  H   UNL     1     -52.454  30.887 -18.314  1.00  0.00     0.293 HD
ENDBRANCH  15  18
BRANCH  17  20
ATOM     20  O   UNL     1     -53.127  30.375 -20.719  1.00  0.00    -0.504 OA
ATOM     21  H   UNL     1     -52.324  30.950 -20.491  1.00  0.00     0.293 HD
ENDBRANCH  17  20
ENDBRANCH   1  12
BRANCH   6  22
ATOM     22  O   UNL     1     -62.539  30.955 -23.813  1.00  0.00    -0.507 OA
ATOM     23  H   UNL     1     -63.154  30.158 -23.870  1.00  0.00     0.293 HD
ENDBRANCH   6  22
BRANCH   8  24
ATOM     24  O   UNL     1     -59.146  31.120 -27.207  1.00  0.00    -0.508 OA
ATOM     25  H   UNL     1     -58.981  30.282 -27.752  1.00  0.00     0.293 HD
ENDBRANCH   8  24
TORSDOF 5
ENDMDL
MODEL 2
REMARK VINA RESULT:    -6.134     11.940     14.522
REMARK INTER + INTRA:          -7.524
REMARK INTER:                  -7.261
REMARK INTRA:                  -0.264
REMARK UNBOUND:                -0.314
REMARK SMILES O=c1cc(-c2ccc(O)c(O)c2)oc2cc(O)cc(O)c12
REMARK SMILES IDX 4 1 3 2 2 3 1 4 21 5 19 6 18 7 16 8 15 9 14 10 13 11 5 12
REMARK SMILES IDX 6 13 7 14 8 15 12 16 10 17 9 18 11 20 20 22 17 24
REMARK H PARENT 9 19 11 21 20 23 17 25
REMARK Flexibility Score: inf
ROOT
ATOM      1  C   UNL     1     -60.154  20.106 -30.343  1.00  0.00     0.138 A 
ATOM      2  C   UNL     1     -58.964  20.679 -29.875  1.00  0.00     0.100 A 
ATOM      3  C   UNL     1     -58.846  22.069 -29.812  1.00  0.00     0.197 A 
ATOM      4  O   UNL     1     -57.786  22.553 -29.336  1.00  0.00    -0.289 OA
ATOM      5  C   UNL     1     -59.912  22.888 -30.255  1.00  0.00     0.107 A 
ATOM      6  C   UNL     1     -59.892  24.315 -30.271  1.00  0.00     0.134 A 
ATOM      7  C   UNL     1     -61.045  25.018 -30.638  1.00  0.00     0.093 A 
ATOM      8  C   UNL     1     -62.201  24.346 -31.047  1.00  0.00     0.123 A 
ATOM      9  C   UNL     1     -62.214  22.953 -31.083  1.00  0.00     0.094 A 
ATOM     10  C   UNL     1     -61.091  22.223 -30.689  1.00  0.00     0.146 A 
ATOM     11  O   UNL     1     -61.153  20.896 -30.722  1.00  0.00    -0.456 OA
ENDROOT
BRANCH   1  12
ATOM     12  C   UNL     1     -60.334  18.635 -30.433  1.00  0.00     0.021 A 
ATOM     13  C   UNL     1     -59.950  17.911 -31.579  1.00  0.00     0.016 A 
ATOM     14  C   UNL     1     -60.123  16.525 -31.632  1.00  0.00     0.051 A 
ATOM     15  C   UNL     1     -60.672  15.838 -30.547  1.00  0.00     0.157 A 
ATOM     16  C   UNL     1     -60.874  17.936 -29.339  1.00  0.00     0.062 A 
ATOM     17  C   UNL     1     -61.048  16.545 -29.393  1.00  0.00     0.158 A 
BRANCH  15  18
ATOM     18  O   UNL     1     -60.833  14.456 -30.630  1.00  0.00    -0.504 OA
ATOM     19  H   UNL     1     -61.570  13.968 -30.135  1.00  0.00     0.293 HD
ENDBRANCH  15  18
BRANCH  17  20
ATOM     20  O   UNL     1     -61.593  15.866 -28.305  1.00  0.00    -0.504 OA
ATOM     21  H   UNL     1     -61.287  16.048 -27.356  1.00  0.00     0.293 HD
ENDBRANCH  17  20
ENDBRANCH   1  12
BRANCH   6  22
ATOM     22  O   UNL     1     -58.767  25.086 -29.957  1.00  0.00    -0.507 OA
ATOM     23  H   UNL     1     -58.190  24.963 -29.141  1.00  0.00     0.293 HD
ENDBRANCH   6  22
BRANCH   8  24
ATOM     24  O   UNL     1     -63.339  25.054 -31.426  1.00  0.00    -0.508 OA
ATOM     25  H   UNL     1     -64.168  25.072 -30.844  1.00  0.00     0.293 HD
ENDBRANCH   8  24
TORSDOF 5
ENDMDL
MODEL 3
REMARK VINA RESULT:    -6.081      1.249      3.051
REMARK INTER + INTRA:          -7.461
REMARK INTER:                  -7.144
REMARK INTRA:                  -0.317
REMARK UNBOUND:                -0.314
REMARK SMILES O=c1cc(-c2ccc(O)c(O)c2)oc2cc(O)cc(O)c12
REMARK SMILES IDX 4 1 3 2 2 3 1 4 21 5 19 6 18 7 16 8 15 9 14 10 13 11 5 12
REMARK SMILES IDX 6 13 7 14 8 15 12 16 10 17 9 18 11 20 20 22 17 24
REMARK H PARENT 9 19 11 21 20 23 17 25
REMARK Flexibility Score: inf
ROOT
ATOM      1  C   UNL     1     -57.495  30.885 -22.316  1.00  0.00     0.138 A 
ATOM      2  C   UNL     1     -57.252  30.945 -23.695  1.00  0.00     0.100 A 
ATOM      3  C   UNL     1     -58.327  31.015 -24.583  1.00  0.00     0.197 A 
ATOM      4  O   UNL     1     -58.076  31.123 -25.811  1.00  0.00    -0.289 OA
ATOM      5  C   UNL     1     -59.653  30.989 -24.087  1.00  0.00     0.107 A 
ATOM      6  C   UNL     1     -60.827  31.020 -24.898  1.00  0.00     0.134 A 
ATOM      7  C   UNL     1     -62.086  31.090 -24.289  1.00  0.00     0.093 A 
ATOM      8  C   UNL     1     -62.216  31.071 -22.898  1.00  0.00     0.123 A 
ATOM      9  C   UNL     1     -61.079  30.989 -22.097  1.00  0.00     0.094 A 
ATOM     10  C   UNL     1     -59.807  30.954 -22.674  1.00  0.00     0.146 A 
ATOM     11  O   UNL     1     -58.748  30.895 -21.874  1.00  0.00    -0.456 OA
ENDROOT
BRANCH   1  12
ATOM     12  C   UNL     1     -56.390  30.807 -21.327  1.00  0.00     0.021 A 
ATOM     13  C   UNL     1     -55.058  30.581 -21.722  1.00  0.00     0.016 A 
ATOM     14  C   UNL     1     -54.037  30.522 -20.769  1.00  0.00     0.051 A 
ATOM     15  C   UNL     1     -54.324  30.692 -19.413  1.00  0.00     0.157 A 
ATOM     16  C   UNL     1     -56.671  30.990 -19.961  1.00  0.00     0.062 A 
ATOM     17  C   UNL     1     -55.646  30.930 -19.005  1.00  0.00     0.158 A 
BRANCH  15  18
ATOM     18  O   UNL     1     -53.284  30.627 -18.486  1.00  0.00    -0.504 OA
ATOM     19  H   UNL     1     -52.374  31.031 -18.667  1.00  0.00     0.293 HD
ENDBRANCH  15  18
BRANCH  17  20
ATOM     20  O   UNL     1     -55.940  31.105 -17.654  1.00  0.00    -0.504 OA
ATOM     21  H   UNL     1     -56.884  31.006 -17.297  1.00  0.00     0.293 HD
ENDBRANCH  17  20
ENDBRANCH   1  12
BRANCH   6  22
ATOM     22  O   UNL     1     -60.815  30.963 -26.296  1.00  0.00    -0.507 OA
ATOM     23  H   UNL     1     -60.762  30.118 -26.841  1.00  0.00     0.293 HD
ENDBRANCH   6  22
BRANCH   8  24
ATOM     24  O   UNL     1     -63.473  31.125 -22.300  1.00  0.00    -0.508 OA
ATOM     25  H   UNL     1     -63.643  31.687 -21.474  1.00  0.00     0.293 HD
ENDBRANCH   8  24
TORSDOF 5
ENDMDL
MODEL 4
REMARK VINA RESULT:    -6.028     10.127     13.175
REMARK INTER + INTRA:          -7.399
REMARK INTER:                  -7.102
REMARK INTRA:                  -0.297
REMARK UNBOUND:                -0.314
REMARK SMILES O=c1cc(-c2ccc(O)c(O)c2)oc2cc(O)cc(O)c12
REMARK SMILES IDX 4 1 3 2 2 3 1 4 21 5 19 6 18 7 16 8 15 9 14 10 13 11 5 12
REMARK SMILES IDX 6 13 7 14 8 15 12 16 10 17 9 18 11 20 20 22 17 24
REMARK H PARENT 9 19 11 21 20 23 17 25
REMARK Flexibility Score: inf
ROOT
ATOM      1  C   UNL     1     -59.748  22.067 -30.368  1.00  0.00     0.138 A 
ATOM      2  C   UNL     1     -58.519  22.668 -30.670  1.00  0.00     0.100 A 
ATOM      3  C   UNL     1     -58.342  24.033 -30.435  1.00  0.00     0.197 A 
ATOM      4  O   UNL     1     -57.210  24.532 -30.664  1.00  0.00    -0.289 OA
ATOM      5  C   UNL     1     -59.415  24.805 -29.929  1.00  0.00     0.107 A 
ATOM      6  C   UNL     1     -59.362  26.211 -29.683  1.00  0.00     0.134 A 
ATOM      7  C   UNL     1     -60.457  26.849 -29.088  1.00  0.00     0.093 A 
ATOM      8  C   UNL     1     -61.625  26.144 -28.783  1.00  0.00     0.123 A 
ATOM      9  C   UNL     1     -61.705  24.783 -29.066  1.00  0.00     0.094 A 
ATOM     10  C   UNL     1     -60.617  24.110 -29.627  1.00  0.00     0.146 A 
ATOM     11  O   UNL     1     -60.730  22.808 -29.864  1.00  0.00    -0.456 OA
ENDROOT
BRANCH   1  12
ATOM     12  C   UNL     1     -59.993  20.621 -30.600  1.00  0.00     0.021 A 
ATOM     13  C   UNL     1     -59.513  19.964 -31.750  1.00  0.00     0.016 A 
ATOM     14  C   UNL     1     -59.750  18.599 -31.936  1.00  0.00     0.051 A 
ATOM     15  C   UNL     1     -60.460  17.867 -30.982  1.00  0.00     0.157 A 
ATOM     16  C   UNL     1     -60.696  19.875 -29.637  1.00  0.00     0.062 A 
ATOM     17  C   UNL     1     -60.934  18.506 -29.825  1.00  0.00     0.158 A 
BRANCH  15  18
ATOM     18  O   UNL     1     -60.682  16.507 -31.197  1.00  0.00    -0.504 OA
ATOM     19  H   UNL     1     -61.586  16.146 -31.475  1.00  0.00     0.293 HD
ENDBRANCH  15  18
BRANCH  17  20
ATOM     20  O   UNL     1     -61.640  17.781 -28.866  1.00  0.00    -0.504 OA
ATOM     21  H   UNL     1     -62.524  18.111 -28.494  1.00  0.00     0.293 HD
ENDBRANCH  17  20
ENDBRANCH   1  12
BRANCH   6  22
ATOM     22  O   UNL     1     -58.276  27.025 -30.021  1.00  0.00    -0.507 OA
ATOM     23  H   UNL     1     -57.343  26.929 -29.652  1.00  0.00     0.293 HD
ENDBRANCH   6  22
BRANCH   8  24
ATOM     24  O   UNL     1     -62.715  26.791 -28.205  1.00  0.00    -0.508 OA
ATOM     25  H   UNL     1     -63.522  26.274 -27.875  1.00  0.00     0.293 HD
ENDBRANCH   8  24
TORSDOF 5
ENDMDL
MODEL 5
REMARK VINA RESULT:    -5.879     11.730     14.298
REMARK INTER + INTRA:          -7.224
REMARK INTER:                  -6.961
REMARK INTRA:                  -0.262
REMARK UNBOUND:                -0.314
REMARK SMILES O=c1cc(-c2ccc(O)c(O)c2)oc2cc(O)cc(O)c12
REMARK SMILES IDX 4 1 3 2 2 3 1 4 21 5 19 6 18 7 16 8 15 9 14 10 13 11 5 12
REMARK SMILES IDX 6 13 7 14 8 15 12 16 10 17 9 18 11 20 20 22 17 24
REMARK H PARENT 9 19 11 21 20 23 17 25
REMARK Flexibility Score: inf
ROOT
ATOM      1  C   UNL     1     -61.787  20.453 -30.492  1.00  0.00     0.138 A 
ATOM      2  C   UNL     1     -62.942  20.811 -31.200  1.00  0.00     0.100 A 
ATOM      3  C   UNL     1     -63.215  22.159 -31.439  1.00  0.00     0.197 A 
ATOM      4  O   UNL     1     -64.230  22.446 -32.125  1.00  0.00    -0.289 OA
ATOM      5  C   UNL     1     -62.345  23.154 -30.932  1.00  0.00     0.107 A 
ATOM      6  C   UNL     1     -62.540  24.561 -31.083  1.00  0.00     0.134 A 
ATOM      7  C   UNL     1     -61.558  25.447 -30.624  1.00  0.00     0.093 A 
ATOM      8  C   UNL     1     -60.416  24.981 -29.968  1.00  0.00     0.123 A 
ATOM      9  C   UNL     1     -60.240  23.613 -29.771  1.00  0.00     0.094 A 
ATOM     10  C   UNL     1     -61.185  22.702 -30.248  1.00  0.00     0.146 A 
ATOM     11  O   UNL     1     -60.969  21.405 -30.055  1.00  0.00    -0.456 OA
ENDROOT
BRANCH   1  12
ATOM     12  C   UNL     1     -61.448  19.035 -30.207  1.00  0.00     0.021 A 
ATOM     13  C   UNL     1     -61.815  18.416 -28.997  1.00  0.00     0.016 A 
ATOM     14  C   UNL     1     -61.491  17.077 -28.761  1.00  0.00     0.051 A 
ATOM     15  C   UNL     1     -60.806  16.333 -29.725  1.00  0.00     0.157 A 
ATOM     16  C   UNL     1     -60.771  18.278 -31.179  1.00  0.00     0.062 A 
ATOM     17  C   UNL     1     -60.445  16.935 -30.941  1.00  0.00     0.158 A 
BRANCH  15  18
ATOM     18  O   UNL     1     -60.495  15.000 -29.459  1.00  0.00    -0.504 OA
ATOM     19  H   UNL     1     -59.744  14.735 -28.835  1.00  0.00     0.293 HD
ENDBRANCH  15  18
BRANCH  17  20
ATOM     20  O   UNL     1     -59.765  16.198 -31.909  1.00  0.00    -0.504 OA
ATOM     21  H   UNL     1     -58.777  16.339 -32.088  1.00  0.00     0.293 HD
ENDBRANCH  17  20
ENDBRANCH   1  12
BRANCH   6  22
ATOM     22  O   UNL     1     -63.681  25.137 -31.652  1.00  0.00    -0.507 OA
ATOM     23  H   UNL     1     -64.623  25.009 -31.318  1.00  0.00     0.293 HD
ENDBRANCH   6  22
BRANCH   8  24
ATOM     24  O   UNL     1     -59.451  25.871 -29.500  1.00  0.00    -0.508 OA
ATOM     25  H   UNL     1     -58.709  25.569 -28.881  1.00  0.00     0.293 HD
ENDBRANCH   8  24
TORSDOF 5
ENDMDL
MODEL 6
REMARK VINA RESULT:    -5.805      2.100      7.093
REMARK INTER + INTRA:          -7.137
REMARK INTER:                  -6.849
REMARK INTRA:                  -0.288
REMARK UNBOUND:                -0.314
REMARK SMILES O=c1cc(-c2ccc(O)c(O)c2)oc2cc(O)cc(O)c12
REMARK SMILES IDX 4 1 3 2 2 3 1 4 21 5 19 6 18 7 16 8 15 9 14 10 13 11 5 12
REMARK SMILES IDX 6 13 7 14 8 15 12 16 10 17 9 18 11 20 20 22 17 24
REMARK H PARENT 9 19 11 21 20 23 17 25
REMARK Flexibility Score: inf
ROOT
ATOM      1  C   UNL     1     -59.394  30.492 -24.887  1.00  0.00     0.138 A 
ATOM      2  C   UNL     1     -60.422  30.613 -23.942  1.00  0.00     0.100 A 
ATOM      3  C   UNL     1     -60.104  30.804 -22.596  1.00  0.00     0.197 A 
ATOM      4  O   UNL     1     -61.048  30.964 -21.780  1.00  0.00    -0.289 OA
ATOM      5  C   UNL     1     -58.748  30.838 -22.190  1.00  0.00     0.107 A 
ATOM      6  C   UNL     1     -58.304  30.992 -20.842  1.00  0.00     0.134 A 
ATOM      7  C   UNL     1     -56.934  31.110 -20.576  1.00  0.00     0.093 A 
ATOM      8  C   UNL     1     -55.989  31.022 -21.601  1.00  0.00     0.123 A 
ATOM      9  C   UNL     1     -56.410  30.821 -22.914  1.00  0.00     0.094 A 
ATOM     10  C   UNL     1     -57.770  30.733 -23.217  1.00  0.00     0.146 A 
ATOM     11  O   UNL     1     -58.128  30.560 -24.485  1.00  0.00    -0.456 OA
ENDROOT
BRANCH   1  12
ATOM     12  C   UNL     1     -59.674  30.285 -26.330  1.00  0.00     0.021 A 
ATOM     13  C   UNL     1     -60.563  31.117 -27.038  1.00  0.00     0.016 A 
ATOM     14  C   UNL     1     -60.799  30.905 -28.399  1.00  0.00     0.051 A 
ATOM     15  C   UNL     1     -60.152  29.869 -29.077  1.00  0.00     0.157 A 
ATOM     16  C   UNL     1     -59.015  29.253 -27.021  1.00  0.00     0.062 A 
ATOM     17  C   UNL     1     -59.253  29.039 -28.387  1.00  0.00     0.158 A 
BRANCH  15  18
ATOM     18  O   UNL     1     -60.410  29.681 -30.434  1.00  0.00    -0.504 OA
ATOM     19  H   UNL     1     -61.137  29.059 -30.764  1.00  0.00     0.293 HD
ENDBRANCH  15  18
BRANCH  17  20
ATOM     20  O   UNL     1     -58.601  28.007 -29.057  1.00  0.00    -0.504 OA
ATOM     21  H   UNL     1     -58.606  27.056 -28.705  1.00  0.00     0.293 HD
ENDBRANCH  17  20
ENDBRANCH   1  12
BRANCH   6  22
ATOM     22  O   UNL     1     -59.157  31.013 -19.734  1.00  0.00    -0.507 OA
ATOM     23  H   UNL     1     -60.131  30.753 -19.748  1.00  0.00     0.293 HD
ENDBRANCH   6  22
BRANCH   8  24
ATOM     24  O   UNL     1     -54.628  31.125 -21.325  1.00  0.00    -0.508 OA
ATOM     25  H   UNL     1     -54.098  31.951 -21.577  1.00  0.00     0.293 HD
ENDBRANCH   8  24
TORSDOF 5
ENDMDL
MODEL 7
REMARK VINA RESULT:    -5.776      9.132     12.150
REMARK INTER + INTRA:          -7.103
REMARK INTER:                  -6.810
REMARK INTRA:                  -0.293
REMARK UNBOUND:                -0.314
REMARK SMILES O=c1cc(-c2ccc(O)c(O)c2)oc2cc(O)cc(O)c12
REMARK SMILES IDX 4 1 3 2 2 3 1 4 21 5 19 6 18 7 16 8 15 9 14 10 13 11 5 12
REMARK SMILES IDX 6 13 7 14 8 15 12 16 10 17 9 18 11 20 20 22 17 24
REMARK H PARENT 9 19 11 21 20 23 17 25
REMARK Flexibility Score: inf
ROOT
ATOM      1  C   UNL     1     -60.270  24.208 -30.074  1.00  0.00     0.138 A 
ATOM      2  C   UNL     1     -59.078  23.907 -30.747  1.00  0.00     0.100 A 
ATOM      3  C   UNL     1     -58.884  22.627 -31.267  1.00  0.00     0.197 A 
ATOM      4  O   UNL     1     -57.828  22.403 -31.914  1.00  0.00    -0.289 OA
ATOM      5  C   UNL     1     -59.874  21.632 -31.079  1.00  0.00     0.107 A 
ATOM      6  C   UNL     1     -59.771  20.283 -31.534  1.00  0.00     0.134 A 
ATOM      7  C   UNL     1     -60.858  19.416 -31.376  1.00  0.00     0.093 A 
ATOM      8  C   UNL     1     -62.025  19.832 -30.728  1.00  0.00     0.123 A 
ATOM      9  C   UNL     1     -62.116  21.131 -30.236  1.00  0.00     0.094 A 
ATOM     10  C   UNL     1     -61.061  22.031 -30.408  1.00  0.00     0.146 A 
ATOM     11  O   UNL     1     -61.198  23.266 -29.939  1.00  0.00    -0.456 OA
ENDROOT
BRANCH   1  12
ATOM     12  C   UNL     1     -60.529  25.552 -29.498  1.00  0.00     0.021 A 
ATOM     13  C   UNL     1     -61.802  25.920 -29.021  1.00  0.00     0.016 A 
ATOM     14  C   UNL     1     -62.014  27.189 -28.475  1.00  0.00     0.051 A 
ATOM     15  C   UNL     1     -60.964  28.107 -28.389  1.00  0.00     0.157 A 
ATOM     16  C   UNL     1     -59.474  26.476 -29.397  1.00  0.00     0.062 A 
ATOM     17  C   UNL     1     -59.687  27.750 -28.850  1.00  0.00     0.158 A 
BRANCH  15  18
ATOM     18  O   UNL     1     -61.207  29.366 -27.841  1.00  0.00    -0.504 OA
ATOM     19  H   UNL     1     -62.076  29.592 -27.374  1.00  0.00     0.293 HD
ENDBRANCH  15  18
BRANCH  17  20
ATOM     20  O   UNL     1     -58.634  28.659 -28.764  1.00  0.00    -0.504 OA
ATOM     21  H   UNL     1     -58.541  29.293 -27.978  1.00  0.00     0.293 HD
ENDBRANCH  17  20
ENDBRANCH   1  12
BRANCH   6  22
ATOM     22  O   UNL     1     -58.624  19.741 -32.124  1.00  0.00    -0.507 OA
ATOM     23  H   UNL     1     -58.612  19.179 -32.961  1.00  0.00     0.293 HD
ENDBRANCH   6  22
BRANCH   8  24
ATOM     24  O   UNL     1     -63.096  18.957 -30.562  1.00  0.00    -0.508 OA
ATOM     25  H   UNL     1     -63.802  18.843 -31.279  1.00  0.00     0.293 HD
ENDBRANCH   8  24
TORSDOF 5
ENDMDL
MODEL 8
REMARK VINA RESULT:    -5.772     10.685     13.268
REMARK INTER + INTRA:          -7.098
REMARK INTER:                  -6.834
REMARK INTRA:                  -0.265
REMARK UNBOUND:                -0.314
REMARK SMILES O=c1cc(-c2ccc(O)c(O)c2)oc2cc(O)cc(O)c12
REMARK SMILES IDX 4 1 3 2 2 3 1 4 21 5 19 6 18 7 16 8 15 9 14 10 13 11 5 12
REMARK SMILES IDX 6 13 7 14 8 15 12 16 10 17 9 18 11 20 20 22 17 24
REMARK H PARENT 9 19 11 21 20 23 17 25
REMARK Flexibility Score: inf
ROOT
ATOM      1  C   UNL     1     -59.911  22.168 -30.607  1.00  0.00     0.138 A 
ATOM      2  C   UNL     1     -59.533  21.079 -29.811  1.00  0.00     0.100 A 
ATOM      3  C   UNL     1     -60.435  20.036 -29.595  1.00  0.00     0.197 A 
ATOM      4  O   UNL     1     -60.048  19.046 -28.922  1.00  0.00    -0.289 OA
ATOM      5  C   UNL     1     -61.736  20.103 -30.151  1.00  0.00     0.107 A 
ATOM      6  C   UNL     1     -62.752  19.116 -29.970  1.00  0.00     0.134 A 
ATOM      7  C   UNL     1     -63.968  19.245 -30.651  1.00  0.00     0.093 A 
ATOM      8  C   UNL     1     -64.228  20.353 -31.461  1.00  0.00     0.123 A 
ATOM      9  C   UNL     1     -63.262  21.347 -31.605  1.00  0.00     0.094 A 
ATOM     10  C   UNL     1     -62.026  21.231 -30.966  1.00  0.00     0.146 A 
ATOM     11  O   UNL     1     -61.126  22.192 -31.145  1.00  0.00    -0.456 OA
ENDROOT
BRANCH   1  12
ATOM     12  C   UNL     1     -58.993  23.306 -30.868  1.00  0.00     0.021 A 
ATOM     13  C   UNL     1     -58.031  23.260 -31.896  1.00  0.00     0.016 A 
ATOM     14  C   UNL     1     -57.188  24.351 -32.125  1.00  0.00     0.051 A 
ATOM     15  C   UNL     1     -57.291  25.503 -31.342  1.00  0.00     0.157 A 
ATOM     16  C   UNL     1     -59.101  24.473 -30.092  1.00  0.00     0.062 A 
ATOM     17  C   UNL     1     -58.253  25.567 -30.321  1.00  0.00     0.158 A 
BRANCH  15  18
ATOM     18  O   UNL     1     -56.434  26.574 -31.593  1.00  0.00    -0.504 OA
ATOM     19  H   UNL     1     -56.507  27.451 -31.094  1.00  0.00     0.293 HD
ENDBRANCH  15  18
BRANCH  17  20
ATOM     20  O   UNL     1     -58.365  26.715 -29.538  1.00  0.00    -0.504 OA
ATOM     21  H   UNL     1     -57.569  27.101 -29.043  1.00  0.00     0.293 HD
ENDBRANCH  17  20
ENDBRANCH   1  12
BRANCH   6  22
ATOM     22  O   UNL     1     -62.627  18.011 -29.122  1.00  0.00    -0.507 OA
ATOM     23  H   UNL     1     -61.758  17.568 -28.871  1.00  0.00     0.293 HD
ENDBRANCH   6  22
BRANCH   8  24
ATOM     24  O   UNL     1     -65.447  20.480 -32.123  1.00  0.00    -0.508 OA
ATOM     25  H   UNL     1     -65.523  20.340 -33.124  1.00  0.00     0.293 HD
ENDBRANCH   8  24
TORSDOF 5
ENDMDL
MODEL 9
REMARK VINA RESULT:    -5.699      8.001     11.269
REMARK INTER + INTRA:          -7.013
REMARK INTER:                  -6.721
REMARK INTRA:                  -0.292
REMARK UNBOUND:                -0.314
REMARK SMILES O=c1cc(-c2ccc(O)c(O)c2)oc2cc(O)cc(O)c12
REMARK SMILES IDX 4 1 3 2 2 3 1 4 21 5 19 6 18 7 16 8 15 9 14 10 13 11 5 12
REMARK SMILES IDX 6 13 7 14 8 15 12 16 10 17 9 18 11 20 20 22 17 24
REMARK H PARENT 9 19 11 21 20 23 17 25
REMARK Flexibility Score: inf
ROOT
ATOM      1  C   UNL     1     -60.784  25.627 -29.909  1.00  0.00     0.138 A 
ATOM      2  C   UNL     1     -62.017  25.147 -30.370  1.00  0.00     0.100 A 
ATOM      3  C   UNL     1     -62.141  23.808 -30.744  1.00  0.00     0.197 A 
ATOM      4  O   UNL     1     -63.274  23.395 -31.101  1.00  0.00    -0.289 OA
ATOM      5  C   UNL     1     -61.013  22.955 -30.691  1.00  0.00     0.107 A 
ATOM      6  C   UNL     1     -61.011  21.581 -31.081  1.00  0.00     0.134 A 
ATOM      7  C   UNL     1     -59.858  20.811 -30.889  1.00  0.00     0.093 A 
ATOM      8  C   UNL     1     -58.688  21.378 -30.377  1.00  0.00     0.123 A 
ATOM      9  C   UNL     1     -58.664  22.730 -30.041  1.00  0.00     0.094 A 
ATOM     10  C   UNL     1     -59.809  23.517 -30.187  1.00  0.00     0.146 A 
ATOM     11  O   UNL     1     -59.748  24.797 -29.837  1.00  0.00    -0.456 OA
ENDROOT
BRANCH   1  12
ATOM     12  C   UNL     1     -60.594  27.042 -29.500  1.00  0.00     0.021 A 
ATOM     13  C   UNL     1     -59.459  27.457 -28.777  1.00  0.00     0.016 A 
ATOM     14  C   UNL     1     -59.303  28.798 -28.415  1.00  0.00     0.051 A 
ATOM     15  C   UNL     1     -60.267  29.745 -28.769  1.00  0.00     0.157 A 
ATOM     16  C   UNL     1     -61.554  28.002 -29.866  1.00  0.00     0.062 A 
ATOM     17  C   UNL     1     -61.398  29.347 -29.501  1.00  0.00     0.158 A 
BRANCH  15  18
ATOM     18  O   UNL     1     -60.083  31.074 -28.392  1.00  0.00    -0.504 OA
ATOM     19  H   UNL     1     -59.299  31.370 -27.824  1.00  0.00     0.293 HD
ENDBRANCH  15  18
BRANCH  17  20
ATOM     20  O   UNL     1     -62.361  30.286 -29.862  1.00  0.00    -0.504 OA
ATOM     21  H   UNL     1     -63.334  30.030 -29.987  1.00  0.00     0.293 HD
ENDBRANCH  17  20
ENDBRANCH   1  12
BRANCH   6  22
ATOM     22  O   UNL     1     -62.099  20.934 -31.675  1.00  0.00    -0.507 OA
ATOM     23  H   UNL     1     -62.036  20.255 -32.416  1.00  0.00     0.293 HD
ENDBRANCH   6  22
BRANCH   8  24
ATOM     24  O   UNL     1     -57.540  20.608 -30.204  1.00  0.00    -0.508 OA
ATOM     25  H   UNL     1     -56.756  20.942 -29.656  1.00  0.00     0.293 HD
ENDBRANCH   8  24
TORSDOF 5
ENDMDL
