MODEL 1
REMARK VINA RESULT:    -5.717      0.000      0.000
REMARK INTER + INTRA:          -7.196
REMARK INTER:                  -6.886
REMARK INTRA:                  -0.309
REMARK UNBOUND:                -0.309
REMARK SMILES O=c1c(O)c(-c2ccc(O)c(O)c2)oc2cc(O)cc(O)c12
REMARK SMILES IDX 5 1 3 2 2 3 1 4 22 5 20 6 19 7 17 8 16 9 15 10 14 11 6 12
REMARK SMILES IDX 7 13 8 14 9 15 13 16 11 17 10 18 12 20 4 22 21 24 18 26
REMARK H PARENT 10 19 12 21 4 23 21 25 18 27
REMARK Flexibility Score: inf
ROOT
ATOM      1  C   UNL     1      17.835   3.197 -16.595  1.00  0.00     0.180 A 
ATOM      2  C   UNL     1      17.842   1.793 -16.569  1.00  0.00     0.208 A 
ATOM      3  C   UNL     1      17.490   1.132 -15.380  1.00  0.00     0.238 A 
ATOM      4  O   UNL     1      17.571  -0.123 -15.341  1.00  0.00    -0.285 OA
ATOM      5  C   UNL     1      17.080   1.882 -14.252  1.00  0.00     0.111 A 
ATOM      6  C   UNL     1      16.658   1.317 -13.010  1.00  0.00     0.134 A 
ATOM      7  C   UNL     1      16.377   2.161 -11.927  1.00  0.00     0.093 A 
ATOM      8  C   UNL     1      16.440   3.549 -12.060  1.00  0.00     0.123 A 
ATOM      9  C   UNL     1      16.797   4.111 -13.284  1.00  0.00     0.094 A 
ATOM     10  C   UNL     1      17.121   3.296 -14.371  1.00  0.00     0.146 A 
ATOM     11  O   UNL     1      17.477   3.874 -15.511  1.00  0.00    -0.452 OA
ENDROOT
BRANCH   1  12
ATOM     12  C   UNL     1      18.208   3.964 -17.806  1.00  0.00     0.025 A 
ATOM     13  C   UNL     1      17.246   4.191 -18.802  1.00  0.00     0.016 A 
ATOM     14  C   UNL     1      17.568   4.930 -19.943  1.00  0.00     0.051 A 
ATOM     15  C   UNL     1      18.850   5.466 -20.099  1.00  0.00     0.157 A 
ATOM     16  C   UNL     1      19.489   4.522 -17.954  1.00  0.00     0.062 A 
ATOM     17  C   UNL     1      19.815   5.266 -19.098  1.00  0.00     0.158 A 
BRANCH  15  18
ATOM     18  O   UNL     1      19.143   6.198 -21.250  1.00  0.00    -0.504 OA
ATOM     19  H   UNL     1      19.780   5.852 -21.958  1.00  0.00     0.293 HD
ENDBRANCH  15  18
BRANCH  17  20
ATOM     20  O   UNL     1      21.091   5.810 -19.241  1.00  0.00    -0.504 OA
ATOM     21  H   UNL     1      21.723   5.894 -18.452  1.00  0.00     0.293 HD
ENDBRANCH  17  20
ENDBRANCH   1  12
BRANCH   2  22
ATOM     22  O   UNL     1      18.176   1.068 -17.716  1.00  0.00    -0.502 OA
ATOM     23  H   UNL     1      18.236   0.057 -17.723  1.00  0.00     0.293 HD
ENDBRANCH   2  22
BRANCH   6  24
ATOM     24  O   UNL     1      16.475  -0.052 -12.794  1.00  0.00    -0.507 OA
ATOM     25  H   UNL     1      17.133  -0.771 -13.055  1.00  0.00     0.293 HD
ENDBRANCH   6  24
BRANCH   8  26
ATOM     26  O   UNL     1      16.141   4.381 -10.983  1.00  0.00    -0.508 OA
ATOM     27  H   UNL     1      16.356   5.371 -11.003  1.00  0.00     0.293 HD
ENDBRANCH   8  26
TORSDOF 6
ENDMDL
MODEL 2
REMARK VINA RESULT:    -5.518     13.873     15.485
REMARK INTER + INTRA:          -6.956
REMARK INTER:                  -6.703
REMARK INTRA:                  -0.254
REMARK UNBOUND:                -0.309
REMARK SMILES O=c1c(O)c(-c2ccc(O)c(O)c2)oc2cc(O)cc(O)c12
REMARK SMILES IDX 5 1 3 2 2 3 1 4 22 5 20 6 19 7 17 8 16 9 15 10 14 11 6 12
REMARK SMILES IDX 7 13 8 14 9 15 13 16 11 17 10 18 12 20 4 22 21 24 18 26
REMARK H PARENT 10 19 12 21 4 23 21 25 18 27
REMARK Flexibility Score: inf
ROOT
ATOM      1  C   UNL     1      19.586  10.163 -29.457  1.00  0.00     0.180 A 
ATOM      2  C   UNL     1      18.234   9.806 -29.332  1.00  0.00     0.208 A 
ATOM      3  C   UNL     1      17.890   8.445 -29.300  1.00  0.00     0.238 A 
ATOM      4  O   UNL     1      16.671   8.132 -29.263  1.00  0.00    -0.285 OA
ATOM      5  C   UNL     1      18.905   7.460 -29.336  1.00  0.00     0.111 A 
ATOM      6  C   UNL     1      18.675   6.052 -29.263  1.00  0.00     0.134 A 
ATOM      7  C   UNL     1      19.751   5.167 -29.416  1.00  0.00     0.093 A 
ATOM      8  C   UNL     1      21.055   5.640 -29.574  1.00  0.00     0.123 A 
ATOM      9  C   UNL     1      21.297   7.011 -29.589  1.00  0.00     0.094 A 
ATOM     10  C   UNL     1      20.241   7.919 -29.479  1.00  0.00     0.146 A 
ATOM     11  O   UNL     1      20.514   9.217 -29.521  1.00  0.00    -0.452 OA
ENDROOT
BRANCH   1  12
ATOM     12  C   UNL     1      20.025  11.577 -29.512  1.00  0.00     0.025 A 
ATOM     13  C   UNL     1      19.798  12.325 -30.677  1.00  0.00     0.016 A 
ATOM     14  C   UNL     1      20.184  13.666 -30.745  1.00  0.00     0.051 A 
ATOM     15  C   UNL     1      20.788  14.284 -29.646  1.00  0.00     0.157 A 
ATOM     16  C   UNL     1      20.613  12.205 -28.401  1.00  0.00     0.062 A 
ATOM     17  C   UNL     1      21.000  13.552 -28.465  1.00  0.00     0.158 A 
BRANCH  15  18
ATOM     18  O   UNL     1      21.165  15.623 -29.744  1.00  0.00    -0.504 OA
ATOM     19  H   UNL     1      21.967  15.917 -30.289  1.00  0.00     0.293 HD
ENDBRANCH  15  18
BRANCH  17  20
ATOM     20  O   UNL     1      21.589  14.166 -27.361  1.00  0.00    -0.504 OA
ATOM     21  H   UNL     1      21.820  15.154 -27.364  1.00  0.00     0.293 HD
ENDBRANCH  17  20
ENDBRANCH   1  12
BRANCH   2  22
ATOM     22  O   UNL     1      17.251  10.794 -29.221  1.00  0.00    -0.502 OA
ATOM     23  H   UNL     1      17.449  11.719 -28.858  1.00  0.00     0.293 HD
ENDBRANCH   2  22
BRANCH   6  24
ATOM     24  O   UNL     1      17.426   5.474 -29.020  1.00  0.00    -0.507 OA
ATOM     25  H   UNL     1      16.831   5.692 -28.235  1.00  0.00     0.293 HD
ENDBRANCH   6  24
BRANCH   8  26
ATOM     26  O   UNL     1      22.121   4.753 -29.707  1.00  0.00    -0.508 OA
ATOM     27  H   UNL     1      23.056   4.999 -29.402  1.00  0.00     0.293 HD
ENDBRANCH   8  26
TORSDOF 6
ENDMDL
MODEL 3
REMARK VINA RESULT:    -5.473      1.759      6.791
REMARK INTER + INTRA:          -6.902
REMARK INTER:                  -6.573
REMARK INTRA:                  -0.330
REMARK UNBOUND:                -0.309
REMARK SMILES O=c1c(O)c(-c2ccc(O)c(O)c2)oc2cc(O)cc(O)c12
REMARK SMILES IDX 5 1 3 2 2 3 1 4 22 5 20 6 19 7 17 8 16 9 15 10 14 11 6 12
REMARK SMILES IDX 7 13 8 14 9 15 13 16 11 17 10 18 12 20 4 22 21 24 18 26
REMARK H PARENT 10 19 12 21 4 23 21 25 18 27
REMARK Flexibility Score: inf
ROOT
ATOM      1  C   UNL     1      17.781   2.219 -16.065  1.00  0.00     0.180 A 
ATOM      2  C   UNL     1      17.938   1.316 -17.128  1.00  0.00     0.208 A 
ATOM      3  C   UNL     1      18.392   1.796 -18.368  1.00  0.00     0.238 A 
ATOM      4  O   UNL     1      18.459   0.995 -19.337  1.00  0.00    -0.285 OA
ATOM      5  C   UNL     1      18.736   3.161 -18.512  1.00  0.00     0.111 A 
ATOM      6  C   UNL     1      19.250   3.748 -19.708  1.00  0.00     0.134 A 
ATOM      7  C   UNL     1      19.455   5.133 -19.766  1.00  0.00     0.093 A 
ATOM      8  C   UNL     1      19.227   5.942 -18.651  1.00  0.00     0.123 A 
ATOM      9  C   UNL     1      18.780   5.371 -17.462  1.00  0.00     0.094 A 
ATOM     10  C   UNL     1      18.528   3.999 -17.385  1.00  0.00     0.146 A 
ATOM     11  O   UNL     1      18.081   3.501 -16.239  1.00  0.00    -0.452 OA
ENDROOT
BRANCH   1  12
ATOM     12  C   UNL     1      17.293   1.791 -14.733  1.00  0.00     0.025 A 
ATOM     13  C   UNL     1      18.218   1.392 -13.755  1.00  0.00     0.016 A 
ATOM     14  C   UNL     1      17.783   1.005 -12.485  1.00  0.00     0.051 A 
ATOM     15  C   UNL     1      16.422   1.026 -12.168  1.00  0.00     0.157 A 
ATOM     16  C   UNL     1      15.927   1.832 -14.405  1.00  0.00     0.062 A 
ATOM     17  C   UNL     1      15.488   1.446 -13.130  1.00  0.00     0.158 A 
BRANCH  15  18
ATOM     18  O   UNL     1      16.018   0.632 -10.892  1.00  0.00    -0.504 OA
ATOM     19  H   UNL     1      15.922  -0.344 -10.636  1.00  0.00     0.293 HD
ENDBRANCH  15  18
BRANCH  17  20
ATOM     20  O   UNL     1      14.131   1.483 -12.814  1.00  0.00    -0.504 OA
ATOM     21  H   UNL     1      13.647   0.666 -12.457  1.00  0.00     0.293 HD
ENDBRANCH  17  20
ENDBRANCH   1  12
BRANCH   2  22
ATOM     22  O   UNL     1      17.665  -0.043 -16.945  1.00  0.00    -0.502 OA
ATOM     23  H   UNL     1      16.723  -0.416 -16.962  1.00  0.00     0.293 HD
ENDBRANCH   2  22
BRANCH   6  24
ATOM     24  O   UNL     1      19.596   3.021 -20.851  1.00  0.00    -0.507 OA
ATOM     25  H   UNL     1      19.801   3.425 -21.753  1.00  0.00     0.293 HD
ENDBRANCH   6  24
BRANCH   8  26
ATOM     26  O   UNL     1      19.452   7.316 -18.711  1.00  0.00    -0.508 OA
ATOM     27  H   UNL     1      19.035   7.889 -19.436  1.00  0.00     0.293 HD
ENDBRANCH   8  26
TORSDOF 6
ENDMDL
MODEL 4
REMARK VINA RESULT:    -5.447     14.622     16.462
REMARK INTER + INTRA:          -6.871
REMARK INTER:                  -6.658
REMARK INTRA:                  -0.213
REMARK UNBOUND:                -0.309
REMARK SMILES O=c1c(O)c(-c2ccc(O)c(O)c2)oc2cc(O)cc(O)c12
REMARK SMILES IDX 5 1 3 2 2 3 1 4 22 5 20 6 19 7 17 8 16 9 15 10 14 11 6 12
REMARK SMILES IDX 7 13 8 14 9 15 13 16 11 17 10 18 12 20 4 22 21 24 18 26
REMARK H PARENT 10 19 12 21 4 23 21 25 18 27
REMARK Flexibility Score: inf
ROOT
ATOM      1  C   UNL     1      20.780  11.970 -28.698  1.00  0.00     0.180 A 
ATOM      2  C   UNL     1      20.698  12.970 -29.681  1.00  0.00     0.208 A 
ATOM      3  C   UNL     1      20.928  14.306 -29.313  1.00  0.00     0.238 A 
ATOM      4  O   UNL     1      20.779  15.205 -30.182  1.00  0.00    -0.285 OA
ATOM      5  C   UNL     1      21.294  14.618 -27.982  1.00  0.00     0.111 A 
ATOM      6  C   UNL     1      21.595  15.931 -27.508  1.00  0.00     0.134 A 
ATOM      7  C   UNL     1      21.841  16.134 -26.144  1.00  0.00     0.093 A 
ATOM      8  C   UNL     1      21.860  15.063 -25.248  1.00  0.00     0.123 A 
ATOM      9  C   UNL     1      21.622  13.771 -25.710  1.00  0.00     0.094 A 
ATOM     10  C   UNL     1      21.335  13.541 -27.058  1.00  0.00     0.146 A 
ATOM     11  O   UNL     1      21.094  12.297 -27.450  1.00  0.00    -0.452 OA
ENDROOT
BRANCH   1  12
ATOM     12  C   UNL     1      20.536  10.542 -29.006  1.00  0.00     0.025 A 
ATOM     13  C   UNL     1      21.584   9.618 -28.871  1.00  0.00     0.016 A 
ATOM     14  C   UNL     1      21.372   8.263 -29.135  1.00  0.00     0.051 A 
ATOM     15  C   UNL     1      20.109   7.807 -29.521  1.00  0.00     0.157 A 
ATOM     16  C   UNL     1      19.261  10.079 -29.373  1.00  0.00     0.062 A 
ATOM     17  C   UNL     1      19.045   8.718 -29.636  1.00  0.00     0.158 A 
BRANCH  15  18
ATOM     18  O   UNL     1      19.927   6.449 -29.780  1.00  0.00    -0.504 OA
ATOM     19  H   UNL     1      19.635   6.109 -30.688  1.00  0.00     0.293 HD
ENDBRANCH  15  18
BRANCH  17  20
ATOM     20  O   UNL     1      17.779   8.268 -30.007  1.00  0.00    -0.504 OA
ATOM     21  H   UNL     1      17.295   8.649 -30.813  1.00  0.00     0.293 HD
ENDBRANCH  17  20
ENDBRANCH   1  12
BRANCH   2  22
ATOM     22  O   UNL     1      20.411  12.634 -31.007  1.00  0.00    -0.502 OA
ATOM     23  H   UNL     1      21.097  12.214 -31.623  1.00  0.00     0.293 HD
ENDBRANCH   2  22
BRANCH   6  24
ATOM     24  O   UNL     1      21.691  17.058 -28.330  1.00  0.00    -0.507 OA
ATOM     25  H   UNL     1      21.259  17.150 -29.237  1.00  0.00     0.293 HD
ENDBRANCH   6  24
BRANCH   8  26
ATOM     26  O   UNL     1      22.123  15.272 -23.896  1.00  0.00    -0.508 OA
ATOM     27  H   UNL     1      22.257  14.497 -23.257  1.00  0.00     0.293 HD
ENDBRANCH   8  26
TORSDOF 6
ENDMDL
MODEL 5
REMARK VINA RESULT:    -5.381      1.843      7.159
REMARK INTER + INTRA:          -6.792
REMARK INTER:                  -6.481
REMARK INTRA:                  -0.311
REMARK UNBOUND:                -0.309
REMARK SMILES O=c1c(O)c(-c2ccc(O)c(O)c2)oc2cc(O)cc(O)c12
REMARK SMILES IDX 5 1 3 2 2 3 1 4 22 5 20 6 19 7 17 8 16 9 15 10 14 11 6 12
REMARK SMILES IDX 7 13 8 14 9 15 13 16 11 17 10 18 12 20 4 22 21 24 18 26
REMARK H PARENT 10 19 12 21 4 23 21 25 18 27
REMARK Flexibility Score: inf
ROOT
ATOM      1  C   UNL     1      17.819   2.723 -17.991  1.00  0.00     0.180 A 
ATOM      2  C   UNL     1      16.948   2.588 -19.084  1.00  0.00     0.208 A 
ATOM      3  C   UNL     1      17.207   3.317 -20.256  1.00  0.00     0.238 A 
ATOM      4  O   UNL     1      16.382   3.249 -21.204  1.00  0.00    -0.285 OA
ATOM      5  C   UNL     1      18.364   4.129 -20.339  1.00  0.00     0.111 A 
ATOM      6  C   UNL     1      18.751   4.877 -21.493  1.00  0.00     0.134 A 
ATOM      7  C   UNL     1      19.860   5.729 -21.424  1.00  0.00     0.093 A 
ATOM      8  C   UNL     1      20.634   5.812 -20.265  1.00  0.00     0.123 A 
ATOM      9  C   UNL     1      20.298   5.043 -19.153  1.00  0.00     0.094 A 
ATOM     10  C   UNL     1      19.175   4.214 -19.177  1.00  0.00     0.146 A 
ATOM     11  O   UNL     1      18.879   3.517 -18.088  1.00  0.00    -0.452 OA
ENDROOT
BRANCH   1  12
ATOM     12  C   UNL     1      17.604   1.998 -16.717  1.00  0.00     0.025 A 
ATOM     13  C   UNL     1      18.061   0.677 -16.590  1.00  0.00     0.016 A 
ATOM     14  C   UNL     1      17.888  -0.020 -15.392  1.00  0.00     0.051 A 
ATOM     15  C   UNL     1      17.273   0.596 -14.298  1.00  0.00     0.157 A 
ATOM     16  C   UNL     1      17.005   2.623 -15.610  1.00  0.00     0.062 A 
ATOM     17  C   UNL     1      16.833   1.927 -14.405  1.00  0.00     0.158 A 
BRANCH  15  18
ATOM     18  O   UNL     1      17.112  -0.125 -13.115  1.00  0.00    -0.504 OA
ATOM     19  H   UNL     1      17.903  -0.482 -12.592  1.00  0.00     0.293 HD
ENDBRANCH  15  18
BRANCH  17  20
ATOM     20  O   UNL     1      16.231   2.551 -13.314  1.00  0.00    -0.504 OA
ATOM     21  H   UNL     1      16.531   3.466 -12.994  1.00  0.00     0.293 HD
ENDBRANCH  17  20
ENDBRANCH   1  12
BRANCH   2  22
ATOM     22  O   UNL     1      15.853   1.723 -19.009  1.00  0.00    -0.502 OA
ATOM     23  H   UNL     1      15.800   0.969 -18.334  1.00  0.00     0.293 HD
ENDBRANCH   2  22
BRANCH   6  24
ATOM     24  O   UNL     1      18.101   4.802 -22.729  1.00  0.00    -0.507 OA
ATOM     25  H   UNL     1      18.549   4.914 -23.625  1.00  0.00     0.293 HD
ENDBRANCH   6  24
BRANCH   8  26
ATOM     26  O   UNL     1      21.747   6.648 -20.212  1.00  0.00    -0.508 OA
ATOM     27  H   UNL     1      22.123   6.974 -19.329  1.00  0.00     0.293 HD
ENDBRANCH   8  26
TORSDOF 6
ENDMDL
MODEL 6
REMARK VINA RESULT:    -5.342      2.606      6.874
REMARK INTER + INTRA:          -6.744
REMARK INTER:                  -6.468
REMARK INTRA:                  -0.276
REMARK UNBOUND:                -0.309
REMARK SMILES O=c1c(O)c(-c2ccc(O)c(O)c2)oc2cc(O)cc(O)c12
REMARK SMILES IDX 5 1 3 2 2 3 1 4 22 5 20 6 19 7 17 8 16 9 15 10 14 11 6 12
REMARK SMILES IDX 7 13 8 14 9 15 13 16 11 17 10 18 12 20 4 22 21 24 18 26
REMARK H PARENT 10 19 12 21 4 23 21 25 18 27
REMARK Flexibility Score: inf
ROOT
ATOM      1  C   UNL     1      17.878   1.507 -16.168  1.00  0.00     0.180 A 
ATOM      2  C   UNL     1      19.162   0.991 -16.405  1.00  0.00     0.208 A 
ATOM      3  C   UNL     1      19.603   0.847 -17.731  1.00  0.00     0.238 A 
ATOM      4  O   UNL     1      20.725   0.315 -17.939  1.00  0.00    -0.285 OA
ATOM      5  C   UNL     1      18.778   1.274 -18.799  1.00  0.00     0.111 A 
ATOM      6  C   UNL     1      19.142   1.220 -20.179  1.00  0.00     0.134 A 
ATOM      7  C   UNL     1      18.201   1.572 -21.155  1.00  0.00     0.093 A 
ATOM      8  C   UNL     1      16.934   2.038 -20.800  1.00  0.00     0.123 A 
ATOM      9  C   UNL     1      16.590   2.149 -19.455  1.00  0.00     0.094 A 
ATOM     10  C   UNL     1      17.491   1.768 -18.459  1.00  0.00     0.146 A 
ATOM     11  O   UNL     1      17.113   1.869 -17.191  1.00  0.00    -0.452 OA
ENDROOT
BRANCH   1  12
ATOM     12  C   UNL     1      17.337   1.674 -14.799  1.00  0.00     0.025 A 
ATOM     13  C   UNL     1      16.872   0.550 -14.098  1.00  0.00     0.016 A 
ATOM     14  C   UNL     1      16.377   0.680 -12.798  1.00  0.00     0.051 A 
ATOM     15  C   UNL     1      16.354   1.929 -12.173  1.00  0.00     0.157 A 
ATOM     16  C   UNL     1      17.333   2.926 -14.160  1.00  0.00     0.062 A 
ATOM     17  C   UNL     1      16.838   3.059 -12.854  1.00  0.00     0.158 A 
BRANCH  15  18
ATOM     18  O   UNL     1      15.852   2.029 -10.875  1.00  0.00    -0.504 OA
ATOM     19  H   UNL     1      15.144   2.708 -10.623  1.00  0.00     0.293 HD
ENDBRANCH  15  18
BRANCH  17  20
ATOM     20  O   UNL     1      16.831   4.306 -12.231  1.00  0.00    -0.504 OA
ATOM     21  H   UNL     1      16.255   5.068 -12.574  1.00  0.00     0.293 HD
ENDBRANCH  17  20
ENDBRANCH   1  12
BRANCH   2  22
ATOM     22  O   UNL     1      19.992   0.645 -15.335  1.00  0.00    -0.502 OA
ATOM     23  H   UNL     1      19.926   1.094 -14.429  1.00  0.00     0.293 HD
ENDBRANCH   2  22
BRANCH   6  24
ATOM     24  O   UNL     1      20.409   0.853 -20.641  1.00  0.00    -0.507 OA
ATOM     25  H   UNL     1      21.037   0.222 -20.167  1.00  0.00     0.293 HD
ENDBRANCH   6  24
BRANCH   8  26
ATOM     26  O   UNL     1      16.011   2.403 -21.778  1.00  0.00    -0.508 OA
ATOM     27  H   UNL     1      16.254   2.403 -22.762  1.00  0.00     0.293 HD
ENDBRANCH   8  26
TORSDOF 6
ENDMDL
MODEL 7
REMARK VINA RESULT:    -5.296     14.802     17.569
REMARK INTER + INTRA:          -6.689
REMARK INTER:                  -6.373
REMARK INTRA:                  -0.316
REMARK UNBOUND:                -0.309
REMARK SMILES O=c1c(O)c(-c2ccc(O)c(O)c2)oc2cc(O)cc(O)c12
REMARK SMILES IDX 5 1 3 2 2 3 1 4 22 5 20 6 19 7 17 8 16 9 15 10 14 11 6 12
REMARK SMILES IDX 7 13 8 14 9 15 13 16 11 17 10 18 12 20 4 22 21 24 18 26
REMARK H PARENT 10 19 12 21 4 23 21 25 18 27
REMARK Flexibility Score: inf
ROOT
ATOM      1  C   UNL     1      20.947  13.415 -28.128  1.00  0.00     0.180 A 
ATOM      2  C   UNL     1      20.655  13.890 -26.839  1.00  0.00     0.208 A 
ATOM      3  C   UNL     1      20.685  15.274 -26.601  1.00  0.00     0.238 A 
ATOM      4  O   UNL     1      20.496  15.688 -25.427  1.00  0.00    -0.285 OA
ATOM      5  C   UNL     1      20.952  16.168 -27.665  1.00  0.00     0.111 A 
ATOM      6  C   UNL     1      20.963  17.591 -27.549  1.00  0.00     0.134 A 
ATOM      7  C   UNL     1      21.345  18.371 -28.648  1.00  0.00     0.093 A 
ATOM      8  C   UNL     1      21.652  17.784 -29.876  1.00  0.00     0.123 A 
ATOM      9  C   UNL     1      21.590  16.399 -30.016  1.00  0.00     0.094 A 
ATOM     10  C   UNL     1      21.250  15.591 -28.928  1.00  0.00     0.146 A 
ATOM     11  O   UNL     1      21.225  14.276 -29.100  1.00  0.00    -0.452 OA
ENDROOT
BRANCH   1  12
ATOM     12  C   UNL     1      20.949  11.970 -28.454  1.00  0.00     0.025 A 
ATOM     13  C   UNL     1      22.100  11.208 -28.202  1.00  0.00     0.016 A 
ATOM     14  C   UNL     1      22.118   9.839 -28.481  1.00  0.00     0.051 A 
ATOM     15  C   UNL     1      20.983   9.209 -28.999  1.00  0.00     0.157 A 
ATOM     16  C   UNL     1      19.802  11.331 -28.954  1.00  0.00     0.062 A 
ATOM     17  C   UNL     1      19.816   9.956 -29.233  1.00  0.00     0.158 A 
BRANCH  15  18
ATOM     18  O   UNL     1      21.031   7.841 -29.270  1.00  0.00    -0.504 OA
ATOM     19  H   UNL     1      20.866   7.471 -30.198  1.00  0.00     0.293 HD
ENDBRANCH  15  18
BRANCH  17  20
ATOM     20  O   UNL     1      18.677   9.330 -29.736  1.00  0.00    -0.504 OA
ATOM     21  H   UNL     1      17.910   9.863 -30.134  1.00  0.00     0.293 HD
ENDBRANCH  17  20
ENDBRANCH   1  12
BRANCH   2  22
ATOM     22  O   UNL     1      20.319  12.996 -25.819  1.00  0.00    -0.502 OA
ATOM     23  H   UNL     1      21.003  12.638 -25.163  1.00  0.00     0.293 HD
ENDBRANCH   2  22
BRANCH   6  24
ATOM     24  O   UNL     1      20.588  18.285 -26.395  1.00  0.00    -0.507 OA
ATOM     25  H   UNL     1      20.768  19.263 -26.224  1.00  0.00     0.293 HD
ENDBRANCH   6  24
BRANCH   8  26
ATOM     26  O   UNL     1      22.013  18.569 -30.969  1.00  0.00    -0.508 OA
ATOM     27  H   UNL     1      22.653  18.229 -31.678  1.00  0.00     0.293 HD
ENDBRANCH   8  26
TORSDOF 6
ENDMDL
MODEL 8
REMARK VINA RESULT:    -5.270     14.994     17.300
REMARK INTER + INTRA:          -6.657
REMARK INTER:                  -6.352
REMARK INTRA:                  -0.305
REMARK UNBOUND:                -0.309
REMARK SMILES O=c1c(O)c(-c2ccc(O)c(O)c2)oc2cc(O)cc(O)c12
REMARK SMILES IDX 5 1 3 2 2 3 1 4 22 5 20 6 19 7 17 8 16 9 15 10 14 11 6 12
REMARK SMILES IDX 7 13 8 14 9 15 13 16 11 17 10 18 12 20 4 22 21 24 18 26
REMARK H PARENT 10 19 12 21 4 23 21 25 18 27
REMARK Flexibility Score: inf
ROOT
ATOM      1  C   UNL     1      20.064  13.517 -28.862  1.00  0.00     0.180 A 
ATOM      2  C   UNL     1      20.668  14.320 -29.843  1.00  0.00     0.208 A 
ATOM      3  C   UNL     1      21.051  15.630 -29.510  1.00  0.00     0.238 A 
ATOM      4  O   UNL     1      21.522  16.368 -30.415  1.00  0.00    -0.285 OA
ATOM      5  C   UNL     1      20.879  16.100 -28.186  1.00  0.00     0.111 A 
ATOM      6  C   UNL     1      21.273  17.392 -27.725  1.00  0.00     0.134 A 
ATOM      7  C   UNL     1      20.955  17.787 -26.419  1.00  0.00     0.093 A 
ATOM      8  C   UNL     1      20.316  16.912 -25.538  1.00  0.00     0.123 A 
ATOM      9  C   UNL     1      19.977  15.629 -25.961  1.00  0.00     0.094 A 
ATOM     10  C   UNL     1      20.246  15.220 -27.270  1.00  0.00     0.146 A 
ATOM     11  O   UNL     1      19.886  13.997 -27.637  1.00  0.00    -0.452 OA
ENDROOT
BRANCH   1  12
ATOM     12  C   UNL     1      19.619  12.132 -29.141  1.00  0.00     0.025 A 
ATOM     13  C   UNL     1      18.383  11.918 -29.770  1.00  0.00     0.016 A 
ATOM     14  C   UNL     1      17.952  10.622 -30.062  1.00  0.00     0.051 A 
ATOM     15  C   UNL     1      18.756   9.522 -29.747  1.00  0.00     0.157 A 
ATOM     16  C   UNL     1      20.436  11.027 -28.845  1.00  0.00     0.062 A 
ATOM     17  C   UNL     1      20.007   9.724 -29.139  1.00  0.00     0.158 A 
BRANCH  15  18
ATOM     18  O   UNL     1      18.299   8.240 -30.049  1.00  0.00    -0.504 OA
ATOM     19  H   UNL     1      17.330   7.971 -29.924  1.00  0.00     0.293 HD
ENDBRANCH  15  18
BRANCH  17  20
ATOM     20  O   UNL     1      20.819   8.633 -28.836  1.00  0.00    -0.504 OA
ATOM     21  H   UNL     1      20.653   8.060 -28.015  1.00  0.00     0.293 HD
ENDBRANCH  17  20
ENDBRANCH   1  12
BRANCH   2  22
ATOM     22  O   UNL     1      20.899  13.812 -31.125  1.00  0.00    -0.502 OA
ATOM     23  H   UNL     1      21.428  12.964 -31.287  1.00  0.00     0.293 HD
ENDBRANCH   2  22
BRANCH   6  24
ATOM     24  O   UNL     1      21.995  18.312 -28.493  1.00  0.00    -0.507 OA
ATOM     25  H   UNL     1      22.181  18.221 -29.480  1.00  0.00     0.293 HD
ENDBRANCH   6  24
BRANCH   8  26
ATOM     26  O   UNL     1      20.020  17.306 -24.235  1.00  0.00    -0.508 OA
ATOM     27  H   UNL     1      20.749  17.575 -23.584  1.00  0.00     0.293 HD
ENDBRANCH   8  26
TORSDOF 6
ENDMDL
MODEL 9
REMARK VINA RESULT:    -3.110      2.047      7.401
REMARK INTER + INTRA:          -4.055
REMARK INTER:                  -3.972
REMARK INTRA:                  -0.083
REMARK UNBOUND:                -0.309
REMARK SMILES O=c1c(O)c(-c2ccc(O)c(O)c2)oc2cc(O)cc(O)c12
REMARK SMILES IDX 5 1 3 2 2 3 1 4 22 5 20 6 19 7 17 8 16 9 15 10 14 11 6 12
REMARK SMILES IDX 7 13 8 14 9 15 13 16 11 17 10 18 12 20 4 22 21 24 18 26
REMARK H PARENT 10 19 12 21 4 23 21 25 18 27
REMARK Flexibility Score: inf
ROOT
ATOM      1  C   UNL     1      17.855   2.127 -16.016  1.00  0.00     0.180 A 
ATOM      2  C   UNL     1      17.812   3.509 -16.262  1.00  0.00     0.208 A 
ATOM      3  C   UNL     1      18.326   4.002 -17.472  1.00  0.00     0.238 A 
ATOM      4  O   UNL     1      18.352   5.247 -17.653  1.00  0.00    -0.285 OA
ATOM      5  C   UNL     1      18.824   3.102 -18.445  1.00  0.00     0.111 A 
ATOM      6  C   UNL     1      19.327   3.486 -19.725  1.00  0.00     0.134 A 
ATOM      7  C   UNL     1      19.893   2.518 -20.564  1.00  0.00     0.093 A 
ATOM      8  C   UNL     1      19.915   1.171 -20.197  1.00  0.00     0.123 A 
ATOM      9  C   UNL     1      19.376   0.779 -18.974  1.00  0.00     0.094 A 
ATOM     10  C   UNL     1      18.840   1.726 -18.098  1.00  0.00     0.146 A 
ATOM     11  O   UNL     1      18.358   1.310 -16.934  1.00  0.00    -0.452 OA
ENDROOT
BRANCH   1  12
ATOM     12  C   UNL     1      17.346   1.533 -14.758  1.00  0.00     0.025 A 
ATOM     13  C   UNL     1      18.223   0.816 -13.929  1.00  0.00     0.016 A 
ATOM     14  C   UNL     1      17.770   0.266 -12.727  1.00  0.00     0.051 A 
ATOM     15  C   UNL     1      16.442   0.438 -12.327  1.00  0.00     0.157 A 
ATOM     16  C   UNL     1      16.016   1.724 -14.344  1.00  0.00     0.062 A 
ATOM     17  C   UNL     1      15.560   1.174 -13.137  1.00  0.00     0.158 A 
BRANCH  15  18
ATOM     18  O   UNL     1      16.019  -0.125 -11.123  1.00  0.00    -0.504 OA
ATOM     19  H   UNL     1      15.090  -0.514 -11.009  1.00  0.00     0.293 HD
ENDBRANCH  15  18
BRANCH  17  20
ATOM     20  O   UNL     1      14.238   1.361 -12.736  1.00  0.00    -0.504 OA
ATOM     21  H   UNL     1      13.528   0.656 -12.903  1.00  0.00     0.293 HD
ENDBRANCH  17  20
ENDBRANCH   1  12
BRANCH   2  22
ATOM     22  O   UNL     1      17.246   4.374 -15.321  1.00  0.00    -0.502 OA
ATOM     23  H   UNL     1      17.650   4.519 -14.403  1.00  0.00     0.293 HD
ENDBRANCH   2  22
BRANCH   6  24
ATOM     24  O   UNL     1      19.273   4.789 -20.229  1.00  0.00    -0.507 OA
ATOM     25  H   UNL     1      18.764   5.551 -19.808  1.00  0.00     0.293 HD
ENDBRANCH   6  24
BRANCH   8  26
ATOM     26  O   UNL     1      20.464   0.212 -21.046  1.00  0.00    -0.508 OA
ATOM     27  H   UNL     1      20.035  -0.015 -21.935  1.00  0.00     0.293 HD
ENDBRANCH   8  26
TORSDOF 6
ENDMDL
