MODEL 1
REMARK VINA RESULT:    -4.388      0.000      0.000
REMARK INTER + INTRA:          -7.514
REMARK INTER:                  -6.953
REMARK INTRA:                  -0.561
REMARK UNBOUND:                -0.561
REMARK SMILES CCCCCCCCCCCC(=O)[O-]
REMARK SMILES IDX 7 1 8 2 9 3 10 4 11 5 12 6 13 7 14 8 6 9 5 10 4 11 3 12 2 13
REMARK SMILES IDX 1 14
REMARK H PARENT
REMARK Flexibility Score: inf
ROOT
ATOM      1  C   UNL     1     100.097 -69.554   5.704  1.00  0.00     0.000 C 
ENDROOT
BRANCH   1   2
ATOM      2  C   UNL     1      99.925 -68.430   4.668  1.00  0.00     0.000 C 
BRANCH   2   3
ATOM      3  C   UNL     1      98.469 -68.271   4.197  1.00  0.00     0.000 C 
BRANCH   3   4
ATOM      4  C   UNL     1      98.343 -67.754   2.748  1.00  0.00     0.006 C 
BRANCH   4   5
ATOM      5  C   UNL     1      99.582 -68.081   1.904  1.00  0.00     0.053 C 
BRANCH   5   6
ATOM      6  C   UNL     1      99.179 -68.656   0.583  1.00  0.00     0.041 C 
ATOM      7  O   UNL     1      99.182 -67.936  -0.450  1.00  0.00    -0.550 OA
ATOM      8  O   UNL     1      98.751 -69.975   0.501  1.00  0.00    -0.550 OA
ENDBRANCH   5   6
ENDBRANCH   4   5
ENDBRANCH   3   4
ENDBRANCH   2   3
ENDBRANCH   1   2
BRANCH   1   9
ATOM      9  C   UNL     1     101.133 -69.211   6.787  1.00  0.00     0.000 C 
BRANCH   9  10
ATOM     10  C   UNL     1     101.167 -67.707   7.113  1.00  0.00    -0.000 C 
BRANCH  10  11
ATOM     11  C   UNL     1     100.888 -67.419   8.598  1.00  0.00    -0.000 C 
BRANCH  11  12
ATOM     12  C   UNL     1     100.833 -68.695   9.450  1.00  0.00    -0.000 C 
BRANCH  12  13
ATOM     13  C   UNL     1     100.312 -68.391  10.859  1.00  0.00    -0.003 C 
ATOM     14  C   UNL     1     100.037 -66.901  11.037  1.00  0.00     0.004 C 
ENDBRANCH  12  13
ENDBRANCH  11  12
ENDBRANCH  10  11
ENDBRANCH   9  10
ENDBRANCH   1   9
TORSDOF 10
ENDMDL
MODEL 2
REMARK VINA RESULT:    -4.179      1.083      1.521
REMARK INTER + INTRA:          -7.183
REMARK INTER:                  -6.457
REMARK INTRA:                  -0.726
REMARK UNBOUND:                -0.561
REMARK SMILES CCCCCCCCCCCC(=O)[O-]
REMARK SMILES IDX 7 1 8 2 9 3 10 4 11 5 12 6 13 7 14 8 6 9 5 10 4 11 3 12 2 13
REMARK SMILES IDX 1 14
REMARK H PARENT
REMARK Flexibility Score: inf
ROOT
ATOM      1  C   UNL     1      99.666 -69.028   4.987  1.00  0.00     0.000 C 
ENDROOT
BRANCH   1   2
ATOM      2  C   UNL     1     100.445 -67.744   4.653  1.00  0.00     0.000 C 
BRANCH   2   3
ATOM      3  C   UNL     1      99.569 -66.674   3.978  1.00  0.00     0.000 C 
BRANCH   3   4
ATOM      4  C   UNL     1      98.483 -67.261   3.050  1.00  0.00     0.006 C 
BRANCH   4   5
ATOM      5  C   UNL     1      98.833 -67.090   1.566  1.00  0.00     0.053 C 
BRANCH   5   6
ATOM      6  C   UNL     1      99.650 -68.249   1.085  1.00  0.00     0.041 C 
ATOM      7  O   UNL     1      99.088 -69.326   0.755  1.00  0.00    -0.550 OA
ATOM      8  O   UNL     1     101.035 -68.155   1.048  1.00  0.00    -0.550 OA
ENDBRANCH   5   6
ENDBRANCH   4   5
ENDBRANCH   3   4
ENDBRANCH   2   3
ENDBRANCH   1   2
BRANCH   1   9
ATOM      9  C   UNL     1     100.214 -69.749   6.230  1.00  0.00     0.000 C 
BRANCH   9  10
ATOM     10  C   UNL     1     101.333 -68.954   6.926  1.00  0.00    -0.000 C 
BRANCH  10  11
ATOM     11  C   UNL     1     101.040 -68.703   8.414  1.00  0.00    -0.000 C 
BRANCH  11  12
ATOM     12  C   UNL     1     100.850 -67.214   8.739  1.00  0.00    -0.000 C 
BRANCH  12  13
ATOM     13  C   UNL     1     100.283 -67.029  10.151  1.00  0.00    -0.003 C 
ATOM     14  C   UNL     1     100.275 -68.346  10.921  1.00  0.00     0.004 C 
ENDBRANCH  12  13
ENDBRANCH  11  12
ENDBRANCH  10  11
ENDBRANCH   9  10
ENDBRANCH   1   9
TORSDOF 10
ENDMDL
MODEL 3
REMARK VINA RESULT:    -3.995      1.489      2.708
REMARK INTER + INTRA:          -6.892
REMARK INTER:                  -6.195
REMARK INTRA:                  -0.696
REMARK UNBOUND:                -0.561
REMARK SMILES CCCCCCCCCCCC(=O)[O-]
REMARK SMILES IDX 7 1 8 2 9 3 10 4 11 5 12 6 13 7 14 8 6 9 5 10 4 11 3 12 2 13
REMARK SMILES IDX 1 14
REMARK H PARENT
REMARK Flexibility Score: inf
ROOT
ATOM      1  C   UNL     1      98.352 -68.023   4.297  1.00  0.00     0.000 C 
ENDROOT
BRANCH   1   2
ATOM      2  C   UNL     1      98.102 -67.050   3.133  1.00  0.00     0.000 C 
BRANCH   2   3
ATOM      3  C   UNL     1      99.326 -66.892   2.215  1.00  0.00     0.000 C 
BRANCH   3   4
ATOM      4  C   UNL     1      99.007 -67.101   0.718  1.00  0.00     0.006 C 
BRANCH   4   5
ATOM      5  C   UNL     1      99.695 -68.348   0.147  1.00  0.00     0.053 C 
BRANCH   5   6
ATOM      6  C   UNL     1      98.678 -69.380  -0.229  1.00  0.00     0.041 C 
ATOM      7  O   UNL     1      98.466 -70.365   0.526  1.00  0.00    -0.550 OA
ATOM      8  O   UNL     1      98.001 -69.280  -1.437  1.00  0.00    -0.550 OA
ENDBRANCH   5   6
ENDBRANCH   4   5
ENDBRANCH   3   4
ENDBRANCH   2   3
ENDBRANCH   1   2
BRANCH   1   9
ATOM      9  C   UNL     1      99.759 -68.642   4.263  1.00  0.00     0.000 C 
BRANCH   9  10
ATOM     10  C   UNL     1      99.999 -69.622   5.425  1.00  0.00    -0.000 C 
BRANCH  10  11
ATOM     11  C   UNL     1     101.493 -69.903   5.660  1.00  0.00    -0.000 C 
BRANCH  11  12
ATOM     12  C   UNL     1     102.091 -69.038   6.778  1.00  0.00    -0.000 C 
BRANCH  12  13
ATOM     13  C   UNL     1     101.037 -68.712   7.843  1.00  0.00    -0.003 C 
ATOM     14  C   UNL     1     101.050 -67.228   8.197  1.00  0.00     0.004 C 
ENDBRANCH  12  13
ENDBRANCH  11  12
ENDBRANCH  10  11
ENDBRANCH   9  10
ENDBRANCH   1   9
TORSDOF 10
ENDMDL
MODEL 4
REMARK VINA RESULT:    -3.943      4.846      7.625
REMARK INTER + INTRA:          -6.809
REMARK INTER:                  -6.285
REMARK INTRA:                  -0.524
REMARK UNBOUND:                -0.561
REMARK SMILES CCCCCCCCCCCC(=O)[O-]
REMARK SMILES IDX 7 1 8 2 9 3 10 4 11 5 12 6 13 7 14 8 6 9 5 10 4 11 3 12 2 13
REMARK SMILES IDX 1 14
REMARK H PARENT
REMARK Flexibility Score: inf
ROOT
ATOM      1  C   UNL     1     101.730 -69.070   6.659  1.00  0.00     0.000 C 
ENDROOT
BRANCH   1   2
ATOM      2  C   UNL     1     101.064 -68.867   8.030  1.00  0.00     0.000 C 
BRANCH   2   3
ATOM      3  C   UNL     1     100.958 -67.385   8.428  1.00  0.00     0.000 C 
BRANCH   3   4
ATOM      4  C   UNL     1     100.507 -67.169   9.889  1.00  0.00     0.006 C 
BRANCH   4   5
ATOM      5  C   UNL     1     100.262 -68.494  10.623  1.00  0.00     0.053 C 
BRANCH   5   6
ATOM      6  C   UNL     1     101.252 -68.668  11.732  1.00  0.00     0.041 C 
ATOM      7  O   UNL     1     101.741 -67.662  12.309  1.00  0.00    -0.550 OA
ATOM      8  O   UNL     1     101.672 -69.942  12.094  1.00  0.00    -0.550 OA
ENDBRANCH   5   6
ENDBRANCH   4   5
ENDBRANCH   3   4
ENDBRANCH   2   3
ENDBRANCH   1   2
BRANCH   1   9
ATOM      9  C   UNL     1     100.851 -69.872   5.684  1.00  0.00     0.000 C 
BRANCH   9  10
ATOM     10  C   UNL     1      99.574 -69.113   5.283  1.00  0.00    -0.000 C 
BRANCH  10  11
ATOM     11  C   UNL     1      99.738 -68.338   3.965  1.00  0.00    -0.000 C 
BRANCH  11  12
ATOM     12  C   UNL     1      98.482 -68.391   3.084  1.00  0.00    -0.000 C 
BRANCH  12  13
ATOM     13  C   UNL     1      97.300 -67.699   3.773  1.00  0.00    -0.003 C 
ATOM     14  C   UNL     1      97.474 -66.183   3.778  1.00  0.00     0.004 C 
ENDBRANCH  12  13
ENDBRANCH  11  12
ENDBRANCH  10  11
ENDBRANCH   9  10
ENDBRANCH   1   9
TORSDOF 10
ENDMDL
MODEL 5
REMARK VINA RESULT:    -3.904      1.310      2.882
REMARK INTER + INTRA:          -6.748
REMARK INTER:                  -6.006
REMARK INTRA:                  -0.741
REMARK UNBOUND:                -0.561
REMARK SMILES CCCCCCCCCCCC(=O)[O-]
REMARK SMILES IDX 7 1 8 2 9 3 10 4 11 5 12 6 13 7 14 8 6 9 5 10 4 11 3 12 2 13
REMARK SMILES IDX 1 14
REMARK H PARENT
REMARK Flexibility Score: inf
ROOT
ATOM      1  C   UNL     1      97.648 -67.468   3.901  1.00  0.00     0.000 C 
ENDROOT
BRANCH   1   2
ATOM      2  C   UNL     1      98.305 -66.104   3.632  1.00  0.00     0.000 C 
BRANCH   2   3
ATOM      3  C   UNL     1      98.157 -65.649   2.170  1.00  0.00     0.000 C 
BRANCH   3   4
ATOM      4  C   UNL     1      99.385 -65.976   1.294  1.00  0.00     0.006 C 
BRANCH   4   5
ATOM      5  C   UNL     1      99.059 -66.996   0.195  1.00  0.00     0.053 C 
BRANCH   5   6
ATOM      6  C   UNL     1      99.757 -68.293   0.461  1.00  0.00     0.041 C 
ATOM      7  O   UNL     1     101.001 -68.315   0.654  1.00  0.00    -0.550 OA
ATOM      8  O   UNL     1      99.042 -69.483   0.446  1.00  0.00    -0.550 OA
ENDBRANCH   5   6
ENDBRANCH   4   5
ENDBRANCH   3   4
ENDBRANCH   2   3
ENDBRANCH   1   2
BRANCH   1   9
ATOM      9  C   UNL     1      98.648 -68.634   3.833  1.00  0.00     0.000 C 
BRANCH   9  10
ATOM     10  C   UNL     1      99.892 -68.393   4.707  1.00  0.00    -0.000 C 
BRANCH  10  11
ATOM     11  C   UNL     1     100.234 -69.602   5.593  1.00  0.00    -0.000 C 
BRANCH  11  12
ATOM     12  C   UNL     1     101.383 -69.316   6.570  1.00  0.00    -0.000 C 
BRANCH  12  13
ATOM     13  C   UNL     1     101.044 -68.134   7.485  1.00  0.00    -0.003 C 
ATOM     14  C   UNL     1     100.906 -68.580   8.937  1.00  0.00     0.004 C 
ENDBRANCH  12  13
ENDBRANCH  11  12
ENDBRANCH  10  11
ENDBRANCH   9  10
ENDBRANCH   1   9
TORSDOF 10
ENDMDL
MODEL 6
REMARK VINA RESULT:    -3.884      2.572      4.239
REMARK INTER + INTRA:          -6.716
REMARK INTER:                  -5.606
REMARK INTRA:                  -1.110
REMARK UNBOUND:                -0.561
REMARK SMILES CCCCCCCCCCCC(=O)[O-]
REMARK SMILES IDX 7 1 8 2 9 3 10 4 11 5 12 6 13 7 14 8 6 9 5 10 4 11 3 12 2 13
REMARK SMILES IDX 1 14
REMARK H PARENT
REMARK Flexibility Score: inf
ROOT
ATOM      1  C   UNL     1      97.886 -65.436   2.687  1.00  0.00     0.000 C 
ENDROOT
BRANCH   1   2
ATOM      2  C   UNL     1      99.310 -65.008   2.295  1.00  0.00     0.000 C 
BRANCH   2   3
ATOM      3  C   UNL     1      99.994 -66.008   1.348  1.00  0.00     0.000 C 
BRANCH   3   4
ATOM      4  C   UNL     1      99.007 -66.950   0.626  1.00  0.00     0.006 C 
BRANCH   4   5
ATOM      5  C   UNL     1      99.724 -68.092  -0.106  1.00  0.00     0.053 C 
BRANCH   5   6
ATOM      6  C   UNL     1      98.785 -69.233  -0.342  1.00  0.00     0.041 C 
ATOM      7  O   UNL     1      98.574 -70.079   0.567  1.00  0.00    -0.550 OA
ATOM      8  O   UNL     1      98.181 -69.390  -1.582  1.00  0.00    -0.550 OA
ENDBRANCH   5   6
ENDBRANCH   4   5
ENDBRANCH   3   4
ENDBRANCH   2   3
ENDBRANCH   1   2
BRANCH   1   9
ATOM      9  C   UNL     1      97.839 -66.191   4.026  1.00  0.00     0.000 C 
BRANCH   9  10
ATOM     10  C   UNL     1      97.561 -67.694   3.845  1.00  0.00    -0.000 C 
BRANCH  10  11
ATOM     11  C   UNL     1      98.816 -68.556   4.065  1.00  0.00    -0.000 C 
BRANCH  11  12
ATOM     12  C   UNL     1      99.980 -67.765   4.679  1.00  0.00    -0.000 C 
BRANCH  12  13
ATOM     13  C   UNL     1     100.602 -68.529   5.854  1.00  0.00    -0.003 C 
ATOM     14  C   UNL     1     100.408 -70.034   5.699  1.00  0.00     0.004 C 
ENDBRANCH  12  13
ENDBRANCH  11  12
ENDBRANCH  10  11
ENDBRANCH   9  10
ENDBRANCH   1   9
TORSDOF 10
ENDMDL
MODEL 7
REMARK VINA RESULT:    -3.755      2.030      3.950
REMARK INTER + INTRA:          -6.512
REMARK INTER:                  -6.066
REMARK INTRA:                  -0.446
REMARK UNBOUND:                -0.561
REMARK SMILES CCCCCCCCCCCC(=O)[O-]
REMARK SMILES IDX 7 1 8 2 9 3 10 4 11 5 12 6 13 7 14 8 6 9 5 10 4 11 3 12 2 13
REMARK SMILES IDX 1 14
REMARK H PARENT
REMARK Flexibility Score: inf
ROOT
ATOM      1  C   UNL     1      98.370 -68.776   2.513  1.00  0.00     0.000 C 
ENDROOT
BRANCH   1   2
ATOM      2  C   UNL     1      99.165 -68.170   1.345  1.00  0.00     0.000 C 
BRANCH   2   3
ATOM      3  C   UNL     1      98.997 -68.959   0.036  1.00  0.00     0.000 C 
BRANCH   3   4
ATOM      4  C   UNL     1      99.428 -68.170  -1.220  1.00  0.00     0.006 C 
BRANCH   4   5
ATOM      5  C   UNL     1      98.478 -68.399  -2.403  1.00  0.00     0.053 C 
BRANCH   5   6
ATOM      6  C   UNL     1      97.619 -67.193  -2.625  1.00  0.00     0.041 C 
ATOM      7  O   UNL     1      97.558 -66.289  -1.751  1.00  0.00    -0.550 OA
ATOM      8  O   UNL     1      96.848 -67.092  -3.776  1.00  0.00    -0.550 OA
ENDBRANCH   5   6
ENDBRANCH   4   5
ENDBRANCH   3   4
ENDBRANCH   2   3
ENDBRANCH   1   2
BRANCH   1   9
ATOM      9  C   UNL     1      98.179 -67.791   3.678  1.00  0.00     0.000 C 
BRANCH   9  10
ATOM     10  C   UNL     1      99.336 -67.846   4.691  1.00  0.00    -0.000 C 
BRANCH  10  11
ATOM     11  C   UNL     1      99.897 -69.267   4.868  1.00  0.00    -0.000 C 
BRANCH  11  12
ATOM     12  C   UNL     1     100.248 -69.589   6.328  1.00  0.00    -0.000 C 
BRANCH  12  13
ATOM     13  C   UNL     1     101.298 -68.611   6.868  1.00  0.00    -0.003 C 
ATOM     14  C   UNL     1     100.996 -68.216   8.310  1.00  0.00     0.004 C 
ENDBRANCH  12  13
ENDBRANCH  11  12
ENDBRANCH  10  11
ENDBRANCH   9  10
ENDBRANCH   1   9
TORSDOF 10
ENDMDL
MODEL 8
REMARK VINA RESULT:    -3.753      1.769      2.567
REMARK INTER + INTRA:          -6.508
REMARK INTER:                  -5.752
REMARK INTRA:                  -0.756
REMARK UNBOUND:                -0.561
REMARK SMILES CCCCCCCCCCCC(=O)[O-]
REMARK SMILES IDX 7 1 8 2 9 3 10 4 11 5 12 6 13 7 14 8 6 9 5 10 4 11 3 12 2 13
REMARK SMILES IDX 1 14
REMARK H PARENT
REMARK Flexibility Score: inf
ROOT
ATOM      1  C   UNL     1     100.981 -67.079   7.134  1.00  0.00     0.000 C 
ENDROOT
BRANCH   1   2
ATOM      2  C   UNL     1     101.094 -66.787   5.628  1.00  0.00     0.000 C 
BRANCH   2   3
ATOM      3  C   UNL     1     100.006 -65.824   5.124  1.00  0.00     0.000 C 
BRANCH   3   4
ATOM      4  C   UNL     1      99.352 -66.270   3.798  1.00  0.00     0.006 C 
BRANCH   4   5
ATOM      5  C   UNL     1      98.259 -67.324   4.017  1.00  0.00     0.053 C 
BRANCH   5   6
ATOM      6  C   UNL     1      98.716 -68.662   3.527  1.00  0.00     0.041 C 
ATOM      7  O   UNL     1      99.340 -69.440   4.297  1.00  0.00    -0.550 OA
ATOM      8  O   UNL     1      98.498 -69.030   2.206  1.00  0.00    -0.550 OA
ENDBRANCH   5   6
ENDBRANCH   4   5
ENDBRANCH   3   4
ENDBRANCH   2   3
ENDBRANCH   1   2
BRANCH   1   9
ATOM      9  C   UNL     1     101.067 -68.579   7.457  1.00  0.00     0.000 C 
BRANCH   9  10
ATOM     10  C   UNL     1     101.390 -68.845   8.938  1.00  0.00    -0.000 C 
BRANCH  10  11
ATOM     11  C   UNL     1     101.343 -67.567   9.791  1.00  0.00    -0.000 C 
BRANCH  11  12
ATOM     12  C   UNL     1     100.138 -67.532  10.742  1.00  0.00    -0.000 C 
BRANCH  12  13
ATOM     13  C   UNL     1      99.857 -66.102  11.219  1.00  0.00    -0.003 C 
ATOM     14  C   UNL     1     100.097 -65.090  10.103  1.00  0.00     0.004 C 
ENDBRANCH  12  13
ENDBRANCH  11  12
ENDBRANCH  10  11
ENDBRANCH   9  10
ENDBRANCH   1   9
TORSDOF 10
ENDMDL
MODEL 9
REMARK VINA RESULT:    -3.730      4.117      8.001
REMARK INTER + INTRA:          -6.472
REMARK INTER:                  -6.029
REMARK INTRA:                  -0.443
REMARK UNBOUND:                -0.561
REMARK SMILES CCCCCCCCCCCC(=O)[O-]
REMARK SMILES IDX 7 1 8 2 9 3 10 4 11 5 12 6 13 7 14 8 6 9 5 10 4 11 3 12 2 13
REMARK SMILES IDX 1 14
REMARK H PARENT
REMARK Flexibility Score: inf
ROOT
ATOM      1  C   UNL     1      99.795 -69.386   5.043  1.00  0.00     0.000 C 
ENDROOT
BRANCH   1   2
ATOM      2  C   UNL     1     100.871 -69.028   6.082  1.00  0.00     0.000 C 
BRANCH   2   3
ATOM      3  C   UNL     1     100.904 -67.526   6.412  1.00  0.00     0.000 C 
BRANCH   3   4
ATOM      4  C   UNL     1     101.081 -67.228   7.917  1.00  0.00     0.006 C 
BRANCH   4   5
ATOM      5  C   UNL     1     101.058 -68.505   8.768  1.00  0.00     0.053 C 
BRANCH   5   6
ATOM      6  C   UNL     1     100.507 -68.217  10.129  1.00  0.00     0.041 C 
ATOM      7  O   UNL     1     100.094 -67.062  10.414  1.00  0.00    -0.550 OA
ATOM      8  O   UNL     1     100.496 -69.211  11.099  1.00  0.00    -0.550 OA
ENDBRANCH   5   6
ENDBRANCH   4   5
ENDBRANCH   3   4
ENDBRANCH   2   3
ENDBRANCH   1   2
BRANCH   1   9
ATOM      9  C   UNL     1      99.101 -68.147   4.454  1.00  0.00     0.000 C 
BRANCH   9  10
ATOM     10  C   UNL     1      98.413 -68.441   3.109  1.00  0.00    -0.000 C 
BRANCH  10  11
ATOM     11  C   UNL     1      99.289 -68.064   1.903  1.00  0.00    -0.000 C 
BRANCH  11  12
ATOM     12  C   UNL     1      98.947 -68.874   0.644  1.00  0.00    -0.000 C 
BRANCH  12  13
ATOM     13  C   UNL     1      99.275 -68.079  -0.625  1.00  0.00    -0.003 C 
ATOM     14  C   UNL     1      98.660 -68.730  -1.860  1.00  0.00     0.004 C 
ENDBRANCH  12  13
ENDBRANCH  11  12
ENDBRANCH  10  11
ENDBRANCH   9  10
ENDBRANCH   1   9
TORSDOF 10
ENDMDL
