MODEL 1
REMARK VINA RESULT:    -4.009      0.000      0.000
REMARK INTER + INTRA:          -9.021
REMARK INTER:                  -7.289
REMARK INTRA:                  -1.732
REMARK UNBOUND:                -1.732
REMARK SMILES CCCCCCCCCCCCCCCC(=O)[O-]
REMARK SMILES IDX 9 1 10 2 11 3 12 4 13 5 14 6 15 7 16 8 17 9 18 10 8 11 7 12
REMARK SMILES IDX 6 13 5 14 4 15 3 16 2 17 1 18
REMARK H PARENT
REMARK Flexibility Score: inf
ROOT
ATOM      1  C   UNL     1     130.386 143.880 119.375  1.00  0.00     0.000 C 
ENDROOT
BRANCH   1   2
ATOM      2  C   UNL     1     128.888 143.546 119.485  1.00  0.00     0.000 C 
BRANCH   2   3
ATOM      3  C   UNL     1     128.023 144.409 118.543  1.00  0.00     0.000 C 
BRANCH   3   4
ATOM      4  C   UNL     1     127.143 145.438 119.277  1.00  0.00     0.000 C 
BRANCH   4   5
ATOM      5  C   UNL     1     127.117 145.301 120.809  1.00  0.00     0.000 C 
BRANCH   5   6
ATOM      6  C   UNL     1     127.276 146.621 121.590  1.00  0.00     0.006 C 
BRANCH   6   7
ATOM      7  C   UNL     1     127.138 146.468 123.116  1.00  0.00     0.053 C 
BRANCH   7   8
ATOM      8  C   UNL     1     128.464 146.439 123.815  1.00  0.00     0.041 C 
ATOM      9  O   UNL     1     128.554 145.993 124.990  1.00  0.00    -0.550 OA
ATOM     10  O   UNL     1     129.609 146.866 123.154  1.00  0.00    -0.550 OA
ENDBRANCH   7   8
ENDBRANCH   6   7
ENDBRANCH   5   6
ENDBRANCH   4   5
ENDBRANCH   3   4
ENDBRANCH   2   3
ENDBRANCH   1   2
BRANCH   1  11
ATOM     11  C   UNL     1     130.826 144.956 120.380  1.00  0.00     0.000 C 
BRANCH  11  12
ATOM     12  C   UNL     1     130.704 146.378 119.813  1.00  0.00    -0.000 C 
BRANCH  12  13
ATOM     13  C   UNL     1     132.075 147.060 119.741  1.00  0.00    -0.000 C 
BRANCH  13  14
ATOM     14  C   UNL     1     133.047 146.455 120.764  1.00  0.00    -0.000 C 
BRANCH  14  15
ATOM     15  C   UNL     1     134.491 146.368 120.239  1.00  0.00    -0.000 C 
BRANCH  15  16
ATOM     16  C   UNL     1     134.627 145.923 118.768  1.00  0.00    -0.000 C 
BRANCH  16  17
ATOM     17  C   UNL     1     135.111 144.476 118.568  1.00  0.00    -0.003 C 
ATOM     18  C   UNL     1     133.962 143.482 118.406  1.00  0.00     0.004 C 
ENDBRANCH  16  17
ENDBRANCH  15  16
ENDBRANCH  14  15
ENDBRANCH  13  14
ENDBRANCH  12  13
ENDBRANCH  11  12
ENDBRANCH   1  11
TORSDOF 14
ENDMDL
MODEL 2
REMARK VINA RESULT:    -3.969      2.402      5.894
REMARK INTER + INTRA:          -8.948
REMARK INTER:                  -6.739
REMARK INTRA:                  -2.210
REMARK UNBOUND:                -1.732
REMARK SMILES CCCCCCCCCCCCCCCC(=O)[O-]
REMARK SMILES IDX 9 1 10 2 11 3 12 4 13 5 14 6 15 7 16 8 17 9 18 10 8 11 7 12
REMARK SMILES IDX 6 13 5 14 4 15 3 16 2 17 1 18
REMARK H PARENT
REMARK Flexibility Score: inf
ROOT
ATOM      1  C   UNL     1     126.917 146.704 122.623  1.00  0.00     0.000 C 
ENDROOT
BRANCH   1   2
ATOM      2  C   UNL     1     128.308 146.763 123.277  1.00  0.00     0.000 C 
BRANCH   2   3
ATOM      3  C   UNL     1     129.175 145.535 122.923  1.00  0.00     0.000 C 
BRANCH   3   4
ATOM      4  C   UNL     1     130.575 145.897 122.391  1.00  0.00     0.000 C 
BRANCH   4   5
ATOM      5  C   UNL     1     130.617 146.362 120.925  1.00  0.00     0.000 C 
BRANCH   5   6
ATOM      6  C   UNL     1     131.696 145.690 120.053  1.00  0.00     0.006 C 
BRANCH   6   7
ATOM      7  C   UNL     1     132.775 146.658 119.533  1.00  0.00     0.053 C 
BRANCH   7   8
ATOM      8  C   UNL     1     134.098 146.467 120.211  1.00  0.00     0.041 C 
ATOM      9  O   UNL     1     135.070 145.972 119.583  1.00  0.00    -0.550 OA
ATOM     10  O   UNL     1     134.269 146.873 121.529  1.00  0.00    -0.550 OA
ENDBRANCH   7   8
ENDBRANCH   6   7
ENDBRANCH   5   6
ENDBRANCH   4   5
ENDBRANCH   3   4
ENDBRANCH   2   3
ENDBRANCH   1   2
BRANCH   1  11
ATOM     11  C   UNL     1     126.878 145.774 121.399  1.00  0.00     0.000 C 
BRANCH  11  12
ATOM     12  C   UNL     1     127.014 146.537 120.074  1.00  0.00    -0.000 C 
BRANCH  12  13
ATOM     13  C   UNL     1     127.441 145.598 118.940  1.00  0.00    -0.000 C 
BRANCH  13  14
ATOM     14  C   UNL     1     127.407 144.131 119.396  1.00  0.00    -0.000 C 
BRANCH  14  15
ATOM     15  C   UNL     1     128.795 143.467 119.380  1.00  0.00    -0.000 C 
BRANCH  15  16
ATOM     16  C   UNL     1     129.115 142.591 120.608  1.00  0.00    -0.000 C 
BRANCH  16  17
ATOM     17  C   UNL     1     127.890 142.142 121.424  1.00  0.00    -0.003 C 
ATOM     18  C   UNL     1     127.263 140.852 120.897  1.00  0.00     0.004 C 
ENDBRANCH  16  17
ENDBRANCH  15  16
ENDBRANCH  14  15
ENDBRANCH  13  14
ENDBRANCH  12  13
ENDBRANCH  11  12
ENDBRANCH   1  11
TORSDOF 14
ENDMDL
MODEL 3
REMARK VINA RESULT:    -3.855      3.819      5.318
REMARK INTER + INTRA:          -8.742
REMARK INTER:                  -6.527
REMARK INTRA:                  -2.215
REMARK UNBOUND:                -1.732
REMARK SMILES CCCCCCCCCCCCCCCC(=O)[O-]
REMARK SMILES IDX 9 1 10 2 11 3 12 4 13 5 14 6 15 7 16 8 17 9 18 10 8 11 7 12
REMARK SMILES IDX 6 13 5 14 4 15 3 16 2 17 1 18
REMARK H PARENT
REMARK Flexibility Score: inf
ROOT
ATOM      1  C   UNL     1     127.685 145.613 119.052  1.00  0.00     0.000 C 
ENDROOT
BRANCH   1   2
ATOM      2  C   UNL     1     127.621 144.086 119.228  1.00  0.00     0.000 C 
BRANCH   2   3
ATOM      3  C   UNL     1     129.022 143.449 119.352  1.00  0.00     0.000 C 
BRANCH   3   4
ATOM      4  C   UNL     1     129.088 142.288 120.362  1.00  0.00     0.000 C 
BRANCH   4   5
ATOM      5  C   UNL     1     127.836 142.113 121.240  1.00  0.00     0.000 C 
BRANCH   5   6
ATOM      6  C   UNL     1     127.247 140.688 121.268  1.00  0.00     0.006 C 
BRANCH   6   7
ATOM      7  C   UNL     1     126.875 140.135 119.880  1.00  0.00     0.053 C 
BRANCH   7   8
ATOM      8  C   UNL     1     127.575 138.847 119.565  1.00  0.00     0.041 C 
ATOM      9  O   UNL     1     127.029 137.992 118.820  1.00  0.00    -0.550 OA
ATOM     10  O   UNL     1     128.850 138.607 120.063  1.00  0.00    -0.550 OA
ENDBRANCH   7   8
ENDBRANCH   6   7
ENDBRANCH   5   6
ENDBRANCH   4   5
ENDBRANCH   3   4
ENDBRANCH   2   3
ENDBRANCH   1   2
BRANCH   1  11
ATOM     11  C   UNL     1     126.946 146.368 120.168  1.00  0.00     0.000 C 
BRANCH  11  12
ATOM     12  C   UNL     1     127.121 145.707 121.543  1.00  0.00    -0.000 C 
BRANCH  12  13
ATOM     13  C   UNL     1     128.269 146.358 122.323  1.00  0.00    -0.000 C 
BRANCH  13  14
ATOM     14  C   UNL     1     129.489 145.428 122.390  1.00  0.00    -0.000 C 
BRANCH  14  15
ATOM     15  C   UNL     1     130.794 146.120 121.959  1.00  0.00    -0.000 C 
BRANCH  15  16
ATOM     16  C   UNL     1     130.885 146.466 120.458  1.00  0.00    -0.000 C 
BRANCH  16  17
ATOM     17  C   UNL     1     132.206 146.066 119.778  1.00  0.00    -0.003 C 
ATOM     18  C   UNL     1     132.511 144.574 119.901  1.00  0.00     0.004 C 
ENDBRANCH  16  17
ENDBRANCH  15  16
ENDBRANCH  14  15
ENDBRANCH  13  14
ENDBRANCH  12  13
ENDBRANCH  11  12
ENDBRANCH   1  11
TORSDOF 14
ENDMDL
MODEL 4
REMARK VINA RESULT:    -3.807      2.880      6.556
REMARK INTER + INTRA:          -8.655
REMARK INTER:                  -6.570
REMARK INTRA:                  -2.085
REMARK UNBOUND:                -1.732
REMARK SMILES CCCCCCCCCCCCCCCC(=O)[O-]
REMARK SMILES IDX 9 1 10 2 11 3 12 4 13 5 14 6 15 7 16 8 17 9 18 10 8 11 7 12
REMARK SMILES IDX 6 13 5 14 4 15 3 16 2 17 1 18
REMARK H PARENT
REMARK Flexibility Score: inf
ROOT
ATOM      1  C   UNL     1     130.660 144.907 122.334  1.00  0.00     0.000 C 
ENDROOT
BRANCH   1   2
ATOM      2  C   UNL     1     131.777 144.997 121.279  1.00  0.00     0.000 C 
BRANCH   2   3
ATOM      3  C   UNL     1     131.377 145.876 120.074  1.00  0.00     0.000 C 
BRANCH   3   4
ATOM      4  C   UNL     1     132.518 146.770 119.553  1.00  0.00     0.000 C 
BRANCH   4   5
ATOM      5  C   UNL     1     133.927 146.376 120.030  1.00  0.00     0.000 C 
BRANCH   5   6
ATOM      6  C   UNL     1     134.943 146.084 118.907  1.00  0.00     0.006 C 
BRANCH   6   7
ATOM      7  C   UNL     1     134.788 144.692 118.268  1.00  0.00     0.053 C 
BRANCH   7   8
ATOM      8  C   UNL     1     135.341 143.596 119.128  1.00  0.00     0.041 C 
ATOM      9  O   UNL     1     136.564 143.301 119.075  1.00  0.00    -0.550 OA
ATOM     10  O   UNL     1     134.513 142.926 120.021  1.00  0.00    -0.550 OA
ENDBRANCH   7   8
ENDBRANCH   6   7
ENDBRANCH   5   6
ENDBRANCH   4   5
ENDBRANCH   3   4
ENDBRANCH   2   3
ENDBRANCH   1   2
BRANCH   1  11
ATOM     11  C   UNL     1     129.606 146.014 122.174  1.00  0.00     0.000 C 
BRANCH  11  12
ATOM     12  C   UNL     1     128.196 145.546 122.559  1.00  0.00    -0.000 C 
BRANCH  12  13
ATOM     13  C   UNL     1     127.142 146.139 121.616  1.00  0.00    -0.000 C 
BRANCH  13  14
ATOM     14  C   UNL     1     127.707 146.310 120.197  1.00  0.00    -0.000 C 
BRANCH  14  15
ATOM     15  C   UNL     1     127.248 145.202 119.233  1.00  0.00    -0.000 C 
BRANCH  15  16
ATOM     16  C   UNL     1     128.347 144.206 118.810  1.00  0.00    -0.000 C 
BRANCH  16  17
ATOM     17  C   UNL     1     128.575 143.037 119.784  1.00  0.00    -0.003 C 
ATOM     18  C   UNL     1     127.287 142.562 120.455  1.00  0.00     0.004 C 
ENDBRANCH  16  17
ENDBRANCH  15  16
ENDBRANCH  14  15
ENDBRANCH  13  14
ENDBRANCH  12  13
ENDBRANCH  11  12
ENDBRANCH   1  11
TORSDOF 14
ENDMDL
MODEL 5
REMARK VINA RESULT:    -3.779      2.011      3.405
REMARK INTER + INTRA:          -8.605
REMARK INTER:                  -6.530
REMARK INTRA:                  -2.075
REMARK UNBOUND:                -1.732
REMARK SMILES CCCCCCCCCCCCCCCC(=O)[O-]
REMARK SMILES IDX 9 1 10 2 11 3 12 4 13 5 14 6 15 7 16 8 17 9 18 10 8 11 7 12
REMARK SMILES IDX 6 13 5 14 4 15 3 16 2 17 1 18
REMARK H PARENT
REMARK Flexibility Score: inf
ROOT
ATOM      1  C   UNL     1     131.525 147.125 119.845  1.00  0.00     0.000 C 
ENDROOT
BRANCH   1   2
ATOM      2  C   UNL     1     130.342 146.229 119.439  1.00  0.00     0.000 C 
BRANCH   2   3
ATOM      3  C   UNL     1     129.309 146.069 120.576  1.00  0.00     0.000 C 
BRANCH   3   4
ATOM      4  C   UNL     1     127.865 145.867 120.078  1.00  0.00     0.000 C 
BRANCH   4   5
ATOM      5  C   UNL     1     127.691 144.782 119.001  1.00  0.00     0.000 C 
BRANCH   5   6
ATOM      6  C   UNL     1     128.147 143.368 119.412  1.00  0.00     0.006 C 
BRANCH   6   7
ATOM      7  C   UNL     1     127.180 142.652 120.374  1.00  0.00     0.053 C 
BRANCH   7   8
ATOM      8  C   UNL     1     127.772 142.441 121.735  1.00  0.00     0.041 C 
ATOM      9  O   UNL     1     128.431 141.399 121.989  1.00  0.00    -0.550 OA
ATOM     10  O   UNL     1     127.630 143.417 122.715  1.00  0.00    -0.550 OA
ENDBRANCH   7   8
ENDBRANCH   6   7
ENDBRANCH   5   6
ENDBRANCH   4   5
ENDBRANCH   3   4
ENDBRANCH   2   3
ENDBRANCH   1   2
BRANCH   1  11
ATOM     11  C   UNL     1     132.274 146.592 121.076  1.00  0.00     0.000 C 
BRANCH  11  12
ATOM     12  C   UNL     1     133.753 146.299 120.785  1.00  0.00    -0.000 C 
BRANCH  12  13
ATOM     13  C   UNL     1     134.085 146.557 119.310  1.00  0.00    -0.000 C 
BRANCH  13  14
ATOM     14  C   UNL     1     134.528 145.264 118.610  1.00  0.00    -0.000 C 
BRANCH  14  15
ATOM     15  C   UNL     1     134.390 144.021 119.506  1.00  0.00    -0.000 C 
BRANCH  15  16
ATOM     16  C   UNL     1     133.428 142.938 118.978  1.00  0.00    -0.000 C 
BRANCH  16  17
ATOM     17  C   UNL     1     131.938 143.197 119.264  1.00  0.00    -0.003 C 
ATOM     18  C   UNL     1     131.501 142.702 120.642  1.00  0.00     0.004 C 
ENDBRANCH  16  17
ENDBRANCH  15  16
ENDBRANCH  14  15
ENDBRANCH  13  14
ENDBRANCH  12  13
ENDBRANCH  11  12
ENDBRANCH   1  11
TORSDOF 14
ENDMDL
MODEL 6
REMARK VINA RESULT:    -3.725      2.329      5.892
REMARK INTER + INTRA:          -8.505
REMARK INTER:                  -6.133
REMARK INTRA:                  -2.372
REMARK UNBOUND:                -1.732
REMARK SMILES CCCCCCCCCCCCCCCC(=O)[O-]
REMARK SMILES IDX 9 1 10 2 11 3 12 4 13 5 14 6 15 7 16 8 17 9 18 10 8 11 7 12
REMARK SMILES IDX 6 13 5 14 4 15 3 16 2 17 1 18
REMARK H PARENT
REMARK Flexibility Score: inf
ROOT
ATOM      1  C   UNL     1     129.139 143.635 119.343  1.00  0.00     0.000 C 
ENDROOT
BRANCH   1   2
ATOM      2  C   UNL     1     129.135 142.498 120.379  1.00  0.00     0.000 C 
BRANCH   2   3
ATOM      3  C   UNL     1     129.639 142.962 121.762  1.00  0.00     0.000 C 
BRANCH   3   4
ATOM      4  C   UNL     1     130.881 143.871 121.697  1.00  0.00     0.000 C 
BRANCH   4   5
ATOM      5  C   UNL     1     130.683 145.289 122.260  1.00  0.00     0.000 C 
BRANCH   5   6
ATOM      6  C   UNL     1     130.842 146.431 121.236  1.00  0.00     0.006 C 
BRANCH   6   7
ATOM      7  C   UNL     1     131.729 146.073 120.030  1.00  0.00     0.053 C 
BRANCH   7   8
ATOM      8  C   UNL     1     133.149 146.521 120.204  1.00  0.00     0.041 C 
ATOM      9  O   UNL     1     133.960 146.457 119.243  1.00  0.00    -0.550 OA
ATOM     10  O   UNL     1     133.568 147.050 121.419  1.00  0.00    -0.550 OA
ENDBRANCH   7   8
ENDBRANCH   6   7
ENDBRANCH   5   6
ENDBRANCH   4   5
ENDBRANCH   3   4
ENDBRANCH   2   3
ENDBRANCH   1   2
BRANCH   1  11
ATOM     11  C   UNL     1     127.732 144.192 119.071  1.00  0.00     0.000 C 
BRANCH  11  12
ATOM     12  C   UNL     1     127.522 145.585 119.681  1.00  0.00    -0.000 C 
BRANCH  12  13
ATOM     13  C   UNL     1     127.073 145.483 121.144  1.00  0.00    -0.000 C 
BRANCH  13  14
ATOM     14  C   UNL     1     127.021 146.869 121.803  1.00  0.00    -0.000 C 
BRANCH  14  15
ATOM     15  C   UNL     1     127.264 146.819 123.322  1.00  0.00    -0.000 C 
BRANCH  15  16
ATOM     16  C   UNL     1     127.524 145.412 123.896  1.00  0.00    -0.000 C 
BRANCH  16  17
ATOM     17  C   UNL     1     127.857 145.374 125.398  1.00  0.00    -0.003 C 
ATOM     18  C   UNL     1     129.284 145.829 125.703  1.00  0.00     0.004 C 
ENDBRANCH  16  17
ENDBRANCH  15  16
ENDBRANCH  14  15
ENDBRANCH  13  14
ENDBRANCH  12  13
ENDBRANCH  11  12
ENDBRANCH   1  11
TORSDOF 14
ENDMDL
MODEL 7
REMARK VINA RESULT:    -3.721      2.224      3.453
REMARK INTER + INTRA:          -8.498
REMARK INTER:                  -6.668
REMARK INTRA:                  -1.830
REMARK UNBOUND:                -1.732
REMARK SMILES CCCCCCCCCCCCCCCC(=O)[O-]
REMARK SMILES IDX 9 1 10 2 11 3 12 4 13 5 14 6 15 7 16 8 17 9 18 10 8 11 7 12
REMARK SMILES IDX 6 13 5 14 4 15 3 16 2 17 1 18
REMARK H PARENT
REMARK Flexibility Score: inf
ROOT
ATOM      1  C   UNL     1     129.569 145.218 122.751  1.00  0.00     0.000 C 
ENDROOT
BRANCH   1   2
ATOM      2  C   UNL     1     128.406 146.213 122.592  1.00  0.00     0.000 C 
BRANCH   2   3
ATOM      3  C   UNL     1     127.232 145.620 121.782  1.00  0.00     0.000 C 
BRANCH   3   4
ATOM      4  C   UNL     1     126.964 146.351 120.453  1.00  0.00     0.000 C 
BRANCH   4   5
ATOM      5  C   UNL     1     127.324 145.557 119.186  1.00  0.00     0.000 C 
BRANCH   5   6
ATOM      6  C   UNL     1     127.591 144.054 119.405  1.00  0.00     0.006 C 
BRANCH   6   7
ATOM      7  C   UNL     1     129.060 143.641 119.197  1.00  0.00     0.053 C 
BRANCH   7   8
ATOM      8  C   UNL     1     129.509 142.598 120.176  1.00  0.00     0.041 C 
ATOM      9  O   UNL     1     128.729 142.191 121.077  1.00  0.00    -0.550 OA
ATOM     10  O   UNL     1     130.779 142.044 120.068  1.00  0.00    -0.550 OA
ENDBRANCH   7   8
ENDBRANCH   6   7
ENDBRANCH   5   6
ENDBRANCH   4   5
ENDBRANCH   3   4
ENDBRANCH   2   3
ENDBRANCH   1   2
BRANCH   1  11
ATOM     11  C   UNL     1     130.899 145.776 122.218  1.00  0.00     0.000 C 
BRANCH  11  12
ATOM     12  C   UNL     1     130.763 146.382 120.814  1.00  0.00    -0.000 C 
BRANCH  12  13
ATOM     13  C   UNL     1     132.121 146.428 120.101  1.00  0.00    -0.000 C 
BRANCH  13  14
ATOM     14  C   UNL     1     132.629 145.012 119.791  1.00  0.00    -0.000 C 
BRANCH  14  15
ATOM     15  C   UNL     1     134.055 145.001 119.215  1.00  0.00    -0.000 C 
BRANCH  15  16
ATOM     16  C   UNL     1     134.604 146.382 118.801  1.00  0.00    -0.000 C 
BRANCH  16  17
ATOM     17  C   UNL     1     135.879 146.823 119.543  1.00  0.00    -0.003 C 
ATOM     18  C   UNL     1     136.444 145.735 120.455  1.00  0.00     0.004 C 
ENDBRANCH  16  17
ENDBRANCH  15  16
ENDBRANCH  14  15
ENDBRANCH  13  14
ENDBRANCH  12  13
ENDBRANCH  11  12
ENDBRANCH   1  11
TORSDOF 14
ENDMDL
MODEL 8
REMARK VINA RESULT:    -3.684      2.664      5.940
REMARK INTER + INTRA:          -8.431
REMARK INTER:                  -6.069
REMARK INTRA:                  -2.362
REMARK UNBOUND:                -1.732
REMARK SMILES CCCCCCCCCCCCCCCC(=O)[O-]
REMARK SMILES IDX 9 1 10 2 11 3 12 4 13 5 14 6 15 7 16 8 17 9 18 10 8 11 7 12
REMARK SMILES IDX 6 13 5 14 4 15 3 16 2 17 1 18
REMARK H PARENT
REMARK Flexibility Score: inf
ROOT
ATOM      1  C   UNL     1     128.868 145.022 122.834  1.00  0.00     0.000 C 
ENDROOT
BRANCH   1   2
ATOM      2  C   UNL     1     130.350 145.024 122.420  1.00  0.00     0.000 C 
BRANCH   2   3
ATOM      3  C   UNL     1     130.782 146.365 121.789  1.00  0.00     0.000 C 
BRANCH   3   4
ATOM      4  C   UNL     1     131.327 146.229 120.355  1.00  0.00     0.000 C 
BRANCH   4   5
ATOM      5  C   UNL     1     132.852 146.063 120.248  1.00  0.00     0.000 C 
BRANCH   5   6
ATOM      6  C   UNL     1     133.326 144.766 119.562  1.00  0.00     0.006 C 
BRANCH   6   7
ATOM      7  C   UNL     1     132.230 143.693 119.423  1.00  0.00     0.053 C 
BRANCH   7   8
ATOM      8  C   UNL     1     132.495 142.484 120.269  1.00  0.00     0.041 C 
ATOM      9  O   UNL     1     132.712 142.606 121.503  1.00  0.00    -0.550 OA
ATOM     10  O   UNL     1     132.462 141.217 119.701  1.00  0.00    -0.550 OA
ENDBRANCH   7   8
ENDBRANCH   6   7
ENDBRANCH   5   6
ENDBRANCH   4   5
ENDBRANCH   3   4
ENDBRANCH   2   3
ENDBRANCH   1   2
BRANCH   1  11
ATOM     11  C   UNL     1     128.148 146.326 122.457  1.00  0.00     0.000 C 
BRANCH  11  12
ATOM     12  C   UNL     1     126.943 146.089 121.535  1.00  0.00    -0.000 C 
BRANCH  12  13
ATOM     13  C   UNL     1     127.277 146.462 120.086  1.00  0.00    -0.000 C 
BRANCH  13  14
ATOM     14  C   UNL     1     127.238 145.226 119.175  1.00  0.00    -0.000 C 
BRANCH  14  15
ATOM     15  C   UNL     1     128.580 144.476 119.125  1.00  0.00    -0.000 C 
BRANCH  15  16
ATOM     16  C   UNL     1     128.548 143.040 119.688  1.00  0.00    -0.000 C 
BRANCH  16  17
ATOM     17  C   UNL     1     127.243 142.652 120.405  1.00  0.00    -0.003 C 
ATOM     18  C   UNL     1     127.273 141.231 120.967  1.00  0.00     0.004 C 
ENDBRANCH  16  17
ENDBRANCH  15  16
ENDBRANCH  14  15
ENDBRANCH  13  14
ENDBRANCH  12  13
ENDBRANCH  11  12
ENDBRANCH   1  11
TORSDOF 14
ENDMDL
