MODEL 1
REMARK VINA RESULT:    -3.463      0.000      0.000
REMARK INTER + INTRA:         -12.966
REMARK INTER:                  -7.917
REMARK INTRA:                  -5.049
REMARK UNBOUND:                -5.049
REMARK SMILES CCCCCCCCCCCCCCCCCCCCCCCC(=O)[O-]
REMARK SMILES IDX 13 1 14 2 15 3 16 4 17 5 18 6 19 7 20 8 21 9 22 10 23 11
REMARK SMILES IDX 24 12 25 13 26 14 12 15 11 16 10 17 9 18 8 19 7 20 6 21 5 22
REMARK SMILES IDX 4 23 3 24 2 25 1 26
REMARK H PARENT
REMARK Flexibility Score: inf
ROOT
ATOM      1  C   UNL     1      29.393 -20.181  22.903  1.00  0.00     0.000 C 
ENDROOT
BRANCH   1   2
ATOM      2  C   UNL     1      28.714 -21.373  22.211  1.00  0.00     0.000 C 
BRANCH   2   3
ATOM      3  C   UNL     1      28.901 -22.690  22.988  1.00  0.00     0.000 C 
BRANCH   3   4
ATOM      4  C   UNL     1      29.304 -22.466  24.454  1.00  0.00     0.000 C 
BRANCH   4   5
ATOM      5  C   UNL     1      28.345 -23.149  25.443  1.00  0.00     0.000 C 
BRANCH   5   6
ATOM      6  C   UNL     1      27.653 -22.149  26.387  1.00  0.00     0.000 C 
BRANCH   6   7
ATOM      7  C   UNL     1      27.060 -20.902  25.698  1.00  0.00     0.000 C 
BRANCH   7   8
ATOM      8  C   UNL     1      27.669 -19.557  26.140  1.00  0.00     0.000 C 
BRANCH   8   9
ATOM      9  C   UNL     1      28.729 -19.660  27.252  1.00  0.00     0.000 C 
BRANCH   9  10
ATOM     10  C   UNL     1      30.162 -19.461  26.729  1.00  0.00     0.006 C 
BRANCH  10  11
ATOM     11  C   UNL     1      31.102 -20.594  27.161  1.00  0.00     0.053 C 
BRANCH  11  12
ATOM     12  C   UNL     1      32.506 -20.116  27.382  1.00  0.00     0.041 C 
ATOM     13  O   UNL     1      32.785 -18.892  27.277  1.00  0.00    -0.550 OA
ATOM     14  O   UNL     1      33.513 -21.026  27.675  1.00  0.00    -0.550 OA
ENDBRANCH  11  12
ENDBRANCH  10  11
ENDBRANCH   9  10
ENDBRANCH   8   9
ENDBRANCH   7   8
ENDBRANCH   6   7
ENDBRANCH   5   6
ENDBRANCH   4   5
ENDBRANCH   3   4
ENDBRANCH   2   3
ENDBRANCH   1   2
BRANCH   1  15
ATOM     15  C   UNL     1      30.004 -19.189  21.898  1.00  0.00     0.000 C 
BRANCH  15  16
ATOM     16  C   UNL     1      31.358 -18.627  22.359  1.00  0.00     0.000 C 
BRANCH  16  17
ATOM     17  C   UNL     1      31.904 -19.351  23.603  1.00  0.00     0.000 C 
BRANCH  17  18
ATOM     18  C   UNL     1      33.440 -19.466  23.610  1.00  0.00    -0.000 C 
BRANCH  18  19
ATOM     19  C   UNL     1      34.003 -20.802  24.136  1.00  0.00    -0.000 C 
BRANCH  19  20
ATOM     20  C   UNL     1      32.996 -21.960  24.044  1.00  0.00    -0.000 C 
BRANCH  20  21
ATOM     21  C   UNL     1      33.406 -23.034  23.022  1.00  0.00    -0.000 C 
BRANCH  21  22
ATOM     22  C   UNL     1      32.416 -23.253  21.858  1.00  0.00    -0.000 C 
BRANCH  22  23
ATOM     23  C   UNL     1      32.162 -22.021  20.970  1.00  0.00    -0.000 C 
BRANCH  23  24
ATOM     24  C   UNL     1      33.425 -21.379  20.365  1.00  0.00    -0.000 C 
BRANCH  24  25
ATOM     25  C   UNL     1      33.135 -20.177  19.441  1.00  0.00    -0.003 C 
ATOM     26  C   UNL     1      33.894 -20.248  18.119  1.00  0.00     0.004 C 
ENDBRANCH  24  25
ENDBRANCH  23  24
ENDBRANCH  22  23
ENDBRANCH  21  22
ENDBRANCH  20  21
ENDBRANCH  19  20
ENDBRANCH  18  19
ENDBRANCH  17  18
ENDBRANCH  16  17
ENDBRANCH  15  16
ENDBRANCH   1  15
TORSDOF 22
ENDMDL
MODEL 2
REMARK VINA RESULT:    -3.406      3.734      6.464
REMARK INTER + INTRA:         -12.834
REMARK INTER:                  -8.492
REMARK INTRA:                  -4.342
REMARK UNBOUND:                -5.049
REMARK SMILES CCCCCCCCCCCCCCCCCCCCCCCC(=O)[O-]
REMARK SMILES IDX 13 1 14 2 15 3 16 4 17 5 18 6 19 7 20 8 21 9 22 10 23 11
REMARK SMILES IDX 24 12 25 13 26 14 12 15 11 16 10 17 9 18 8 19 7 20 6 21 5 22
REMARK SMILES IDX 4 23 3 24 2 25 1 26
REMARK H PARENT
REMARK Flexibility Score: inf
ROOT
ATOM      1  C   UNL     1      30.858 -19.528  22.017  1.00  0.00     0.000 C 
ENDROOT
BRANCH   1   2
ATOM      2  C   UNL     1      29.703 -18.537  22.230  1.00  0.00     0.000 C 
BRANCH   2   3
ATOM      3  C   UNL     1      30.098 -17.359  23.139  1.00  0.00     0.000 C 
BRANCH   3   4
ATOM      4  C   UNL     1      31.496 -16.804  22.825  1.00  0.00     0.000 C 
BRANCH   4   5
ATOM      5  C   UNL     1      32.248 -16.345  24.084  1.00  0.00     0.000 C 
BRANCH   5   6
ATOM      6  C   UNL     1      31.346 -16.294  25.331  1.00  0.00     0.000 C 
BRANCH   6   7
ATOM      7  C   UNL     1      30.676 -14.930  25.597  1.00  0.00     0.000 C 
BRANCH   7   8
ATOM      8  C   UNL     1      29.221 -15.002  26.101  1.00  0.00     0.000 C 
BRANCH   8   9
ATOM      9  C   UNL     1      28.149 -14.785  25.017  1.00  0.00     0.000 C 
BRANCH   9  10
ATOM     10  C   UNL     1      28.710 -14.117  23.750  1.00  0.00     0.006 C 
BRANCH  10  11
ATOM     11  C   UNL     1      27.692 -14.099  22.603  1.00  0.00     0.053 C 
BRANCH  11  12
ATOM     12  C   UNL     1      28.332 -14.347  21.269  1.00  0.00     0.041 C 
ATOM     13  O   UNL     1      28.818 -13.391  20.609  1.00  0.00    -0.550 OA
ATOM     14  O   UNL     1      28.364 -15.631  20.741  1.00  0.00    -0.550 OA
ENDBRANCH  11  12
ENDBRANCH  10  11
ENDBRANCH   9  10
ENDBRANCH   8   9
ENDBRANCH   7   8
ENDBRANCH   6   7
ENDBRANCH   5   6
ENDBRANCH   4   5
ENDBRANCH   3   4
ENDBRANCH   2   3
ENDBRANCH   1   2
BRANCH   1  15
ATOM     15  C   UNL     1      30.363 -20.972  21.815  1.00  0.00     0.000 C 
BRANCH  15  16
ATOM     16  C   UNL     1      28.869 -21.141  22.130  1.00  0.00     0.000 C 
BRANCH  16  17
ATOM     17  C   UNL     1      28.517 -22.574  22.569  1.00  0.00     0.000 C 
BRANCH  17  18
ATOM     18  C   UNL     1      29.667 -23.280  23.311  1.00  0.00    -0.000 C 
BRANCH  18  19
ATOM     19  C   UNL     1      29.442 -23.510  24.819  1.00  0.00    -0.000 C 
BRANCH  19  20
ATOM     20  C   UNL     1      27.985 -23.281  25.254  1.00  0.00    -0.000 C 
BRANCH  20  21
ATOM     21  C   UNL     1      27.829 -22.115  26.246  1.00  0.00    -0.000 C 
BRANCH  21  22
ATOM     22  C   UNL     1      27.513 -20.744  25.611  1.00  0.00    -0.000 C 
BRANCH  22  23
ATOM     23  C   UNL     1      28.691 -19.755  25.559  1.00  0.00    -0.000 C 
BRANCH  23  24
ATOM     24  C   UNL     1      29.945 -20.189  26.340  1.00  0.00    -0.000 C 
BRANCH  24  25
ATOM     25  C   UNL     1      31.274 -19.831  25.641  1.00  0.00    -0.003 C 
ATOM     26  C   UNL     1      32.055 -21.060  25.183  1.00  0.00     0.004 C 
ENDBRANCH  24  25
ENDBRANCH  23  24
ENDBRANCH  22  23
ENDBRANCH  21  22
ENDBRANCH  20  21
ENDBRANCH  19  20
ENDBRANCH  18  19
ENDBRANCH  17  18
ENDBRANCH  16  17
ENDBRANCH  15  16
ENDBRANCH   1  15
TORSDOF 22
ENDMDL
MODEL 3
REMARK VINA RESULT:    -3.390      3.666      7.087
REMARK INTER + INTRA:         -12.798
REMARK INTER:                  -9.300
REMARK INTRA:                  -3.498
REMARK UNBOUND:                -5.049
REMARK SMILES CCCCCCCCCCCCCCCCCCCCCCCC(=O)[O-]
REMARK SMILES IDX 13 1 14 2 15 3 16 4 17 5 18 6 19 7 20 8 21 9 22 10 23 11
REMARK SMILES IDX 24 12 25 13 26 14 12 15 11 16 10 17 9 18 8 19 7 20 6 21 5 22
REMARK SMILES IDX 4 23 3 24 2 25 1 26
REMARK H PARENT
REMARK Flexibility Score: inf
ROOT
ATOM      1  C   UNL     1      30.762 -21.451  22.860  1.00  0.00     0.000 C 
ENDROOT
BRANCH   1   2
ATOM      2  C   UNL     1      29.489 -21.200  22.035  1.00  0.00     0.000 C 
BRANCH   2   3
ATOM      3  C   UNL     1      29.026 -19.733  22.099  1.00  0.00     0.000 C 
BRANCH   3   4
ATOM      4  C   UNL     1      29.983 -18.839  22.903  1.00  0.00     0.000 C 
BRANCH   4   5
ATOM      5  C   UNL     1      29.886 -17.358  22.504  1.00  0.00     0.000 C 
BRANCH   5   6
ATOM      6  C   UNL     1      30.605 -16.426  23.496  1.00  0.00     0.000 C 
BRANCH   6   7
ATOM      7  C   UNL     1      29.675 -15.622  24.429  1.00  0.00     0.000 C 
BRANCH   7   8
ATOM      8  C   UNL     1      28.250 -15.386  23.889  1.00  0.00     0.000 C 
BRANCH   8   9
ATOM      9  C   UNL     1      28.076 -14.102  23.056  1.00  0.00     0.000 C 
BRANCH   9  10
ATOM     10  C   UNL     1      28.010 -14.379  21.544  1.00  0.00     0.006 C 
BRANCH  10  11
ATOM     11  C   UNL     1      28.777 -13.330  20.728  1.00  0.00     0.053 C 
BRANCH  11  12
ATOM     12  C   UNL     1      30.137 -13.050  21.295  1.00  0.00     0.041 C 
ATOM     13  O   UNL     1      30.381 -11.943  21.844  1.00  0.00    -0.550 OA
ATOM     14  O   UNL     1      31.144 -14.000  21.189  1.00  0.00    -0.550 OA
ENDBRANCH  11  12
ENDBRANCH  10  11
ENDBRANCH   9  10
ENDBRANCH   8   9
ENDBRANCH   7   8
ENDBRANCH   6   7
ENDBRANCH   5   6
ENDBRANCH   4   5
ENDBRANCH   3   4
ENDBRANCH   2   3
ENDBRANCH   1   2
BRANCH   1  15
ATOM     15  C   UNL     1      30.648 -22.700  23.751  1.00  0.00     0.000 C 
BRANCH  15  16
ATOM     16  C   UNL     1      29.522 -23.648  23.310  1.00  0.00     0.000 C 
BRANCH  16  17
ATOM     17  C   UNL     1      28.537 -23.966  24.449  1.00  0.00     0.000 C 
BRANCH  17  18
ATOM     18  C   UNL     1      28.737 -23.075  25.689  1.00  0.00    -0.000 C 
BRANCH  18  19
ATOM     19  C   UNL     1      27.563 -22.133  26.026  1.00  0.00    -0.000 C 
BRANCH  19  20
ATOM     20  C   UNL     1      27.639 -20.786  25.287  1.00  0.00    -0.000 C 
BRANCH  20  21
ATOM     21  C   UNL     1      27.577 -19.576  26.236  1.00  0.00    -0.000 C 
BRANCH  21  22
ATOM     22  C   UNL     1      28.909 -18.822  26.434  1.00  0.00    -0.000 C 
BRANCH  22  23
ATOM     23  C   UNL     1      30.180 -19.665  26.226  1.00  0.00    -0.000 C 
BRANCH  23  24
ATOM     24  C   UNL     1      30.617 -20.501  27.444  1.00  0.00    -0.000 C 
BRANCH  24  25
ATOM     25  C   UNL     1      30.953 -19.660  28.693  1.00  0.00    -0.003 C 
ATOM     26  C   UNL     1      29.803 -19.601  29.696  1.00  0.00     0.004 C 
ENDBRANCH  24  25
ENDBRANCH  23  24
ENDBRANCH  22  23
ENDBRANCH  21  22
ENDBRANCH  20  21
ENDBRANCH  19  20
ENDBRANCH  18  19
ENDBRANCH  17  18
ENDBRANCH  16  17
ENDBRANCH  15  16
ENDBRANCH   1  15
TORSDOF 22
ENDMDL
MODEL 4
REMARK VINA RESULT:    -3.335      9.007     11.937
REMARK INTER + INTRA:         -12.673
REMARK INTER:                  -9.040
REMARK INTRA:                  -3.633
REMARK UNBOUND:                -5.049
REMARK SMILES CCCCCCCCCCCCCCCCCCCCCCCC(=O)[O-]
REMARK SMILES IDX 13 1 14 2 15 3 16 4 17 5 18 6 19 7 20 8 21 9 22 10 23 11
REMARK SMILES IDX 24 12 25 13 26 14 12 15 11 16 10 17 9 18 8 19 7 20 6 21 5 22
REMARK SMILES IDX 4 23 3 24 2 25 1 26
REMARK H PARENT
REMARK Flexibility Score: inf
ROOT
ATOM      1  C   UNL     1      32.486  -9.701  16.121  1.00  0.00     0.000 C 
ENDROOT
BRANCH   1   2
ATOM      2  C   UNL     1      32.846 -10.758  17.177  1.00  0.00     0.000 C 
BRANCH   2   3
ATOM      3  C   UNL     1      33.832 -10.223  18.232  1.00  0.00     0.000 C 
BRANCH   3   4
ATOM      4  C   UNL     1      33.288 -10.327  19.665  1.00  0.00     0.000 C 
BRANCH   4   5
ATOM      5  C   UNL     1      31.824 -10.793  19.711  1.00  0.00     0.000 C 
BRANCH   5   6
ATOM      6  C   UNL     1      31.656 -12.162  20.395  1.00  0.00     0.000 C 
BRANCH   6   7
ATOM      7  C   UNL     1      31.046 -13.266  19.507  1.00  0.00     0.000 C 
BRANCH   7   8
ATOM      8  C   UNL     1      29.709 -13.848  20.009  1.00  0.00     0.000 C 
BRANCH   8   9
ATOM      9  C   UNL     1      29.295 -13.393  21.421  1.00  0.00     0.000 C 
BRANCH   9  10
ATOM     10  C   UNL     1      27.969 -14.023  21.884  1.00  0.00     0.006 C 
BRANCH  10  11
ATOM     11  C   UNL     1      27.989 -14.389  23.374  1.00  0.00     0.053 C 
BRANCH  11  12
ATOM     12  C   UNL     1      28.965 -15.487  23.678  1.00  0.00     0.041 C 
ATOM     13  O   UNL     1      29.726 -15.402  24.678  1.00  0.00    -0.550 OA
ATOM     14  O   UNL     1      29.056 -16.589  22.838  1.00  0.00    -0.550 OA
ENDBRANCH  11  12
ENDBRANCH  10  11
ENDBRANCH   9  10
ENDBRANCH   8   9
ENDBRANCH   7   8
ENDBRANCH   6   7
ENDBRANCH   5   6
ENDBRANCH   4   5
ENDBRANCH   3   4
ENDBRANCH   2   3
ENDBRANCH   1   2
BRANCH   1  15
ATOM     15  C   UNL     1      32.900  -8.281  16.547  1.00  0.00     0.000 C 
BRANCH  15  16
ATOM     16  C   UNL     1      31.697  -7.372  16.844  1.00  0.00     0.000 C 
BRANCH  16  17
ATOM     17  C   UNL     1      31.338  -7.339  18.340  1.00  0.00     0.000 C 
BRANCH  17  18
ATOM     18  C   UNL     1      32.453  -6.739  19.218  1.00  0.00    -0.000 C 
BRANCH  18  19
ATOM     19  C   UNL     1      32.159  -6.704  20.732  1.00  0.00    -0.000 C 
BRANCH  19  20
ATOM     20  C   UNL     1      30.829  -7.381  21.105  1.00  0.00    -0.000 C 
BRANCH  20  21
ATOM     21  C   UNL     1      30.510  -7.291  22.607  1.00  0.00    -0.000 C 
BRANCH  21  22
ATOM     22  C   UNL     1      31.452  -8.090  23.533  1.00  0.00    -0.000 C 
BRANCH  22  23
ATOM     23  C   UNL     1      31.713  -9.546  23.108  1.00  0.00    -0.000 C 
BRANCH  23  24
ATOM     24  C   UNL     1      30.586 -10.539  23.449  1.00  0.00    -0.000 C 
BRANCH  24  25
ATOM     25  C   UNL     1      31.056 -11.767  24.257  1.00  0.00    -0.003 C 
ATOM     26  C   UNL     1      30.210 -12.017  25.503  1.00  0.00     0.004 C 
ENDBRANCH  24  25
ENDBRANCH  23  24
ENDBRANCH  22  23
ENDBRANCH  21  22
ENDBRANCH  20  21
ENDBRANCH  19  20
ENDBRANCH  18  19
ENDBRANCH  17  18
ENDBRANCH  16  17
ENDBRANCH  15  16
ENDBRANCH   1  15
TORSDOF 22
ENDMDL
MODEL 5
REMARK VINA RESULT:    -3.323      4.075      7.327
REMARK INTER + INTRA:         -12.646
REMARK INTER:                  -9.340
REMARK INTRA:                  -3.306
REMARK UNBOUND:                -5.049
REMARK SMILES CCCCCCCCCCCCCCCCCCCCCCCC(=O)[O-]
REMARK SMILES IDX 13 1 14 2 15 3 16 4 17 5 18 6 19 7 20 8 21 9 22 10 23 11
REMARK SMILES IDX 24 12 25 13 26 14 12 15 11 16 10 17 9 18 8 19 7 20 6 21 5 22
REMARK SMILES IDX 4 23 3 24 2 25 1 26
REMARK H PARENT
REMARK Flexibility Score: inf
ROOT
ATOM      1  C   UNL     1      31.282 -19.900  23.009  1.00  0.00     0.000 C 
ENDROOT
BRANCH   1   2
ATOM      2  C   UNL     1      32.194 -18.762  22.523  1.00  0.00     0.000 C 
BRANCH   2   3
ATOM      3  C   UNL     1      31.598 -17.370  22.804  1.00  0.00     0.000 C 
BRANCH   3   4
ATOM      4  C   UNL     1      30.388 -17.418  23.749  1.00  0.00     0.000 C 
BRANCH   4   5
ATOM      5  C   UNL     1      29.240 -16.505  23.289  1.00  0.00     0.000 C 
BRANCH   5   6
ATOM      6  C   UNL     1      28.749 -16.836  21.868  1.00  0.00     0.000 C 
BRANCH   6   7
ATOM      7  C   UNL     1      28.339 -15.616  21.018  1.00  0.00     0.000 C 
BRANCH   7   8
ATOM      8  C   UNL     1      28.991 -14.281  21.428  1.00  0.00     0.000 C 
BRANCH   8   9
ATOM      9  C   UNL     1      29.343 -13.344  20.258  1.00  0.00     0.000 C 
BRANCH   9  10
ATOM     10  C   UNL     1      30.859 -13.222  20.027  1.00  0.00     0.006 C 
BRANCH  10  11
ATOM     11  C   UNL     1      31.362 -11.786  20.217  1.00  0.00     0.053 C 
BRANCH  11  12
ATOM     12  C   UNL     1      31.119 -11.276  21.607  1.00  0.00     0.041 C 
ATOM     13  O   UNL     1      30.548 -10.168  21.787  1.00  0.00    -0.550 OA
ATOM     14  O   UNL     1      31.550 -12.013  22.703  1.00  0.00    -0.550 OA
ENDBRANCH  11  12
ENDBRANCH  10  11
ENDBRANCH   9  10
ENDBRANCH   8   9
ENDBRANCH   7   8
ENDBRANCH   6   7
ENDBRANCH   5   6
ENDBRANCH   4   5
ENDBRANCH   3   4
ENDBRANCH   2   3
ENDBRANCH   1   2
BRANCH   1  15
ATOM     15  C   UNL     1      30.399 -20.466  21.883  1.00  0.00     0.000 C 
BRANCH  15  16
ATOM     16  C   UNL     1      28.917 -20.563  22.276  1.00  0.00     0.000 C 
BRANCH  16  17
ATOM     17  C   UNL     1      28.418 -22.017  22.345  1.00  0.00     0.000 C 
BRANCH  17  18
ATOM     18  C   UNL     1      29.364 -22.946  23.130  1.00  0.00    -0.000 C 
BRANCH  18  19
ATOM     19  C   UNL     1      28.741 -23.647  24.354  1.00  0.00    -0.000 C 
BRANCH  19  20
ATOM     20  C   UNL     1      28.829 -22.808  25.640  1.00  0.00    -0.000 C 
BRANCH  20  21
ATOM     21  C   UNL     1      27.459 -22.293  26.117  1.00  0.00    -0.000 C 
BRANCH  21  22
ATOM     22  C   UNL     1      27.130 -20.835  25.732  1.00  0.00    -0.000 C 
BRANCH  22  23
ATOM     23  C   UNL     1      28.333 -19.876  25.696  1.00  0.00    -0.000 C 
BRANCH  23  24
ATOM     24  C   UNL     1      28.798 -19.356  27.070  1.00  0.00    -0.000 C 
BRANCH  24  25
ATOM     25  C   UNL     1      30.302 -19.020  27.136  1.00  0.00    -0.003 C 
ATOM     26  C   UNL     1      31.192 -20.183  26.703  1.00  0.00     0.004 C 
ENDBRANCH  24  25
ENDBRANCH  23  24
ENDBRANCH  22  23
ENDBRANCH  21  22
ENDBRANCH  20  21
ENDBRANCH  19  20
ENDBRANCH  18  19
ENDBRANCH  17  18
ENDBRANCH  16  17
ENDBRANCH  15  16
ENDBRANCH   1  15
TORSDOF 22
ENDMDL
MODEL 6
REMARK VINA RESULT:    -3.296      9.650     12.717
REMARK INTER + INTRA:         -12.583
REMARK INTER:                  -8.662
REMARK INTRA:                  -3.922
REMARK UNBOUND:                -5.049
REMARK SMILES CCCCCCCCCCCCCCCCCCCCCCCC(=O)[O-]
REMARK SMILES IDX 13 1 14 2 15 3 16 4 17 5 18 6 19 7 20 8 21 9 22 10 23 11
REMARK SMILES IDX 24 12 25 13 26 14 12 15 11 16 10 17 9 18 8 19 7 20 6 21 5 22
REMARK SMILES IDX 4 23 3 24 2 25 1 26
REMARK H PARENT
REMARK Flexibility Score: inf
ROOT
ATOM      1  C   UNL     1      31.758  -7.698  17.284  1.00  0.00     0.000 C 
ENDROOT
BRANCH   1   2
ATOM      2  C   UNL     1      32.176  -9.032  16.644  1.00  0.00     0.000 C 
BRANCH   2   3
ATOM      3  C   UNL     1      32.480 -10.118  17.693  1.00  0.00     0.000 C 
BRANCH   3   4
ATOM      4  C   UNL     1      32.105  -9.692  19.121  1.00  0.00     0.000 C 
BRANCH   4   5
ATOM      5  C   UNL     1      33.164 -10.100  20.158  1.00  0.00     0.000 C 
BRANCH   5   6
ATOM      6  C   UNL     1      34.045 -11.269  19.681  1.00  0.00     0.000 C 
BRANCH   6   7
ATOM      7  C   UNL     1      33.613 -12.661  20.186  1.00  0.00     0.000 C 
BRANCH   7   8
ATOM      8  C   UNL     1      32.834 -13.516  19.167  1.00  0.00     0.000 C 
BRANCH   8   9
ATOM      9  C   UNL     1      31.305 -13.338  19.206  1.00  0.00     0.000 C 
BRANCH   9  10
ATOM     10  C   UNL     1      30.763 -13.153  20.634  1.00  0.00     0.006 C 
BRANCH  10  11
ATOM     11  C   UNL     1      29.245 -12.931  20.656  1.00  0.00     0.053 C 
BRANCH  11  12
ATOM     12  C   UNL     1      28.508 -14.096  21.245  1.00  0.00     0.041 C 
ATOM     13  O   UNL     1      27.721 -13.927  22.214  1.00  0.00    -0.550 OA
ATOM     14  O   UNL     1      28.712 -15.375  20.742  1.00  0.00    -0.550 OA
ENDBRANCH  11  12
ENDBRANCH  10  11
ENDBRANCH   9  10
ENDBRANCH   8   9
ENDBRANCH   7   8
ENDBRANCH   6   7
ENDBRANCH   5   6
ENDBRANCH   4   5
ENDBRANCH   3   4
ENDBRANCH   2   3
ENDBRANCH   1   2
BRANCH   1  15
ATOM     15  C   UNL     1      32.723  -6.551  16.936  1.00  0.00     0.000 C 
BRANCH  15  16
ATOM     16  C   UNL     1      33.323  -5.876  18.179  1.00  0.00     0.000 C 
BRANCH  16  17
ATOM     17  C   UNL     1      32.455  -6.073  19.434  1.00  0.00     0.000 C 
BRANCH  17  18
ATOM     18  C   UNL     1      33.275  -6.430  20.688  1.00  0.00    -0.000 C 
BRANCH  18  19
ATOM     19  C   UNL     1      32.452  -6.720  21.960  1.00  0.00    -0.000 C 
BRANCH  19  20
ATOM     20  C   UNL     1      31.007  -7.152  21.658  1.00  0.00    -0.000 C 
BRANCH  20  21
ATOM     21  C   UNL     1      30.101  -7.130  22.902  1.00  0.00    -0.000 C 
BRANCH  21  22
ATOM     22  C   UNL     1      29.831  -8.505  23.548  1.00  0.00    -0.000 C 
BRANCH  22  23
ATOM     23  C   UNL     1      30.221  -9.723  22.691  1.00  0.00    -0.000 C 
BRANCH  23  24
ATOM     24  C   UNL     1      31.346 -10.600  23.272  1.00  0.00    -0.000 C 
BRANCH  24  25
ATOM     25  C   UNL     1      30.965 -11.321  24.582  1.00  0.00    -0.003 C 
ATOM     26  C   UNL     1      30.380 -12.712  24.347  1.00  0.00     0.004 C 
ENDBRANCH  24  25
ENDBRANCH  23  24
ENDBRANCH  22  23
ENDBRANCH  21  22
ENDBRANCH  20  21
ENDBRANCH  19  20
ENDBRANCH  18  19
ENDBRANCH  17  18
ENDBRANCH  16  17
ENDBRANCH  15  16
ENDBRANCH   1  15
TORSDOF 22
ENDMDL
MODEL 7
REMARK VINA RESULT:    -3.267      9.560     12.319
REMARK INTER + INTRA:         -12.518
REMARK INTER:                  -9.041
REMARK INTRA:                  -3.477
REMARK UNBOUND:                -5.049
REMARK SMILES CCCCCCCCCCCCCCCCCCCCCCCC(=O)[O-]
REMARK SMILES IDX 13 1 14 2 15 3 16 4 17 5 18 6 19 7 20 8 21 9 22 10 23 11
REMARK SMILES IDX 24 12 25 13 26 14 12 15 11 16 10 17 9 18 8 19 7 20 6 21 5 22
REMARK SMILES IDX 4 23 3 24 2 25 1 26
REMARK H PARENT
REMARK Flexibility Score: inf
ROOT
ATOM      1  C   UNL     1      31.780  -7.238  17.016  1.00  0.00     0.000 C 
ENDROOT
BRANCH   1   2
ATOM      2  C   UNL     1      32.277  -8.632  16.602  1.00  0.00     0.000 C 
BRANCH   2   3
ATOM      3  C   UNL     1      32.294  -9.625  17.779  1.00  0.00     0.000 C 
BRANCH   3   4
ATOM      4  C   UNL     1      32.971 -10.958  17.426  1.00  0.00     0.000 C 
BRANCH   4   5
ATOM      5  C   UNL     1      33.088 -11.902  18.634  1.00  0.00     0.000 C 
BRANCH   5   6
ATOM      6  C   UNL     1      31.773 -12.643  18.939  1.00  0.00     0.000 C 
BRANCH   6   7
ATOM      7  C   UNL     1      31.485 -12.872  20.438  1.00  0.00     0.000 C 
BRANCH   7   8
ATOM      8  C   UNL     1      30.006 -12.737  20.850  1.00  0.00     0.000 C 
BRANCH   8   9
ATOM      9  C   UNL     1      29.124 -13.952  20.507  1.00  0.00     0.000 C 
BRANCH   9  10
ATOM     10  C   UNL     1      27.971 -14.151  21.506  1.00  0.00     0.006 C 
BRANCH  10  11
ATOM     11  C   UNL     1      27.990 -15.546  22.144  1.00  0.00     0.053 C 
BRANCH  11  12
ATOM     12  C   UNL     1      28.458 -15.515  23.568  1.00  0.00     0.041 C 
ATOM     13  O   UNL     1      28.056 -14.613  24.350  1.00  0.00    -0.550 OA
ATOM     14  O   UNL     1      29.364 -16.464  24.024  1.00  0.00    -0.550 OA
ENDBRANCH  11  12
ENDBRANCH  10  11
ENDBRANCH   9  10
ENDBRANCH   8   9
ENDBRANCH   7   8
ENDBRANCH   6   7
ENDBRANCH   5   6
ENDBRANCH   4   5
ENDBRANCH   3   4
ENDBRANCH   2   3
ENDBRANCH   1   2
BRANCH   1  15
ATOM     15  C   UNL     1      31.641  -7.094  18.542  1.00  0.00     0.000 C 
BRANCH  15  16
ATOM     16  C   UNL     1      32.394  -5.875  19.098  1.00  0.00     0.000 C 
BRANCH  16  17
ATOM     17  C   UNL     1      33.355  -6.245  20.241  1.00  0.00     0.000 C 
BRANCH  17  18
ATOM     18  C   UNL     1      34.505  -7.167  19.792  1.00  0.00    -0.000 C 
BRANCH  18  19
ATOM     19  C   UNL     1      34.561  -8.544  20.485  1.00  0.00    -0.000 C 
BRANCH  19  20
ATOM     20  C   UNL     1      33.645  -8.638  21.716  1.00  0.00    -0.000 C 
BRANCH  20  21
ATOM     21  C   UNL     1      32.548  -9.707  21.569  1.00  0.00    -0.000 C 
BRANCH  21  22
ATOM     22  C   UNL     1      31.114  -9.164  21.390  1.00  0.00    -0.000 C 
BRANCH  22  23
ATOM     23  C   UNL     1      30.264  -9.116  22.672  1.00  0.00    -0.000 C 
BRANCH  23  24
ATOM     24  C   UNL     1      30.784  -8.165  23.767  1.00  0.00    -0.000 C 
BRANCH  24  25
ATOM     25  C   UNL     1      30.746  -6.674  23.371  1.00  0.00    -0.003 C 
ATOM     26  C   UNL     1      32.007  -5.918  23.783  1.00  0.00     0.004 C 
ENDBRANCH  24  25
ENDBRANCH  23  24
ENDBRANCH  22  23
ENDBRANCH  21  22
ENDBRANCH  20  21
ENDBRANCH  19  20
ENDBRANCH  18  19
ENDBRANCH  17  18
ENDBRANCH  16  17
ENDBRANCH  15  16
ENDBRANCH   1  15
TORSDOF 22
ENDMDL
MODEL 8
REMARK VINA RESULT:    -3.261      3.343      5.476
REMARK INTER + INTRA:         -12.504
REMARK INTER:                  -9.059
REMARK INTRA:                  -3.445
REMARK UNBOUND:                -5.049
REMARK SMILES CCCCCCCCCCCCCCCCCCCCCCCC(=O)[O-]
REMARK SMILES IDX 13 1 14 2 15 3 16 4 17 5 18 6 19 7 20 8 21 9 22 10 23 11
REMARK SMILES IDX 24 12 25 13 26 14 12 15 11 16 10 17 9 18 8 19 7 20 6 21 5 22
REMARK SMILES IDX 4 23 3 24 2 25 1 26
REMARK H PARENT
REMARK Flexibility Score: inf
ROOT
ATOM      1  C   UNL     1      31.688 -20.276  21.938  1.00  0.00     0.000 C 
ENDROOT
BRANCH   1   2
ATOM      2  C   UNL     1      30.538 -20.496  22.934  1.00  0.00     0.000 C 
BRANCH   2   3
ATOM      3  C   UNL     1      29.164 -20.556  22.242  1.00  0.00     0.000 C 
BRANCH   3   4
ATOM      4  C   UNL     1      28.456 -21.906  22.437  1.00  0.00     0.000 C 
BRANCH   4   5
ATOM      5  C   UNL     1      29.371 -22.970  23.064  1.00  0.00     0.000 C 
BRANCH   5   6
ATOM      6  C   UNL     1      28.772 -23.593  24.339  1.00  0.00     0.000 C 
BRANCH   6   7
ATOM      7  C   UNL     1      28.855 -22.707  25.600  1.00  0.00     0.000 C 
BRANCH   7   8
ATOM      8  C   UNL     1      27.515 -22.105  26.067  1.00  0.00     0.000 C 
BRANCH   8   9
ATOM      9  C   UNL     1      27.251 -20.664  25.592  1.00  0.00     0.000 C 
BRANCH   9  10
ATOM     10  C   UNL     1      27.872 -19.608  26.522  1.00  0.00     0.006 C 
BRANCH  10  11
ATOM     11  C   UNL     1      29.014 -18.837  25.847  1.00  0.00     0.053 C 
BRANCH  11  12
ATOM     12  C   UNL     1      29.805 -18.019  26.824  1.00  0.00     0.041 C 
ATOM     13  O   UNL     1      30.460 -17.017  26.431  1.00  0.00    -0.550 OA
ATOM     14  O   UNL     1      29.843 -18.381  28.164  1.00  0.00    -0.550 OA
ENDBRANCH  11  12
ENDBRANCH  10  11
ENDBRANCH   9  10
ENDBRANCH   8   9
ENDBRANCH   7   8
ENDBRANCH   6   7
ENDBRANCH   5   6
ENDBRANCH   4   5
ENDBRANCH   3   4
ENDBRANCH   2   3
ENDBRANCH   1   2
BRANCH   1  15
ATOM     15  C   UNL     1      32.440 -18.957  22.191  1.00  0.00     0.000 C 
BRANCH  15  16
ATOM     16  C   UNL     1      31.821 -18.124  23.324  1.00  0.00     0.000 C 
BRANCH  16  17
ATOM     17  C   UNL     1      32.211 -16.638  23.246  1.00  0.00     0.000 C 
BRANCH  17  18
ATOM     18  C   UNL     1      30.995 -15.694  23.185  1.00  0.00    -0.000 C 
BRANCH  18  19
ATOM     19  C   UNL     1      29.623 -16.387  23.053  1.00  0.00    -0.000 C 
BRANCH  19  20
ATOM     20  C   UNL     1      28.497 -15.642  23.789  1.00  0.00    -0.000 C 
BRANCH  20  21
ATOM     21  C   UNL     1      27.896 -14.492  22.962  1.00  0.00    -0.000 C 
BRANCH  21  22
ATOM     22  C   UNL     1      27.924 -14.693  21.432  1.00  0.00    -0.000 C 
BRANCH  22  23
ATOM     23  C   UNL     1      28.425 -13.486  20.619  1.00  0.00    -0.000 C 
BRANCH  23  24
ATOM     24  C   UNL     1      29.953 -13.404  20.443  1.00  0.00    -0.000 C 
BRANCH  24  25
ATOM     25  C   UNL     1      30.562 -12.054  20.878  1.00  0.00    -0.003 C 
ATOM     26  C   UNL     1      30.623 -11.891  22.395  1.00  0.00     0.004 C 
ENDBRANCH  24  25
ENDBRANCH  23  24
ENDBRANCH  22  23
ENDBRANCH  21  22
ENDBRANCH  20  21
ENDBRANCH  19  20
ENDBRANCH  18  19
ENDBRANCH  17  18
ENDBRANCH  16  17
ENDBRANCH  15  16
ENDBRANCH   1  15
TORSDOF 22
ENDMDL
MODEL 9
REMARK VINA RESULT:    -3.232      9.668     12.251
REMARK INTER + INTRA:         -12.438
REMARK INTER:                  -8.603
REMARK INTRA:                  -3.835
REMARK UNBOUND:                -5.049
REMARK SMILES CCCCCCCCCCCCCCCCCCCCCCCC(=O)[O-]
REMARK SMILES IDX 13 1 14 2 15 3 16 4 17 5 18 6 19 7 20 8 21 9 22 10 23 11
REMARK SMILES IDX 24 12 25 13 26 14 12 15 11 16 10 17 9 18 8 19 7 20 6 21 5 22
REMARK SMILES IDX 4 23 3 24 2 25 1 26
REMARK H PARENT
REMARK Flexibility Score: inf
ROOT
ATOM      1  C   UNL     1      31.992  -6.693  20.725  1.00  0.00     0.000 C 
ENDROOT
BRANCH   1   2
ATOM      2  C   UNL     1      31.129  -6.926  21.975  1.00  0.00     0.000 C 
BRANCH   2   3
ATOM      3  C   UNL     1      30.225  -8.166  21.843  1.00  0.00     0.000 C 
BRANCH   3   4
ATOM      4  C   UNL     1      30.482  -9.212  22.938  1.00  0.00     0.000 C 
BRANCH   4   5
ATOM      5  C   UNL     1      31.965  -9.602  23.049  1.00  0.00     0.000 C 
BRANCH   5   6
ATOM      6  C   UNL     1      32.298 -10.898  22.286  1.00  0.00     0.000 C 
BRANCH   6   7
ATOM      7  C   UNL     1      32.453 -10.735  20.759  1.00  0.00     0.000 C 
BRANCH   7   8
ATOM      8  C   UNL     1      31.537 -11.637  19.908  1.00  0.00     0.000 C 
BRANCH   8   9
ATOM      9  C   UNL     1      30.265 -12.128  20.623  1.00  0.00     0.000 C 
BRANCH   9  10
ATOM     10  C   UNL     1      29.935 -13.598  20.309  1.00  0.00     0.006 C 
BRANCH  10  11
ATOM     11  C   UNL     1      29.808 -14.449  21.579  1.00  0.00     0.053 C 
BRANCH  11  12
ATOM     12  C   UNL     1      28.380 -14.761  21.915  1.00  0.00     0.041 C 
ATOM     13  O   UNL     1      28.083 -15.847  22.480  1.00  0.00    -0.550 OA
ATOM     14  O   UNL     1      27.374 -13.866  21.577  1.00  0.00    -0.550 OA
ENDBRANCH  11  12
ENDBRANCH  10  11
ENDBRANCH   9  10
ENDBRANCH   8   9
ENDBRANCH   7   8
ENDBRANCH   6   7
ENDBRANCH   5   6
ENDBRANCH   4   5
ENDBRANCH   3   4
ENDBRANCH   2   3
ENDBRANCH   1   2
BRANCH   1  15
ATOM     15  C   UNL     1      31.412  -7.378  19.474  1.00  0.00     0.000 C 
BRANCH  15  16
ATOM     16  C   UNL     1      31.747  -6.632  18.174  1.00  0.00     0.000 C 
BRANCH  16  17
ATOM     17  C   UNL     1      32.010  -7.586  16.996  1.00  0.00     0.000 C 
BRANCH  17  18
ATOM     18  C   UNL     1      32.128  -9.061  17.425  1.00  0.00    -0.000 C 
BRANCH  18  19
ATOM     19  C   UNL     1      32.493 -10.052  16.302  1.00  0.00    -0.000 C 
BRANCH  19  20
ATOM     20  C   UNL     1      33.226 -11.303  16.815  1.00  0.00    -0.000 C 
BRANCH  20  21
ATOM     21  C   UNL     1      34.717 -11.325  16.432  1.00  0.00    -0.000 C 
BRANCH  21  22
ATOM     22  C   UNL     1      35.701 -11.461  17.613  1.00  0.00    -0.000 C 
BRANCH  22  23
ATOM     23  C   UNL     1      36.316 -10.142  18.113  1.00  0.00    -0.000 C 
BRANCH  23  24
ATOM     24  C   UNL     1      35.844  -9.686  19.506  1.00  0.00    -0.000 C 
BRANCH  24  25
ATOM     25  C   UNL     1      35.049  -8.364  19.497  1.00  0.00    -0.003 C 
ATOM     26  C   UNL     1      35.476  -7.421  18.375  1.00  0.00     0.004 C 
ENDBRANCH  24  25
ENDBRANCH  23  24
ENDBRANCH  22  23
ENDBRANCH  21  22
ENDBRANCH  20  21
ENDBRANCH  19  20
ENDBRANCH  18  19
ENDBRANCH  17  18
ENDBRANCH  16  17
ENDBRANCH  15  16
ENDBRANCH   1  15
TORSDOF 22
ENDMDL
