MODEL 1
REMARK VINA RESULT:    -3.592      0.000      0.000
REMARK INTER + INTRA:          -3.592
REMARK INTER:                  -3.592
REMARK INTRA:                   0.000
REMARK UNBOUND:                 0.000
REMARK SMILES CC1(C)O[C@]2(C)CC[C@H]1CC2
REMARK SMILES IDX 1 1 2 2 9 3 10 4 11 5 5 6 4 7 7 8 8 9 6 10 3 11
REMARK H PARENT
REMARK Flexibility Score: inf
ROOT
ATOM      1  C   UNL     1     119.586 117.780 119.738  1.00  0.00     0.042 C 
ATOM      2  C   UNL     1     118.104 117.445 120.012  1.00  0.00     0.066 C 
ATOM      3  C   UNL     1     117.613 116.278 119.072  1.00  0.00     0.021 C 
ATOM      4  C   UNL     1     118.428 115.005 119.404  1.00  0.00     0.009 C 
ATOM      5  C   UNL     1     118.367 114.746 120.930  1.00  0.00     0.035 C 
ATOM      6  C   UNL     1     117.437 115.794 121.605  1.00  0.00     0.066 C 
ATOM      7  O   UNL     1     117.975 117.101 121.400  1.00  0.00    -0.369 OA
ATOM      8  C   UNL     1     116.027 115.714 120.951  1.00  0.00     0.035 C 
ATOM      9  C   UNL     1     116.142 115.950 119.426  1.00  0.00     0.009 C 
ATOM     10  C   UNL     1     117.341 115.529 123.112  1.00  0.00     0.042 C 
ATOM     11  C   UNL     1     117.288 118.731 119.759  1.00  0.00     0.042 C 
ENDROOT
TORSDOF 0
ENDMDL
MODEL 2
REMARK VINA RESULT:    -3.592      2.100      3.761
REMARK INTER + INTRA:          -3.592
REMARK INTER:                  -3.592
REMARK INTRA:                   0.000
REMARK UNBOUND:                 0.000
REMARK SMILES CC1(C)O[C@]2(C)CC[C@H]1CC2
REMARK SMILES IDX 1 1 2 2 9 3 10 4 11 5 5 6 4 7 7 8 8 9 6 10 3 11
REMARK H PARENT
REMARK Flexibility Score: inf
ROOT
ATOM      1  C   UNL     1     113.601 115.432 119.652  1.00  0.00     0.042 C 
ATOM      2  C   UNL     1     115.078 115.755 119.962  1.00  0.00     0.066 C 
ATOM      3  C   UNL     1     115.591 116.943 119.060  1.00  0.00     0.021 C 
ATOM      4  C   UNL     1     114.774 118.210 119.407  1.00  0.00     0.009 C 
ATOM      5  C   UNL     1     114.807 118.432 120.940  1.00  0.00     0.035 C 
ATOM      6  C   UNL     1     115.721 117.365 121.607  1.00  0.00     0.066 C 
ATOM      7  O   UNL     1     115.183 116.065 121.360  1.00  0.00    -0.369 OA
ATOM      8  C   UNL     1     117.143 117.456 120.982  1.00  0.00     0.035 C 
ATOM      9  C   UNL     1     117.056 117.256 119.450  1.00  0.00     0.009 C 
ATOM     10  C   UNL     1     115.789 117.593 123.121  1.00  0.00     0.042 C 
ATOM     11  C   UNL     1     115.896 114.473 119.693  1.00  0.00     0.042 C 
ENDROOT
TORSDOF 0
ENDMDL
MODEL 3
REMARK VINA RESULT:    -3.588      1.616      3.336
REMARK INTER + INTRA:          -3.588
REMARK INTER:                  -3.588
REMARK INTRA:                   0.000
REMARK UNBOUND:                 0.000
REMARK SMILES CC1(C)O[C@]2(C)CC[C@H]1CC2
REMARK SMILES IDX 1 1 2 2 9 3 10 4 11 5 5 6 4 7 7 8 8 9 6 10 3 11
REMARK H PARENT
REMARK Flexibility Score: inf
ROOT
ATOM      1  C   UNL     1     115.019 116.090 120.190  1.00  0.00     0.042 C 
ATOM      2  C   UNL     1     115.907 117.182 120.824  1.00  0.00     0.066 C 
ATOM      3  C   UNL     1     116.831 116.568 121.945  1.00  0.00     0.021 C 
ATOM      4  C   UNL     1     117.785 115.542 121.287  1.00  0.00     0.009 C 
ATOM      5  C   UNL     1     118.495 116.208 120.083  1.00  0.00     0.035 C 
ATOM      6  C   UNL     1     118.084 117.705 119.992  1.00  0.00     0.066 C 
ATOM      7  O   UNL     1     116.676 117.794 119.777  1.00  0.00    -0.369 OA
ATOM      8  C   UNL     1     118.442 118.410 121.333  1.00  0.00     0.035 C 
ATOM      9  C   UNL     1     117.733 117.693 122.507  1.00  0.00     0.009 C 
ATOM     10  C   UNL     1     118.807 118.386 118.823  1.00  0.00     0.042 C 
ATOM     11  C   UNL     1     114.966 118.253 121.417  1.00  0.00     0.042 C 
ENDROOT
TORSDOF 0
ENDMDL
MODEL 4
REMARK VINA RESULT:    -3.586      1.856      3.478
REMARK INTER + INTRA:          -3.586
REMARK INTER:                  -3.586
REMARK INTRA:                   0.000
REMARK UNBOUND:                 0.000
REMARK SMILES CC1(C)O[C@]2(C)CC[C@H]1CC2
REMARK SMILES IDX 1 1 2 2 9 3 10 4 11 5 5 6 4 7 7 8 8 9 6 10 3 11
REMARK H PARENT
REMARK Flexibility Score: inf
ROOT
ATOM      1  C   UNL     1     118.242 118.113 121.261  1.00  0.00     0.042 C 
ATOM      2  C   UNL     1     117.325 116.922 120.909  1.00  0.00     0.066 C 
ATOM      3  C   UNL     1     116.377 116.572 122.120  1.00  0.00     0.021 C 
ATOM      4  C   UNL     1     115.453 117.785 122.385  1.00  0.00     0.009 C 
ATOM      5  C   UNL     1     114.769 118.202 121.060  1.00  0.00     0.035 C 
ATOM      6  C   UNL     1     115.167 117.213 119.928  1.00  0.00     0.066 C 
ATOM      7  O   UNL     1     116.580 117.267 119.731  1.00  0.00    -0.369 OA
ATOM      8  C   UNL     1     114.765 115.771 120.353  1.00  0.00     0.035 C 
ATOM      9  C   UNL     1     115.448 115.409 121.693  1.00  0.00     0.009 C 
ATOM     10  C   UNL     1     114.470 117.596 118.617  1.00  0.00     0.042 C 
ATOM     11  C   UNL     1     118.238 115.725 120.565  1.00  0.00     0.042 C 
ENDROOT
TORSDOF 0
ENDMDL
MODEL 5
REMARK VINA RESULT:    -3.570      2.054      3.871
REMARK INTER + INTRA:          -3.570
REMARK INTER:                  -3.570
REMARK INTRA:                   0.000
REMARK UNBOUND:                 0.000
REMARK SMILES CC1(C)O[C@]2(C)CC[C@H]1CC2
REMARK SMILES IDX 1 1 2 2 9 3 10 4 11 5 5 6 4 7 7 8 8 9 6 10 3 11
REMARK H PARENT
REMARK Flexibility Score: inf
ROOT
ATOM      1  C   UNL     1     116.956 115.014 120.164  1.00  0.00     0.042 C 
ATOM      2  C   UNL     1     115.887 115.909 120.827  1.00  0.00     0.066 C 
ATOM      3  C   UNL     1     116.529 116.799 121.959  1.00  0.00     0.021 C 
ATOM      4  C   UNL     1     117.565 117.747 121.309  1.00  0.00     0.009 C 
ATOM      5  C   UNL     1     116.899 118.493 120.126  1.00  0.00     0.035 C 
ATOM      6  C   UNL     1     115.393 118.111 120.043  1.00  0.00     0.066 C 
ATOM      7  O   UNL     1     115.278 116.709 119.802  1.00  0.00    -0.369 OA
ATOM      8  C   UNL     1     114.710 118.454 121.399  1.00  0.00     0.035 C 
ATOM      9  C   UNL     1     115.426 117.710 122.551  1.00  0.00     0.009 C 
ATOM     10  C   UNL     1     114.714 118.868 118.897  1.00  0.00     0.042 C 
ATOM     11  C   UNL     1     114.806 114.975 121.413  1.00  0.00     0.042 C 
ENDROOT
TORSDOF 0
ENDMDL
MODEL 6
REMARK VINA RESULT:    -3.555      1.602      3.225
REMARK INTER + INTRA:          -3.555
REMARK INTER:                  -3.555
REMARK INTRA:                   0.000
REMARK UNBOUND:                 0.000
REMARK SMILES CC1(C)O[C@]2(C)CC[C@H]1CC2
REMARK SMILES IDX 1 1 2 2 9 3 10 4 11 5 5 6 4 7 7 8 8 9 6 10 3 11
REMARK H PARENT
REMARK Flexibility Score: inf
ROOT
ATOM      1  C   UNL     1     115.087 118.264 121.015  1.00  0.00     0.042 C 
ATOM      2  C   UNL     1     116.301 117.342 120.772  1.00  0.00     0.066 C 
ATOM      3  C   UNL     1     116.570 116.430 122.031  1.00  0.00     0.021 C 
ATOM      4  C   UNL     1     115.344 115.509 122.239  1.00  0.00     0.009 C 
ATOM      5  C   UNL     1     115.020 114.786 120.909  1.00  0.00     0.035 C 
ATOM      6  C   UNL     1     116.084 115.155 119.836  1.00  0.00     0.066 C 
ATOM      7  O   UNL     1     116.041 116.562 119.596  1.00  0.00    -0.369 OA
ATOM      8  C   UNL     1     117.494 114.772 120.371  1.00  0.00     0.035 C 
ATOM      9  C   UNL     1     117.761 115.495 121.712  1.00  0.00     0.009 C 
ATOM     10  C   UNL     1     115.794 114.420 118.523  1.00  0.00     0.042 C 
ATOM     11  C   UNL     1     117.517 118.250 120.486  1.00  0.00     0.042 C 
ENDROOT
TORSDOF 0
ENDMDL
MODEL 7
REMARK VINA RESULT:    -3.542      1.867      3.718
REMARK INTER + INTRA:          -3.542
REMARK INTER:                  -3.542
REMARK INTRA:                   0.000
REMARK UNBOUND:                 0.000
REMARK SMILES CC1(C)O[C@]2(C)CC[C@H]1CC2
REMARK SMILES IDX 1 1 2 2 9 3 10 4 11 5 5 6 4 7 7 8 8 9 6 10 3 11
REMARK H PARENT
REMARK Flexibility Score: inf
ROOT
ATOM      1  C   UNL     1     114.779 115.256 120.685  1.00  0.00     0.042 C 
ATOM      2  C   UNL     1     115.147 116.573 119.969  1.00  0.00     0.066 C 
ATOM      3  C   UNL     1     114.788 117.817 120.871  1.00  0.00     0.021 C 
ATOM      4  C   UNL     1     115.645 117.753 122.158  1.00  0.00     0.009 C 
ATOM      5  C   UNL     1     117.134 117.578 121.769  1.00  0.00     0.035 C 
ATOM      6  C   UNL     1     117.282 117.616 120.221  1.00  0.00     0.066 C 
ATOM      7  O   UNL     1     116.547 116.532 119.652  1.00  0.00    -0.369 OA
ATOM      8  C   UNL     1     116.703 118.960 119.691  1.00  0.00     0.035 C 
ATOM      9  C   UNL     1     115.225 119.103 120.127  1.00  0.00     0.009 C 
ATOM     10  C   UNL     1     118.756 117.477 119.823  1.00  0.00     0.042 C 
ATOM     11  C   UNL     1     114.356 116.613 118.644  1.00  0.00     0.042 C 
ENDROOT
TORSDOF 0
ENDMDL
MODEL 8
REMARK VINA RESULT:    -3.538      1.938      3.440
REMARK INTER + INTRA:          -3.538
REMARK INTER:                  -3.538
REMARK INTRA:                   0.000
REMARK UNBOUND:                 0.000
REMARK SMILES CC1(C)O[C@]2(C)CC[C@H]1CC2
REMARK SMILES IDX 1 1 2 2 9 3 10 4 11 5 5 6 4 7 7 8 8 9 6 10 3 11
REMARK H PARENT
REMARK Flexibility Score: inf
ROOT
ATOM      1  C   UNL     1     117.932 114.873 120.480  1.00  0.00     0.042 C 
ATOM      2  C   UNL     1     116.573 115.206 119.827  1.00  0.00     0.066 C 
ATOM      3  C   UNL     1     115.382 114.765 120.762  1.00  0.00     0.021 C 
ATOM      4  C   UNL     1     115.460 115.584 122.073  1.00  0.00     0.009 C 
ATOM      5  C   UNL     1     115.556 117.090 121.727  1.00  0.00     0.035 C 
ATOM      6  C   UNL     1     115.452 117.284 120.187  1.00  0.00     0.066 C 
ATOM      7  O   UNL     1     116.542 116.615 119.554  1.00  0.00    -0.369 OA
ATOM      8  C   UNL     1     114.114 116.664 119.689  1.00  0.00     0.035 C 
ATOM      9  C   UNL     1     114.051 115.169 120.082  1.00  0.00     0.009 C 
ATOM     10  C   UNL     1     115.512 118.774 119.833  1.00  0.00     0.042 C 
ATOM     11  C   UNL     1     116.515 114.455 118.479  1.00  0.00     0.042 C 
ENDROOT
TORSDOF 0
ENDMDL
