MODEL 1
REMARK VINA RESULT:    13.889      0.000      0.000
REMARK INTER + INTRA:          24.399
REMARK INTER:                  25.256
REMARK INTRA:                  -0.857
REMARK UNBOUND:                -0.857
REMARK SMILES CCCCCCCCCCCCCCCC(=O)[O-]
REMARK SMILES IDX 9 1 10 2 11 3 12 4 13 5 14 6 15 7 16 8 17 9 18 10 8 11 7 12
REMARK SMILES IDX 6 13 5 14 4 15 3 16 2 17 1 18
REMARK H PARENT
REMARK Flexibility Score: inf
ROOT
ATOM      1  C   UNL     1      -8.302  38.657 -15.609  1.00  0.00     0.000 C 
ENDROOT
BRANCH   1   2
ATOM      2  C   UNL     1      -7.376  38.219 -16.749  1.00  0.00     0.000 C 
BRANCH   2   3
ATOM      3  C   UNL     1      -6.416  37.113 -16.286  1.00  0.00     0.000 C 
BRANCH   3   4
ATOM      4  C   UNL     1      -5.876  36.261 -17.448  1.00  0.00     0.000 C 
BRANCH   4   5
ATOM      5  C   UNL     1      -6.142  34.750 -17.328  1.00  0.00     0.000 C 
BRANCH   5   6
ATOM      6  C   UNL     1      -6.882  34.372 -16.033  1.00  0.00     0.006 C 
BRANCH   6   7
ATOM      7  C   UNL     1      -8.239  33.712 -16.315  1.00  0.00     0.053 C 
BRANCH   7   8
ATOM      8  C   UNL     1      -8.174  32.222 -16.182  1.00  0.00     0.041 C 
ATOM      9  O   UNL     1      -8.153  31.494 -17.209  1.00  0.00    -0.550 OA
ATOM     10  O   UNL     1      -8.166  31.634 -14.923  1.00  0.00    -0.550 OA
ENDBRANCH   7   8
ENDBRANCH   6   7
ENDBRANCH   5   6
ENDBRANCH   4   5
ENDBRANCH   3   4
ENDBRANCH   2   3
ENDBRANCH   1   2
BRANCH   1  11
ATOM     11  C   UNL     1      -8.719  40.124 -15.770  1.00  0.00     0.000 C 
BRANCH  11  12
ATOM     12  C   UNL     1      -9.171  40.718 -14.427  1.00  0.00    -0.000 C 
BRANCH  12  13
ATOM     13  C   UNL     1      -8.125  41.663 -13.809  1.00  0.00    -0.000 C 
BRANCH  13  14
ATOM     14  C   UNL     1      -8.136  41.725 -12.268  1.00  0.00    -0.000 C 
BRANCH  14  15
ATOM     15  C   UNL     1      -9.093  40.733 -11.579  1.00  0.00    -0.000 C 
BRANCH  15  16
ATOM     16  C   UNL     1      -9.639  41.195 -10.216  1.00  0.00    -0.000 C 
BRANCH  16  17
ATOM     17  C   UNL     1     -11.141  41.511 -10.253  1.00  0.00    -0.003 C 
ATOM     18  C   UNL     1     -11.851  40.679 -11.317  1.00  0.00     0.004 C 
ENDBRANCH  16  17
ENDBRANCH  15  16
ENDBRANCH  14  15
ENDBRANCH  13  14
ENDBRANCH  12  13
ENDBRANCH  11  12
ENDBRANCH   1  11
TORSDOF 14
ENDMDL
MODEL 2
REMARK VINA RESULT:    14.098     10.813     15.953
REMARK INTER + INTRA:          24.780
REMARK INTER:                  25.055
REMARK INTRA:                  -0.274
REMARK UNBOUND:                -0.857
REMARK SMILES CCCCCCCCCCCCCCCC(=O)[O-]
REMARK SMILES IDX 9 1 10 2 11 3 12 4 13 5 14 6 15 7 16 8 17 9 18 10 8 11 7 12
REMARK SMILES IDX 6 13 5 14 4 15 3 16 2 17 1 18
REMARK H PARENT
REMARK Flexibility Score: inf
ROOT
ATOM      1  C   UNL     1     -16.245  26.397 -18.603  1.00  0.00     0.000 C 
ENDROOT
BRANCH   1   2
ATOM      2  C   UNL     1     -17.270  27.102 -19.498  1.00  0.00     0.000 C 
BRANCH   2   3
ATOM      3  C   UNL     1     -16.746  28.467 -19.968  1.00  0.00     0.000 C 
BRANCH   3   4
ATOM      4  C   UNL     1     -15.285  28.723 -19.555  1.00  0.00     0.000 C 
BRANCH   4   5
ATOM      5  C   UNL     1     -14.703  30.072 -20.017  1.00  0.00     0.000 C 
BRANCH   5   6
ATOM      6  C   UNL     1     -13.315  29.934 -20.666  1.00  0.00     0.006 C 
BRANCH   6   7
ATOM      7  C   UNL     1     -12.531  31.253 -20.640  1.00  0.00     0.053 C 
BRANCH   7   8
ATOM      8  C   UNL     1     -12.929  32.163 -21.761  1.00  0.00     0.041 C 
ATOM      9  O   UNL     1     -13.336  31.684 -22.851  1.00  0.00    -0.550 OA
ATOM     10  O   UNL     1     -12.823  33.540 -21.611  1.00  0.00    -0.550 OA
ENDBRANCH   7   8
ENDBRANCH   6   7
ENDBRANCH   5   6
ENDBRANCH   4   5
ENDBRANCH   3   4
ENDBRANCH   2   3
ENDBRANCH   1   2
BRANCH   1  11
ATOM     11  C   UNL     1     -16.889  25.237 -17.835  1.00  0.00     0.000 C 
BRANCH  11  12
ATOM     12  C   UNL     1     -16.247  23.897 -18.223  1.00  0.00    -0.000 C 
BRANCH  12  13
ATOM     13  C   UNL     1     -16.581  23.469 -19.663  1.00  0.00    -0.000 C 
BRANCH  13  14
ATOM     14  C   UNL     1     -15.364  23.064 -20.520  1.00  0.00    -0.000 C 
BRANCH  14  15
ATOM     15  C   UNL     1     -15.467  23.422 -22.016  1.00  0.00    -0.000 C 
BRANCH  15  16
ATOM     16  C   UNL     1     -14.178  23.987 -22.640  1.00  0.00    -0.000 C 
BRANCH  16  17
ATOM     17  C   UNL     1     -12.998  23.008 -22.555  1.00  0.00    -0.003 C 
ATOM     18  C   UNL     1     -12.439  22.942 -21.136  1.00  0.00     0.004 C 
ENDBRANCH  16  17
ENDBRANCH  15  16
ENDBRANCH  14  15
ENDBRANCH  13  14
ENDBRANCH  12  13
ENDBRANCH  11  12
ENDBRANCH   1  11
TORSDOF 14
ENDMDL
MODEL 3
REMARK VINA RESULT:    14.152      6.387      7.958
REMARK INTER + INTRA:          24.878
REMARK INTER:                  25.518
REMARK INTRA:                  -0.640
REMARK UNBOUND:                -0.857
REMARK SMILES CCCCCCCCCCCCCCCC(=O)[O-]
REMARK SMILES IDX 9 1 10 2 11 3 12 4 13 5 14 6 15 7 16 8 17 9 18 10 8 11 7 12
REMARK SMILES IDX 6 13 5 14 4 15 3 16 2 17 1 18
REMARK H PARENT
REMARK Flexibility Score: inf
ROOT
ATOM      1  C   UNL     1      -9.233  40.815 -10.950  1.00  0.00     0.000 C 
ENDROOT
BRANCH   1   2
ATOM      2  C   UNL     1      -7.985  41.464 -11.559  1.00  0.00     0.000 C 
BRANCH   2   3
ATOM      3  C   UNL     1      -8.116  41.584 -13.084  1.00  0.00     0.000 C 
BRANCH   3   4
ATOM      4  C   UNL     1      -9.399  42.314 -13.522  1.00  0.00     0.000 C 
BRANCH   4   5
ATOM      5  C   UNL     1     -10.655  41.428 -13.612  1.00  0.00     0.000 C 
BRANCH   5   6
ATOM      6  C   UNL     1     -11.915  42.116 -13.059  1.00  0.00     0.006 C 
BRANCH   6   7
ATOM      7  C   UNL     1     -12.532  43.093 -14.070  1.00  0.00     0.053 C 
BRANCH   7   8
ATOM      8  C   UNL     1     -13.481  42.405 -15.003  1.00  0.00     0.041 C 
ATOM      9  O   UNL     1     -13.270  42.417 -16.244  1.00  0.00    -0.550 OA
ATOM     10  O   UNL     1     -14.614  41.775 -14.503  1.00  0.00    -0.550 OA
ENDBRANCH   7   8
ENDBRANCH   6   7
ENDBRANCH   5   6
ENDBRANCH   4   5
ENDBRANCH   3   4
ENDBRANCH   2   3
ENDBRANCH   1   2
BRANCH   1  11
ATOM     11  C   UNL     1      -9.725  41.602  -9.729  1.00  0.00     0.000 C 
BRANCH  11  12
ATOM     12  C   UNL     1     -11.233  41.876  -9.822  1.00  0.00    -0.000 C 
BRANCH  12  13
ATOM     13  C   UNL     1     -12.072  40.587  -9.882  1.00  0.00    -0.000 C 
BRANCH  13  14
ATOM     14  C   UNL     1     -12.692  40.152  -8.538  1.00  0.00    -0.000 C 
BRANCH  14  15
ATOM     15  C   UNL     1     -13.409  38.788  -8.559  1.00  0.00    -0.000 C 
BRANCH  15  16
ATOM     16  C   UNL     1     -14.442  38.613  -9.686  1.00  0.00    -0.000 C 
BRANCH  16  17
ATOM     17  C   UNL     1     -15.881  38.505  -9.162  1.00  0.00    -0.003 C 
ATOM     18  C   UNL     1     -16.115  37.165  -8.470  1.00  0.00     0.004 C 
ENDBRANCH  16  17
ENDBRANCH  15  16
ENDBRANCH  14  15
ENDBRANCH  13  14
ENDBRANCH  12  13
ENDBRANCH  11  12
ENDBRANCH   1  11
TORSDOF 14
ENDMDL
MODEL 4
REMARK VINA RESULT:    14.256      6.614      8.561
REMARK INTER + INTRA:          25.066
REMARK INTER:                  25.677
REMARK INTRA:                  -0.611
REMARK UNBOUND:                -0.857
REMARK SMILES CCCCCCCCCCCCCCCC(=O)[O-]
REMARK SMILES IDX 9 1 10 2 11 3 12 4 13 5 14 6 15 7 16 8 17 9 18 10 8 11 7 12
REMARK SMILES IDX 6 13 5 14 4 15 3 16 2 17 1 18
REMARK H PARENT
REMARK Flexibility Score: inf
ROOT
ATOM      1  C   UNL     1      -9.726  40.739 -10.855  1.00  0.00     0.000 C 
ENDROOT
BRANCH   1   2
ATOM      2  C   UNL     1      -9.921  41.926  -9.906  1.00  0.00     0.000 C 
BRANCH   2   3
ATOM      3  C   UNL     1     -11.405  42.113  -9.555  1.00  0.00     0.000 C 
BRANCH   3   4
ATOM      4  C   UNL     1     -11.993  40.923  -8.778  1.00  0.00     0.000 C 
BRANCH   4   5
ATOM      5  C   UNL     1     -12.762  39.900  -9.633  1.00  0.00     0.000 C 
BRANCH   5   6
ATOM      6  C   UNL     1     -13.460  38.818  -8.790  1.00  0.00     0.006 C 
BRANCH   6   7
ATOM      7  C   UNL     1     -14.431  37.971  -9.624  1.00  0.00     0.053 C 
BRANCH   7   8
ATOM      8  C   UNL     1     -15.841  38.091  -9.135  1.00  0.00     0.041 C 
ATOM      9  O   UNL     1     -16.478  37.066  -8.779  1.00  0.00    -0.550 OA
ATOM     10  O   UNL     1     -16.461  39.334  -9.099  1.00  0.00    -0.550 OA
ENDBRANCH   7   8
ENDBRANCH   6   7
ENDBRANCH   5   6
ENDBRANCH   4   5
ENDBRANCH   3   4
ENDBRANCH   2   3
ENDBRANCH   1   2
BRANCH   1  11
ATOM     11  C   UNL     1      -9.088  41.187 -12.175  1.00  0.00     0.000 C 
BRANCH  11  12
ATOM     12  C   UNL     1     -10.150  41.349 -13.273  1.00  0.00    -0.000 C 
BRANCH  12  13
ATOM     13  C   UNL     1     -11.562  41.582 -12.707  1.00  0.00    -0.000 C 
BRANCH  13  14
ATOM     14  C   UNL     1     -12.332  42.758 -13.345  1.00  0.00    -0.000 C 
BRANCH  14  15
ATOM     15  C   UNL     1     -12.795  42.527 -14.797  1.00  0.00    -0.000 C 
BRANCH  15  16
ATOM     16  C   UNL     1     -14.266  42.103 -14.951  1.00  0.00    -0.000 C 
BRANCH  16  17
ATOM     17  C   UNL     1     -15.090  42.342 -13.677  1.00  0.00    -0.003 C 
ATOM     18  C   UNL     1     -15.976  41.140 -13.362  1.00  0.00     0.004 C 
ENDBRANCH  16  17
ENDBRANCH  15  16
ENDBRANCH  14  15
ENDBRANCH  13  14
ENDBRANCH  12  13
ENDBRANCH  11  12
ENDBRANCH   1  11
TORSDOF 14
ENDMDL
MODEL 5
REMARK VINA RESULT:    14.424      7.460     12.145
REMARK INTER + INTRA:          25.372
REMARK INTER:                  25.805
REMARK INTRA:                  -0.433
REMARK UNBOUND:                -0.857
REMARK SMILES CCCCCCCCCCCCCCCC(=O)[O-]
REMARK SMILES IDX 9 1 10 2 11 3 12 4 13 5 14 6 15 7 16 8 17 9 18 10 8 11 7 12
REMARK SMILES IDX 6 13 5 14 4 15 3 16 2 17 1 18
REMARK H PARENT
REMARK Flexibility Score: inf
ROOT
ATOM      1  C   UNL     1     -13.816  31.842 -20.676  1.00  0.00     0.000 C 
ENDROOT
BRANCH   1   2
ATOM      2  C   UNL     1     -12.530  32.148 -21.453  1.00  0.00     0.000 C 
BRANCH   2   3
ATOM      3  C   UNL     1     -11.842  33.407 -20.906  1.00  0.00     0.000 C 
BRANCH   3   4
ATOM      4  C   UNL     1     -10.311  33.269 -20.827  1.00  0.00     0.000 C 
BRANCH   4   5
ATOM      5  C   UNL     1      -9.642  34.050 -19.682  1.00  0.00     0.000 C 
BRANCH   5   6
ATOM      6  C   UNL     1      -8.879  33.141 -18.702  1.00  0.00     0.006 C 
BRANCH   6   7
ATOM      7  C   UNL     1      -8.322  33.922 -17.504  1.00  0.00     0.053 C 
BRANCH   7   8
ATOM      8  C   UNL     1      -8.139  33.046 -16.303  1.00  0.00     0.041 C 
ATOM      9  O   UNL     1      -8.032  33.555 -15.157  1.00  0.00    -0.550 OA
ATOM     10  O   UNL     1      -8.058  31.667 -16.453  1.00  0.00    -0.550 OA
ENDBRANCH   7   8
ENDBRANCH   6   7
ENDBRANCH   5   6
ENDBRANCH   4   5
ENDBRANCH   3   4
ENDBRANCH   2   3
ENDBRANCH   1   2
BRANCH   1  11
ATOM     11  C   UNL     1     -13.878  30.364 -20.273  1.00  0.00     0.000 C 
BRANCH  11  12
ATOM     12  C   UNL     1     -15.236  30.022 -19.643  1.00  0.00    -0.000 C 
BRANCH  12  13
ATOM     13  C   UNL     1     -15.638  28.551 -19.848  1.00  0.00    -0.000 C 
BRANCH  13  14
ATOM     14  C   UNL     1     -16.598  27.985 -18.781  1.00  0.00    -0.000 C 
BRANCH  14  15
ATOM     15  C   UNL     1     -17.073  26.540 -19.029  1.00  0.00    -0.000 C 
BRANCH  15  16
ATOM     16  C   UNL     1     -16.885  25.581 -17.840  1.00  0.00    -0.000 C 
BRANCH  16  17
ATOM     17  C   UNL     1     -16.497  24.161 -18.278  1.00  0.00    -0.003 C 
ATOM     18  C   UNL     1     -15.999  24.147 -19.720  1.00  0.00     0.004 C 
ENDBRANCH  16  17
ENDBRANCH  15  16
ENDBRANCH  14  15
ENDBRANCH  13  14
ENDBRANCH  12  13
ENDBRANCH  11  12
ENDBRANCH   1  11
TORSDOF 14
ENDMDL
MODEL 6
REMARK VINA RESULT:    14.897      9.577     15.041
REMARK INTER + INTRA:          26.233
REMARK INTER:                  26.879
REMARK INTRA:                  -0.647
REMARK UNBOUND:                -0.857
REMARK SMILES CCCCCCCCCCCCCCCC(=O)[O-]
REMARK SMILES IDX 9 1 10 2 11 3 12 4 13 5 14 6 15 7 16 8 17 9 18 10 8 11 7 12
REMARK SMILES IDX 6 13 5 14 4 15 3 16 2 17 1 18
REMARK H PARENT
REMARK Flexibility Score: inf
ROOT
ATOM      1  C   UNL     1     -16.351  28.215 -18.203  1.00  0.00     0.000 C 
ENDROOT
BRANCH   1   2
ATOM      2  C   UNL     1     -15.872  29.596 -18.665  1.00  0.00     0.000 C 
BRANCH   2   3
ATOM      3  C   UNL     1     -14.818  29.470 -19.775  1.00  0.00     0.000 C 
BRANCH   3   4
ATOM      4  C   UNL     1     -14.257  30.830 -20.226  1.00  0.00     0.000 C 
BRANCH   4   5
ATOM      5  C   UNL     1     -13.364  30.785 -21.479  1.00  0.00     0.000 C 
BRANCH   5   6
ATOM      6  C   UNL     1     -13.083  32.179 -22.066  1.00  0.00     0.006 C 
BRANCH   6   7
ATOM      7  C   UNL     1     -12.574  33.163 -21.003  1.00  0.00     0.053 C 
BRANCH   7   8
ATOM      8  C   UNL     1     -11.255  33.762 -21.381  1.00  0.00     0.041 C 
ATOM      9  O   UNL     1     -10.953  33.915 -22.593  1.00  0.00    -0.550 OA
ATOM     10  O   UNL     1     -10.346  34.124 -20.394  1.00  0.00    -0.550 OA
ENDBRANCH   7   8
ENDBRANCH   6   7
ENDBRANCH   5   6
ENDBRANCH   4   5
ENDBRANCH   3   4
ENDBRANCH   2   3
ENDBRANCH   1   2
BRANCH   1  11
ATOM     11  C   UNL     1     -17.116  27.494 -19.320  1.00  0.00     0.000 C 
BRANCH  11  12
ATOM     12  C   UNL     1     -16.444  26.159 -19.674  1.00  0.00    -0.000 C 
BRANCH  12  13
ATOM     13  C   UNL     1     -16.585  25.105 -18.562  1.00  0.00    -0.000 C 
BRANCH  13  14
ATOM     14  C   UNL     1     -16.192  23.671 -18.972  1.00  0.00    -0.000 C 
BRANCH  14  15
ATOM     15  C   UNL     1     -16.119  23.421 -20.491  1.00  0.00    -0.000 C 
BRANCH  15  16
ATOM     16  C   UNL     1     -14.758  22.917 -21.003  1.00  0.00    -0.000 C 
BRANCH  16  17
ATOM     17  C   UNL     1     -14.460  23.367 -22.440  1.00  0.00    -0.003 C 
ATOM     18  C   UNL     1     -12.961  23.347 -22.723  1.00  0.00     0.004 C 
ENDBRANCH  16  17
ENDBRANCH  15  16
ENDBRANCH  14  15
ENDBRANCH  13  14
ENDBRANCH  12  13
ENDBRANCH  11  12
ENDBRANCH   1  11
TORSDOF 14
ENDMDL
MODEL 7
REMARK VINA RESULT:    15.051      6.823     11.197
REMARK INTER + INTRA:          26.512
REMARK INTER:                  26.960
REMARK INTRA:                  -0.447
REMARK UNBOUND:                -0.857
REMARK SMILES CCCCCCCCCCCCCCCC(=O)[O-]
REMARK SMILES IDX 9 1 10 2 11 3 12 4 13 5 14 6 15 7 16 8 17 9 18 10 8 11 7 12
REMARK SMILES IDX 6 13 5 14 4 15 3 16 2 17 1 18
REMARK H PARENT
REMARK Flexibility Score: inf
ROOT
ATOM      1  C   UNL     1     -12.504  33.112 -21.183  1.00  0.00     0.000 C 
ENDROOT
BRANCH   1   2
ATOM      2  C   UNL     1     -10.971  33.114 -21.206  1.00  0.00     0.000 C 
BRANCH   2   3
ATOM      3  C   UNL     1     -10.406  34.080 -20.155  1.00  0.00     0.000 C 
BRANCH   3   4
ATOM      4  C   UNL     1      -9.136  33.545 -19.469  1.00  0.00     0.000 C 
BRANCH   4   5
ATOM      5  C   UNL     1      -9.169  33.562 -17.930  1.00  0.00     0.000 C 
BRANCH   5   6
ATOM      6  C   UNL     1      -7.837  33.122 -17.297  1.00  0.00     0.006 C 
BRANCH   6   7
ATOM      7  C   UNL     1      -7.271  34.184 -16.344  1.00  0.00     0.053 C 
BRANCH   7   8
ATOM      8  C   UNL     1      -6.334  35.119 -17.044  1.00  0.00     0.041 C 
ATOM      9  O   UNL     1      -5.911  34.848 -18.198  1.00  0.00    -0.550 OA
ATOM     10  O   UNL     1      -5.903  36.278 -16.408  1.00  0.00    -0.550 OA
ENDBRANCH   7   8
ENDBRANCH   6   7
ENDBRANCH   5   6
ENDBRANCH   4   5
ENDBRANCH   3   4
ENDBRANCH   2   3
ENDBRANCH   1   2
BRANCH   1  11
ATOM     11  C   UNL     1     -13.062  31.766 -21.661  1.00  0.00     0.000 C 
BRANCH  11  12
ATOM     12  C   UNL     1     -13.385  30.850 -20.470  1.00  0.00    -0.000 C 
BRANCH  12  13
ATOM     13  C   UNL     1     -14.880  30.497 -20.377  1.00  0.00    -0.000 C 
BRANCH  13  14
ATOM     14  C   UNL     1     -15.217  29.352 -19.400  1.00  0.00    -0.000 C 
BRANCH  14  15
ATOM     15  C   UNL     1     -16.101  28.232 -19.983  1.00  0.00    -0.000 C 
BRANCH  15  16
ATOM     16  C   UNL     1     -17.002  27.516 -18.962  1.00  0.00    -0.000 C 
BRANCH  16  17
ATOM     17  C   UNL     1     -16.773  25.998 -18.929  1.00  0.00    -0.003 C 
ATOM     18  C   UNL     1     -17.004  25.437 -17.529  1.00  0.00     0.004 C 
ENDBRANCH  16  17
ENDBRANCH  15  16
ENDBRANCH  14  15
ENDBRANCH  13  14
ENDBRANCH  12  13
ENDBRANCH  11  12
ENDBRANCH   1  11
TORSDOF 14
ENDMDL
MODEL 8
REMARK VINA RESULT:    15.156      3.910      8.477
REMARK INTER + INTRA:          26.704
REMARK INTER:                  27.254
REMARK INTRA:                  -0.551
REMARK UNBOUND:                -0.857
REMARK SMILES CCCCCCCCCCCCCCCC(=O)[O-]
REMARK SMILES IDX 9 1 10 2 11 3 12 4 13 5 14 6 15 7 16 8 17 9 18 10 8 11 7 12
REMARK SMILES IDX 6 13 5 14 4 15 3 16 2 17 1 18
REMARK H PARENT
REMARK Flexibility Score: inf
ROOT
ATOM      1  C   UNL     1      -7.501  38.436 -15.835  1.00  0.00     0.000 C 
ENDROOT
BRANCH   1   2
ATOM      2  C   UNL     1      -8.389  39.630 -16.205  1.00  0.00     0.000 C 
BRANCH   2   3
ATOM      3  C   UNL     1      -8.954  40.308 -14.948  1.00  0.00     0.000 C 
BRANCH   3   4
ATOM      4  C   UNL     1      -7.949  41.259 -14.275  1.00  0.00     0.000 C 
BRANCH   4   5
ATOM      5  C   UNL     1      -8.285  41.643 -12.823  1.00  0.00     0.000 C 
BRANCH   5   6
ATOM      6  C   UNL     1      -9.588  40.998 -12.318  1.00  0.00     0.006 C 
BRANCH   6   7
ATOM      7  C   UNL     1      -9.741  41.120 -10.796  1.00  0.00     0.053 C 
BRANCH   7   8
ATOM      8  C   UNL     1     -11.173  41.286 -10.391  1.00  0.00     0.041 C 
ATOM      9  O   UNL     1     -12.078  40.637 -10.978  1.00  0.00    -0.550 OA
ATOM     10  O   UNL     1     -11.513  42.182  -9.383  1.00  0.00    -0.550 OA
ENDBRANCH   7   8
ENDBRANCH   6   7
ENDBRANCH   5   6
ENDBRANCH   4   5
ENDBRANCH   3   4
ENDBRANCH   2   3
ENDBRANCH   1   2
BRANCH   1  11
ATOM     11  C   UNL     1      -6.977  37.728 -17.090  1.00  0.00     0.000 C 
BRANCH  11  12
ATOM     12  C   UNL     1      -5.875  36.720 -16.733  1.00  0.00    -0.000 C 
BRANCH  12  13
ATOM     13  C   UNL     1      -6.217  35.283 -17.165  1.00  0.00    -0.000 C 
BRANCH  13  14
ATOM     14  C   UNL     1      -6.475  34.299 -16.005  1.00  0.00    -0.000 C 
BRANCH  14  15
ATOM     15  C   UNL     1      -7.947  34.179 -15.563  1.00  0.00    -0.000 C 
BRANCH  15  16
ATOM     16  C   UNL     1      -8.391  32.762 -15.160  1.00  0.00    -0.000 C 
BRANCH  16  17
ATOM     17  C   UNL     1      -8.095  31.715 -16.244  1.00  0.00    -0.003 C 
ATOM     18  C   UNL     1      -8.480  32.233 -17.627  1.00  0.00     0.004 C 
ENDBRANCH  16  17
ENDBRANCH  15  16
ENDBRANCH  14  15
ENDBRANCH  13  14
ENDBRANCH  12  13
ENDBRANCH  11  12
ENDBRANCH   1  11
TORSDOF 14
ENDMDL
