MODEL 1
REMARK VINA RESULT:    -5.341      0.000      0.000
REMARK INTER + INTRA:         -13.387
REMARK INTER:                 -11.587
REMARK INTRA:                  -1.800
REMARK UNBOUND:                -1.800
REMARK SMILES CCCCCCCCCCCCCCCCCCCCCC(=O)[O-]
REMARK SMILES IDX 12 1 11 2 10 3 9 4 8 5 7 6 6 7 5 8 4 9 3 10 2 11 1 12 13 13
REMARK SMILES IDX 14 14 15 15 16 16 17 17 18 18 19 19 20 20 21 21 22 22 23 23
REMARK SMILES IDX 24 24
REMARK H PARENT
REMARK Flexibility Score: inf
ROOT
ATOM      1  C   UNL     1      80.979  59.284  10.750  1.00  0.00     0.000 C 
ENDROOT
BRANCH   1   2
ATOM      2  C   UNL     1      82.139  58.304  10.506  1.00  0.00     0.000 C 
BRANCH   2   3
ATOM      3  C   UNL     1      83.514  58.992  10.509  1.00  0.00     0.000 C 
BRANCH   3   4
ATOM      4  C   UNL     1      83.461  60.413  11.095  1.00  0.00    -0.000 C 
BRANCH   4   5
ATOM      5  C   UNL     1      84.852  60.932  11.501  1.00  0.00    -0.000 C 
BRANCH   5   6
ATOM      6  C   UNL     1      85.576  59.986  12.473  1.00  0.00    -0.000 C 
BRANCH   6   7
ATOM      7  C   UNL     1      85.024  60.081  13.905  1.00  0.00    -0.000 C 
BRANCH   7   8
ATOM      8  C   UNL     1      85.485  61.352  14.641  1.00  0.00    -0.000 C 
BRANCH   8   9
ATOM      9  C   UNL     1      84.913  61.530  16.061  1.00  0.00    -0.000 C 
BRANCH   9  10
ATOM     10  C   UNL     1      84.975  62.966  16.619  1.00  0.00    -0.000 C 
BRANCH  10  11
ATOM     11  C   UNL     1      84.698  64.072  15.585  1.00  0.00    -0.003 C 
ATOM     12  C   UNL     1      85.918  64.950  15.312  1.00  0.00     0.004 C 
ENDBRANCH  10  11
ENDBRANCH   9  10
ENDBRANCH   8   9
ENDBRANCH   7   8
ENDBRANCH   6   7
ENDBRANCH   5   6
ENDBRANCH   4   5
ENDBRANCH   3   4
ENDBRANCH   2   3
ENDBRANCH   1   2
BRANCH   1  13
ATOM     13  C   UNL     1      79.602  58.732  10.326  1.00  0.00     0.000 C 
BRANCH  13  14
ATOM     14  C   UNL     1      79.542  57.195  10.408  1.00  0.00     0.000 C 
BRANCH  14  15
ATOM     15  C   UNL     1      78.164  56.636  10.022  1.00  0.00     0.000 C 
BRANCH  15  16
ATOM     16  C   UNL     1      77.740  57.044   8.598  1.00  0.00     0.000 C 
BRANCH  16  17
ATOM     17  C   UNL     1      78.240  56.057   7.529  1.00  0.00     0.000 C 
BRANCH  17  18
ATOM     18  C   UNL     1      77.786  54.613   7.803  1.00  0.00     0.000 C 
BRANCH  18  19
ATOM     19  C   UNL     1      78.959  53.624   7.880  1.00  0.00     0.000 C 
BRANCH  19  20
ATOM     20  C   UNL     1      80.312  54.317   8.098  1.00  0.00     0.006 C 
BRANCH  20  21
ATOM     21  C   UNL     1      81.168  53.541   9.104  1.00  0.00     0.053 C 
BRANCH  21  22
ATOM     22  C   UNL     1      82.054  54.473   9.871  1.00  0.00     0.041 C 
ATOM     23  O   UNL     1      81.860  54.663  11.100  1.00  0.00    -0.550 OA
ATOM     24  O   UNL     1      83.075  55.156   9.220  1.00  0.00    -0.550 OA
ENDBRANCH  21  22
ENDBRANCH  20  21
ENDBRANCH  19  20
ENDBRANCH  18  19
ENDBRANCH  17  18
ENDBRANCH  16  17
ENDBRANCH  15  16
ENDBRANCH  14  15
ENDBRANCH  13  14
ENDBRANCH   1  13
TORSDOF 20
ENDMDL
MODEL 2
REMARK VINA RESULT:    -5.315      2.345      4.387
REMARK INTER + INTRA:         -13.330
REMARK INTER:                 -11.339
REMARK INTRA:                  -1.991
REMARK UNBOUND:                -1.800
REMARK SMILES CCCCCCCCCCCCCCCCCCCCCC(=O)[O-]
REMARK SMILES IDX 12 1 11 2 10 3 9 4 8 5 7 6 6 7 5 8 4 9 3 10 2 11 1 12 13 13
REMARK SMILES IDX 14 14 15 15 16 16 17 17 18 18 19 19 20 20 21 21 22 22 23 23
REMARK SMILES IDX 24 24
REMARK H PARENT
REMARK Flexibility Score: inf
ROOT
ATOM      1  C   UNL     1      84.452  62.713   8.456  1.00  0.00     0.000 C 
ENDROOT
BRANCH   1   2
ATOM      2  C   UNL     1      85.859  62.432   9.011  1.00  0.00     0.000 C 
BRANCH   2   3
ATOM      3  C   UNL     1      86.580  61.298   8.264  1.00  0.00     0.000 C 
BRANCH   3   4
ATOM      4  C   UNL     1      85.985  59.915   8.575  1.00  0.00    -0.000 C 
BRANCH   4   5
ATOM      5  C   UNL     1      87.012  58.964   9.216  1.00  0.00    -0.000 C 
BRANCH   5   6
ATOM      6  C   UNL     1      86.640  58.577  10.657  1.00  0.00    -0.000 C 
BRANCH   6   7
ATOM      7  C   UNL     1      85.752  59.632  11.338  1.00  0.00    -0.000 C 
BRANCH   7   8
ATOM      8  C   UNL     1      85.433  59.287  12.804  1.00  0.00    -0.000 C 
BRANCH   8   9
ATOM      9  C   UNL     1      84.262  60.077  13.421  1.00  0.00    -0.000 C 
BRANCH   9  10
ATOM     10  C   UNL     1      84.304  60.222  14.956  1.00  0.00    -0.000 C 
BRANCH  10  11
ATOM     11  C   UNL     1      84.944  61.527  15.462  1.00  0.00    -0.003 C 
ATOM     12  C   UNL     1      85.561  61.387  16.852  1.00  0.00     0.004 C 
ENDBRANCH  10  11
ENDBRANCH   9  10
ENDBRANCH   8   9
ENDBRANCH   7   8
ENDBRANCH   6   7
ENDBRANCH   5   6
ENDBRANCH   4   5
ENDBRANCH   3   4
ENDBRANCH   2   3
ENDBRANCH   1   2
BRANCH   1  13
ATOM     13  C   UNL     1      83.369  62.832   9.548  1.00  0.00     0.000 C 
BRANCH  13  14
ATOM     14  C   UNL     1      83.123  61.494  10.271  1.00  0.00     0.000 C 
BRANCH  14  15
ATOM     15  C   UNL     1      81.730  60.914   9.981  1.00  0.00     0.000 C 
BRANCH  15  16
ATOM     16  C   UNL     1      81.327  59.819  10.985  1.00  0.00     0.000 C 
BRANCH  16  17
ATOM     17  C   UNL     1      82.056  58.488  10.732  1.00  0.00     0.000 C 
BRANCH  17  18
ATOM     18  C   UNL     1      81.085  57.336  10.423  1.00  0.00     0.000 C 
BRANCH  18  19
ATOM     19  C   UNL     1      79.623  57.687  10.739  1.00  0.00     0.000 C 
BRANCH  19  20
ATOM     20  C   UNL     1      78.671  56.493  10.569  1.00  0.00     0.006 C 
BRANCH  20  21
ATOM     21  C   UNL     1      78.083  56.459   9.156  1.00  0.00     0.053 C 
BRANCH  21  22
ATOM     22  C   UNL     1      78.456  55.187   8.460  1.00  0.00     0.041 C 
ATOM     23  O   UNL     1      77.652  54.645   7.658  1.00  0.00    -0.550 OA
ATOM     24  O   UNL     1      79.681  54.583   8.722  1.00  0.00    -0.550 OA
ENDBRANCH  21  22
ENDBRANCH  20  21
ENDBRANCH  19  20
ENDBRANCH  18  19
ENDBRANCH  17  18
ENDBRANCH  16  17
ENDBRANCH  15  16
ENDBRANCH  14  15
ENDBRANCH  13  14
ENDBRANCH   1  13
TORSDOF 20
ENDMDL
MODEL 3
REMARK VINA RESULT:    -5.251      5.759      9.700
REMARK INTER + INTRA:         -13.191
REMARK INTER:                 -10.099
REMARK INTRA:                  -3.093
REMARK UNBOUND:                -1.800
REMARK SMILES CCCCCCCCCCCCCCCCCCCCCC(=O)[O-]
REMARK SMILES IDX 12 1 11 2 10 3 9 4 8 5 7 6 6 7 5 8 4 9 3 10 2 11 1 12 13 13
REMARK SMILES IDX 14 14 15 15 16 16 17 17 18 18 19 19 20 20 21 21 22 22 23 23
REMARK SMILES IDX 24 24
REMARK H PARENT
REMARK Flexibility Score: inf
ROOT
ATOM      1  C   UNL     1      90.597  64.281   9.813  1.00  0.00     0.000 C 
ENDROOT
BRANCH   1   2
ATOM      2  C   UNL     1      89.315  64.836   9.168  1.00  0.00     0.000 C 
BRANCH   2   3
ATOM      3  C   UNL     1      89.528  65.296   7.716  1.00  0.00     0.000 C 
BRANCH   3   4
ATOM      4  C   UNL     1      88.413  64.813   6.775  1.00  0.00    -0.000 C 
BRANCH   4   5
ATOM      5  C   UNL     1      87.008  65.127   7.319  1.00  0.00    -0.000 C 
BRANCH   5   6
ATOM      6  C   UNL     1      85.913  64.276   6.654  1.00  0.00    -0.000 C 
BRANCH   6   7
ATOM      7  C   UNL     1      85.103  63.459   7.675  1.00  0.00    -0.000 C 
BRANCH   7   8
ATOM      8  C   UNL     1      85.711  63.499   9.089  1.00  0.00    -0.000 C 
BRANCH   8   9
ATOM      9  C   UNL     1      84.754  63.088  10.224  1.00  0.00    -0.000 C 
BRANCH   9  10
ATOM     10  C   UNL     1      83.451  62.399   9.768  1.00  0.00    -0.000 C 
BRANCH  10  11
ATOM     11  C   UNL     1      83.196  61.021  10.402  1.00  0.00    -0.003 C 
ATOM     12  C   UNL     1      81.736  60.582  10.304  1.00  0.00     0.004 C 
ENDBRANCH  10  11
ENDBRANCH   9  10
ENDBRANCH   8   9
ENDBRANCH   7   8
ENDBRANCH   6   7
ENDBRANCH   5   6
ENDBRANCH   4   5
ENDBRANCH   3   4
ENDBRANCH   2   3
ENDBRANCH   1   2
BRANCH   1  13
ATOM     13  C   UNL     1      91.807  64.250   8.857  1.00  0.00     0.000 C 
BRANCH  13  14
ATOM     14  C   UNL     1      92.057  62.844   8.280  1.00  0.00     0.000 C 
BRANCH  14  15
ATOM     15  C   UNL     1      92.126  62.839   6.746  1.00  0.00     0.000 C 
BRANCH  15  16
ATOM     16  C   UNL     1      91.178  61.801   6.116  1.00  0.00     0.000 C 
BRANCH  16  17
ATOM     17  C   UNL     1      90.448  60.952   7.171  1.00  0.00     0.000 C 
BRANCH  17  18
ATOM     18  C   UNL     1      88.932  61.215   7.191  1.00  0.00     0.000 C 
BRANCH  18  19
ATOM     19  C   UNL     1      88.106  59.927   7.324  1.00  0.00     0.000 C 
BRANCH  19  20
ATOM     20  C   UNL     1      86.677  60.182   7.827  1.00  0.00     0.006 C 
BRANCH  20  21
ATOM     21  C   UNL     1      86.551  59.832   9.313  1.00  0.00     0.053 C 
BRANCH  21  22
ATOM     22  C   UNL     1      86.767  58.366   9.528  1.00  0.00     0.041 C 
ATOM     23  O   UNL     1      87.667  57.969  10.314  1.00  0.00    -0.550 OA
ATOM     24  O   UNL     1      85.996  57.439   8.837  1.00  0.00    -0.550 OA
ENDBRANCH  21  22
ENDBRANCH  20  21
ENDBRANCH  19  20
ENDBRANCH  18  19
ENDBRANCH  17  18
ENDBRANCH  16  17
ENDBRANCH  15  16
ENDBRANCH  14  15
ENDBRANCH  13  14
ENDBRANCH   1  13
TORSDOF 20
ENDMDL
MODEL 4
REMARK VINA RESULT:    -5.211      6.303     10.879
REMARK INTER + INTRA:         -13.104
REMARK INTER:                 -10.265
REMARK INTRA:                  -2.839
REMARK UNBOUND:                -1.800
REMARK SMILES CCCCCCCCCCCCCCCCCCCCCC(=O)[O-]
REMARK SMILES IDX 12 1 11 2 10 3 9 4 8 5 7 6 6 7 5 8 4 9 3 10 2 11 1 12 13 13
REMARK SMILES IDX 14 14 15 15 16 16 17 17 18 18 19 19 20 20 21 21 22 22 23 23
REMARK SMILES IDX 24 24
REMARK H PARENT
REMARK Flexibility Score: inf
ROOT
ATOM      1  C   UNL     1      87.218  61.827   7.805  1.00  0.00     0.000 C 
ENDROOT
BRANCH   1   2
ATOM      2  C   UNL     1      85.869  62.032   7.095  1.00  0.00     0.000 C 
BRANCH   2   3
ATOM      3  C   UNL     1      84.997  63.106   7.766  1.00  0.00     0.000 C 
BRANCH   3   4
ATOM      4  C   UNL     1      85.458  63.432   9.196  1.00  0.00    -0.000 C 
BRANCH   4   5
ATOM      5  C   UNL     1      84.410  63.045  10.254  1.00  0.00    -0.000 C 
BRANCH   5   6
ATOM      6  C   UNL     1      83.118  62.491   9.631  1.00  0.00    -0.000 C 
BRANCH   6   7
ATOM      7  C   UNL     1      82.678  61.164  10.271  1.00  0.00    -0.000 C 
BRANCH   7   8
ATOM      8  C   UNL     1      83.836  60.422  10.963  1.00  0.00    -0.000 C 
BRANCH   8   9
ATOM      9  C   UNL     1      84.169  59.037  10.376  1.00  0.00    -0.000 C 
BRANCH   9  10
ATOM     10  C   UNL     1      85.160  59.045   9.194  1.00  0.00    -0.000 C 
BRANCH  10  11
ATOM     11  C   UNL     1      86.627  58.794   9.581  1.00  0.00    -0.003 C 
ATOM     12  C   UNL     1      86.783  58.240  10.996  1.00  0.00     0.004 C 
ENDBRANCH  10  11
ENDBRANCH   9  10
ENDBRANCH   8   9
ENDBRANCH   7   8
ENDBRANCH   6   7
ENDBRANCH   5   6
ENDBRANCH   4   5
ENDBRANCH   3   4
ENDBRANCH   2   3
ENDBRANCH   1   2
BRANCH   1  13
ATOM     13  C   UNL     1      88.439  62.018   6.882  1.00  0.00     0.000 C 
BRANCH  13  14
ATOM     14  C   UNL     1      89.683  61.275   7.401  1.00  0.00     0.000 C 
BRANCH  14  15
ATOM     15  C   UNL     1      90.973  61.715   6.692  1.00  0.00     0.000 C 
BRANCH  15  16
ATOM     16  C   UNL     1      92.006  62.312   7.665  1.00  0.00     0.000 C 
BRANCH  16  17
ATOM     17  C   UNL     1      91.898  63.843   7.775  1.00  0.00     0.000 C 
BRANCH  17  18
ATOM     18  C   UNL     1      92.017  64.338   9.227  1.00  0.00     0.000 C 
BRANCH  18  19
ATOM     19  C   UNL     1      90.690  64.253   9.996  1.00  0.00     0.000 C 
BRANCH  19  20
ATOM     20  C   UNL     1      89.760  65.444   9.718  1.00  0.00     0.006 C 
BRANCH  20  21
ATOM     21  C   UNL     1      88.563  65.016   8.864  1.00  0.00     0.053 C 
BRANCH  21  22
ATOM     22  C   UNL     1      88.304  66.017   7.782  1.00  0.00     0.041 C 
ATOM     23  O   UNL     1      89.264  66.619   7.233  1.00  0.00    -0.550 OA
ATOM     24  O   UNL     1      86.999  66.309   7.401  1.00  0.00    -0.550 OA
ENDBRANCH  21  22
ENDBRANCH  20  21
ENDBRANCH  19  20
ENDBRANCH  18  19
ENDBRANCH  17  18
ENDBRANCH  16  17
ENDBRANCH  15  16
ENDBRANCH  14  15
ENDBRANCH  13  14
ENDBRANCH   1  13
TORSDOF 20
ENDMDL
MODEL 5
REMARK VINA RESULT:    -5.205      3.340      4.245
REMARK INTER + INTRA:         -13.090
REMARK INTER:                 -10.466
REMARK INTRA:                  -2.624
REMARK UNBOUND:                -1.800
REMARK SMILES CCCCCCCCCCCCCCCCCCCCCC(=O)[O-]
REMARK SMILES IDX 12 1 11 2 10 3 9 4 8 5 7 6 6 7 5 8 4 9 3 10 2 11 1 12 13 13
REMARK SMILES IDX 14 14 15 15 16 16 17 17 18 18 19 19 20 20 21 21 22 22 23 23
REMARK SMILES IDX 24 24
REMARK H PARENT
REMARK Flexibility Score: inf
ROOT
ATOM      1  C   UNL     1      81.087  56.109  10.368  1.00  0.00     0.000 C 
ENDROOT
BRANCH   1   2
ATOM      2  C   UNL     1      82.310  55.186  10.227  1.00  0.00     0.000 C 
BRANCH   2   3
ATOM      3  C   UNL     1      82.786  55.045   8.771  1.00  0.00     0.000 C 
BRANCH   3   4
ATOM      4  C   UNL     1      84.224  55.548   8.569  1.00  0.00    -0.000 C 
BRANCH   4   5
ATOM      5  C   UNL     1      84.745  56.341   9.781  1.00  0.00    -0.000 C 
BRANCH   5   6
ATOM      6  C   UNL     1      85.442  57.650   9.376  1.00  0.00    -0.000 C 
BRANCH   6   7
ATOM      7  C   UNL     1      84.854  58.876  10.095  1.00  0.00    -0.000 C 
BRANCH   7   8
ATOM      8  C   UNL     1      83.316  58.904  10.068  1.00  0.00    -0.000 C 
BRANCH   8   9
ATOM      9  C   UNL     1      82.680  60.267  10.405  1.00  0.00    -0.000 C 
BRANCH   9  10
ATOM     10  C   UNL     1      83.660  61.457  10.444  1.00  0.00    -0.000 C 
BRANCH  10  11
ATOM     11  C   UNL     1      83.233  62.671   9.601  1.00  0.00    -0.003 C 
ATOM     12  C   UNL     1      84.286  63.082   8.572  1.00  0.00     0.004 C 
ENDBRANCH  10  11
ENDBRANCH   9  10
ENDBRANCH   8   9
ENDBRANCH   7   8
ENDBRANCH   6   7
ENDBRANCH   5   6
ENDBRANCH   4   5
ENDBRANCH   3   4
ENDBRANCH   2   3
ENDBRANCH   1   2
BRANCH   1  13
ATOM     13  C   UNL     1      79.963  55.515  11.242  1.00  0.00     0.000 C 
BRANCH  13  14
ATOM     14  C   UNL     1      78.715  56.417  11.275  1.00  0.00     0.000 C 
BRANCH  14  15
ATOM     15  C   UNL     1      78.619  57.338  10.049  1.00  0.00     0.000 C 
BRANCH  15  16
ATOM     16  C   UNL     1      77.558  56.866   9.038  1.00  0.00     0.000 C 
BRANCH  16  17
ATOM     17  C   UNL     1      78.168  56.071   7.871  1.00  0.00     0.000 C 
BRANCH  17  18
ATOM     18  C   UNL     1      78.067  54.550   8.079  1.00  0.00     0.000 C 
BRANCH  18  19
ATOM     19  C   UNL     1      79.406  53.828   7.862  1.00  0.00     0.000 C 
BRANCH  19  20
ATOM     20  C   UNL     1      79.369  52.355   8.297  1.00  0.00     0.006 C 
BRANCH  20  21
ATOM     21  C   UNL     1      80.662  51.966   9.020  1.00  0.00     0.053 C 
BRANCH  21  22
ATOM     22  C   UNL     1      80.718  50.486   9.237  1.00  0.00     0.041 C 
ATOM     23  O   UNL     1      81.409  50.010  10.176  1.00  0.00    -0.550 OA
ATOM     24  O   UNL     1      80.032  49.630   8.384  1.00  0.00    -0.550 OA
ENDBRANCH  21  22
ENDBRANCH  20  21
ENDBRANCH  19  20
ENDBRANCH  18  19
ENDBRANCH  17  18
ENDBRANCH  16  17
ENDBRANCH  15  16
ENDBRANCH  14  15
ENDBRANCH  13  14
ENDBRANCH   1  13
TORSDOF 20
ENDMDL
MODEL 6
REMARK VINA RESULT:    -5.180      5.360      8.186
REMARK INTER + INTRA:         -13.037
REMARK INTER:                  -9.219
REMARK INTRA:                  -3.818
REMARK UNBOUND:                -1.800
REMARK SMILES CCCCCCCCCCCCCCCCCCCCCC(=O)[O-]
REMARK SMILES IDX 12 1 11 2 10 3 9 4 8 5 7 6 6 7 5 8 4 9 3 10 2 11 1 12 13 13
REMARK SMILES IDX 14 14 15 15 16 16 17 17 18 18 19 19 20 20 21 21 22 22 23 23
REMARK SMILES IDX 24 24
REMARK H PARENT
REMARK Flexibility Score: inf
ROOT
ATOM      1  C   UNL     1      86.600  61.186   7.908  1.00  0.00     0.000 C 
ENDROOT
BRANCH   1   2
ATOM      2  C   UNL     1      87.335  60.009   7.242  1.00  0.00     0.000 C 
BRANCH   2   3
ATOM      3  C   UNL     1      88.754  59.800   7.796  1.00  0.00     0.000 C 
BRANCH   3   4
ATOM      4  C   UNL     1      89.840  60.356   6.860  1.00  0.00    -0.000 C 
BRANCH   4   5
ATOM      5  C   UNL     1      89.318  60.598   5.433  1.00  0.00    -0.000 C 
BRANCH   5   6
ATOM      6  C   UNL     1      89.645  62.009   4.915  1.00  0.00    -0.000 C 
BRANCH   6   7
ATOM      7  C   UNL     1      88.534  63.023   5.231  1.00  0.00    -0.000 C 
BRANCH   7   8
ATOM      8  C   UNL     1      89.079  64.365   5.753  1.00  0.00    -0.000 C 
BRANCH   8   9
ATOM      9  C   UNL     1      88.694  64.707   7.205  1.00  0.00    -0.000 C 
BRANCH   9  10
ATOM     10  C   UNL     1      89.107  63.660   8.259  1.00  0.00    -0.000 C 
BRANCH  10  11
ATOM     11  C   UNL     1      90.622  63.554   8.505  1.00  0.00    -0.003 C 
ATOM     12  C   UNL     1      91.072  64.282   9.770  1.00  0.00     0.004 C 
ENDBRANCH  10  11
ENDBRANCH   9  10
ENDBRANCH   8   9
ENDBRANCH   7   8
ENDBRANCH   6   7
ENDBRANCH   5   6
ENDBRANCH   4   5
ENDBRANCH   3   4
ENDBRANCH   2   3
ENDBRANCH   1   2
BRANCH   1  13
ATOM     13  C   UNL     1      85.613  61.909   6.969  1.00  0.00     0.000 C 
BRANCH  13  14
ATOM     14  C   UNL     1      84.996  63.158   7.625  1.00  0.00     0.000 C 
BRANCH  14  15
ATOM     15  C   UNL     1      85.582  63.445   9.016  1.00  0.00     0.000 C 
BRANCH  15  16
ATOM     16  C   UNL     1      84.587  63.135  10.150  1.00  0.00     0.000 C 
BRANCH  16  17
ATOM     17  C   UNL     1      83.297  62.471   9.639  1.00  0.00     0.000 C 
BRANCH  17  18
ATOM     18  C   UNL     1      82.988  61.151  10.365  1.00  0.00     0.000 C 
BRANCH  18  19
ATOM     19  C   UNL     1      84.182  60.621  11.173  1.00  0.00     0.000 C 
BRANCH  19  20
ATOM     20  C   UNL     1      84.806  59.358  10.560  1.00  0.00     0.006 C 
BRANCH  20  21
ATOM     21  C   UNL     1      86.223  59.133  11.097  1.00  0.00     0.053 C 
BRANCH  21  22
ATOM     22  C   UNL     1      86.863  57.963  10.416  1.00  0.00     0.041 C 
ATOM     23  O   UNL     1      86.302  57.420   9.429  1.00  0.00    -0.550 OA
ATOM     24  O   UNL     1      88.066  57.453  10.892  1.00  0.00    -0.550 OA
ENDBRANCH  21  22
ENDBRANCH  20  21
ENDBRANCH  19  20
ENDBRANCH  18  19
ENDBRANCH  17  18
ENDBRANCH  16  17
ENDBRANCH  15  16
ENDBRANCH  14  15
ENDBRANCH  13  14
ENDBRANCH   1  13
TORSDOF 20
ENDMDL
MODEL 7
REMARK VINA RESULT:    -5.172      3.775      6.367
REMARK INTER + INTRA:         -13.018
REMARK INTER:                 -10.523
REMARK INTRA:                  -2.495
REMARK UNBOUND:                -1.800
REMARK SMILES CCCCCCCCCCCCCCCCCCCCCC(=O)[O-]
REMARK SMILES IDX 12 1 11 2 10 3 9 4 8 5 7 6 6 7 5 8 4 9 3 10 2 11 1 12 13 13
REMARK SMILES IDX 14 14 15 15 16 16 17 17 18 18 19 19 20 20 21 21 22 22 23 23
REMARK SMILES IDX 24 24
REMARK H PARENT
REMARK Flexibility Score: inf
ROOT
ATOM      1  C   UNL     1      85.267  57.589   9.531  1.00  0.00     0.000 C 
ENDROOT
BRANCH   1   2
ATOM      2  C   UNL     1      86.220  57.591  10.738  1.00  0.00     0.000 C 
BRANCH   2   3
ATOM      3  C   UNL     1      87.613  57.033  10.401  1.00  0.00     0.000 C 
BRANCH   3   4
ATOM      4  C   UNL     1      87.855  56.929   8.887  1.00  0.00    -0.000 C 
BRANCH   4   5
ATOM      5  C   UNL     1      88.906  57.936   8.389  1.00  0.00    -0.000 C 
BRANCH   5   6
ATOM      6  C   UNL     1      88.351  59.367   8.284  1.00  0.00    -0.000 C 
BRANCH   6   7
ATOM      7  C   UNL     1      87.995  59.754   6.839  1.00  0.00    -0.000 C 
BRANCH   7   8
ATOM      8  C   UNL     1      86.558  59.361   6.451  1.00  0.00    -0.000 C 
BRANCH   8   9
ATOM      9  C   UNL     1      85.669  60.525   5.971  1.00  0.00    -0.000 C 
BRANCH   9  10
ATOM     10  C   UNL     1      86.373  61.894   5.876  1.00  0.00    -0.000 C 
BRANCH  10  11
ATOM     11  C   UNL     1      85.968  62.903   6.965  1.00  0.00    -0.003 C 
ATOM     12  C   UNL     1      84.868  62.377   7.885  1.00  0.00     0.004 C 
ENDBRANCH  10  11
ENDBRANCH   9  10
ENDBRANCH   8   9
ENDBRANCH   7   8
ENDBRANCH   6   7
ENDBRANCH   5   6
ENDBRANCH   4   5
ENDBRANCH   3   4
ENDBRANCH   2   3
ENDBRANCH   1   2
BRANCH   1  13
ATOM     13  C   UNL     1      84.484  58.907   9.359  1.00  0.00     0.000 C 
BRANCH  13  14
ATOM     14  C   UNL     1      84.565  59.799  10.612  1.00  0.00     0.000 C 
BRANCH  14  15
ATOM     15  C   UNL     1      83.185  60.281  11.084  1.00  0.00     0.000 C 
BRANCH  15  16
ATOM     16  C   UNL     1      82.081  59.233  10.847  1.00  0.00     0.000 C 
BRANCH  16  17
ATOM     17  C   UNL     1      80.759  59.864  10.378  1.00  0.00     0.000 C 
BRANCH  17  18
ATOM     18  C   UNL     1      79.598  58.854  10.363  1.00  0.00     0.000 C 
BRANCH  18  19
ATOM     19  C   UNL     1      80.078  57.394  10.377  1.00  0.00     0.000 C 
BRANCH  19  20
ATOM     20  C   UNL     1      78.929  56.388  10.541  1.00  0.00     0.006 C 
BRANCH  20  21
ATOM     21  C   UNL     1      77.751  56.752   9.632  1.00  0.00     0.053 C 
BRANCH  21  22
ATOM     22  C   UNL     1      77.890  56.087   8.298  1.00  0.00     0.041 C 
ATOM     23  O   UNL     1      77.783  56.761   7.241  1.00  0.00    -0.550 OA
ATOM     24  O   UNL     1      78.108  54.716   8.223  1.00  0.00    -0.550 OA
ENDBRANCH  21  22
ENDBRANCH  20  21
ENDBRANCH  19  20
ENDBRANCH  18  19
ENDBRANCH  17  18
ENDBRANCH  16  17
ENDBRANCH  15  16
ENDBRANCH  14  15
ENDBRANCH  13  14
ENDBRANCH   1  13
TORSDOF 20
ENDMDL
MODEL 8
REMARK VINA RESULT:    -5.160      6.492     10.801
REMARK INTER + INTRA:         -12.994
REMARK INTER:                  -9.892
REMARK INTRA:                  -3.102
REMARK UNBOUND:                -1.800
REMARK SMILES CCCCCCCCCCCCCCCCCCCCCC(=O)[O-]
REMARK SMILES IDX 12 1 11 2 10 3 9 4 8 5 7 6 6 7 5 8 4 9 3 10 2 11 1 12 13 13
REMARK SMILES IDX 14 14 15 15 16 16 17 17 18 18 19 19 20 20 21 21 22 22 23 23
REMARK SMILES IDX 24 24
REMARK H PARENT
REMARK Flexibility Score: inf
ROOT
ATOM      1  C   UNL     1      91.108  61.536   6.800  1.00  0.00     0.000 C 
ENDROOT
BRANCH   1   2
ATOM      2  C   UNL     1      89.742  61.301   7.467  1.00  0.00     0.000 C 
BRANCH   2   3
ATOM      3  C   UNL     1      89.225  59.864   7.282  1.00  0.00     0.000 C 
BRANCH   3   4
ATOM      4  C   UNL     1      87.703  59.807   7.078  1.00  0.00    -0.000 C 
BRANCH   4   5
ATOM      5  C   UNL     1      86.926  60.355   8.289  1.00  0.00    -0.000 C 
BRANCH   5   6
ATOM      6  C   UNL     1      85.578  59.646   8.496  1.00  0.00    -0.000 C 
BRANCH   6   7
ATOM      7  C   UNL     1      85.683  58.452   9.459  1.00  0.00    -0.000 C 
BRANCH   7   8
ATOM      8  C   UNL     1      86.770  58.644  10.532  1.00  0.00    -0.000 C 
BRANCH   8   9
ATOM      9  C   UNL     1      87.697  57.432  10.748  1.00  0.00    -0.000 C 
BRANCH   9  10
ATOM     10  C   UNL     1      88.685  57.147   9.599  1.00  0.00    -0.000 C 
BRANCH  10  11
ATOM     11  C   UNL     1      88.320  55.938   8.720  1.00  0.00    -0.003 C 
ATOM     12  C   UNL     1      88.403  56.241   7.225  1.00  0.00     0.004 C 
ENDBRANCH  10  11
ENDBRANCH   9  10
ENDBRANCH   8   9
ENDBRANCH   7   8
ENDBRANCH   6   7
ENDBRANCH   5   6
ENDBRANCH   4   5
ENDBRANCH   3   4
ENDBRANCH   2   3
ENDBRANCH   1   2
BRANCH   1  13
ATOM     13  C   UNL     1      92.110  62.295   7.694  1.00  0.00     0.000 C 
BRANCH  13  14
ATOM     14  C   UNL     1      91.640  63.727   8.009  1.00  0.00     0.000 C 
BRANCH  14  15
ATOM     15  C   UNL     1      91.250  63.909   9.483  1.00  0.00     0.000 C 
BRANCH  15  16
ATOM     16  C   UNL     1      90.010  64.806   9.659  1.00  0.00     0.000 C 
BRANCH  16  17
ATOM     17  C   UNL     1      89.774  65.729   8.452  1.00  0.00     0.000 C 
BRANCH  17  18
ATOM     18  C   UNL     1      88.365  65.566   7.854  1.00  0.00     0.000 C 
BRANCH  18  19
ATOM     19  C   UNL     1      88.352  64.692   6.590  1.00  0.00     0.000 C 
BRANCH  19  20
ATOM     20  C   UNL     1      87.150  63.737   6.536  1.00  0.00     0.006 C 
BRANCH  20  21
ATOM     21  C   UNL     1      85.881  64.427   7.044  1.00  0.00     0.053 C 
BRANCH  21  22
ATOM     22  C   UNL     1      85.194  63.577   8.067  1.00  0.00     0.041 C 
ATOM     23  O   UNL     1      84.165  62.921   7.757  1.00  0.00    -0.550 OA
ATOM     24  O   UNL     1      85.671  63.534   9.372  1.00  0.00    -0.550 OA
ENDBRANCH  21  22
ENDBRANCH  20  21
ENDBRANCH  19  20
ENDBRANCH  18  19
ENDBRANCH  17  18
ENDBRANCH  16  17
ENDBRANCH  15  16
ENDBRANCH  14  15
ENDBRANCH  13  14
ENDBRANCH   1  13
TORSDOF 20
ENDMDL
MODEL 9
REMARK VINA RESULT:    -5.119      3.592      8.833
REMARK INTER + INTRA:         -12.903
REMARK INTER:                 -10.121
REMARK INTRA:                  -2.782
REMARK UNBOUND:                -1.800
REMARK SMILES CCCCCCCCCCCCCCCCCCCCCC(=O)[O-]
REMARK SMILES IDX 12 1 11 2 10 3 9 4 8 5 7 6 6 7 5 8 4 9 3 10 2 11 1 12 13 13
REMARK SMILES IDX 14 14 15 15 16 16 17 17 18 18 19 19 20 20 21 21 22 22 23 23
REMARK SMILES IDX 24 24
REMARK H PARENT
REMARK Flexibility Score: inf
ROOT
ATOM      1  C   UNL     1      84.300  55.639   7.362  1.00  0.00     0.000 C 
ENDROOT
BRANCH   1   2
ATOM      2  C   UNL     1      83.164  54.644   7.068  1.00  0.00     0.000 C 
BRANCH   2   3
ATOM      3  C   UNL     1      82.181  54.495   8.241  1.00  0.00     0.000 C 
BRANCH   3   4
ATOM      4  C   UNL     1      81.716  53.044   8.441  1.00  0.00    -0.000 C 
BRANCH   4   5
ATOM      5  C   UNL     1      80.241  52.954   8.869  1.00  0.00    -0.000 C 
BRANCH   5   6
ATOM      6  C   UNL     1      79.271  53.114   7.686  1.00  0.00    -0.000 C 
BRANCH   6   7
ATOM      7  C   UNL     1      78.165  54.144   7.969  1.00  0.00    -0.000 C 
BRANCH   7   8
ATOM      8  C   UNL     1      78.508  55.549   7.442  1.00  0.00    -0.000 C 
BRANCH   8   9
ATOM      9  C   UNL     1      77.747  56.706   8.118  1.00  0.00    -0.000 C 
BRANCH   9  10
ATOM     10  C   UNL     1      77.734  56.670   9.660  1.00  0.00    -0.000 C 
BRANCH  10  11
ATOM     11  C   UNL     1      78.995  57.245  10.329  1.00  0.00    -0.003 C 
ATOM     12  C   UNL     1      79.974  56.163  10.782  1.00  0.00     0.004 C 
ENDBRANCH  10  11
ENDBRANCH   9  10
ENDBRANCH   8   9
ENDBRANCH   7   8
ENDBRANCH   6   7
ENDBRANCH   5   6
ENDBRANCH   4   5
ENDBRANCH   3   4
ENDBRANCH   2   3
ENDBRANCH   1   2
BRANCH   1  13
ATOM     13  C   UNL     1      85.151  55.260   8.592  1.00  0.00     0.000 C 
BRANCH  13  14
ATOM     14  C   UNL     1      86.623  54.999   8.222  1.00  0.00     0.000 C 
BRANCH  14  15
ATOM     15  C   UNL     1      87.581  55.253   9.396  1.00  0.00     0.000 C 
BRANCH  15  16
ATOM     16  C   UNL     1      88.067  56.713   9.455  1.00  0.00     0.000 C 
BRANCH  16  17
ATOM     17  C   UNL     1      87.712  57.400  10.784  1.00  0.00     0.000 C 
BRANCH  17  18
ATOM     18  C   UNL     1      86.693  58.538  10.604  1.00  0.00     0.000 C 
BRANCH  18  19
ATOM     19  C   UNL     1      86.328  58.784   9.131  1.00  0.00     0.000 C 
BRANCH  19  20
ATOM     20  C   UNL     1      84.823  59.003   8.917  1.00  0.00     0.006 C 
BRANCH  20  21
ATOM     21  C   UNL     1      84.015  58.422  10.081  1.00  0.00     0.053 C 
BRANCH  21  22
ATOM     22  C   UNL     1      83.082  59.451  10.639  1.00  0.00     0.041 C 
ATOM     23  O   UNL     1      81.942  59.113  11.053  1.00  0.00    -0.550 OA
ATOM     24  O   UNL     1      83.459  60.789  10.673  1.00  0.00    -0.550 OA
ENDBRANCH  21  22
ENDBRANCH  20  21
ENDBRANCH  19  20
ENDBRANCH  18  19
ENDBRANCH  17  18
ENDBRANCH  16  17
ENDBRANCH  15  16
ENDBRANCH  14  15
ENDBRANCH  13  14
ENDBRANCH   1  13
TORSDOF 20
ENDMDL
