MODEL 1
REMARK VINA RESULT:    -3.059      0.000      0.000
REMARK INTER + INTRA:         -10.270
REMARK INTER:                  -8.065
REMARK INTRA:                  -2.205
REMARK UNBOUND:                -2.205
REMARK SMILES CCCCCCCCCCCCCCCCCCCCCCCCCCCCCC(=O)[O-]
REMARK SMILES IDX 16 1 17 2 18 3 19 4 20 5 21 6 22 7 23 8 24 9 25 10 26 11
REMARK SMILES IDX 27 12 28 13 29 14 30 15 31 16 32 17 15 18 14 19 13 20 12 21
REMARK SMILES IDX 11 22 10 23 9 24 8 25 7 26 6 27 5 28 4 29 3 30 2 31 1 32
REMARK H PARENT
REMARK Flexibility Score: inf
ROOT
ATOM      1  C   UNL     1      -9.990  -5.435   1.095  1.00  0.00     0.000 C 
ENDROOT
BRANCH   1   2
ATOM      2  C   UNL     1      -9.716  -4.451   2.246  1.00  0.00     0.000 C 
BRANCH   2   3
ATOM      3  C   UNL     1     -10.717  -3.285   2.270  1.00  0.00     0.000 C 
BRANCH   3   4
ATOM      4  C   UNL     1     -10.034  -1.918   2.463  1.00  0.00     0.000 C 
BRANCH   4   5
ATOM      5  C   UNL     1      -8.652  -2.037   3.125  1.00  0.00     0.000 C 
BRANCH   5   6
ATOM      6  C   UNL     1      -7.599  -1.137   2.453  1.00  0.00     0.000 C 
BRANCH   6   7
ATOM      7  C   UNL     1      -6.201  -1.310   3.068  1.00  0.00     0.000 C 
BRANCH   7   8
ATOM      8  C   UNL     1      -5.546  -2.646   2.672  1.00  0.00     0.000 C 
BRANCH   8   9
ATOM      9  C   UNL     1      -5.645  -2.934   1.161  1.00  0.00     0.000 C 
BRANCH   9  10
ATOM     10  C   UNL     1      -6.249  -4.311   0.830  1.00  0.00     0.000 C 
BRANCH  10  11
ATOM     11  C   UNL     1      -5.662  -4.930  -0.457  1.00  0.00     0.000 C 
BRANCH  11  12
ATOM     12  C   UNL     1      -4.877  -3.913  -1.304  1.00  0.00     0.000 C 
BRANCH  12  13
ATOM     13  C   UNL     1      -5.105  -4.044  -2.827  1.00  0.00     0.006 C 
BRANCH  13  14
ATOM     14  C   UNL     1      -4.948  -2.733  -3.615  1.00  0.00     0.053 C 
BRANCH  14  15
ATOM     15  C   UNL     1      -5.481  -2.847  -5.010  1.00  0.00     0.041 C 
ATOM     16  O   UNL     1      -5.894  -3.955  -5.442  1.00  0.00    -0.550 OA
ATOM     17  O   UNL     1      -5.556  -1.722  -5.822  1.00  0.00    -0.550 OA
ENDBRANCH  14  15
ENDBRANCH  13  14
ENDBRANCH  12  13
ENDBRANCH  11  12
ENDBRANCH  10  11
ENDBRANCH   9  10
ENDBRANCH   8   9
ENDBRANCH   7   8
ENDBRANCH   6   7
ENDBRANCH   5   6
ENDBRANCH   4   5
ENDBRANCH   3   4
ENDBRANCH   2   3
ENDBRANCH   1   2
BRANCH   1  18
ATOM     18  C   UNL     1      -8.965  -6.582   1.030  1.00  0.00     0.000 C 
BRANCH  18  19
ATOM     19  C   UNL     1      -8.812  -7.400   2.329  1.00  0.00     0.000 C 
BRANCH  19  20
ATOM     20  C   UNL     1      -8.236  -8.818   2.147  1.00  0.00     0.000 C 
BRANCH  20  21
ATOM     21  C   UNL     1      -7.729  -9.142   0.727  1.00  0.00     0.000 C 
BRANCH  21  22
ATOM     22  C   UNL     1      -6.200  -9.092   0.555  1.00  0.00     0.000 C 
BRANCH  22  23
ATOM     23  C   UNL     1      -5.597 -10.462   0.197  1.00  0.00     0.000 C 
BRANCH  23  24
ATOM     24  C   UNL     1      -6.498 -11.635   0.621  1.00  0.00    -0.000 C 
BRANCH  24  25
ATOM     25  C   UNL     1      -6.375 -11.963   2.119  1.00  0.00    -0.000 C 
BRANCH  25  26
ATOM     26  C   UNL     1      -6.076 -13.451   2.377  1.00  0.00    -0.000 C 
BRANCH  26  27
ATOM     27  C   UNL     1      -6.949 -14.443   1.583  1.00  0.00    -0.000 C 
BRANCH  27  28
ATOM     28  C   UNL     1      -6.211 -15.670   1.007  1.00  0.00    -0.000 C 
BRANCH  28  29
ATOM     29  C   UNL     1      -7.123 -16.833   0.562  1.00  0.00    -0.000 C 
BRANCH  29  30
ATOM     30  C   UNL     1      -6.731 -18.202   1.164  1.00  0.00    -0.000 C 
BRANCH  30  31
ATOM     31  C   UNL     1      -5.634 -18.929   0.370  1.00  0.00    -0.003 C 
ATOM     32  C   UNL     1      -6.193 -19.809  -0.747  1.00  0.00     0.004 C 
ENDBRANCH  30  31
ENDBRANCH  29  30
ENDBRANCH  28  29
ENDBRANCH  27  28
ENDBRANCH  26  27
ENDBRANCH  25  26
ENDBRANCH  24  25
ENDBRANCH  23  24
ENDBRANCH  22  23
ENDBRANCH  21  22
ENDBRANCH  20  21
ENDBRANCH  19  20
ENDBRANCH  18  19
ENDBRANCH   1  18
TORSDOF 28
ENDMDL
MODEL 2
REMARK VINA RESULT:    -2.883      4.685     11.372
REMARK INTER + INTRA:          -9.806
REMARK INTER:                  -8.101
REMARK INTRA:                  -1.705
REMARK UNBOUND:                -2.205
REMARK SMILES CCCCCCCCCCCCCCCCCCCCCCCCCCCCCC(=O)[O-]
REMARK SMILES IDX 16 1 17 2 18 3 19 4 20 5 21 6 22 7 23 8 24 9 25 10 26 11
REMARK SMILES IDX 27 12 28 13 29 14 30 15 31 16 32 17 15 18 14 19 13 20 12 21
REMARK SMILES IDX 11 22 10 23 9 24 8 25 7 26 6 27 5 28 4 29 3 30 2 31 1 32
REMARK H PARENT
REMARK Flexibility Score: inf
ROOT
ATOM      1  C   UNL     1      -9.684  -8.048   0.129  1.00  0.00     0.000 C 
ENDROOT
BRANCH   1   2
ATOM      2  C   UNL     1      -8.352  -8.613  -0.395  1.00  0.00     0.000 C 
BRANCH   2   3
ATOM      3  C   UNL     1      -8.076 -10.035   0.120  1.00  0.00     0.000 C 
BRANCH   3   4
ATOM      4  C   UNL     1      -7.754 -10.070   1.625  1.00  0.00     0.000 C 
BRANCH   4   5
ATOM      5  C   UNL     1      -7.088 -11.387   2.056  1.00  0.00     0.000 C 
BRANCH   5   6
ATOM      6  C   UNL     1      -5.552 -11.288   2.079  1.00  0.00     0.000 C 
BRANCH   6   7
ATOM      7  C   UNL     1      -4.921 -11.663   0.729  1.00  0.00     0.000 C 
BRANCH   7   8
ATOM      8  C   UNL     1      -5.546 -12.931   0.119  1.00  0.00     0.000 C 
BRANCH   8   9
ATOM      9  C   UNL     1      -6.191 -13.846   1.177  1.00  0.00     0.000 C 
BRANCH   9  10
ATOM     10  C   UNL     1      -5.184 -14.739   1.924  1.00  0.00     0.000 C 
BRANCH  10  11
ATOM     11  C   UNL     1      -5.854 -15.934   2.636  1.00  0.00     0.000 C 
BRANCH  11  12
ATOM     12  C   UNL     1      -5.057 -17.241   2.485  1.00  0.00     0.000 C 
BRANCH  12  13
ATOM     13  C   UNL     1      -5.251 -17.951   1.127  1.00  0.00     0.006 C 
BRANCH  13  14
ATOM     14  C   UNL     1      -6.655 -18.537   0.903  1.00  0.00     0.053 C 
BRANCH  14  15
ATOM     15  C   UNL     1      -6.714 -19.414  -0.309  1.00  0.00     0.041 C 
ATOM     16  O   UNL     1      -7.734 -20.118  -0.534  1.00  0.00    -0.550 OA
ATOM     17  O   UNL     1      -5.658 -19.428  -1.211  1.00  0.00    -0.550 OA
ENDBRANCH  14  15
ENDBRANCH  13  14
ENDBRANCH  12  13
ENDBRANCH  11  12
ENDBRANCH  10  11
ENDBRANCH   9  10
ENDBRANCH   8   9
ENDBRANCH   7   8
ENDBRANCH   6   7
ENDBRANCH   5   6
ENDBRANCH   4   5
ENDBRANCH   3   4
ENDBRANCH   2   3
ENDBRANCH   1   2
BRANCH   1  18
ATOM     18  C   UNL     1      -9.526  -7.261   1.443  1.00  0.00     0.000 C 
BRANCH  18  19
ATOM     19  C   UNL     1     -10.466  -6.047   1.597  1.00  0.00     0.000 C 
BRANCH  19  20
ATOM     20  C   UNL     1     -10.194  -5.159   2.827  1.00  0.00     0.000 C 
BRANCH  20  21
ATOM     21  C   UNL     1      -9.578  -3.780   2.517  1.00  0.00     0.000 C 
BRANCH  21  22
ATOM     22  C   UNL     1     -10.374  -2.576   3.053  1.00  0.00     0.000 C 
BRANCH  22  23
ATOM     23  C   UNL     1      -9.909  -1.240   2.447  1.00  0.00     0.000 C 
BRANCH  23  24
ATOM     24  C   UNL     1      -8.439  -1.273   1.996  1.00  0.00    -0.000 C 
BRANCH  24  25
ATOM     25  C   UNL     1      -7.467  -0.875   3.121  1.00  0.00    -0.000 C 
BRANCH  25  26
ATOM     26  C   UNL     1      -6.085  -1.536   2.970  1.00  0.00    -0.000 C 
BRANCH  26  27
ATOM     27  C   UNL     1      -5.700  -1.932   1.531  1.00  0.00    -0.000 C 
BRANCH  27  28
ATOM     28  C   UNL     1      -4.942  -3.269   1.386  1.00  0.00    -0.000 C 
BRANCH  28  29
ATOM     29  C   UNL     1      -5.413  -4.394   2.332  1.00  0.00    -0.000 C 
BRANCH  29  30
ATOM     30  C   UNL     1      -6.466  -5.337   1.708  1.00  0.00    -0.000 C 
BRANCH  30  31
ATOM     31  C   UNL     1      -5.852  -6.488   0.894  1.00  0.00    -0.003 C 
ATOM     32  C   UNL     1      -5.974  -6.279  -0.615  1.00  0.00     0.004 C 
ENDBRANCH  30  31
ENDBRANCH  29  30
ENDBRANCH  28  29
ENDBRANCH  27  28
ENDBRANCH  26  27
ENDBRANCH  25  26
ENDBRANCH  24  25
ENDBRANCH  23  24
ENDBRANCH  22  23
ENDBRANCH  21  22
ENDBRANCH  20  21
ENDBRANCH  19  20
ENDBRANCH  18  19
ENDBRANCH   1  18
TORSDOF 28
ENDMDL
MODEL 3
REMARK VINA RESULT:    -2.337     20.764     22.418
REMARK INTER + INTRA:          -8.367
REMARK INTER:                  -7.087
REMARK INTRA:                  -1.280
REMARK UNBOUND:                -2.205
REMARK SMILES CCCCCCCCCCCCCCCCCCCCCCCCCCCCCC(=O)[O-]
REMARK SMILES IDX 16 1 17 2 18 3 19 4 20 5 21 6 22 7 23 8 24 9 25 10 26 11
REMARK SMILES IDX 27 12 28 13 29 14 30 15 31 16 32 17 15 18 14 19 13 20 12 21
REMARK SMILES IDX 11 22 10 23 9 24 8 25 7 26 6 27 5 28 4 29 3 30 2 31 1 32
REMARK H PARENT
REMARK Flexibility Score: inf
ROOT
ATOM      1  C   UNL     1     -23.244  -9.138 -16.131  1.00  0.00     0.000 C 
ENDROOT
BRANCH   1   2
ATOM      2  C   UNL     1     -22.670  -7.871 -16.788  1.00  0.00     0.000 C 
BRANCH   2   3
ATOM      3  C   UNL     1     -23.652  -6.689 -16.736  1.00  0.00     0.000 C 
BRANCH   3   4
ATOM      4  C   UNL     1     -23.061  -5.455 -16.028  1.00  0.00     0.000 C 
BRANCH   4   5
ATOM      5  C   UNL     1     -24.130  -4.412 -15.667  1.00  0.00     0.000 C 
BRANCH   5   6
ATOM      6  C   UNL     1     -24.643  -4.572 -14.225  1.00  0.00     0.000 C 
BRANCH   6   7
ATOM      7  C   UNL     1     -24.982  -3.222 -13.571  1.00  0.00     0.000 C 
BRANCH   7   8
ATOM      8  C   UNL     1     -24.232  -3.006 -12.244  1.00  0.00     0.000 C 
BRANCH   8   9
ATOM      9  C   UNL     1     -23.018  -3.942 -12.086  1.00  0.00     0.000 C 
BRANCH   9  10
ATOM     10  C   UNL     1     -21.686  -3.201 -11.876  1.00  0.00     0.000 C 
BRANCH  10  11
ATOM     11  C   UNL     1     -20.655  -3.491 -12.988  1.00  0.00     0.000 C 
BRANCH  11  12
ATOM     12  C   UNL     1     -20.177  -4.954 -12.991  1.00  0.00     0.000 C 
BRANCH  12  13
ATOM     13  C   UNL     1     -21.307  -5.991 -13.172  1.00  0.00     0.006 C 
BRANCH  13  14
ATOM     14  C   UNL     1     -20.934  -7.426 -12.764  1.00  0.00     0.053 C 
BRANCH  14  15
ATOM     15  C   UNL     1     -19.941  -8.039 -13.702  1.00  0.00     0.041 C 
ATOM     16  O   UNL     1     -19.393  -7.337 -14.592  1.00  0.00    -0.550 OA
ATOM     17  O   UNL     1     -19.593  -9.378 -13.573  1.00  0.00    -0.550 OA
ENDBRANCH  14  15
ENDBRANCH  13  14
ENDBRANCH  12  13
ENDBRANCH  11  12
ENDBRANCH  10  11
ENDBRANCH   9  10
ENDBRANCH   8   9
ENDBRANCH   7   8
ENDBRANCH   6   7
ENDBRANCH   5   6
ENDBRANCH   4   5
ENDBRANCH   3   4
ENDBRANCH   2   3
ENDBRANCH   1   2
BRANCH   1  18
ATOM     18  C   UNL     1     -22.731 -10.436 -16.780  1.00  0.00     0.000 C 
BRANCH  18  19
ATOM     19  C   UNL     1     -23.528 -11.708 -16.423  1.00  0.00     0.000 C 
BRANCH  19  20
ATOM     20  C   UNL     1     -23.056 -12.997 -17.125  1.00  0.00     0.000 C 
BRANCH  20  21
ATOM     21  C   UNL     1     -22.048 -13.846 -16.324  1.00  0.00     0.000 C 
BRANCH  21  22
ATOM     22  C   UNL     1     -21.361 -14.967 -17.125  1.00  0.00     0.000 C 
BRANCH  22  23
ATOM     23  C   UNL     1     -21.752 -16.373 -16.635  1.00  0.00     0.000 C 
BRANCH  23  24
ATOM     24  C   UNL     1     -23.249 -16.671 -16.824  1.00  0.00    -0.000 C 
BRANCH  24  25
ATOM     25  C   UNL     1     -23.706 -17.919 -16.049  1.00  0.00    -0.000 C 
BRANCH  25  26
ATOM     26  C   UNL     1     -24.048 -19.100 -16.976  1.00  0.00    -0.000 C 
BRANCH  26  27
ATOM     27  C   UNL     1     -23.568 -20.480 -16.484  1.00  0.00    -0.000 C 
BRANCH  27  28
ATOM     28  C   UNL     1     -22.102 -20.835 -16.815  1.00  0.00    -0.000 C 
BRANCH  28  29
ATOM     29  C   UNL     1     -21.044 -20.113 -15.955  1.00  0.00    -0.000 C 
BRANCH  29  30
ATOM     30  C   UNL     1     -19.608 -20.648 -16.149  1.00  0.00    -0.000 C 
BRANCH  30  31
ATOM     31  C   UNL     1     -18.759 -20.608 -14.866  1.00  0.00    -0.003 C 
ATOM     32  C   UNL     1     -19.417 -19.806 -13.744  1.00  0.00     0.004 C 
ENDBRANCH  30  31
ENDBRANCH  29  30
ENDBRANCH  28  29
ENDBRANCH  27  28
ENDBRANCH  26  27
ENDBRANCH  25  26
ENDBRANCH  24  25
ENDBRANCH  23  24
ENDBRANCH  22  23
ENDBRANCH  21  22
ENDBRANCH  20  21
ENDBRANCH  19  20
ENDBRANCH  18  19
ENDBRANCH   1  18
TORSDOF 28
ENDMDL
MODEL 4
REMARK VINA RESULT:    -2.036     20.211     21.823
REMARK INTER + INTRA:          -7.573
REMARK INTER:                  -5.561
REMARK INTRA:                  -2.011
REMARK UNBOUND:                -2.205
REMARK SMILES CCCCCCCCCCCCCCCCCCCCCCCCCCCCCC(=O)[O-]
REMARK SMILES IDX 16 1 17 2 18 3 19 4 20 5 21 6 22 7 23 8 24 9 25 10 26 11
REMARK SMILES IDX 27 12 28 13 29 14 30 15 31 16 32 17 15 18 14 19 13 20 12 21
REMARK SMILES IDX 11 22 10 23 9 24 8 25 7 26 6 27 5 28 4 29 3 30 2 31 1 32
REMARK H PARENT
REMARK Flexibility Score: inf
ROOT
ATOM      1  C   UNL     1     -22.824  -8.269 -15.905  1.00  0.00     0.000 C 
ENDROOT
BRANCH   1   2
ATOM      2  C   UNL     1     -23.322  -7.054 -16.707  1.00  0.00     0.000 C 
BRANCH   2   3
ATOM      3  C   UNL     1     -23.218  -5.744 -15.910  1.00  0.00     0.000 C 
BRANCH   3   4
ATOM      4  C   UNL     1     -24.517  -5.402 -15.157  1.00  0.00     0.000 C 
BRANCH   4   5
ATOM      5  C   UNL     1     -24.259  -4.612 -13.863  1.00  0.00     0.000 C 
BRANCH   5   6
ATOM      6  C   UNL     1     -24.411  -3.093 -14.063  1.00  0.00     0.000 C 
BRANCH   6   7
ATOM      7  C   UNL     1     -23.369  -2.291 -13.266  1.00  0.00     0.000 C 
BRANCH   7   8
ATOM      8  C   UNL     1     -22.231  -3.176 -12.727  1.00  0.00     0.000 C 
BRANCH   8   9
ATOM      9  C   UNL     1     -20.834  -2.642 -13.096  1.00  0.00     0.000 C 
BRANCH   9  10
ATOM     10  C   UNL     1     -20.770  -1.973 -14.481  1.00  0.00     0.000 C 
BRANCH  10  11
ATOM     11  C   UNL     1     -20.394  -2.959 -15.607  1.00  0.00     0.000 C 
BRANCH  11  12
ATOM     12  C   UNL     1     -19.470  -4.091 -15.125  1.00  0.00     0.000 C 
BRANCH  12  13
ATOM     13  C   UNL     1     -20.203  -5.259 -14.429  1.00  0.00     0.006 C 
BRANCH  13  14
ATOM     14  C   UNL     1     -19.622  -6.651 -14.726  1.00  0.00     0.053 C 
BRANCH  14  15
ATOM     15  C   UNL     1     -19.907  -7.627 -13.627  1.00  0.00     0.041 C 
ATOM     16  O   UNL     1     -19.317  -8.739 -13.598  1.00  0.00    -0.550 OA
ATOM     17  O   UNL     1     -20.796  -7.295 -12.612  1.00  0.00    -0.550 OA
ENDBRANCH  14  15
ENDBRANCH  13  14
ENDBRANCH  12  13
ENDBRANCH  11  12
ENDBRANCH  10  11
ENDBRANCH   9  10
ENDBRANCH   8   9
ENDBRANCH   7   8
ENDBRANCH   6   7
ENDBRANCH   5   6
ENDBRANCH   4   5
ENDBRANCH   3   4
ENDBRANCH   2   3
ENDBRANCH   1   2
BRANCH   1  18
ATOM     18  C   UNL     1     -23.146  -9.611 -16.586  1.00  0.00     0.000 C 
BRANCH  18  19
ATOM     19  C   UNL     1     -23.199 -10.831 -15.642  1.00  0.00     0.000 C 
BRANCH  19  20
ATOM     20  C   UNL     1     -23.943 -12.060 -16.199  1.00  0.00     0.000 C 
BRANCH  20  21
ATOM     21  C   UNL     1     -23.107 -12.969 -17.122  1.00  0.00     0.000 C 
BRANCH  21  22
ATOM     22  C   UNL     1     -21.786 -13.476 -16.514  1.00  0.00     0.000 C 
BRANCH  22  23
ATOM     23  C   UNL     1     -21.433 -14.903 -16.966  1.00  0.00     0.000 C 
BRANCH  23  24
ATOM     24  C   UNL     1     -20.234 -15.488 -16.201  1.00  0.00    -0.000 C 
BRANCH  24  25
ATOM     25  C   UNL     1     -19.665 -16.752 -16.869  1.00  0.00    -0.000 C 
BRANCH  25  26
ATOM     26  C   UNL     1     -18.131 -16.837 -16.767  1.00  0.00    -0.000 C 
BRANCH  26  27
ATOM     27  C   UNL     1     -17.562 -18.260 -16.602  1.00  0.00    -0.000 C 
BRANCH  27  28
ATOM     28  C   UNL     1     -18.461 -19.403 -17.122  1.00  0.00    -0.000 C 
BRANCH  28  29
ATOM     29  C   UNL     1     -18.639 -20.589 -16.151  1.00  0.00    -0.000 C 
BRANCH  29  30
ATOM     30  C   UNL     1     -19.648 -20.320 -15.012  1.00  0.00    -0.000 C 
BRANCH  30  31
ATOM     31  C   UNL     1     -21.055 -20.874 -15.296  1.00  0.00    -0.003 C 
ATOM     32  C   UNL     1     -22.073 -19.778 -15.607  1.00  0.00     0.004 C 
ENDBRANCH  30  31
ENDBRANCH  29  30
ENDBRANCH  28  29
ENDBRANCH  27  28
ENDBRANCH  26  27
ENDBRANCH  25  26
ENDBRANCH  24  25
ENDBRANCH  23  24
ENDBRANCH  22  23
ENDBRANCH  21  22
ENDBRANCH  20  21
ENDBRANCH  19  20
ENDBRANCH  18  19
ENDBRANCH   1  18
TORSDOF 28
ENDMDL
MODEL 5
REMARK VINA RESULT:    -1.777     20.673     22.309
REMARK INTER + INTRA:          -6.892
REMARK INTER:                  -4.740
REMARK INTRA:                  -2.153
REMARK UNBOUND:                -2.205
REMARK SMILES CCCCCCCCCCCCCCCCCCCCCCCCCCCCCC(=O)[O-]
REMARK SMILES IDX 16 1 17 2 18 3 19 4 20 5 21 6 22 7 23 8 24 9 25 10 26 11
REMARK SMILES IDX 27 12 28 13 29 14 30 15 31 16 32 17 15 18 14 19 13 20 12 21
REMARK SMILES IDX 11 22 10 23 9 24 8 25 7 26 6 27 5 28 4 29 3 30 2 31 1 32
REMARK H PARENT
REMARK Flexibility Score: inf
ROOT
ATOM      1  C   UNL     1     -22.640  -7.724 -16.133  1.00  0.00     0.000 C 
ENDROOT
BRANCH   1   2
ATOM      2  C   UNL     1     -23.381  -6.637 -16.931  1.00  0.00     0.000 C 
BRANCH   2   3
ATOM      3  C   UNL     1     -23.726  -5.411 -16.069  1.00  0.00     0.000 C 
BRANCH   3   4
ATOM      4  C   UNL     1     -24.114  -4.182 -16.912  1.00  0.00     0.000 C 
BRANCH   4   5
ATOM      5  C   UNL     1     -24.078  -2.876 -16.103  1.00  0.00     0.000 C 
BRANCH   5   6
ATOM      6  C   UNL     1     -22.648  -2.339 -15.918  1.00  0.00     0.000 C 
BRANCH   6   7
ATOM      7  C   UNL     1     -22.457  -1.635 -14.565  1.00  0.00     0.000 C 
BRANCH   7   8
ATOM      8  C   UNL     1     -23.453  -2.127 -13.499  1.00  0.00     0.000 C 
BRANCH   8   9
ATOM      9  C   UNL     1     -22.755  -2.684 -12.243  1.00  0.00     0.000 C 
BRANCH   9  10
ATOM     10  C   UNL     1     -21.236  -2.439 -12.216  1.00  0.00     0.000 C 
BRANCH  10  11
ATOM     11  C   UNL     1     -20.416  -3.723 -12.465  1.00  0.00     0.000 C 
BRANCH  11  12
ATOM     12  C   UNL     1     -20.517  -4.223 -13.917  1.00  0.00     0.000 C 
BRANCH  12  13
ATOM     13  C   UNL     1     -21.273  -5.562 -14.076  1.00  0.00     0.006 C 
BRANCH  13  14
ATOM     14  C   UNL     1     -20.907  -6.634 -13.036  1.00  0.00     0.053 C 
BRANCH  14  15
ATOM     15  C   UNL     1     -19.941  -7.640 -13.578  1.00  0.00     0.041 C 
ATOM     16  O   UNL     1     -19.718  -8.709 -12.950  1.00  0.00    -0.550 OA
ATOM     17  O   UNL     1     -19.312  -7.417 -14.797  1.00  0.00    -0.550 OA
ENDBRANCH  14  15
ENDBRANCH  13  14
ENDBRANCH  12  13
ENDBRANCH  11  12
ENDBRANCH  10  11
ENDBRANCH   9  10
ENDBRANCH   8   9
ENDBRANCH   7   8
ENDBRANCH   6   7
ENDBRANCH   5   6
ENDBRANCH   4   5
ENDBRANCH   3   4
ENDBRANCH   2   3
ENDBRANCH   1   2
BRANCH   1  18
ATOM     18  C   UNL     1     -23.072  -9.151 -16.518  1.00  0.00     0.000 C 
BRANCH  18  19
ATOM     19  C   UNL     1     -22.499 -10.273 -15.627  1.00  0.00     0.000 C 
BRANCH  19  20
ATOM     20  C   UNL     1     -23.353 -11.554 -15.556  1.00  0.00     0.000 C 
BRANCH  20  21
ATOM     21  C   UNL     1     -23.217 -12.499 -16.767  1.00  0.00     0.000 C 
BRANCH  21  22
ATOM     22  C   UNL     1     -22.161 -13.609 -16.611  1.00  0.00     0.000 C 
BRANCH  22  23
ATOM     23  C   UNL     1     -22.653 -14.974 -17.124  1.00  0.00     0.000 C 
BRANCH  23  24
ATOM     24  C   UNL     1     -22.138 -16.147 -16.274  1.00  0.00    -0.000 C 
BRANCH  24  25
ATOM     25  C   UNL     1     -21.251 -17.114 -17.077  1.00  0.00    -0.000 C 
BRANCH  25  26
ATOM     26  C   UNL     1     -20.026 -17.597 -16.278  1.00  0.00    -0.000 C 
BRANCH  26  27
ATOM     27  C   UNL     1     -19.906 -19.126 -16.124  1.00  0.00    -0.000 C 
BRANCH  27  28
ATOM     28  C   UNL     1     -20.967 -19.959 -16.874  1.00  0.00    -0.000 C 
BRANCH  28  29
ATOM     29  C   UNL     1     -21.610 -21.095 -16.050  1.00  0.00    -0.000 C 
BRANCH  29  30
ATOM     30  C   UNL     1     -22.345 -20.609 -14.781  1.00  0.00    -0.000 C 
BRANCH  30  31
ATOM     31  C   UNL     1     -23.196 -19.349 -15.009  1.00  0.00    -0.003 C 
ATOM     32  C   UNL     1     -24.395 -19.600 -15.922  1.00  0.00     0.004 C 
ENDBRANCH  30  31
ENDBRANCH  29  30
ENDBRANCH  28  29
ENDBRANCH  27  28
ENDBRANCH  26  27
ENDBRANCH  25  26
ENDBRANCH  24  25
ENDBRANCH  23  24
ENDBRANCH  22  23
ENDBRANCH  21  22
ENDBRANCH  20  21
ENDBRANCH  19  20
ENDBRANCH  18  19
ENDBRANCH   1  18
TORSDOF 28
ENDMDL
MODEL 6
REMARK VINA RESULT:    -1.754     19.381     22.932
REMARK INTER + INTRA:          -6.831
REMARK INTER:                  -4.492
REMARK INTRA:                  -2.339
REMARK UNBOUND:                -2.205
REMARK SMILES CCCCCCCCCCCCCCCCCCCCCCCCCCCCCC(=O)[O-]
REMARK SMILES IDX 16 1 17 2 18 3 19 4 20 5 21 6 22 7 23 8 24 9 25 10 26 11
REMARK SMILES IDX 27 12 28 13 29 14 30 15 31 16 32 17 15 18 14 19 13 20 12 21
REMARK SMILES IDX 11 22 10 23 9 24 8 25 7 26 6 27 5 28 4 29 3 30 2 31 1 32
REMARK H PARENT
REMARK Flexibility Score: inf
ROOT
ATOM      1  C   UNL     1     -22.372  -4.907 -12.452  1.00  0.00     0.000 C 
ENDROOT
BRANCH   1   2
ATOM      2  C   UNL     1     -23.834  -5.253 -12.119  1.00  0.00     0.000 C 
BRANCH   2   3
ATOM      3  C   UNL     1     -24.477  -4.224 -11.175  1.00  0.00     0.000 C 
BRANCH   3   4
ATOM      4  C   UNL     1     -25.027  -2.994 -11.921  1.00  0.00     0.000 C 
BRANCH   4   5
ATOM      5  C   UNL     1     -24.346  -2.775 -13.282  1.00  0.00     0.000 C 
BRANCH   5   6
ATOM      6  C   UNL     1     -25.125  -1.796 -14.178  1.00  0.00     0.000 C 
BRANCH   6   7
ATOM      7  C   UNL     1     -24.225  -1.113 -15.220  1.00  0.00     0.000 C 
BRANCH   7   8
ATOM      8  C   UNL     1     -24.364  -1.741 -16.619  1.00  0.00     0.000 C 
BRANCH   8   9
ATOM      9  C   UNL     1     -23.687  -3.122 -16.722  1.00  0.00     0.000 C 
BRANCH   9  10
ATOM     10  C   UNL     1     -24.662  -4.268 -17.048  1.00  0.00     0.000 C 
BRANCH  10  11
ATOM     11  C   UNL     1     -24.857  -5.245 -15.868  1.00  0.00     0.000 C 
BRANCH  11  12
ATOM     12  C   UNL     1     -24.952  -6.713 -16.319  1.00  0.00     0.000 C 
BRANCH  12  13
ATOM     13  C   UNL     1     -23.716  -7.222 -17.092  1.00  0.00     0.006 C 
BRANCH  13  14
ATOM     14  C   UNL     1     -22.828  -8.205 -16.311  1.00  0.00     0.053 C 
BRANCH  14  15
ATOM     15  C   UNL     1     -23.392  -9.592 -16.305  1.00  0.00     0.041 C 
ATOM     16  O   UNL     1     -22.730 -10.544 -15.812  1.00  0.00    -0.550 OA
ATOM     17  O   UNL     1     -24.664  -9.830 -16.811  1.00  0.00    -0.550 OA
ENDBRANCH  14  15
ENDBRANCH  13  14
ENDBRANCH  12  13
ENDBRANCH  11  12
ENDBRANCH  10  11
ENDBRANCH   9  10
ENDBRANCH   8   9
ENDBRANCH   7   8
ENDBRANCH   6   7
ENDBRANCH   5   6
ENDBRANCH   4   5
ENDBRANCH   3   4
ENDBRANCH   2   3
ENDBRANCH   1   2
BRANCH   1  18
ATOM     18  C   UNL     1     -21.853  -5.640 -13.703  1.00  0.00     0.000 C 
BRANCH  18  19
ATOM     19  C   UNL     1     -20.994  -6.891 -13.421  1.00  0.00     0.000 C 
BRANCH  19  20
ATOM     20  C   UNL     1     -19.593  -6.883 -14.064  1.00  0.00     0.000 C 
BRANCH  20  21
ATOM     21  C   UNL     1     -19.434  -5.944 -15.277  1.00  0.00     0.000 C 
BRANCH  21  22
ATOM     22  C   UNL     1     -19.575  -4.444 -14.962  1.00  0.00     0.000 C 
BRANCH  22  23
ATOM     23  C   UNL     1     -20.023  -3.620 -16.183  1.00  0.00     0.000 C 
BRANCH  23  24
ATOM     24  C   UNL     1     -19.415  -2.208 -16.200  1.00  0.00    -0.000 C 
BRANCH  24  25
ATOM     25  C   UNL     1     -20.003  -1.298 -15.107  1.00  0.00    -0.000 C 
BRANCH  25  26
ATOM     26  C   UNL     1     -20.889  -2.067 -14.109  1.00  0.00    -0.000 C 
BRANCH  26  27
ATOM     27  C   UNL     1     -21.450  -1.225 -12.946  1.00  0.00    -0.000 C 
BRANCH  27  28
ATOM     28  C   UNL     1     -21.166  -1.770 -11.529  1.00  0.00    -0.000 C 
BRANCH  28  29
ATOM     29  C   UNL     1     -20.130  -0.967 -10.715  1.00  0.00    -0.000 C 
BRANCH  29  30
ATOM     30  C   UNL     1     -19.501  -1.760  -9.547  1.00  0.00    -0.000 C 
BRANCH  30  31
ATOM     31  C   UNL     1     -18.659  -0.890  -8.599  1.00  0.00    -0.003 C 
ATOM     32  C   UNL     1     -19.014  -1.100  -7.128  1.00  0.00     0.004 C 
ENDBRANCH  30  31
ENDBRANCH  29  30
ENDBRANCH  28  29
ENDBRANCH  27  28
ENDBRANCH  26  27
ENDBRANCH  25  26
ENDBRANCH  24  25
ENDBRANCH  23  24
ENDBRANCH  22  23
ENDBRANCH  21  22
ENDBRANCH  20  21
ENDBRANCH  19  20
ENDBRANCH  18  19
ENDBRANCH   1  18
TORSDOF 28
ENDMDL
MODEL 7
REMARK VINA RESULT:    -1.601     20.175     21.878
REMARK INTER + INTRA:          -6.426
REMARK INTER:                  -3.903
REMARK INTRA:                  -2.524
REMARK UNBOUND:                -2.205
REMARK SMILES CCCCCCCCCCCCCCCCCCCCCCCCCCCCCC(=O)[O-]
REMARK SMILES IDX 16 1 17 2 18 3 19 4 20 5 21 6 22 7 23 8 24 9 25 10 26 11
REMARK SMILES IDX 27 12 28 13 29 14 30 15 31 16 32 17 15 18 14 19 13 20 12 21
REMARK SMILES IDX 11 22 10 23 9 24 8 25 7 26 6 27 5 28 4 29 3 30 2 31 1 32
REMARK H PARENT
REMARK Flexibility Score: inf
ROOT
ATOM      1  C   UNL     1     -20.470  -7.704 -12.968  1.00  0.00     0.000 C 
ENDROOT
BRANCH   1   2
ATOM      2  C   UNL     1     -20.456  -7.178 -14.414  1.00  0.00     0.000 C 
BRANCH   2   3
ATOM      3  C   UNL     1     -21.649  -6.257 -14.714  1.00  0.00     0.000 C 
BRANCH   3   4
ATOM      4  C   UNL     1     -22.539  -6.787 -15.854  1.00  0.00     0.000 C 
BRANCH   4   5
ATOM      5  C   UNL     1     -22.933  -5.690 -16.855  1.00  0.00     0.000 C 
BRANCH   5   6
ATOM      6  C   UNL     1     -23.945  -4.692 -16.265  1.00  0.00     0.000 C 
BRANCH   6   7
ATOM      7  C   UNL     1     -23.711  -3.256 -16.760  1.00  0.00     0.000 C 
BRANCH   7   8
ATOM      8  C   UNL     1     -22.243  -2.816 -16.614  1.00  0.00     0.000 C 
BRANCH   8   9
ATOM      9  C   UNL     1     -22.100  -1.319 -16.276  1.00  0.00     0.000 C 
BRANCH   9  10
ATOM     10  C   UNL     1     -21.292  -1.045 -14.995  1.00  0.00     0.000 C 
BRANCH  10  11
ATOM     11  C   UNL     1     -20.892  -2.336 -14.250  1.00  0.00     0.000 C 
BRANCH  11  12
ATOM     12  C   UNL     1     -20.997  -2.199 -12.721  1.00  0.00     0.000 C 
BRANCH  12  13
ATOM     13  C   UNL     1     -21.497  -3.472 -12.001  1.00  0.00     0.006 C 
BRANCH  13  14
ATOM     14  C   UNL     1     -22.771  -4.090 -12.600  1.00  0.00     0.053 C 
BRANCH  14  15
ATOM     15  C   UNL     1     -24.014  -3.443 -12.072  1.00  0.00     0.041 C 
ATOM     16  O   UNL     1     -24.658  -3.980 -11.133  1.00  0.00    -0.550 OA
ATOM     17  O   UNL     1     -24.442  -2.228 -12.592  1.00  0.00    -0.550 OA
ENDBRANCH  14  15
ENDBRANCH  13  14
ENDBRANCH  12  13
ENDBRANCH  11  12
ENDBRANCH  10  11
ENDBRANCH   9  10
ENDBRANCH   8   9
ENDBRANCH   7   8
ENDBRANCH   6   7
ENDBRANCH   5   6
ENDBRANCH   4   5
ENDBRANCH   3   4
ENDBRANCH   2   3
ENDBRANCH   1   2
BRANCH   1  18
ATOM     18  C   UNL     1     -19.927  -9.139 -12.845  1.00  0.00     0.000 C 
BRANCH  18  19
ATOM     19  C   UNL     1     -20.234 -10.061 -14.043  1.00  0.00     0.000 C 
BRANCH  19  20
ATOM     20  C   UNL     1     -21.731 -10.315 -14.308  1.00  0.00     0.000 C 
BRANCH  20  21
ATOM     21  C   UNL     1     -22.035 -11.330 -15.429  1.00  0.00     0.000 C 
BRANCH  21  22
ATOM     22  C   UNL     1     -23.452 -11.239 -16.022  1.00  0.00     0.000 C 
BRANCH  22  23
ATOM     23  C   UNL     1     -23.942 -12.580 -16.599  1.00  0.00     0.000 C 
BRANCH  23  24
ATOM     24  C   UNL     1     -22.790 -13.465 -17.101  1.00  0.00    -0.000 C 
BRANCH  24  25
ATOM     25  C   UNL     1     -22.895 -14.915 -16.596  1.00  0.00    -0.000 C 
BRANCH  25  26
ATOM     26  C   UNL     1     -21.601 -15.718 -16.824  1.00  0.00    -0.000 C 
BRANCH  26  27
ATOM     27  C   UNL     1     -20.300 -14.892 -16.774  1.00  0.00    -0.000 C 
BRANCH  27  28
ATOM     28  C   UNL     1     -19.073 -15.613 -16.174  1.00  0.00    -0.000 C 
BRANCH  28  29
ATOM     29  C   UNL     1     -18.865 -17.063 -16.660  1.00  0.00    -0.000 C 
BRANCH  29  30
ATOM     30  C   UNL     1     -18.307 -18.012 -15.576  1.00  0.00    -0.000 C 
BRANCH  30  31
ATOM     31  C   UNL     1     -19.399 -18.765 -14.798  1.00  0.00    -0.003 C 
ATOM     32  C   UNL     1     -18.869 -19.444 -13.536  1.00  0.00     0.004 C 
ENDBRANCH  30  31
ENDBRANCH  29  30
ENDBRANCH  28  29
ENDBRANCH  27  28
ENDBRANCH  26  27
ENDBRANCH  25  26
ENDBRANCH  24  25
ENDBRANCH  23  24
ENDBRANCH  22  23
ENDBRANCH  21  22
ENDBRANCH  20  21
ENDBRANCH  19  20
ENDBRANCH  18  19
ENDBRANCH   1  18
TORSDOF 28
ENDMDL
