MODEL 1
REMARK VINA RESULT:    -5.727      0.000      0.000
REMARK INTER + INTRA:         -18.961
REMARK INTER:                 -15.103
REMARK INTRA:                  -3.858
REMARK UNBOUND:                -3.858
REMARK SMILES CCCCCCCCCCCCCCCCCCCCCCCCCCCCCC(=O)[O-]
REMARK SMILES IDX 16 1 17 2 18 3 19 4 20 5 21 6 22 7 23 8 24 9 25 10 26 11
REMARK SMILES IDX 27 12 28 13 29 14 30 15 31 16 32 17 15 18 14 19 13 20 12 21
REMARK SMILES IDX 11 22 10 23 9 24 8 25 7 26 6 27 5 28 4 29 3 30 2 31 1 32
REMARK H PARENT
REMARK Flexibility Score: inf
ROOT
ATOM      1  C   UNL     1      -6.670 -12.850  31.453  1.00  0.00     0.000 C 
ENDROOT
BRANCH   1   2
ATOM      2  C   UNL     1      -6.282 -12.650  29.983  1.00  0.00     0.000 C 
BRANCH   2   3
ATOM      3  C   UNL     1      -5.402 -11.409  29.754  1.00  0.00     0.000 C 
BRANCH   3   4
ATOM      4  C   UNL     1      -4.712 -10.882  31.031  1.00  0.00     0.000 C 
BRANCH   4   5
ATOM      5  C   UNL     1      -3.184 -10.780  30.869  1.00  0.00     0.000 C 
BRANCH   5   6
ATOM      6  C   UNL     1      -2.429 -11.723  31.821  1.00  0.00     0.000 C 
BRANCH   6   7
ATOM      7  C   UNL     1      -3.054 -13.125  31.876  1.00  0.00     0.000 C 
BRANCH   7   8
ATOM      8  C   UNL     1      -2.267 -14.110  30.998  1.00  0.00     0.000 C 
BRANCH   8   9
ATOM      9  C   UNL     1      -3.168 -14.849  29.986  1.00  0.00     0.000 C 
BRANCH   9  10
ATOM     10  C   UNL     1      -3.305 -14.128  28.634  1.00  0.00     0.000 C 
BRANCH  10  11
ATOM     11  C   UNL     1      -1.963 -13.965  27.901  1.00  0.00     0.000 C 
BRANCH  11  12
ATOM     12  C   UNL     1      -2.132 -13.787  26.380  1.00  0.00     0.000 C 
BRANCH  12  13
ATOM     13  C   UNL     1      -1.948 -15.074  25.555  1.00  0.00     0.006 C 
BRANCH  13  14
ATOM     14  C   UNL     1      -1.556 -16.282  26.415  1.00  0.00     0.053 C 
BRANCH  14  15
ATOM     15  C   UNL     1      -1.136 -17.427  25.548  1.00  0.00     0.041 C 
ATOM     16  O   UNL     1      -1.400 -18.609  25.892  1.00  0.00    -0.550 OA
ATOM     17  O   UNL     1      -0.503 -17.188  24.337  1.00  0.00    -0.550 OA
ENDBRANCH  14  15
ENDBRANCH  13  14
ENDBRANCH  12  13
ENDBRANCH  11  12
ENDBRANCH  10  11
ENDBRANCH   9  10
ENDBRANCH   8   9
ENDBRANCH   7   8
ENDBRANCH   6   7
ENDBRANCH   5   6
ENDBRANCH   4   5
ENDBRANCH   3   4
ENDBRANCH   2   3
ENDBRANCH   1   2
BRANCH   1  18
ATOM     18  C   UNL     1      -6.673 -14.339  31.834  1.00  0.00     0.000 C 
BRANCH  18  19
ATOM     19  C   UNL     1      -7.458 -15.202  30.830  1.00  0.00     0.000 C 
BRANCH  19  20
ATOM     20  C   UNL     1      -8.226 -16.383  31.455  1.00  0.00     0.000 C 
BRANCH  20  21
ATOM     21  C   UNL     1      -9.569 -16.725  30.779  1.00  0.00     0.000 C 
BRANCH  21  22
ATOM     22  C   UNL     1      -9.868 -18.230  30.639  1.00  0.00     0.000 C 
BRANCH  22  23
ATOM     23  C   UNL     1     -11.276 -18.607  31.133  1.00  0.00     0.000 C 
BRANCH  23  24
ATOM     24  C   UNL     1     -12.267 -17.430  31.089  1.00  0.00    -0.000 C 
BRANCH  24  25
ATOM     25  C   UNL     1     -13.246 -17.443  29.900  1.00  0.00    -0.000 C 
BRANCH  25  26
ATOM     26  C   UNL     1     -13.010 -16.286  28.914  1.00  0.00    -0.000 C 
BRANCH  26  27
ATOM     27  C   UNL     1     -12.137 -16.694  27.703  1.00  0.00    -0.000 C 
BRANCH  27  28
ATOM     28  C   UNL     1     -10.803 -15.928  27.612  1.00  0.00    -0.000 C 
BRANCH  28  29
ATOM     29  C   UNL     1     -10.598 -15.163  26.292  1.00  0.00    -0.000 C 
BRANCH  29  30
ATOM     30  C   UNL     1      -9.240 -14.423  26.215  1.00  0.00    -0.000 C 
BRANCH  30  31
ATOM     31  C   UNL     1      -8.125 -15.090  27.036  1.00  0.00    -0.003 C 
ATOM     32  C   UNL     1      -6.758 -14.446  26.798  1.00  0.00     0.004 C 
ENDBRANCH  30  31
ENDBRANCH  29  30
ENDBRANCH  28  29
ENDBRANCH  27  28
ENDBRANCH  26  27
ENDBRANCH  25  26
ENDBRANCH  24  25
ENDBRANCH  23  24
ENDBRANCH  22  23
ENDBRANCH  21  22
ENDBRANCH  20  21
ENDBRANCH  19  20
ENDBRANCH  18  19
ENDBRANCH   1  18
TORSDOF 28
ENDMDL
MODEL 2
REMARK VINA RESULT:    -5.689      3.479      9.697
REMARK INTER + INTRA:         -18.860
REMARK INTER:                 -15.395
REMARK INTRA:                  -3.465
REMARK UNBOUND:                -3.858
REMARK SMILES CCCCCCCCCCCCCCCCCCCCCCCCCCCCCC(=O)[O-]
REMARK SMILES IDX 16 1 17 2 18 3 19 4 20 5 21 6 22 7 23 8 24 9 25 10 26 11
REMARK SMILES IDX 27 12 28 13 29 14 30 15 31 16 32 17 15 18 14 19 13 20 12 21
REMARK SMILES IDX 11 22 10 23 9 24 8 25 7 26 6 27 5 28 4 29 3 30 2 31 1 32
REMARK H PARENT
REMARK Flexibility Score: inf
ROOT
ATOM      1  C   UNL     1      -5.762 -14.577  31.237  1.00  0.00     0.000 C 
ENDROOT
BRANCH   1   2
ATOM      2  C   UNL     1      -7.140 -14.888  30.639  1.00  0.00     0.000 C 
BRANCH   2   3
ATOM      3  C   UNL     1      -7.408 -14.139  29.322  1.00  0.00     0.000 C 
BRANCH   3   4
ATOM      4  C   UNL     1      -6.290 -14.296  28.269  1.00  0.00     0.000 C 
BRANCH   4   5
ATOM      5  C   UNL     1      -6.848 -14.442  26.841  1.00  0.00     0.000 C 
BRANCH   5   6
ATOM      6  C   UNL     1      -8.175 -15.218  26.806  1.00  0.00     0.000 C 
BRANCH   6   7
ATOM      7  C   UNL     1      -9.292 -14.441  26.093  1.00  0.00     0.000 C 
BRANCH   7   8
ATOM      8  C   UNL     1     -10.651 -15.128  26.294  1.00  0.00     0.000 C 
BRANCH   8   9
ATOM      9  C   UNL     1     -10.698 -15.980  27.580  1.00  0.00     0.000 C 
BRANCH   9  10
ATOM     10  C   UNL     1     -11.954 -16.860  27.697  1.00  0.00     0.000 C 
BRANCH  10  11
ATOM     11  C   UNL     1     -13.057 -16.221  28.558  1.00  0.00     0.000 C 
BRANCH  11  12
ATOM     12  C   UNL     1     -13.543 -17.147  29.689  1.00  0.00     0.000 C 
BRANCH  12  13
ATOM     13  C   UNL     1     -12.653 -18.378  29.942  1.00  0.00     0.006 C 
BRANCH  13  14
ATOM     14  C   UNL     1     -11.594 -18.135  31.025  1.00  0.00     0.053 C 
BRANCH  14  15
ATOM     15  C   UNL     1     -10.293 -18.760  30.633  1.00  0.00     0.041 C 
ATOM     16  O   UNL     1      -9.378 -18.903  31.487  1.00  0.00    -0.550 OA
ATOM     17  O   UNL     1     -10.108 -19.234  29.342  1.00  0.00    -0.550 OA
ENDBRANCH  14  15
ENDBRANCH  13  14
ENDBRANCH  12  13
ENDBRANCH  11  12
ENDBRANCH  10  11
ENDBRANCH   9  10
ENDBRANCH   8   9
ENDBRANCH   7   8
ENDBRANCH   6   7
ENDBRANCH   5   6
ENDBRANCH   4   5
ENDBRANCH   3   4
ENDBRANCH   2   3
ENDBRANCH   1   2
BRANCH   1  18
ATOM     18  C   UNL     1      -5.885 -13.747  32.524  1.00  0.00     0.000 C 
BRANCH  18  19
ATOM     19  C   UNL     1      -5.350 -12.313  32.355  1.00  0.00     0.000 C 
BRANCH  19  20
ATOM     20  C   UNL     1      -6.299 -11.354  31.611  1.00  0.00     0.000 C 
BRANCH  20  21
ATOM     21  C   UNL     1      -5.667 -10.593  30.428  1.00  0.00     0.000 C 
BRANCH  21  22
ATOM     22  C   UNL     1      -4.668 -11.406  29.583  1.00  0.00     0.000 C 
BRANCH  22  23
ATOM     23  C   UNL     1      -3.370 -10.635  29.286  1.00  0.00     0.000 C 
BRANCH  23  24
ATOM     24  C   UNL     1      -2.928  -9.727  30.448  1.00  0.00    -0.000 C 
BRANCH  24  25
ATOM     25  C   UNL     1      -1.799 -10.293  31.328  1.00  0.00    -0.000 C 
BRANCH  25  26
ATOM     26  C   UNL     1      -1.258 -11.641  30.819  1.00  0.00    -0.000 C 
BRANCH  26  27
ATOM     27  C   UNL     1      -1.894 -12.856  31.534  1.00  0.00    -0.000 C 
BRANCH  27  28
ATOM     28  C   UNL     1      -1.918 -12.732  33.070  1.00  0.00    -0.000 C 
BRANCH  28  29
ATOM     29  C   UNL     1      -0.897 -13.626  33.796  1.00  0.00    -0.000 C 
BRANCH  29  30
ATOM     30  C   UNL     1       0.516 -13.000  33.883  1.00  0.00    -0.000 C 
BRANCH  30  31
ATOM     31  C   UNL     1       1.568 -13.929  34.510  1.00  0.00    -0.003 C 
ATOM     32  C   UNL     1       1.239 -14.293  35.959  1.00  0.00     0.004 C 
ENDBRANCH  30  31
ENDBRANCH  29  30
ENDBRANCH  28  29
ENDBRANCH  27  28
ENDBRANCH  26  27
ENDBRANCH  25  26
ENDBRANCH  24  25
ENDBRANCH  23  24
ENDBRANCH  22  23
ENDBRANCH  21  22
ENDBRANCH  20  21
ENDBRANCH  19  20
ENDBRANCH  18  19
ENDBRANCH   1  18
TORSDOF 28
ENDMDL
MODEL 3
REMARK VINA RESULT:    -5.665      2.873      8.403
REMARK INTER + INTRA:         -18.797
REMARK INTER:                 -14.505
REMARK INTRA:                  -4.292
REMARK UNBOUND:                -3.858
REMARK SMILES CCCCCCCCCCCCCCCCCCCCCCCCCCCCCC(=O)[O-]
REMARK SMILES IDX 16 1 17 2 18 3 19 4 20 5 21 6 22 7 23 8 24 9 25 10 26 11
REMARK SMILES IDX 27 12 28 13 29 14 30 15 31 16 32 17 15 18 14 19 13 20 12 21
REMARK SMILES IDX 11 22 10 23 9 24 8 25 7 26 6 27 5 28 4 29 3 30 2 31 1 32
REMARK H PARENT
REMARK Flexibility Score: inf
ROOT
ATOM      1  C   UNL     1      -5.260 -11.916  32.345  1.00  0.00     0.000 C 
ENDROOT
BRANCH   1   2
ATOM      2  C   UNL     1      -6.441 -12.494  31.555  1.00  0.00     0.000 C 
BRANCH   2   3
ATOM      3  C   UNL     1      -6.598 -14.014  31.730  1.00  0.00     0.000 C 
BRANCH   3   4
ATOM      4  C   UNL     1      -7.112 -14.744  30.471  1.00  0.00     0.000 C 
BRANCH   4   5
ATOM      5  C   UNL     1      -7.012 -13.870  29.207  1.00  0.00     0.000 C 
BRANCH   5   6
ATOM      6  C   UNL     1      -6.301 -14.592  28.050  1.00  0.00     0.000 C 
BRANCH   6   7
ATOM      7  C   UNL     1      -7.015 -14.391  26.705  1.00  0.00     0.000 C 
BRANCH   7   8
ATOM      8  C   UNL     1      -8.304 -15.225  26.639  1.00  0.00     0.000 C 
BRANCH   8   9
ATOM      9  C   UNL     1      -9.485 -14.442  26.027  1.00  0.00     0.000 C 
BRANCH   9  10
ATOM     10  C   UNL     1     -10.852 -15.113  26.240  1.00  0.00     0.000 C 
BRANCH  10  11
ATOM     11  C   UNL     1     -10.850 -16.129  27.394  1.00  0.00     0.000 C 
BRANCH  11  12
ATOM     12  C   UNL     1     -12.191 -16.175  28.151  1.00  0.00     0.000 C 
BRANCH  12  13
ATOM     13  C   UNL     1     -12.083 -16.580  29.633  1.00  0.00     0.006 C 
BRANCH  13  14
ATOM     14  C   UNL     1     -10.630 -16.719  30.107  1.00  0.00     0.053 C 
BRANCH  14  15
ATOM     15  C   UNL     1     -10.256 -18.162  30.228  1.00  0.00     0.041 C 
ATOM     16  O   UNL     1     -10.689 -19.000  29.393  1.00  0.00    -0.550 OA
ATOM     17  O   UNL     1      -9.388 -18.576  31.229  1.00  0.00    -0.550 OA
ENDBRANCH  14  15
ENDBRANCH  13  14
ENDBRANCH  12  13
ENDBRANCH  11  12
ENDBRANCH  10  11
ENDBRANCH   9  10
ENDBRANCH   8   9
ENDBRANCH   7   8
ENDBRANCH   6   7
ENDBRANCH   5   6
ENDBRANCH   4   5
ENDBRANCH   3   4
ENDBRANCH   2   3
ENDBRANCH   1   2
BRANCH   1  18
ATOM     18  C   UNL     1      -4.359 -13.031  32.898  1.00  0.00     0.000 C 
BRANCH  18  19
ATOM     19  C   UNL     1      -2.915 -12.556  33.141  1.00  0.00     0.000 C 
BRANCH  19  20
ATOM     20  C   UNL     1      -2.646 -11.086  32.766  1.00  0.00     0.000 C 
BRANCH  20  21
ATOM     21  C   UNL     1      -1.722 -10.877  31.549  1.00  0.00     0.000 C 
BRANCH  21  22
ATOM     22  C   UNL     1      -2.387 -11.090  30.176  1.00  0.00     0.000 C 
BRANCH  22  23
ATOM     23  C   UNL     1      -2.046 -12.455  29.551  1.00  0.00     0.000 C 
BRANCH  23  24
ATOM     24  C   UNL     1      -3.289 -13.321  29.277  1.00  0.00    -0.000 C 
BRANCH  24  25
ATOM     25  C   UNL     1      -3.335 -14.658  30.038  1.00  0.00    -0.000 C 
BRANCH  25  26
ATOM     26  C   UNL     1      -1.940 -15.174  30.433  1.00  0.00    -0.000 C 
BRANCH  26  27
ATOM     27  C   UNL     1      -1.540 -16.466  29.681  1.00  0.00    -0.000 C 
BRANCH  27  28
ATOM     28  C   UNL     1      -0.847 -16.208  28.328  1.00  0.00    -0.000 C 
BRANCH  28  29
ATOM     29  C   UNL     1      -1.620 -16.740  27.107  1.00  0.00    -0.000 C 
BRANCH  29  30
ATOM     30  C   UNL     1      -1.410 -15.890  25.830  1.00  0.00    -0.000 C 
BRANCH  30  31
ATOM     31  C   UNL     1      -2.360 -14.687  25.724  1.00  0.00    -0.003 C 
ATOM     32  C   UNL     1      -1.622 -13.349  25.794  1.00  0.00     0.004 C 
ENDBRANCH  30  31
ENDBRANCH  29  30
ENDBRANCH  28  29
ENDBRANCH  27  28
ENDBRANCH  26  27
ENDBRANCH  25  26
ENDBRANCH  24  25
ENDBRANCH  23  24
ENDBRANCH  22  23
ENDBRANCH  21  22
ENDBRANCH  20  21
ENDBRANCH  19  20
ENDBRANCH  18  19
ENDBRANCH   1  18
TORSDOF 28
ENDMDL
MODEL 4
REMARK VINA RESULT:    -5.647      2.856      8.529
REMARK INTER + INTRA:         -18.749
REMARK INTER:                 -14.355
REMARK INTRA:                  -4.394
REMARK UNBOUND:                -3.858
REMARK SMILES CCCCCCCCCCCCCCCCCCCCCCCCCCCCCC(=O)[O-]
REMARK SMILES IDX 16 1 17 2 18 3 19 4 20 5 21 6 22 7 23 8 24 9 25 10 26 11
REMARK SMILES IDX 27 12 28 13 29 14 30 15 31 16 32 17 15 18 14 19 13 20 12 21
REMARK SMILES IDX 11 22 10 23 9 24 8 25 7 26 6 27 5 28 4 29 3 30 2 31 1 32
REMARK H PARENT
REMARK Flexibility Score: inf
ROOT
ATOM      1  C   UNL     1      -6.245 -13.634  32.606  1.00  0.00     0.000 C 
ENDROOT
BRANCH   1   2
ATOM      2  C   UNL     1      -6.594 -14.881  31.784  1.00  0.00     0.000 C 
BRANCH   2   3
ATOM      3  C   UNL     1      -7.646 -14.610  30.693  1.00  0.00     0.000 C 
BRANCH   3   4
ATOM      4  C   UNL     1      -7.117 -13.788  29.499  1.00  0.00     0.000 C 
BRANCH   4   5
ATOM      5  C   UNL     1      -6.329 -14.652  28.497  1.00  0.00     0.000 C 
BRANCH   5   6
ATOM      6  C   UNL     1      -6.346 -14.064  27.076  1.00  0.00     0.000 C 
BRANCH   6   7
ATOM      7  C   UNL     1      -7.770 -13.894  26.527  1.00  0.00     0.000 C 
BRANCH   7   8
ATOM      8  C   UNL     1      -8.423 -15.260  26.266  1.00  0.00     0.000 C 
BRANCH   8   9
ATOM      9  C   UNL     1      -9.956 -15.226  26.448  1.00  0.00     0.000 C 
BRANCH   9  10
ATOM     10  C   UNL     1     -10.445 -15.926  27.727  1.00  0.00     0.000 C 
BRANCH  10  11
ATOM     11  C   UNL     1     -11.972 -16.105  27.768  1.00  0.00     0.000 C 
BRANCH  11  12
ATOM     12  C   UNL     1     -12.512 -16.303  29.197  1.00  0.00     0.000 C 
BRANCH  12  13
ATOM     13  C   UNL     1     -12.885 -17.755  29.551  1.00  0.00     0.006 C 
BRANCH  13  14
ATOM     14  C   UNL     1     -12.069 -18.310  30.725  1.00  0.00     0.053 C 
BRANCH  14  15
ATOM     15  C   UNL     1     -10.613 -18.336  30.384  1.00  0.00     0.041 C 
ATOM     16  O   UNL     1     -10.186 -19.120  29.496  1.00  0.00    -0.550 OA
ATOM     17  O   UNL     1      -9.735 -17.459  31.006  1.00  0.00    -0.550 OA
ENDBRANCH  14  15
ENDBRANCH  13  14
ENDBRANCH  12  13
ENDBRANCH  11  12
ENDBRANCH  10  11
ENDBRANCH   9  10
ENDBRANCH   8   9
ENDBRANCH   7   8
ENDBRANCH   6   7
ENDBRANCH   5   6
ENDBRANCH   4   5
ENDBRANCH   3   4
ENDBRANCH   2   3
ENDBRANCH   1   2
BRANCH   1  18
ATOM     18  C   UNL     1      -4.752 -13.292  32.495  1.00  0.00     0.000 C 
BRANCH  18  19
ATOM     19  C   UNL     1      -4.504 -11.784  32.308  1.00  0.00     0.000 C 
BRANCH  19  20
ATOM     20  C   UNL     1      -5.549 -11.061  31.435  1.00  0.00     0.000 C 
BRANCH  20  21
ATOM     21  C   UNL     1      -5.174 -10.916  29.947  1.00  0.00     0.000 C 
BRANCH  21  22
ATOM     22  C   UNL     1      -3.683 -11.126  29.622  1.00  0.00     0.000 C 
BRANCH  22  23
ATOM     23  C   UNL     1      -3.413 -12.452  28.887  1.00  0.00     0.000 C 
BRANCH  23  24
ATOM     24  C   UNL     1      -2.370 -13.334  29.597  1.00  0.00    -0.000 C 
BRANCH  24  25
ATOM     25  C   UNL     1      -2.721 -14.831  29.673  1.00  0.00    -0.000 C 
BRANCH  25  26
ATOM     26  C   UNL     1      -2.944 -15.467  28.289  1.00  0.00    -0.000 C 
BRANCH  26  27
ATOM     27  C   UNL     1      -1.686 -15.413  27.390  1.00  0.00    -0.000 C 
BRANCH  27  28
ATOM     28  C   UNL     1      -1.988 -15.066  25.919  1.00  0.00    -0.000 C 
BRANCH  28  29
ATOM     29  C   UNL     1      -1.880 -13.568  25.584  1.00  0.00    -0.000 C 
BRANCH  29  30
ATOM     30  C   UNL     1      -0.657 -12.879  26.238  1.00  0.00    -0.000 C 
BRANCH  30  31
ATOM     31  C   UNL     1       0.371 -12.350  25.225  1.00  0.00    -0.003 C 
ATOM     32  C   UNL     1       1.103 -13.475  24.491  1.00  0.00     0.004 C 
ENDBRANCH  30  31
ENDBRANCH  29  30
ENDBRANCH  28  29
ENDBRANCH  27  28
ENDBRANCH  26  27
ENDBRANCH  25  26
ENDBRANCH  24  25
ENDBRANCH  23  24
ENDBRANCH  22  23
ENDBRANCH  21  22
ENDBRANCH  20  21
ENDBRANCH  19  20
ENDBRANCH  18  19
ENDBRANCH   1  18
TORSDOF 28
ENDMDL
MODEL 5
REMARK VINA RESULT:    -5.646      4.211      9.954
REMARK INTER + INTRA:         -18.747
REMARK INTER:                 -15.172
REMARK INTRA:                  -3.575
REMARK UNBOUND:                -3.858
REMARK SMILES CCCCCCCCCCCCCCCCCCCCCCCCCCCCCC(=O)[O-]
REMARK SMILES IDX 16 1 17 2 18 3 19 4 20 5 21 6 22 7 23 8 24 9 25 10 26 11
REMARK SMILES IDX 27 12 28 13 29 14 30 15 31 16 32 17 15 18 14 19 13 20 12 21
REMARK SMILES IDX 11 22 10 23 9 24 8 25 7 26 6 27 5 28 4 29 3 30 2 31 1 32
REMARK H PARENT
REMARK Flexibility Score: inf
ROOT
ATOM      1  C   UNL     1      -7.295 -14.542  29.435  1.00  0.00     0.000 C 
ENDROOT
BRANCH   1   2
ATOM      2  C   UNL     1      -6.357 -14.445  28.225  1.00  0.00     0.000 C 
BRANCH   2   3
ATOM      3  C   UNL     1      -7.108 -14.266  26.893  1.00  0.00     0.000 C 
BRANCH   3   4
ATOM      4  C   UNL     1      -8.247 -15.283  26.670  1.00  0.00     0.000 C 
BRANCH   4   5
ATOM      5  C   UNL     1      -9.536 -14.614  26.160  1.00  0.00     0.000 C 
BRANCH   5   6
ATOM      6  C   UNL     1     -10.794 -15.434  26.491  1.00  0.00     0.000 C 
BRANCH   6   7
ATOM      7  C   UNL     1     -10.690 -16.146  27.848  1.00  0.00     0.000 C 
BRANCH   7   8
ATOM      8  C   UNL     1     -11.936 -17.006  28.112  1.00  0.00     0.000 C 
BRANCH   8   9
ATOM      9  C   UNL     1     -11.590 -18.363  28.762  1.00  0.00     0.000 C 
BRANCH   9  10
ATOM     10  C   UNL     1     -11.114 -18.250  30.220  1.00  0.00     0.000 C 
BRANCH  10  11
ATOM     11  C   UNL     1     -12.112 -17.506  31.123  1.00  0.00     0.000 C 
BRANCH  11  12
ATOM     12  C   UNL     1     -12.851 -18.444  32.095  1.00  0.00     0.000 C 
BRANCH  12  13
ATOM     13  C   UNL     1     -12.007 -19.617  32.628  1.00  0.00     0.006 C 
BRANCH  13  14
ATOM     14  C   UNL     1     -12.461 -20.097  34.013  1.00  0.00     0.053 C 
BRANCH  14  15
ATOM     15  C   UNL     1     -13.320 -21.316  33.887  1.00  0.00     0.041 C 
ATOM     16  O   UNL     1     -13.105 -22.318  34.620  1.00  0.00    -0.550 OA
ATOM     17  O   UNL     1     -14.389 -21.327  33.003  1.00  0.00    -0.550 OA
ENDBRANCH  14  15
ENDBRANCH  13  14
ENDBRANCH  12  13
ENDBRANCH  11  12
ENDBRANCH  10  11
ENDBRANCH   9  10
ENDBRANCH   8   9
ENDBRANCH   7   8
ENDBRANCH   6   7
ENDBRANCH   5   6
ENDBRANCH   4   5
ENDBRANCH   3   4
ENDBRANCH   2   3
ENDBRANCH   1   2
BRANCH   1  18
ATOM     18  C   UNL     1      -6.517 -14.863  30.721  1.00  0.00     0.000 C 
BRANCH  18  19
ATOM     19  C   UNL     1      -6.838 -13.884  31.864  1.00  0.00     0.000 C 
BRANCH  19  20
ATOM     20  C   UNL     1      -5.609 -13.365  32.635  1.00  0.00     0.000 C 
BRANCH  20  21
ATOM     21  C   UNL     1      -5.326 -11.857  32.480  1.00  0.00     0.000 C 
BRANCH  21  22
ATOM     22  C   UNL     1      -5.715 -11.253  31.117  1.00  0.00     0.000 C 
BRANCH  22  23
ATOM     23  C   UNL     1      -4.495 -10.941  30.232  1.00  0.00     0.000 C 
BRANCH  23  24
ATOM     24  C   UNL     1      -3.388 -10.173  30.977  1.00  0.00    -0.000 C 
BRANCH  24  25
ATOM     25  C   UNL     1      -2.012 -10.863  30.996  1.00  0.00    -0.000 C 
BRANCH  25  26
ATOM     26  C   UNL     1      -1.604 -11.353  32.396  1.00  0.00    -0.000 C 
BRANCH  26  27
ATOM     27  C   UNL     1      -1.811 -12.875  32.587  1.00  0.00    -0.000 C 
BRANCH  27  28
ATOM     28  C   UNL     1      -1.541 -13.703  31.316  1.00  0.00    -0.000 C 
BRANCH  28  29
ATOM     29  C   UNL     1      -2.771 -14.449  30.769  1.00  0.00    -0.000 C 
BRANCH  29  30
ATOM     30  C   UNL     1      -3.126 -14.062  29.312  1.00  0.00    -0.000 C 
BRANCH  30  31
ATOM     31  C   UNL     1      -2.580 -15.041  28.261  1.00  0.00    -0.003 C 
ATOM     32  C   UNL     1      -2.649 -14.476  26.841  1.00  0.00     0.004 C 
ENDBRANCH  30  31
ENDBRANCH  29  30
ENDBRANCH  28  29
ENDBRANCH  27  28
ENDBRANCH  26  27
ENDBRANCH  25  26
ENDBRANCH  24  25
ENDBRANCH  23  24
ENDBRANCH  22  23
ENDBRANCH  21  22
ENDBRANCH  20  21
ENDBRANCH  19  20
ENDBRANCH  18  19
ENDBRANCH   1  18
TORSDOF 28
ENDMDL
MODEL 6
REMARK VINA RESULT:    -5.626      3.148      9.240
REMARK INTER + INTRA:         -18.693
REMARK INTER:                 -14.069
REMARK INTRA:                  -4.624
REMARK UNBOUND:                -3.858
REMARK SMILES CCCCCCCCCCCCCCCCCCCCCCCCCCCCCC(=O)[O-]
REMARK SMILES IDX 16 1 17 2 18 3 19 4 20 5 21 6 22 7 23 8 24 9 25 10 26 11
REMARK SMILES IDX 27 12 28 13 29 14 30 15 31 16 32 17 15 18 14 19 13 20 12 21
REMARK SMILES IDX 11 22 10 23 9 24 8 25 7 26 6 27 5 28 4 29 3 30 2 31 1 32
REMARK H PARENT
REMARK Flexibility Score: inf
ROOT
ATOM      1  C   UNL     1      -5.301 -13.389  32.670  1.00  0.00     0.000 C 
ENDROOT
BRANCH   1   2
ATOM      2  C   UNL     1      -6.687 -13.761  32.129  1.00  0.00     0.000 C 
BRANCH   2   3
ATOM      3  C   UNL     1      -6.630 -14.768  30.966  1.00  0.00     0.000 C 
BRANCH   3   4
ATOM      4  C   UNL     1      -5.328 -14.704  30.140  1.00  0.00     0.000 C 
BRANCH   4   5
ATOM      5  C   UNL     1      -5.501 -13.903  28.836  1.00  0.00     0.000 C 
BRANCH   5   6
ATOM      6  C   UNL     1      -5.919 -14.792  27.653  1.00  0.00     0.000 C 
BRANCH   6   7
ATOM      7  C   UNL     1      -7.119 -14.221  26.884  1.00  0.00     0.000 C 
BRANCH   7   8
ATOM      8  C   UNL     1      -8.293 -15.213  26.885  1.00  0.00     0.000 C 
BRANCH   8   9
ATOM      9  C   UNL     1      -9.530 -14.666  26.143  1.00  0.00     0.000 C 
BRANCH   9  10
ATOM     10  C   UNL     1     -10.846 -15.359  26.534  1.00  0.00     0.000 C 
BRANCH  10  11
ATOM     11  C   UNL     1     -10.705 -16.264  27.770  1.00  0.00     0.000 C 
BRANCH  11  12
ATOM     12  C   UNL     1     -12.054 -16.831  28.251  1.00  0.00     0.000 C 
BRANCH  12  13
ATOM     13  C   UNL     1     -11.963 -18.189  28.971  1.00  0.00     0.006 C 
BRANCH  13  14
ATOM     14  C   UNL     1     -10.522 -18.580  29.327  1.00  0.00     0.053 C 
BRANCH  14  15
ATOM     15  C   UNL     1     -10.341 -18.610  30.811  1.00  0.00     0.041 C 
ATOM     16  O   UNL     1      -9.230 -18.302  31.318  1.00  0.00    -0.550 OA
ATOM     17  O   UNL     1     -11.410 -18.926  31.638  1.00  0.00    -0.550 OA
ENDBRANCH  14  15
ENDBRANCH  13  14
ENDBRANCH  12  13
ENDBRANCH  11  12
ENDBRANCH  10  11
ENDBRANCH   9  10
ENDBRANCH   8   9
ENDBRANCH   7   8
ENDBRANCH   6   7
ENDBRANCH   5   6
ENDBRANCH   4   5
ENDBRANCH   3   4
ENDBRANCH   2   3
ENDBRANCH   1   2
BRANCH   1  18
ATOM     18  C   UNL     1      -5.070 -11.871  32.618  1.00  0.00     0.000 C 
BRANCH  18  19
ATOM     19  C   UNL     1      -6.028 -11.162  31.643  1.00  0.00     0.000 C 
BRANCH  19  20
ATOM     20  C   UNL     1      -5.366 -10.633  30.356  1.00  0.00     0.000 C 
BRANCH  20  21
ATOM     21  C   UNL     1      -3.882 -11.011  30.178  1.00  0.00     0.000 C 
BRANCH  21  22
ATOM     22  C   UNL     1      -2.984  -9.895  29.611  1.00  0.00     0.000 C 
BRANCH  22  23
ATOM     23  C   UNL     1      -1.784  -9.574  30.519  1.00  0.00     0.000 C 
BRANCH  23  24
ATOM     24  C   UNL     1      -2.199  -9.037  31.901  1.00  0.00    -0.000 C 
BRANCH  24  25
ATOM     25  C   UNL     1      -1.779  -9.912  33.096  1.00  0.00    -0.000 C 
BRANCH  25  26
ATOM     26  C   UNL     1      -0.321 -10.396  33.004  1.00  0.00    -0.000 C 
BRANCH  26  27
ATOM     27  C   UNL     1      -0.198 -11.938  32.980  1.00  0.00    -0.000 C 
BRANCH  27  28
ATOM     28  C   UNL     1      -1.554 -12.670  32.941  1.00  0.00    -0.000 C 
BRANCH  28  29
ATOM     29  C   UNL     1      -1.764 -13.554  31.697  1.00  0.00    -0.000 C 
BRANCH  29  30
ATOM     30  C   UNL     1      -0.499 -13.680  30.814  1.00  0.00    -0.000 C 
BRANCH  30  31
ATOM     31  C   UNL     1      -0.619 -12.969  29.456  1.00  0.00    -0.003 C 
ATOM     32  C   UNL     1      -1.793 -13.488  28.624  1.00  0.00     0.004 C 
ENDBRANCH  30  31
ENDBRANCH  29  30
ENDBRANCH  28  29
ENDBRANCH  27  28
ENDBRANCH  26  27
ENDBRANCH  25  26
ENDBRANCH  24  25
ENDBRANCH  23  24
ENDBRANCH  22  23
ENDBRANCH  21  22
ENDBRANCH  20  21
ENDBRANCH  19  20
ENDBRANCH  18  19
ENDBRANCH   1  18
TORSDOF 28
ENDMDL
MODEL 7
REMARK VINA RESULT:    -5.589      2.348      8.980
REMARK INTER + INTRA:         -18.596
REMARK INTER:                 -15.784
REMARK INTRA:                  -2.812
REMARK UNBOUND:                -3.858
REMARK SMILES CCCCCCCCCCCCCCCCCCCCCCCCCCCCCC(=O)[O-]
REMARK SMILES IDX 16 1 17 2 18 3 19 4 20 5 21 6 22 7 23 8 24 9 25 10 26 11
REMARK SMILES IDX 27 12 28 13 29 14 30 15 31 16 32 17 15 18 14 19 13 20 12 21
REMARK SMILES IDX 11 22 10 23 9 24 8 25 7 26 6 27 5 28 4 29 3 30 2 31 1 32
REMARK H PARENT
REMARK Flexibility Score: inf
ROOT
ATOM      1  C   UNL     1      -9.546 -16.721  30.755  1.00  0.00     0.000 C 
ENDROOT
BRANCH   1   2
ATOM      2  C   UNL     1      -9.830 -18.229  30.745  1.00  0.00     0.000 C 
BRANCH   2   3
ATOM      3  C   UNL     1     -11.311 -18.565  30.996  1.00  0.00     0.000 C 
BRANCH   3   4
ATOM      4  C   UNL     1     -12.191 -18.517  29.729  1.00  0.00     0.000 C 
BRANCH   4   5
ATOM      5  C   UNL     1     -13.160 -17.319  29.735  1.00  0.00     0.000 C 
BRANCH   5   6
ATOM      6  C   UNL     1     -12.690 -16.181  28.815  1.00  0.00     0.000 C 
BRANCH   6   7
ATOM      7  C   UNL     1     -11.858 -16.690  27.628  1.00  0.00     0.000 C 
BRANCH   7   8
ATOM      8  C   UNL     1     -10.513 -15.952  27.546  1.00  0.00     0.000 C 
BRANCH   8   9
ATOM      9  C   UNL     1     -10.348 -15.170  26.225  1.00  0.00     0.000 C 
BRANCH   9  10
ATOM     10  C   UNL     1      -9.089 -14.288  26.179  1.00  0.00     0.000 C 
BRANCH  10  11
ATOM     11  C   UNL     1      -8.091 -14.605  27.306  1.00  0.00     0.000 C 
BRANCH  11  12
ATOM     12  C   UNL     1      -6.623 -14.483  26.855  1.00  0.00     0.000 C 
BRANCH  12  13
ATOM     13  C   UNL     1      -5.584 -14.828  27.938  1.00  0.00     0.006 C 
BRANCH  13  14
ATOM     14  C   UNL     1      -4.426 -13.823  27.995  1.00  0.00     0.053 C 
BRANCH  14  15
ATOM     15  C   UNL     1      -3.157 -14.460  27.525  1.00  0.00     0.041 C 
ATOM     16  O   UNL     1      -2.232 -13.750  27.051  1.00  0.00    -0.550 OA
ATOM     17  O   UNL     1      -2.973 -15.829  27.659  1.00  0.00    -0.550 OA
ENDBRANCH  14  15
ENDBRANCH  13  14
ENDBRANCH  12  13
ENDBRANCH  11  12
ENDBRANCH  10  11
ENDBRANCH   9  10
ENDBRANCH   8   9
ENDBRANCH   7   8
ENDBRANCH   6   7
ENDBRANCH   5   6
ENDBRANCH   4   5
ENDBRANCH   3   4
ENDBRANCH   2   3
ENDBRANCH   1   2
BRANCH   1  18
ATOM     18  C   UNL     1      -8.232 -16.404  31.484  1.00  0.00     0.000 C 
BRANCH  18  19
ATOM     19  C   UNL     1      -7.564 -15.119  30.964  1.00  0.00     0.000 C 
BRANCH  19  20
ATOM     20  C   UNL     1      -6.654 -14.406  31.983  1.00  0.00     0.000 C 
BRANCH  20  21
ATOM     21  C   UNL     1      -6.691 -12.865  31.932  1.00  0.00     0.000 C 
BRANCH  21  22
ATOM     22  C   UNL     1      -6.091 -12.236  30.660  1.00  0.00     0.000 C 
BRANCH  22  23
ATOM     23  C   UNL     1      -5.334 -10.926  30.942  1.00  0.00     0.000 C 
BRANCH  23  24
ATOM     24  C   UNL     1      -3.825 -11.136  31.166  1.00  0.00    -0.000 C 
BRANCH  24  25
ATOM     25  C   UNL     1      -3.428 -11.550  32.595  1.00  0.00    -0.000 C 
BRANCH  25  26
ATOM     26  C   UNL     1      -2.252 -12.543  32.629  1.00  0.00    -0.000 C 
BRANCH  26  27
ATOM     27  C   UNL     1      -0.912 -11.878  33.021  1.00  0.00    -0.000 C 
BRANCH  27  28
ATOM     28  C   UNL     1       0.313 -12.797  32.850  1.00  0.00    -0.000 C 
BRANCH  28  29
ATOM     29  C   UNL     1       0.122 -14.220  33.405  1.00  0.00    -0.000 C 
BRANCH  29  30
ATOM     30  C   UNL     1       1.056 -14.545  34.596  1.00  0.00    -0.000 C 
BRANCH  30  31
ATOM     31  C   UNL     1       0.324 -14.664  35.942  1.00  0.00    -0.003 C 
ATOM     32  C   UNL     1       1.229 -14.338  37.132  1.00  0.00     0.004 C 
ENDBRANCH  30  31
ENDBRANCH  29  30
ENDBRANCH  28  29
ENDBRANCH  27  28
ENDBRANCH  26  27
ENDBRANCH  25  26
ENDBRANCH  24  25
ENDBRANCH  23  24
ENDBRANCH  22  23
ENDBRANCH  21  22
ENDBRANCH  20  21
ENDBRANCH  19  20
ENDBRANCH  18  19
ENDBRANCH   1  18
TORSDOF 28
ENDMDL
MODEL 8
REMARK VINA RESULT:    -5.532      2.726      8.834
REMARK INTER + INTRA:         -18.444
REMARK INTER:                 -14.522
REMARK INTRA:                  -3.922
REMARK UNBOUND:                -3.858
REMARK SMILES CCCCCCCCCCCCCCCCCCCCCCCCCCCCCC(=O)[O-]
REMARK SMILES IDX 16 1 17 2 18 3 19 4 20 5 21 6 22 7 23 8 24 9 25 10 26 11
REMARK SMILES IDX 27 12 28 13 29 14 30 15 31 16 32 17 15 18 14 19 13 20 12 21
REMARK SMILES IDX 11 22 10 23 9 24 8 25 7 26 6 27 5 28 4 29 3 30 2 31 1 32
REMARK H PARENT
REMARK Flexibility Score: inf
ROOT
ATOM      1  C   UNL     1      -6.009 -14.446  31.208  1.00  0.00     0.000 C 
ENDROOT
BRANCH   1   2
ATOM      2  C   UNL     1      -7.440 -14.858  30.839  1.00  0.00     0.000 C 
BRANCH   2   3
ATOM      3  C   UNL     1      -7.690 -14.876  29.321  1.00  0.00     0.000 C 
BRANCH   3   4
ATOM      4  C   UNL     1      -6.674 -14.049  28.505  1.00  0.00     0.000 C 
BRANCH   4   5
ATOM      5  C   UNL     1      -6.798 -14.300  26.991  1.00  0.00     0.000 C 
BRANCH   5   6
ATOM      6  C   UNL     1      -8.007 -15.183  26.639  1.00  0.00     0.000 C 
BRANCH   6   7
ATOM      7  C   UNL     1      -9.201 -14.366  26.122  1.00  0.00     0.000 C 
BRANCH   7   8
ATOM      8  C   UNL     1     -10.488 -15.205  26.144  1.00  0.00     0.000 C 
BRANCH   8   9
ATOM      9  C   UNL     1     -10.790 -15.788  27.541  1.00  0.00     0.000 C 
BRANCH   9  10
ATOM     10  C   UNL     1     -12.007 -16.727  27.573  1.00  0.00     0.000 C 
BRANCH  10  11
ATOM     11  C   UNL     1     -13.135 -16.220  28.487  1.00  0.00     0.000 C 
BRANCH  11  12
ATOM     12  C   UNL     1     -13.457 -17.195  29.634  1.00  0.00     0.000 C 
BRANCH  12  13
ATOM     13  C   UNL     1     -12.459 -17.166  30.806  1.00  0.00     0.006 C 
BRANCH  13  14
ATOM     14  C   UNL     1     -11.842 -18.540  31.098  1.00  0.00     0.053 C 
BRANCH  14  15
ATOM     15  C   UNL     1     -10.354 -18.486  30.954  1.00  0.00     0.041 C 
ATOM     16  O   UNL     1      -9.640 -19.407  31.431  1.00  0.00    -0.550 OA
ATOM     17  O   UNL     1      -9.759 -17.449  30.249  1.00  0.00    -0.550 OA
ENDBRANCH  14  15
ENDBRANCH  13  14
ENDBRANCH  12  13
ENDBRANCH  11  12
ENDBRANCH  10  11
ENDBRANCH   9  10
ENDBRANCH   8   9
ENDBRANCH   7   8
ENDBRANCH   6   7
ENDBRANCH   5   6
ENDBRANCH   4   5
ENDBRANCH   3   4
ENDBRANCH   2   3
ENDBRANCH   1   2
BRANCH   1  18
ATOM     18  C   UNL     1      -5.991 -13.530  32.441  1.00  0.00     0.000 C 
BRANCH  18  19
ATOM     19  C   UNL     1      -5.969 -12.037  32.067  1.00  0.00     0.000 C 
BRANCH  19  20
ATOM     20  C   UNL     1      -5.053 -11.682  30.880  1.00  0.00     0.000 C 
BRANCH  20  21
ATOM     21  C   UNL     1      -3.736 -10.973  31.256  1.00  0.00     0.000 C 
BRANCH  21  22
ATOM     22  C   UNL     1      -3.296 -11.141  32.723  1.00  0.00     0.000 C 
BRANCH  22  23
ATOM     23  C   UNL     1      -2.348 -12.336  32.929  1.00  0.00     0.000 C 
BRANCH  23  24
ATOM     24  C   UNL     1      -1.344 -12.517  31.777  1.00  0.00    -0.000 C 
BRANCH  24  25
ATOM     25  C   UNL     1      -1.228 -13.950  31.227  1.00  0.00    -0.000 C 
BRANCH  25  26
ATOM     26  C   UNL     1      -2.582 -14.538  30.792  1.00  0.00    -0.000 C 
BRANCH  26  27
ATOM     27  C   UNL     1      -2.630 -14.890  29.286  1.00  0.00    -0.000 C 
BRANCH  27  28
ATOM     28  C   UNL     1      -3.088 -13.724  28.389  1.00  0.00    -0.000 C 
BRANCH  28  29
ATOM     29  C   UNL     1      -2.566 -13.792  26.942  1.00  0.00    -0.000 C 
BRANCH  29  30
ATOM     30  C   UNL     1      -1.111 -14.312  26.839  1.00  0.00    -0.000 C 
BRANCH  30  31
ATOM     31  C   UNL     1      -0.927 -15.432  25.802  1.00  0.00    -0.003 C 
ATOM     32  C   UNL     1      -1.434 -16.785  26.304  1.00  0.00     0.004 C 
ENDBRANCH  30  31
ENDBRANCH  29  30
ENDBRANCH  28  29
ENDBRANCH  27  28
ENDBRANCH  26  27
ENDBRANCH  25  26
ENDBRANCH  24  25
ENDBRANCH  23  24
ENDBRANCH  22  23
ENDBRANCH  21  22
ENDBRANCH  20  21
ENDBRANCH  19  20
ENDBRANCH  18  19
ENDBRANCH   1  18
TORSDOF 28
ENDMDL
MODEL 9
REMARK VINA RESULT:    -5.520      4.218     10.135
REMARK INTER + INTRA:         -18.414
REMARK INTER:                 -15.071
REMARK INTRA:                  -3.342
REMARK UNBOUND:                -3.858
REMARK SMILES CCCCCCCCCCCCCCCCCCCCCCCCCCCCCC(=O)[O-]
REMARK SMILES IDX 16 1 17 2 18 3 19 4 20 5 21 6 22 7 23 8 24 9 25 10 26 11
REMARK SMILES IDX 27 12 28 13 29 14 30 15 31 16 32 17 15 18 14 19 13 20 12 21
REMARK SMILES IDX 11 22 10 23 9 24 8 25 7 26 6 27 5 28 4 29 3 30 2 31 1 32
REMARK H PARENT
REMARK Flexibility Score: inf
ROOT
ATOM      1  C   UNL     1      -7.228 -14.491  29.485  1.00  0.00     0.000 C 
ENDROOT
BRANCH   1   2
ATOM      2  C   UNL     1      -6.173 -14.451  28.372  1.00  0.00     0.000 C 
BRANCH   2   3
ATOM      3  C   UNL     1      -6.782 -14.283  26.969  1.00  0.00     0.000 C 
BRANCH   3   4
ATOM      4  C   UNL     1      -7.946 -15.250  26.667  1.00  0.00     0.000 C 
BRANCH   4   5
ATOM      5  C   UNL     1      -9.180 -14.521  26.103  1.00  0.00     0.000 C 
BRANCH   5   6
ATOM      6  C   UNL     1     -10.492 -15.257  26.419  1.00  0.00     0.000 C 
BRANCH   6   7
ATOM      7  C   UNL     1     -10.431 -16.021  27.750  1.00  0.00     0.000 C 
BRANCH   7   8
ATOM      8  C   UNL     1     -11.779 -16.690  28.060  1.00  0.00     0.000 C 
BRANCH   8   9
ATOM      9  C   UNL     1     -11.619 -18.150  28.538  1.00  0.00     0.000 C 
BRANCH   9  10
ATOM     10  C   UNL     1     -10.927 -18.283  29.905  1.00  0.00     0.000 C 
BRANCH  10  11
ATOM     11  C   UNL     1     -11.623 -17.474  31.012  1.00  0.00     0.000 C 
BRANCH  11  12
ATOM     12  C   UNL     1     -12.743 -18.263  31.715  1.00  0.00     0.000 C 
BRANCH  12  13
ATOM     13  C   UNL     1     -12.256 -19.429  32.596  1.00  0.00     0.006 C 
BRANCH  13  14
ATOM     14  C   UNL     1     -13.399 -20.337  33.067  1.00  0.00     0.053 C 
BRANCH  14  15
ATOM     15  C   UNL     1     -12.917 -21.279  34.125  1.00  0.00     0.041 C 
ATOM     16  O   UNL     1     -11.691 -21.339  34.406  1.00  0.00    -0.550 OA
ATOM     17  O   UNL     1     -13.825 -22.050  34.837  1.00  0.00    -0.550 OA
ENDBRANCH  14  15
ENDBRANCH  13  14
ENDBRANCH  12  13
ENDBRANCH  11  12
ENDBRANCH  10  11
ENDBRANCH   9  10
ENDBRANCH   8   9
ENDBRANCH   7   8
ENDBRANCH   6   7
ENDBRANCH   5   6
ENDBRANCH   4   5
ENDBRANCH   3   4
ENDBRANCH   2   3
ENDBRANCH   1   2
BRANCH   1  18
ATOM     18  C   UNL     1      -6.626 -14.982  30.810  1.00  0.00     0.000 C 
BRANCH  18  19
ATOM     19  C   UNL     1      -6.750 -13.940  31.936  1.00  0.00     0.000 C 
BRANCH  19  20
ATOM     20  C   UNL     1      -5.413 -13.522  32.580  1.00  0.00     0.000 C 
BRANCH  20  21
ATOM     21  C   UNL     1      -5.010 -12.050  32.359  1.00  0.00     0.000 C 
BRANCH  21  22
ATOM     22  C   UNL     1      -5.986 -11.224  31.500  1.00  0.00     0.000 C 
BRANCH  22  23
ATOM     23  C   UNL     1      -5.549 -11.124  30.028  1.00  0.00     0.000 C 
BRANCH  23  24
ATOM     24  C   UNL     1      -4.019 -11.092  29.853  1.00  0.00    -0.000 C 
BRANCH  24  25
ATOM     25  C   UNL     1      -3.430 -12.251  29.030  1.00  0.00    -0.000 C 
BRANCH  25  26
ATOM     26  C   UNL     1      -2.408 -13.090  29.817  1.00  0.00    -0.000 C 
BRANCH  26  27
ATOM     27  C   UNL     1      -0.949 -12.839  29.368  1.00  0.00    -0.000 C 
BRANCH  27  28
ATOM     28  C   UNL     1      -0.046 -12.267  30.478  1.00  0.00    -0.000 C 
BRANCH  28  29
ATOM     29  C   UNL     1      -0.680 -11.120  31.285  1.00  0.00    -0.000 C 
BRANCH  29  30
ATOM     30  C   UNL     1      -0.682 -11.372  32.812  1.00  0.00    -0.000 C 
BRANCH  30  31
ATOM     31  C   UNL     1      -1.372 -12.683  33.223  1.00  0.00    -0.003 C 
ATOM     32  C   UNL     1      -0.390 -13.708  33.793  1.00  0.00     0.004 C 
ENDBRANCH  30  31
ENDBRANCH  29  30
ENDBRANCH  28  29
ENDBRANCH  27  28
ENDBRANCH  26  27
ENDBRANCH  25  26
ENDBRANCH  24  25
ENDBRANCH  23  24
ENDBRANCH  22  23
ENDBRANCH  21  22
ENDBRANCH  20  21
ENDBRANCH  19  20
ENDBRANCH  18  19
ENDBRANCH   1  18
TORSDOF 28
ENDMDL
