MODEL 1
REMARK VINA RESULT:    -4.908      0.000      0.000
REMARK INTER + INTRA:         -14.793
REMARK INTER:                 -11.219
REMARK INTRA:                  -3.573
REMARK UNBOUND:                -3.573
REMARK SMILES CCCCCCCCCCCCCCCCCCCCCCCC(=O)[O-]
REMARK SMILES IDX 13 1 14 2 15 3 16 4 17 5 18 6 19 7 20 8 21 9 22 10 23 11
REMARK SMILES IDX 24 12 25 13 26 14 12 15 11 16 10 17 9 18 8 19 7 20 6 21 5 22
REMARK SMILES IDX 4 23 3 24 2 25 1 26
REMARK H PARENT
REMARK Flexibility Score: inf
ROOT
ATOM      1  C   UNL     1       7.940   9.825 -10.475  1.00  0.00     0.000 C 
ENDROOT
BRANCH   1   2
ATOM      2  C   UNL     1       8.692  11.022  -9.870  1.00  0.00     0.000 C 
BRANCH   2   3
ATOM      3  C   UNL     1       9.035  12.103 -10.907  1.00  0.00     0.000 C 
BRANCH   3   4
ATOM      4  C   UNL     1       7.821  13.002 -11.180  1.00  0.00     0.000 C 
BRANCH   4   5
ATOM      5  C   UNL     1       8.002  13.882 -12.429  1.00  0.00     0.000 C 
BRANCH   5   6
ATOM      6  C   UNL     1       6.880  13.682 -13.463  1.00  0.00     0.000 C 
BRANCH   6   7
ATOM      7  C   UNL     1       5.752  12.809 -12.891  1.00  0.00     0.000 C 
BRANCH   7   8
ATOM      8  C   UNL     1       4.366  13.195 -13.450  1.00  0.00     0.000 C 
BRANCH   8   9
ATOM      9  C   UNL     1       3.323  12.069 -13.358  1.00  0.00     0.000 C 
BRANCH   9  10
ATOM     10  C   UNL     1       2.181  12.222 -14.373  1.00  0.00     0.006 C 
BRANCH  10  11
ATOM     11  C   UNL     1       1.299  10.968 -14.401  1.00  0.00     0.053 C 
BRANCH  11  12
ATOM     12  C   UNL     1       1.393  10.274 -15.722  1.00  0.00     0.041 C 
ATOM     13  O   UNL     1       1.914  10.860 -16.710  1.00  0.00    -0.550 OA
ATOM     14  O   UNL     1       0.873   8.990 -15.879  1.00  0.00    -0.550 OA
ENDBRANCH  11  12
ENDBRANCH  10  11
ENDBRANCH   9  10
ENDBRANCH   8   9
ENDBRANCH   7   8
ENDBRANCH   6   7
ENDBRANCH   5   6
ENDBRANCH   4   5
ENDBRANCH   3   4
ENDBRANCH   2   3
ENDBRANCH   1   2
BRANCH   1  15
ATOM     15  C   UNL     1       8.569   9.342 -11.794  1.00  0.00     0.000 C 
BRANCH  15  16
ATOM     16  C   UNL     1       7.534   8.754 -12.772  1.00  0.00     0.000 C 
BRANCH  16  17
ATOM     17  C   UNL     1       6.622   9.785 -13.470  1.00  0.00     0.000 C 
BRANCH  17  18
ATOM     18  C   UNL     1       6.494   9.631 -14.996  1.00  0.00    -0.000 C 
BRANCH  18  19
ATOM     19  C   UNL     1       5.161  10.169 -15.546  1.00  0.00    -0.000 C 
BRANCH  19  20
ATOM     20  C   UNL     1       5.327  11.487 -16.326  1.00  0.00    -0.000 C 
BRANCH  20  21
ATOM     21  C   UNL     1       6.785  11.919 -16.583  1.00  0.00    -0.000 C 
BRANCH  21  22
ATOM     22  C   UNL     1       6.948  13.307 -17.228  1.00  0.00    -0.000 C 
BRANCH  22  23
ATOM     23  C   UNL     1       5.598  13.965 -17.569  1.00  0.00    -0.000 C 
BRANCH  23  24
ATOM     24  C   UNL     1       5.178  15.024 -16.536  1.00  0.00    -0.000 C 
BRANCH  24  25
ATOM     25  C   UNL     1       3.770  15.580 -16.799  1.00  0.00    -0.003 C 
ATOM     26  C   UNL     1       2.766  14.449 -17.012  1.00  0.00     0.004 C 
ENDBRANCH  24  25
ENDBRANCH  23  24
ENDBRANCH  22  23
ENDBRANCH  21  22
ENDBRANCH  20  21
ENDBRANCH  19  20
ENDBRANCH  18  19
ENDBRANCH  17  18
ENDBRANCH  16  17
ENDBRANCH  15  16
ENDBRANCH   1  15
TORSDOF 22
ENDMDL
MODEL 2
REMARK VINA RESULT:    -4.770      2.951      7.141
REMARK INTER + INTRA:         -14.477
REMARK INTER:                 -10.624
REMARK INTRA:                  -3.853
REMARK UNBOUND:                -3.573
REMARK SMILES CCCCCCCCCCCCCCCCCCCCCCCC(=O)[O-]
REMARK SMILES IDX 13 1 14 2 15 3 16 4 17 5 18 6 19 7 20 8 21 9 22 10 23 11
REMARK SMILES IDX 24 12 25 13 26 14 12 15 11 16 10 17 9 18 8 19 7 20 6 21 5 22
REMARK SMILES IDX 4 23 3 24 2 25 1 26
REMARK H PARENT
REMARK Flexibility Score: inf
ROOT
ATOM      1  C   UNL     1       3.732  15.888 -16.638  1.00  0.00     0.000 C 
ENDROOT
BRANCH   1   2
ATOM      2  C   UNL     1       5.004  15.024 -16.597  1.00  0.00     0.000 C 
BRANCH   2   3
ATOM      3  C   UNL     1       4.964  13.848 -17.585  1.00  0.00     0.000 C 
BRANCH   3   4
ATOM      4  C   UNL     1       6.348  13.197 -17.714  1.00  0.00     0.000 C 
BRANCH   4   5
ATOM      5  C   UNL     1       6.632  12.177 -16.598  1.00  0.00     0.000 C 
BRANCH   5   6
ATOM      6  C   UNL     1       5.390  11.349 -16.223  1.00  0.00     0.000 C 
BRANCH   6   7
ATOM      7  C   UNL     1       5.742  10.258 -15.199  1.00  0.00     0.000 C 
BRANCH   7   8
ATOM      8  C   UNL     1       5.771  10.796 -13.752  1.00  0.00     0.000 C 
BRANCH   8   9
ATOM      9  C   UNL     1       4.898  12.044 -13.536  1.00  0.00     0.000 C 
BRANCH   9  10
ATOM     10  C   UNL     1       5.618  13.153 -12.754  1.00  0.00     0.006 C 
BRANCH  10  11
ATOM     11  C   UNL     1       7.138  13.042 -12.918  1.00  0.00     0.053 C 
BRANCH  11  12
ATOM     12  C   UNL     1       7.837  13.266 -11.614  1.00  0.00     0.041 C 
ATOM     13  O   UNL     1       8.308  14.402 -11.336  1.00  0.00    -0.550 OA
ATOM     14  O   UNL     1       8.004  12.211 -10.717  1.00  0.00    -0.550 OA
ENDBRANCH  11  12
ENDBRANCH  10  11
ENDBRANCH   9  10
ENDBRANCH   8   9
ENDBRANCH   7   8
ENDBRANCH   6   7
ENDBRANCH   5   6
ENDBRANCH   4   5
ENDBRANCH   3   4
ENDBRANCH   2   3
ENDBRANCH   1   2
BRANCH   1  15
ATOM     15  C   UNL     1       3.150  16.012 -18.057  1.00  0.00     0.000 C 
BRANCH  15  16
ATOM     16  C   UNL     1       1.803  16.758 -18.092  1.00  0.00     0.000 C 
BRANCH  16  17
ATOM     17  C   UNL     1       0.549  15.860 -18.102  1.00  0.00     0.000 C 
BRANCH  17  18
ATOM     18  C   UNL     1       0.019  15.446 -16.717  1.00  0.00    -0.000 C 
BRANCH  18  19
ATOM     19  C   UNL     1      -0.235  13.932 -16.597  1.00  0.00    -0.000 C 
BRANCH  19  20
ATOM     20  C   UNL     1       1.036  13.094 -16.835  1.00  0.00    -0.000 C 
BRANCH  20  21
ATOM     21  C   UNL     1       1.922  12.880 -15.591  1.00  0.00    -0.000 C 
BRANCH  21  22
ATOM     22  C   UNL     1       1.155  12.552 -14.296  1.00  0.00    -0.000 C 
BRANCH  22  23
ATOM     23  C   UNL     1       1.235  11.061 -13.920  1.00  0.00    -0.000 C 
BRANCH  23  24
ATOM     24  C   UNL     1       2.005  10.229 -14.959  1.00  0.00    -0.000 C 
BRANCH  24  25
ATOM     25  C   UNL     1       1.075   9.408 -15.866  1.00  0.00    -0.003 C 
ATOM     26  C   UNL     1       1.627   9.328 -17.288  1.00  0.00     0.004 C 
ENDBRANCH  24  25
ENDBRANCH  23  24
ENDBRANCH  22  23
ENDBRANCH  21  22
ENDBRANCH  20  21
ENDBRANCH  19  20
ENDBRANCH  18  19
ENDBRANCH  17  18
ENDBRANCH  16  17
ENDBRANCH  15  16
ENDBRANCH   1  15
TORSDOF 22
ENDMDL
MODEL 3
REMARK VINA RESULT:    -4.672     12.790     17.102
REMARK INTER + INTRA:         -14.255
REMARK INTER:                 -12.089
REMARK INTRA:                  -2.166
REMARK UNBOUND:                -3.573
REMARK SMILES CCCCCCCCCCCCCCCCCCCCCCCC(=O)[O-]
REMARK SMILES IDX 13 1 14 2 15 3 16 4 17 5 18 6 19 7 20 8 21 9 22 10 23 11
REMARK SMILES IDX 24 12 25 13 26 14 12 15 11 16 10 17 9 18 8 19 7 20 6 21 5 22
REMARK SMILES IDX 4 23 3 24 2 25 1 26
REMARK H PARENT
REMARK Flexibility Score: inf
ROOT
ATOM      1  C   UNL     1      -8.303   6.853  -9.480  1.00  0.00     0.000 C 
ENDROOT
BRANCH   1   2
ATOM      2  C   UNL     1      -6.981   7.628  -9.605  1.00  0.00     0.000 C 
BRANCH   2   3
ATOM      3  C   UNL     1      -6.629   7.985 -11.057  1.00  0.00     0.000 C 
BRANCH   3   4
ATOM      4  C   UNL     1      -7.043   9.428 -11.380  1.00  0.00     0.000 C 
BRANCH   4   5
ATOM      5  C   UNL     1      -8.247   9.902 -10.549  1.00  0.00     0.000 C 
BRANCH   5   6
ATOM      6  C   UNL     1      -8.039  11.305  -9.952  1.00  0.00     0.000 C 
BRANCH   6   7
ATOM      7  C   UNL     1      -7.030  11.269  -8.793  1.00  0.00     0.000 C 
BRANCH   7   8
ATOM      8  C   UNL     1      -5.606  11.664  -9.240  1.00  0.00     0.000 C 
BRANCH   8   9
ATOM      9  C   UNL     1      -4.542  10.594  -8.938  1.00  0.00     0.000 C 
BRANCH   9  10
ATOM     10  C   UNL     1      -4.876   9.745  -7.702  1.00  0.00     0.006 C 
BRANCH  10  11
ATOM     11  C   UNL     1      -3.600   9.205  -7.046  1.00  0.00     0.053 C 
BRANCH  11  12
ATOM     12  C   UNL     1      -3.513   7.718  -7.185  1.00  0.00     0.041 C 
ATOM     13  O   UNL     1      -4.203   7.122  -8.055  1.00  0.00    -0.550 OA
ATOM     14  O   UNL     1      -2.697   6.980  -6.329  1.00  0.00    -0.550 OA
ENDBRANCH  11  12
ENDBRANCH  10  11
ENDBRANCH   9  10
ENDBRANCH   8   9
ENDBRANCH   7   8
ENDBRANCH   6   7
ENDBRANCH   5   6
ENDBRANCH   4   5
ENDBRANCH   3   4
ENDBRANCH   2   3
ENDBRANCH   1   2
BRANCH   1  15
ATOM     15  C   UNL     1      -8.085   5.372  -9.118  1.00  0.00     0.000 C 
BRANCH  15  16
ATOM     16  C   UNL     1      -9.394   4.641  -8.767  1.00  0.00     0.000 C 
BRANCH  16  17
ATOM     17  C   UNL     1     -10.639   5.541  -8.625  1.00  0.00     0.000 C 
BRANCH  17  18
ATOM     18  C   UNL     1     -11.081   5.839  -7.181  1.00  0.00    -0.000 C 
BRANCH  18  19
ATOM     19  C   UNL     1      -9.899   6.105  -6.232  1.00  0.00    -0.000 C 
BRANCH  19  20
ATOM     20  C   UNL     1      -9.961   5.256  -4.949  1.00  0.00    -0.000 C 
BRANCH  20  21
ATOM     21  C   UNL     1     -10.989   4.106  -4.972  1.00  0.00    -0.000 C 
BRANCH  21  22
ATOM     22  C   UNL     1     -10.386   2.694  -4.854  1.00  0.00    -0.000 C 
BRANCH  22  23
ATOM     23  C   UNL     1     -10.514   1.883  -6.156  1.00  0.00    -0.000 C 
BRANCH  23  24
ATOM     24  C   UNL     1      -9.798   0.524  -6.080  1.00  0.00    -0.000 C 
BRANCH  24  25
ATOM     25  C   UNL     1      -9.623  -0.130  -7.458  1.00  0.00    -0.003 C 
ATOM     26  C   UNL     1      -9.371   0.922  -8.537  1.00  0.00     0.004 C 
ENDBRANCH  24  25
ENDBRANCH  23  24
ENDBRANCH  22  23
ENDBRANCH  21  22
ENDBRANCH  20  21
ENDBRANCH  19  20
ENDBRANCH  18  19
ENDBRANCH  17  18
ENDBRANCH  16  17
ENDBRANCH  15  16
ENDBRANCH   1  15
TORSDOF 22
ENDMDL
MODEL 4
REMARK VINA RESULT:    -4.587     12.741     16.897
REMARK INTER + INTRA:         -14.060
REMARK INTER:                 -11.383
REMARK INTRA:                  -2.677
REMARK UNBOUND:                -3.573
REMARK SMILES CCCCCCCCCCCCCCCCCCCCCCCC(=O)[O-]
REMARK SMILES IDX 13 1 14 2 15 3 16 4 17 5 18 6 19 7 20 8 21 9 22 10 23 11
REMARK SMILES IDX 24 12 25 13 26 14 12 15 11 16 10 17 9 18 8 19 7 20 6 21 5 22
REMARK SMILES IDX 4 23 3 24 2 25 1 26
REMARK H PARENT
REMARK Flexibility Score: inf
ROOT
ATOM      1  C   UNL     1      -8.004   7.344  -8.873  1.00  0.00     0.000 C 
ENDROOT
BRANCH   1   2
ATOM      2  C   UNL     1      -6.683   7.022  -9.590  1.00  0.00     0.000 C 
BRANCH   2   3
ATOM      3  C   UNL     1      -6.610   7.608 -11.009  1.00  0.00     0.000 C 
BRANCH   3   4
ATOM      4  C   UNL     1      -6.480   9.137 -10.961  1.00  0.00     0.000 C 
BRANCH   4   5
ATOM      5  C   UNL     1      -7.842   9.852 -10.982  1.00  0.00     0.000 C 
BRANCH   5   6
ATOM      6  C   UNL     1      -7.958  10.937  -9.897  1.00  0.00     0.000 C 
BRANCH   6   7
ATOM      7  C   UNL     1      -6.578  11.515  -9.544  1.00  0.00     0.000 C 
BRANCH   7   8
ATOM      8  C   UNL     1      -6.178  11.237  -8.079  1.00  0.00     0.000 C 
BRANCH   8   9
ATOM      9  C   UNL     1      -4.813  10.544  -7.929  1.00  0.00     0.000 C 
BRANCH   9  10
ATOM     10  C   UNL     1      -4.921   9.120  -7.365  1.00  0.00     0.006 C 
BRANCH  10  11
ATOM     11  C   UNL     1      -3.652   8.313  -7.666  1.00  0.00     0.053 C 
BRANCH  11  12
ATOM     12  C   UNL     1      -3.641   7.025  -6.907  1.00  0.00     0.041 C 
ATOM     13  O   UNL     1      -2.606   6.669  -6.279  1.00  0.00    -0.550 OA
ATOM     14  O   UNL     1      -4.760   6.193  -6.919  1.00  0.00    -0.550 OA
ENDBRANCH  11  12
ENDBRANCH  10  11
ENDBRANCH   9  10
ENDBRANCH   8   9
ENDBRANCH   7   8
ENDBRANCH   6   7
ENDBRANCH   5   6
ENDBRANCH   4   5
ENDBRANCH   3   4
ENDBRANCH   2   3
ENDBRANCH   1   2
BRANCH   1  15
ATOM     15  C   UNL     1      -9.160   6.437  -9.333  1.00  0.00     0.000 C 
BRANCH  15  16
ATOM     16  C   UNL     1      -8.886   4.942  -9.084  1.00  0.00     0.000 C 
BRANCH  16  17
ATOM     17  C   UNL     1     -10.108   4.012  -9.226  1.00  0.00     0.000 C 
BRANCH  17  18
ATOM     18  C   UNL     1      -9.787   2.533  -9.510  1.00  0.00    -0.000 C 
BRANCH  18  19
ATOM     19  C   UNL     1     -10.510   1.566  -8.557  1.00  0.00    -0.000 C 
BRANCH  19  20
ATOM     20  C   UNL     1      -9.575   0.974  -7.485  1.00  0.00    -0.000 C 
BRANCH  20  21
ATOM     21  C   UNL     1     -10.014   1.214  -6.027  1.00  0.00    -0.000 C 
BRANCH  21  22
ATOM     22  C   UNL     1     -10.878   2.469  -5.807  1.00  0.00    -0.000 C 
BRANCH  22  23
ATOM     23  C   UNL     1     -10.370   3.344  -4.647  1.00  0.00    -0.000 C 
BRANCH  23  24
ATOM     24  C   UNL     1     -10.800   4.815  -4.782  1.00  0.00    -0.000 C 
BRANCH  24  25
ATOM     25  C   UNL     1      -9.925   5.598  -5.772  1.00  0.00    -0.003 C 
ATOM     26  C   UNL     1      -8.799   6.333  -5.046  1.00  0.00     0.004 C 
ENDBRANCH  24  25
ENDBRANCH  23  24
ENDBRANCH  22  23
ENDBRANCH  21  22
ENDBRANCH  20  21
ENDBRANCH  19  20
ENDBRANCH  18  19
ENDBRANCH  17  18
ENDBRANCH  16  17
ENDBRANCH  15  16
ENDBRANCH   1  15
TORSDOF 22
ENDMDL
MODEL 5
REMARK VINA RESULT:    -4.351     12.603     16.632
REMARK INTER + INTRA:         -13.520
REMARK INTER:                 -10.763
REMARK INTRA:                  -2.757
REMARK UNBOUND:                -3.573
REMARK SMILES CCCCCCCCCCCCCCCCCCCCCCCC(=O)[O-]
REMARK SMILES IDX 13 1 14 2 15 3 16 4 17 5 18 6 19 7 20 8 21 9 22 10 23 11
REMARK SMILES IDX 24 12 25 13 26 14 12 15 11 16 10 17 9 18 8 19 7 20 6 21 5 22
REMARK SMILES IDX 4 23 3 24 2 25 1 26
REMARK H PARENT
REMARK Flexibility Score: inf
ROOT
ATOM      1  C   UNL     1      -7.358   5.817  -8.943  1.00  0.00     0.000 C 
ENDROOT
BRANCH   1   2
ATOM      2  C   UNL     1      -6.068   5.835  -8.107  1.00  0.00     0.000 C 
BRANCH   2   3
ATOM      3  C   UNL     1      -5.670   7.246  -7.647  1.00  0.00     0.000 C 
BRANCH   3   4
ATOM      4  C   UNL     1      -4.302   7.642  -8.221  1.00  0.00     0.000 C 
BRANCH   4   5
ATOM      5  C   UNL     1      -3.839   9.031  -7.750  1.00  0.00     0.000 C 
BRANCH   5   6
ATOM      6  C   UNL     1      -4.947  10.093  -7.859  1.00  0.00     0.000 C 
BRANCH   6   7
ATOM      7  C   UNL     1      -4.779  10.937  -9.133  1.00  0.00     0.000 C 
BRANCH   7   8
ATOM      8  C   UNL     1      -5.826  12.067  -9.233  1.00  0.00     0.000 C 
BRANCH   8   9
ATOM      9  C   UNL     1      -7.248  11.634  -8.839  1.00  0.00     0.000 C 
BRANCH   9  10
ATOM     10  C   UNL     1      -8.044  11.044 -10.012  1.00  0.00     0.006 C 
BRANCH  10  11
ATOM     11  C   UNL     1      -7.954   9.513 -10.022  1.00  0.00     0.053 C 
BRANCH  11  12
ATOM     12  C   UNL     1      -7.121   9.031 -11.168  1.00  0.00     0.041 C 
ATOM     13  O   UNL     1      -7.260   9.544 -12.311  1.00  0.00    -0.550 OA
ATOM     14  O   UNL     1      -6.214   7.988 -10.985  1.00  0.00    -0.550 OA
ENDBRANCH  11  12
ENDBRANCH  10  11
ENDBRANCH   9  10
ENDBRANCH   8   9
ENDBRANCH   7   8
ENDBRANCH   6   7
ENDBRANCH   5   6
ENDBRANCH   4   5
ENDBRANCH   3   4
ENDBRANCH   2   3
ENDBRANCH   1   2
BRANCH   1  15
ATOM     15  C   UNL     1      -7.894   4.392  -9.169  1.00  0.00     0.000 C 
BRANCH  15  16
ATOM     16  C   UNL     1      -9.403   4.358  -9.472  1.00  0.00     0.000 C 
BRANCH  16  17
ATOM     17  C   UNL     1     -10.140   5.705  -9.321  1.00  0.00     0.000 C 
BRANCH  17  18
ATOM     18  C   UNL     1     -11.125   5.793  -8.141  1.00  0.00    -0.000 C 
BRANCH  18  19
ATOM     19  C   UNL     1     -10.503   6.430  -6.885  1.00  0.00    -0.000 C 
BRANCH  19  20
ATOM     20  C   UNL     1      -9.792   5.401  -5.985  1.00  0.00    -0.000 C 
BRANCH  20  21
ATOM     21  C   UNL     1     -10.698   4.689  -4.960  1.00  0.00    -0.000 C 
BRANCH  21  22
ATOM     22  C   UNL     1     -10.657   3.150  -5.018  1.00  0.00    -0.000 C 
BRANCH  22  23
ATOM     23  C   UNL     1     -10.683   2.609  -6.459  1.00  0.00    -0.000 C 
BRANCH  23  24
ATOM     24  C   UNL     1      -9.985   1.245  -6.592  1.00  0.00    -0.000 C 
BRANCH  24  25
ATOM     25  C   UNL     1      -9.188   1.113  -7.898  1.00  0.00    -0.003 C 
ATOM     26  C   UNL     1      -9.598  -0.142  -8.666  1.00  0.00     0.004 C 
ENDBRANCH  24  25
ENDBRANCH  23  24
ENDBRANCH  22  23
ENDBRANCH  21  22
ENDBRANCH  20  21
ENDBRANCH  19  20
ENDBRANCH  18  19
ENDBRANCH  17  18
ENDBRANCH  16  17
ENDBRANCH  15  16
ENDBRANCH   1  15
TORSDOF 22
ENDMDL
MODEL 6
REMARK VINA RESULT:    -4.284      3.015      6.121
REMARK INTER + INTRA:         -13.367
REMARK INTER:                 -10.148
REMARK INTRA:                  -3.219
REMARK UNBOUND:                -3.573
REMARK SMILES CCCCCCCCCCCCCCCCCCCCCCCC(=O)[O-]
REMARK SMILES IDX 13 1 14 2 15 3 16 4 17 5 18 6 19 7 20 8 21 9 22 10 23 11
REMARK SMILES IDX 24 12 25 13 26 14 12 15 11 16 10 17 9 18 8 19 7 20 6 21 5 22
REMARK SMILES IDX 4 23 3 24 2 25 1 26
REMARK H PARENT
REMARK Flexibility Score: inf
ROOT
ATOM      1  C   UNL     1       2.480  10.627 -14.512  1.00  0.00     0.000 C 
ENDROOT
BRANCH   1   2
ATOM      2  C   UNL     1       3.736  11.328 -15.055  1.00  0.00     0.000 C 
BRANCH   2   3
ATOM      3  C   UNL     1       4.964  10.406 -15.108  1.00  0.00     0.000 C 
BRANCH   3   4
ATOM      4  C   UNL     1       6.096  11.049 -15.922  1.00  0.00     0.000 C 
BRANCH   4   5
ATOM      5  C   UNL     1       5.605  12.201 -16.815  1.00  0.00     0.000 C 
BRANCH   5   6
ATOM      6  C   UNL     1       6.735  13.168 -17.209  1.00  0.00     0.000 C 
BRANCH   6   7
ATOM      7  C   UNL     1       6.877  14.299 -16.178  1.00  0.00     0.000 C 
BRANCH   7   8
ATOM      8  C   UNL     1       6.160  13.980 -14.849  1.00  0.00     0.000 C 
BRANCH   8   9
ATOM      9  C   UNL     1       7.112  13.835 -13.650  1.00  0.00     0.000 C 
BRANCH   9  10
ATOM     10  C   UNL     1       6.644  12.781 -12.635  1.00  0.00     0.006 C 
BRANCH  10  11
ATOM     11  C   UNL     1       7.714  12.539 -11.563  1.00  0.00     0.053 C 
BRANCH  11  12
ATOM     12  C   UNL     1       8.081  11.091 -11.488  1.00  0.00     0.041 C 
ATOM     13  O   UNL     1       9.067  10.724 -10.792  1.00  0.00    -0.550 OA
ATOM     14  O   UNL     1       7.360  10.145 -12.215  1.00  0.00    -0.550 OA
ENDBRANCH  11  12
ENDBRANCH  10  11
ENDBRANCH   9  10
ENDBRANCH   8   9
ENDBRANCH   7   8
ENDBRANCH   6   7
ENDBRANCH   5   6
ENDBRANCH   4   5
ENDBRANCH   3   4
ENDBRANCH   2   3
ENDBRANCH   1   2
BRANCH   1  15
ATOM     15  C   UNL     1       1.482  10.260 -15.625  1.00  0.00     0.000 C 
BRANCH  15  16
ATOM     16  C   UNL     1       1.838  10.894 -16.983  1.00  0.00     0.000 C 
BRANCH  16  17
ATOM     17  C   UNL     1       1.226  12.286 -17.244  1.00  0.00     0.000 C 
BRANCH  17  18
ATOM     18  C   UNL     1       2.158  13.302 -17.929  1.00  0.00    -0.000 C 
BRANCH  18  19
ATOM     19  C   UNL     1       2.678  14.385 -16.967  1.00  0.00    -0.000 C 
BRANCH  19  20
ATOM     20  C   UNL     1       3.654  15.366 -17.645  1.00  0.00    -0.000 C 
BRANCH  20  21
ATOM     21  C   UNL     1       3.114  16.798 -17.839  1.00  0.00    -0.000 C 
BRANCH  21  22
ATOM     22  C   UNL     1       1.883  17.149 -16.983  1.00  0.00    -0.000 C 
BRANCH  22  23
ATOM     23  C   UNL     1       0.665  17.555 -17.833  1.00  0.00    -0.000 C 
BRANCH  23  24
ATOM     24  C   UNL     1      -0.307  16.387 -18.070  1.00  0.00    -0.000 C 
BRANCH  24  25
ATOM     25  C   UNL     1      -0.664  15.642 -16.775  1.00  0.00    -0.003 C 
ATOM     26  C   UNL     1      -1.831  14.682 -16.999  1.00  0.00     0.004 C 
ENDBRANCH  24  25
ENDBRANCH  23  24
ENDBRANCH  22  23
ENDBRANCH  21  22
ENDBRANCH  20  21
ENDBRANCH  19  20
ENDBRANCH  18  19
ENDBRANCH  17  18
ENDBRANCH  16  17
ENDBRANCH  15  16
ENDBRANCH   1  15
TORSDOF 22
ENDMDL
MODEL 7
REMARK VINA RESULT:    -4.203      3.604      7.452
REMARK INTER + INTRA:         -13.183
REMARK INTER:                  -9.940
REMARK INTRA:                  -3.243
REMARK UNBOUND:                -3.573
REMARK SMILES CCCCCCCCCCCCCCCCCCCCCCCC(=O)[O-]
REMARK SMILES IDX 13 1 14 2 15 3 16 4 17 5 18 6 19 7 20 8 21 9 22 10 23 11
REMARK SMILES IDX 24 12 25 13 26 14 12 15 11 16 10 17 9 18 8 19 7 20 6 21 5 22
REMARK SMILES IDX 4 23 3 24 2 25 1 26
REMARK H PARENT
REMARK Flexibility Score: inf
ROOT
ATOM      1  C   UNL     1       0.300  12.992 -16.448  1.00  0.00     0.000 C 
ENDROOT
BRANCH   1   2
ATOM      2  C   UNL     1       0.401  13.224 -14.931  1.00  0.00     0.000 C 
BRANCH   2   3
ATOM      3  C   UNL     1       0.531  11.918 -14.131  1.00  0.00     0.000 C 
BRANCH   3   4
ATOM      4  C   UNL     1       1.284  10.854 -14.941  1.00  0.00     0.000 C 
BRANCH   4   5
ATOM      5  C   UNL     1       2.778  10.781 -14.583  1.00  0.00     0.000 C 
BRANCH   5   6
ATOM      6  C   UNL     1       3.688  10.829 -15.824  1.00  0.00     0.000 C 
BRANCH   6   7
ATOM      7  C   UNL     1       5.163  10.648 -15.434  1.00  0.00     0.000 C 
BRANCH   7   8
ATOM      8  C   UNL     1       6.103  11.575 -16.235  1.00  0.00     0.000 C 
BRANCH   8   9
ATOM      9  C   UNL     1       6.256  12.979 -15.626  1.00  0.00     0.000 C 
BRANCH   9  10
ATOM     10  C   UNL     1       5.753  13.065 -14.178  1.00  0.00     0.006 C 
BRANCH  10  11
ATOM     11  C   UNL     1       6.862  13.557 -13.240  1.00  0.00     0.053 C 
BRANCH  11  12
ATOM     12  C   UNL     1       7.242  12.499 -12.254  1.00  0.00     0.041 C 
ATOM     13  O   UNL     1       6.906  11.300 -12.452  1.00  0.00    -0.550 OA
ATOM     14  O   UNL     1       7.937  12.838 -11.094  1.00  0.00    -0.550 OA
ENDBRANCH  11  12
ENDBRANCH  10  11
ENDBRANCH   9  10
ENDBRANCH   8   9
ENDBRANCH   7   8
ENDBRANCH   6   7
ENDBRANCH   5   6
ENDBRANCH   4   5
ENDBRANCH   3   4
ENDBRANCH   2   3
ENDBRANCH   1   2
BRANCH   1  15
ATOM     15  C   UNL     1       1.286  13.866 -17.243  1.00  0.00     0.000 C 
BRANCH  15  16
ATOM     16  C   UNL     1       2.520  14.281 -16.420  1.00  0.00     0.000 C 
BRANCH  16  17
ATOM     17  C   UNL     1       3.623  15.021 -17.206  1.00  0.00     0.000 C 
BRANCH  17  18
ATOM     18  C   UNL     1       3.172  16.297 -17.939  1.00  0.00    -0.000 C 
BRANCH  18  19
ATOM     19  C   UNL     1       2.485  17.314 -17.009  1.00  0.00    -0.000 C 
BRANCH  19  20
ATOM     20  C   UNL     1       1.534  18.263 -17.763  1.00  0.00    -0.000 C 
BRANCH  20  21
ATOM     21  C   UNL     1       0.068  18.238 -17.285  1.00  0.00    -0.000 C 
BRANCH  21  22
ATOM     22  C   UNL     1      -0.643  16.882 -17.445  1.00  0.00    -0.000 C 
BRANCH  22  23
ATOM     23  C   UNL     1      -1.590  16.567 -16.272  1.00  0.00    -0.000 C 
BRANCH  23  24
ATOM     24  C   UNL     1      -0.865  16.539 -14.916  1.00  0.00    -0.000 C 
BRANCH  24  25
ATOM     25  C   UNL     1      -1.301  17.683 -13.989  1.00  0.00    -0.003 C 
ATOM     26  C   UNL     1      -2.824  17.769 -13.903  1.00  0.00     0.004 C 
ENDBRANCH  24  25
ENDBRANCH  23  24
ENDBRANCH  22  23
ENDBRANCH  21  22
ENDBRANCH  20  21
ENDBRANCH  19  20
ENDBRANCH  18  19
ENDBRANCH  17  18
ENDBRANCH  16  17
ENDBRANCH  15  16
ENDBRANCH   1  15
TORSDOF 22
ENDMDL
MODEL 8
REMARK VINA RESULT:    -4.095      4.004      7.398
REMARK INTER + INTRA:         -12.936
REMARK INTER:                  -9.083
REMARK INTRA:                  -3.853
REMARK UNBOUND:                -3.573
REMARK SMILES CCCCCCCCCCCCCCCCCCCCCCCC(=O)[O-]
REMARK SMILES IDX 13 1 14 2 15 3 16 4 17 5 18 6 19 7 20 8 21 9 22 10 23 11
REMARK SMILES IDX 24 12 25 13 26 14 12 15 11 16 10 17 9 18 8 19 7 20 6 21 5 22
REMARK SMILES IDX 4 23 3 24 2 25 1 26
REMARK H PARENT
REMARK Flexibility Score: inf
ROOT
ATOM      1  C   UNL     1       1.417  12.537 -15.157  1.00  0.00     0.000 C 
ENDROOT
BRANCH   1   2
ATOM      2  C   UNL     1      -0.009  13.094 -15.299  1.00  0.00     0.000 C 
BRANCH   2   3
ATOM      3  C   UNL     1      -0.038  14.590 -15.648  1.00  0.00     0.000 C 
BRANCH   3   4
ATOM      4  C   UNL     1      -0.567  14.808 -17.073  1.00  0.00     0.000 C 
BRANCH   4   5
ATOM      5  C   UNL     1       0.199  15.905 -17.830  1.00  0.00     0.000 C 
BRANCH   5   6
ATOM      6  C   UNL     1       1.149  16.702 -16.918  1.00  0.00     0.000 C 
BRANCH   6   7
ATOM      7  C   UNL     1       0.909  18.214 -17.057  1.00  0.00     0.000 C 
BRANCH   7   8
ATOM      8  C   UNL     1       0.488  18.868 -15.724  1.00  0.00     0.000 C 
BRANCH   8   9
ATOM      9  C   UNL     1      -0.721  18.193 -15.055  1.00  0.00     0.000 C 
BRANCH   9  10
ATOM     10  C   UNL     1      -2.022  18.360 -15.855  1.00  0.00     0.006 C 
BRANCH  10  11
ATOM     11  C   UNL     1      -2.970  17.180 -15.614  1.00  0.00     0.053 C 
BRANCH  11  12
ATOM     12  C   UNL     1      -3.835  16.932 -16.809  1.00  0.00     0.041 C 
ATOM     13  O   UNL     1      -3.949  15.767 -17.277  1.00  0.00    -0.550 OA
ATOM     14  O   UNL     1      -4.489  17.993 -17.434  1.00  0.00    -0.550 OA
ENDBRANCH  11  12
ENDBRANCH  10  11
ENDBRANCH   9  10
ENDBRANCH   8   9
ENDBRANCH   7   8
ENDBRANCH   6   7
ENDBRANCH   5   6
ENDBRANCH   4   5
ENDBRANCH   3   4
ENDBRANCH   2   3
ENDBRANCH   1   2
BRANCH   1  15
ATOM     15  C   UNL     1       1.783  11.562 -16.290  1.00  0.00     0.000 C 
BRANCH  15  16
ATOM     16  C   UNL     1       2.966  12.052 -17.146  1.00  0.00     0.000 C 
BRANCH  16  17
ATOM     17  C   UNL     1       2.983  13.564 -17.448  1.00  0.00     0.000 C 
BRANCH  17  18
ATOM     18  C   UNL     1       4.369  14.233 -17.411  1.00  0.00    -0.000 C 
BRANCH  18  19
ATOM     19  C   UNL     1       5.504  13.291 -17.853  1.00  0.00    -0.000 C 
BRANCH  19  20
ATOM     20  C   UNL     1       6.685  13.275 -16.864  1.00  0.00    -0.000 C 
BRANCH  20  21
ATOM     21  C   UNL     1       6.512  14.172 -15.622  1.00  0.00    -0.000 C 
BRANCH  21  22
ATOM     22  C   UNL     1       6.455  13.419 -14.280  1.00  0.00    -0.000 C 
BRANCH  22  23
ATOM     23  C   UNL     1       5.050  12.872 -13.966  1.00  0.00    -0.000 C 
BRANCH  23  24
ATOM     24  C   UNL     1       5.046  11.351 -13.737  1.00  0.00    -0.000 C 
BRANCH  24  25
ATOM     25  C   UNL     1       5.040  10.555 -15.051  1.00  0.00    -0.003 C 
ATOM     26  C   UNL     1       6.370   9.832 -15.259  1.00  0.00     0.004 C 
ENDBRANCH  24  25
ENDBRANCH  23  24
ENDBRANCH  22  23
ENDBRANCH  21  22
ENDBRANCH  20  21
ENDBRANCH  19  20
ENDBRANCH  18  19
ENDBRANCH  17  18
ENDBRANCH  16  17
ENDBRANCH  15  16
ENDBRANCH   1  15
TORSDOF 22
ENDMDL
