MODEL 1
REMARK VINA RESULT:    -7.795      0.000      0.000
REMARK INTER + INTRA:          -9.583
REMARK INTER:                  -9.390
REMARK INTRA:                  -0.193
REMARK UNBOUND:                -0.193
REMARK SMILES O=c1c(O)c(-c2ccc(O)c(O)c2)oc2cc(O)cc(O)c12
REMARK SMILES IDX 5 1 3 2 2 3 1 4 22 5 20 6 19 7 17 8 16 9 15 10 14 11 6 12
REMARK SMILES IDX 7 13 8 14 9 15 13 16 11 17 10 18 12 20 4 22 21 24 18 26
REMARK H PARENT 10 19 12 21 4 23 21 25 18 27
REMARK Flexibility Score: inf
ROOT
ATOM      1  C   UNL     1     -15.357  -0.772 -21.579  1.00  0.00     0.180 A 
ATOM      2  C   UNL     1     -14.672   0.453 -21.663  1.00  0.00     0.208 A 
ATOM      3  C   UNL     1     -13.388   0.478 -22.231  1.00  0.00     0.238 A 
ATOM      4  O   UNL     1     -12.803   1.586 -22.353  1.00  0.00    -0.285 OA
ATOM      5  C   UNL     1     -12.799  -0.723 -22.693  1.00  0.00     0.111 A 
ATOM      6  C   UNL     1     -11.488  -0.821 -23.250  1.00  0.00     0.134 A 
ATOM      7  C   UNL     1     -11.058  -2.037 -23.794  1.00  0.00     0.093 A 
ATOM      8  C   UNL     1     -11.863  -3.174 -23.742  1.00  0.00     0.123 A 
ATOM      9  C   UNL     1     -13.123  -3.104 -23.147  1.00  0.00     0.094 A 
ATOM     10  C   UNL     1     -13.595  -1.896 -22.629  1.00  0.00     0.146 A 
ATOM     11  O   UNL     1     -14.803  -1.869 -22.080  1.00  0.00    -0.452 OA
ENDROOT
BRANCH   1  12
ATOM     12  C   UNL     1     -16.702  -0.882 -20.970  1.00  0.00     0.025 A 
ATOM     13  C   UNL     1     -17.830  -0.303 -21.576  1.00  0.00     0.016 A 
ATOM     14  C   UNL     1     -19.086  -0.400 -20.971  1.00  0.00     0.051 A 
ATOM     15  C   UNL     1     -19.230  -1.064 -19.746  1.00  0.00     0.157 A 
ATOM     16  C   UNL     1     -16.849  -1.529 -19.730  1.00  0.00     0.062 A 
ATOM     17  C   UNL     1     -18.109  -1.627 -19.124  1.00  0.00     0.158 A 
BRANCH  15  18
ATOM     18  O   UNL     1     -20.480  -1.164 -19.140  1.00  0.00    -0.504 OA
ATOM     19  H   UNL     1     -21.153  -0.407 -19.183  1.00  0.00     0.293 HD
ENDBRANCH  15  18
BRANCH  17  20
ATOM     20  O   UNL     1     -18.253  -2.280 -17.901  1.00  0.00    -0.504 OA
ATOM     21  H   UNL     1     -17.480  -2.369 -17.252  1.00  0.00     0.293 HD
ENDBRANCH  17  20
ENDBRANCH   1  12
BRANCH   2  22
ATOM     22  O   UNL     1     -15.282   1.630 -21.221  1.00  0.00    -0.502 OA
ATOM     23  H   UNL     1     -14.991   2.109 -20.376  1.00  0.00     0.293 HD
ENDBRANCH   2  22
BRANCH   6  24
ATOM     24  O   UNL     1     -10.567   0.231 -23.267  1.00  0.00    -0.507 OA
ATOM     25  H   UNL     1     -10.731   1.145 -22.871  1.00  0.00     0.293 HD
ENDBRANCH   6  24
BRANCH   8  26
ATOM     26  O   UNL     1     -11.396  -4.371 -24.280  1.00  0.00    -0.508 OA
ATOM     27  H   UNL     1     -10.613  -4.867 -23.869  1.00  0.00     0.293 HD
ENDBRANCH   8  26
TORSDOF 6
ENDMDL
MODEL 2
REMARK VINA RESULT:    -7.649      1.774      2.969
REMARK INTER + INTRA:          -9.408
REMARK INTER:                  -9.376
REMARK INTRA:                  -0.031
REMARK UNBOUND:                -0.193
REMARK SMILES O=c1c(O)c(-c2ccc(O)c(O)c2)oc2cc(O)cc(O)c12
REMARK SMILES IDX 5 1 3 2 2 3 1 4 22 5 20 6 19 7 17 8 16 9 15 10 14 11 6 12
REMARK SMILES IDX 7 13 8 14 9 15 13 16 11 17 10 18 12 20 4 22 21 24 18 26
REMARK H PARENT 10 19 12 21 4 23 21 25 18 27
REMARK Flexibility Score: inf
ROOT
ATOM      1  C   UNL     1     -13.105  -1.412 -22.576  1.00  0.00     0.180 A 
ATOM      2  C   UNL     1     -12.126  -0.418 -22.751  1.00  0.00     0.208 A 
ATOM      3  C   UNL     1     -10.863  -0.785 -23.243  1.00  0.00     0.238 A 
ATOM      4  O   UNL     1     -10.010   0.117 -23.448  1.00  0.00    -0.285 OA
ATOM      5  C   UNL     1     -10.590  -2.142 -23.539  1.00  0.00     0.111 A 
ATOM      6  C   UNL     1      -9.332  -2.632 -24.006  1.00  0.00     0.134 A 
ATOM      7  C   UNL     1      -9.214  -3.972 -24.391  1.00  0.00     0.093 A 
ATOM      8  C   UNL     1     -10.286  -4.856 -24.266  1.00  0.00     0.123 A 
ATOM      9  C   UNL     1     -11.503  -4.401 -23.756  1.00  0.00     0.094 A 
ATOM     10  C   UNL     1     -11.662  -3.060 -23.397  1.00  0.00     0.146 A 
ATOM     11  O   UNL     1     -12.838  -2.665 -22.926  1.00  0.00    -0.452 OA
ENDROOT
BRANCH   1  12
ATOM     12  C   UNL     1     -14.450  -1.107 -22.038  1.00  0.00     0.025 A 
ATOM     13  C   UNL     1     -14.615  -0.378 -20.847  1.00  0.00     0.016 A 
ATOM     14  C   UNL     1     -15.894  -0.123 -20.346  1.00  0.00     0.051 A 
ATOM     15  C   UNL     1     -17.025  -0.603 -21.018  1.00  0.00     0.157 A 
ATOM     16  C   UNL     1     -15.588  -1.604 -22.698  1.00  0.00     0.062 A 
ATOM     17  C   UNL     1     -16.871  -1.347 -22.195  1.00  0.00     0.158 A 
BRANCH  15  18
ATOM     18  O   UNL     1     -18.302  -0.349 -20.523  1.00  0.00    -0.504 OA
ATOM     19  H   UNL     1     -18.557  -0.585 -19.571  1.00  0.00     0.293 HD
ENDBRANCH  15  18
BRANCH  17  20
ATOM     20  O   UNL     1     -17.997  -1.831 -22.858  1.00  0.00    -0.504 OA
ATOM     21  H   UNL     1     -18.696  -1.205 -23.242  1.00  0.00     0.293 HD
ENDBRANCH  17  20
ENDBRANCH   1  12
BRANCH   2  22
ATOM     22  O   UNL     1     -12.425   0.918 -22.472  1.00  0.00    -0.502 OA
ATOM     23  H   UNL     1     -12.580   1.604 -23.202  1.00  0.00     0.293 HD
ENDBRANCH   2  22
BRANCH   6  24
ATOM     24  O   UNL     1      -8.172  -1.856 -24.082  1.00  0.00    -0.507 OA
ATOM     25  H   UNL     1      -7.428  -1.866 -23.400  1.00  0.00     0.293 HD
ENDBRANCH   6  24
BRANCH   8  26
ATOM     26  O   UNL     1     -10.128  -6.187 -24.645  1.00  0.00    -0.508 OA
ATOM     27  H   UNL     1      -9.228  -6.650 -24.589  1.00  0.00     0.293 HD
ENDBRANCH   8  26
TORSDOF 6
ENDMDL
MODEL 3
REMARK VINA RESULT:    -7.355      1.549      2.058
REMARK INTER + INTRA:          -9.053
REMARK INTER:                  -8.804
REMARK INTRA:                  -0.249
REMARK UNBOUND:                -0.193
REMARK SMILES O=c1c(O)c(-c2ccc(O)c(O)c2)oc2cc(O)cc(O)c12
REMARK SMILES IDX 5 1 3 2 2 3 1 4 22 5 20 6 19 7 17 8 16 9 15 10 14 11 6 12
REMARK SMILES IDX 7 13 8 14 9 15 13 16 11 17 10 18 12 20 4 22 21 24 18 26
REMARK H PARENT 10 19 12 21 4 23 21 25 18 27
REMARK Flexibility Score: inf
ROOT
ATOM      1  C   UNL     1     -16.135  -0.650 -21.113  1.00  0.00     0.180 A 
ATOM      2  C   UNL     1     -15.606   0.652 -21.087  1.00  0.00     0.208 A 
ATOM      3  C   UNL     1     -14.607   1.000 -22.010  1.00  0.00     0.238 A 
ATOM      4  O   UNL     1     -14.177   2.183 -22.018  1.00  0.00    -0.285 OA
ATOM      5  C   UNL     1     -14.138   0.037 -22.936  1.00  0.00     0.111 A 
ATOM      6  C   UNL     1     -13.100   0.269 -23.890  1.00  0.00     0.134 A 
ATOM      7  C   UNL     1     -12.807  -0.714 -24.843  1.00  0.00     0.093 A 
ATOM      8  C   UNL     1     -13.466  -1.943 -24.836  1.00  0.00     0.123 A 
ATOM      9  C   UNL     1     -14.441  -2.202 -23.872  1.00  0.00     0.094 A 
ATOM     10  C   UNL     1     -14.780  -1.227 -22.931  1.00  0.00     0.146 A 
ATOM     11  O   UNL     1     -15.720  -1.509 -22.036  1.00  0.00    -0.452 OA
ENDROOT
BRANCH   1  12
ATOM     12  C   UNL     1     -17.172  -1.098 -20.156  1.00  0.00     0.025 A 
ATOM     13  C   UNL     1     -16.868  -1.987 -19.110  1.00  0.00     0.016 A 
ATOM     14  C   UNL     1     -17.868  -2.415 -18.232  1.00  0.00     0.051 A 
ATOM     15  C   UNL     1     -19.187  -1.973 -18.396  1.00  0.00     0.157 A 
ATOM     16  C   UNL     1     -18.501  -0.674 -20.327  1.00  0.00     0.062 A 
ATOM     17  C   UNL     1     -19.504  -1.103 -19.447  1.00  0.00     0.158 A 
BRANCH  15  18
ATOM     18  O   UNL     1     -20.187  -2.396 -17.523  1.00  0.00    -0.504 OA
ATOM     19  H   UNL     1     -20.638  -1.753 -16.883  1.00  0.00     0.293 HD
ENDBRANCH  15  18
BRANCH  17  20
ATOM     20  O   UNL     1     -20.819  -0.671 -19.612  1.00  0.00    -0.504 OA
ATOM     21  H   UNL     1     -21.558  -0.970 -18.986  1.00  0.00     0.293 HD
ENDBRANCH  17  20
ENDBRANCH   1  12
BRANCH   2  22
ATOM     22  O   UNL     1     -16.100   1.593 -20.179  1.00  0.00    -0.502 OA
ATOM     23  H   UNL     1     -16.726   1.342 -19.422  1.00  0.00     0.293 HD
ENDBRANCH   2  22
BRANCH   6  24
ATOM     24  O   UNL     1     -12.316   1.426 -23.924  1.00  0.00    -0.507 OA
ATOM     25  H   UNL     1     -11.977   1.915 -23.110  1.00  0.00     0.293 HD
ENDBRANCH   6  24
BRANCH   8  26
ATOM     26  O   UNL     1     -13.138  -2.903 -25.790  1.00  0.00    -0.508 OA
ATOM     27  H   UNL     1     -13.018  -2.661 -26.767  1.00  0.00     0.293 HD
ENDBRANCH   8  26
TORSDOF 6
ENDMDL
MODEL 4
REMARK VINA RESULT:    -7.329      1.770      6.887
REMARK INTER + INTRA:          -9.021
REMARK INTER:                  -8.736
REMARK INTRA:                  -0.286
REMARK UNBOUND:                -0.193
REMARK SMILES O=c1c(O)c(-c2ccc(O)c(O)c2)oc2cc(O)cc(O)c12
REMARK SMILES IDX 5 1 3 2 2 3 1 4 22 5 20 6 19 7 17 8 16 9 15 10 14 11 6 12
REMARK SMILES IDX 7 13 8 14 9 15 13 16 11 17 10 18 12 20 4 22 21 24 18 26
REMARK H PARENT 10 19 12 21 4 23 21 25 18 27
REMARK Flexibility Score: inf
ROOT
ATOM      1  C   UNL     1     -13.504  -0.079 -22.304  1.00  0.00     0.180 A 
ATOM      2  C   UNL     1     -14.202   0.844 -23.102  1.00  0.00     0.208 A 
ATOM      3  C   UNL     1     -15.595   0.949 -22.961  1.00  0.00     0.238 A 
ATOM      4  O   UNL     1     -16.207   1.816 -23.638  1.00  0.00    -0.285 OA
ATOM      5  C   UNL     1     -16.274   0.120 -22.036  1.00  0.00     0.111 A 
ATOM      6  C   UNL     1     -17.688   0.114 -21.839  1.00  0.00     0.134 A 
ATOM      7  C   UNL     1     -18.238  -0.654 -20.806  1.00  0.00     0.093 A 
ATOM      8  C   UNL     1     -17.435  -1.467 -20.006  1.00  0.00     0.123 A 
ATOM      9  C   UNL     1     -16.058  -1.513 -20.229  1.00  0.00     0.094 A 
ATOM     10  C   UNL     1     -15.476  -0.730 -21.228  1.00  0.00     0.146 A 
ATOM     11  O   UNL     1     -14.161  -0.796 -21.401  1.00  0.00    -0.452 OA
ENDROOT
BRANCH   1  12
ATOM     12  C   UNL     1     -12.039  -0.265 -22.414  1.00  0.00     0.025 A 
ATOM     13  C   UNL     1     -11.139   0.642 -21.828  1.00  0.00     0.016 A 
ATOM     14  C   UNL     1      -9.761   0.458 -21.964  1.00  0.00     0.051 A 
ATOM     15  C   UNL     1      -9.262  -0.624 -22.700  1.00  0.00     0.157 A 
ATOM     16  C   UNL     1     -11.533  -1.339 -23.168  1.00  0.00     0.062 A 
ATOM     17  C   UNL     1     -10.150  -1.523 -23.305  1.00  0.00     0.158 A 
BRANCH  15  18
ATOM     18  O   UNL     1      -7.888  -0.812 -22.837  1.00  0.00    -0.504 OA
ATOM     19  H   UNL     1      -7.506  -1.433 -23.541  1.00  0.00     0.293 HD
ENDBRANCH  15  18
BRANCH  17  20
ATOM     20  O   UNL     1      -9.651  -2.595 -24.042  1.00  0.00    -0.504 OA
ATOM     21  H   UNL     1      -8.756  -3.016 -23.826  1.00  0.00     0.293 HD
ENDBRANCH  17  20
ENDBRANCH   1  12
BRANCH   2  22
ATOM     22  O   UNL     1     -13.509   1.669 -23.992  1.00  0.00    -0.502 OA
ATOM     23  H   UNL     1     -12.900   1.299 -24.714  1.00  0.00     0.293 HD
ENDBRANCH   2  22
BRANCH   6  24
ATOM     24  O   UNL     1     -18.591   0.818 -22.642  1.00  0.00    -0.507 OA
ATOM     25  H   UNL     1     -18.417   1.728 -23.040  1.00  0.00     0.293 HD
ENDBRANCH   6  24
BRANCH   8  26
ATOM     26  O   UNL     1     -18.018  -2.230 -18.997  1.00  0.00    -0.508 OA
ATOM     27  H   UNL     1     -17.499  -2.952 -18.512  1.00  0.00     0.293 HD
ENDBRANCH   8  26
TORSDOF 6
ENDMDL
MODEL 5
REMARK VINA RESULT:    -7.250      2.364      3.463
REMARK INTER + INTRA:          -8.927
REMARK INTER:                  -8.665
REMARK INTRA:                  -0.262
REMARK UNBOUND:                -0.193
REMARK SMILES O=c1c(O)c(-c2ccc(O)c(O)c2)oc2cc(O)cc(O)c12
REMARK SMILES IDX 5 1 3 2 2 3 1 4 22 5 20 6 19 7 17 8 16 9 15 10 14 11 6 12
REMARK SMILES IDX 7 13 8 14 9 15 13 16 11 17 10 18 12 20 4 22 21 24 18 26
REMARK H PARENT 10 19 12 21 4 23 21 25 18 27
REMARK Flexibility Score: inf
ROOT
ATOM      1  C   UNL     1     -13.348   0.331 -22.374  1.00  0.00     0.180 A 
ATOM      2  C   UNL     1     -13.264   1.403 -23.280  1.00  0.00     0.208 A 
ATOM      3  C   UNL     1     -11.999   1.886 -23.649  1.00  0.00     0.238 A 
ATOM      4  O   UNL     1     -11.929   2.810 -24.501  1.00  0.00    -0.285 OA
ATOM      5  C   UNL     1     -10.834   1.303 -23.095  1.00  0.00     0.111 A 
ATOM      6  C   UNL     1      -9.501   1.739 -23.368  1.00  0.00     0.134 A 
ATOM      7  C   UNL     1      -8.419   1.005 -22.868  1.00  0.00     0.093 A 
ATOM      8  C   UNL     1      -8.619  -0.108 -22.052  1.00  0.00     0.123 A 
ATOM      9  C   UNL     1      -9.917  -0.508 -21.732  1.00  0.00     0.094 A 
ATOM     10  C   UNL     1     -11.017   0.182 -22.245  1.00  0.00     0.146 A 
ATOM     11  O   UNL     1     -12.235  -0.237 -21.924  1.00  0.00    -0.452 OA
ENDROOT
BRANCH   1  12
ATOM     12  C   UNL     1     -14.646  -0.216 -21.919  1.00  0.00     0.025 A 
ATOM     13  C   UNL     1     -15.136   0.041 -20.626  1.00  0.00     0.016 A 
ATOM     14  C   UNL     1     -16.353  -0.506 -20.210  1.00  0.00     0.051 A 
ATOM     15  C   UNL     1     -17.090  -1.327 -21.072  1.00  0.00     0.157 A 
ATOM     16  C   UNL     1     -15.380  -1.057 -22.773  1.00  0.00     0.062 A 
ATOM     17  C   UNL     1     -16.601  -1.605 -22.355  1.00  0.00     0.158 A 
BRANCH  15  18
ATOM     18  O   UNL     1     -18.304  -1.873 -20.662  1.00  0.00    -0.504 OA
ATOM     19  H   UNL     1     -18.522  -2.851 -20.809  1.00  0.00     0.293 HD
ENDBRANCH  15  18
BRANCH  17  20
ATOM     20  O   UNL     1     -17.333  -2.428 -23.210  1.00  0.00    -0.504 OA
ATOM     21  H   UNL     1     -17.865  -2.049 -23.984  1.00  0.00     0.293 HD
ENDBRANCH  17  20
ENDBRANCH   1  12
BRANCH   2  22
ATOM     22  O   UNL     1     -14.427   1.950 -23.830  1.00  0.00    -0.502 OA
ATOM     23  H   UNL     1     -15.313   1.951 -23.338  1.00  0.00     0.293 HD
ENDBRANCH   2  22
BRANCH   6  24
ATOM     24  O   UNL     1      -9.191   2.892 -24.095  1.00  0.00    -0.507 OA
ATOM     25  H   UNL     1      -8.991   2.912 -25.083  1.00  0.00     0.293 HD
ENDBRANCH   6  24
BRANCH   8  26
ATOM     26  O   UNL     1      -7.518  -0.805 -21.560  1.00  0.00    -0.508 OA
ATOM     27  H   UNL     1      -7.287  -1.734 -21.892  1.00  0.00     0.293 HD
ENDBRANCH   8  26
TORSDOF 6
ENDMDL
MODEL 6
REMARK VINA RESULT:    -7.176      1.853      3.680
REMARK INTER + INTRA:          -8.838
REMARK INTER:                  -8.863
REMARK INTRA:                   0.026
REMARK UNBOUND:                -0.193
REMARK SMILES O=c1c(O)c(-c2ccc(O)c(O)c2)oc2cc(O)cc(O)c12
REMARK SMILES IDX 5 1 3 2 2 3 1 4 22 5 20 6 19 7 17 8 16 9 15 10 14 11 6 12
REMARK SMILES IDX 7 13 8 14 9 15 13 16 11 17 10 18 12 20 4 22 21 24 18 26
REMARK H PARENT 10 19 12 21 4 23 21 25 18 27
REMARK Flexibility Score: inf
ROOT
ATOM      1  C   UNL     1     -15.340   0.236 -21.675  1.00  0.00     0.180 A 
ATOM      2  C   UNL     1     -14.237  -0.596 -21.933  1.00  0.00     0.208 A 
ATOM      3  C   UNL     1     -13.098  -0.047 -22.544  1.00  0.00     0.238 A 
ATOM      4  O   UNL     1     -12.094  -0.785 -22.722  1.00  0.00    -0.285 OA
ATOM      5  C   UNL     1     -13.082   1.322 -22.903  1.00  0.00     0.111 A 
ATOM      6  C   UNL     1     -11.996   1.974 -23.562  1.00  0.00     0.134 A 
ATOM      7  C   UNL     1     -12.036   3.360 -23.752  1.00  0.00     0.093 A 
ATOM      8  C   UNL     1     -13.148   4.109 -23.366  1.00  0.00     0.123 A 
ATOM      9  C   UNL     1     -14.240   3.472 -22.774  1.00  0.00     0.094 A 
ATOM     10  C   UNL     1     -14.214   2.096 -22.539  1.00  0.00     0.146 A 
ATOM     11  O   UNL     1     -15.269   1.530 -21.964  1.00  0.00    -0.452 OA
ENDROOT
BRANCH   1  12
ATOM     12  C   UNL     1     -16.585  -0.274 -21.058  1.00  0.00     0.025 A 
ATOM     13  C   UNL     1     -17.845  -0.008 -21.623  1.00  0.00     0.016 A 
ATOM     14  C   UNL     1     -19.009  -0.481 -21.010  1.00  0.00     0.051 A 
ATOM     15  C   UNL     1     -18.932  -1.213 -19.818  1.00  0.00     0.157 A 
ATOM     16  C   UNL     1     -16.515  -0.992 -19.851  1.00  0.00     0.062 A 
ATOM     17  C   UNL     1     -17.682  -1.466 -19.237  1.00  0.00     0.158 A 
BRANCH  15  18
ATOM     18  O   UNL     1     -20.089  -1.687 -19.205  1.00  0.00    -0.504 OA
ATOM     19  H   UNL     1     -20.061  -2.134 -18.296  1.00  0.00     0.293 HD
ENDBRANCH  15  18
BRANCH  17  20
ATOM     20  O   UNL     1     -17.609  -2.189 -18.047  1.00  0.00    -0.504 OA
ATOM     21  H   UNL     1     -18.083  -3.078 -17.936  1.00  0.00     0.293 HD
ENDBRANCH  17  20
ENDBRANCH   1  12
BRANCH   2  22
ATOM     22  O   UNL     1     -14.267  -1.940 -21.550  1.00  0.00    -0.502 OA
ATOM     23  H   UNL     1     -15.128  -2.471 -21.496  1.00  0.00     0.293 HD
ENDBRANCH   2  22
BRANCH   6  24
ATOM     24  O   UNL     1     -10.878   1.306 -24.070  1.00  0.00    -0.507 OA
ATOM     25  H   UNL     1     -10.385   0.566 -23.594  1.00  0.00     0.293 HD
ENDBRANCH   6  24
BRANCH   8  26
ATOM     26  O   UNL     1     -13.159   5.484 -23.584  1.00  0.00    -0.508 OA
ATOM     27  H   UNL     1     -12.851   6.136 -22.872  1.00  0.00     0.293 HD
ENDBRANCH   8  26
TORSDOF 6
ENDMDL
MODEL 7
REMARK VINA RESULT:    -6.951      1.624      2.106
REMARK INTER + INTRA:          -8.566
REMARK INTER:                  -8.330
REMARK INTRA:                  -0.236
REMARK UNBOUND:                -0.193
REMARK SMILES O=c1c(O)c(-c2ccc(O)c(O)c2)oc2cc(O)cc(O)c12
REMARK SMILES IDX 5 1 3 2 2 3 1 4 22 5 20 6 19 7 17 8 16 9 15 10 14 11 6 12
REMARK SMILES IDX 7 13 8 14 9 15 13 16 11 17 10 18 12 20 4 22 21 24 18 26
REMARK H PARENT 10 19 12 21 4 23 21 25 18 27
REMARK Flexibility Score: inf
ROOT
ATOM      1  C   UNL     1     -13.550  -0.854 -22.088  1.00  0.00     0.180 A 
ATOM      2  C   UNL     1     -13.038   0.449 -22.215  1.00  0.00     0.208 A 
ATOM      3  C   UNL     1     -11.684   0.619 -22.547  1.00  0.00     0.238 A 
ATOM      4  O   UNL     1     -11.245   1.787 -22.712  1.00  0.00    -0.285 OA
ATOM      5  C   UNL     1     -10.857  -0.514 -22.732  1.00  0.00     0.111 A 
ATOM      6  C   UNL     1      -9.461  -0.458 -23.032  1.00  0.00     0.134 A 
ATOM      7  C   UNL     1      -8.770  -1.640 -23.323  1.00  0.00     0.093 A 
ATOM      8  C   UNL     1      -9.405  -2.880 -23.261  1.00  0.00     0.123 A 
ATOM      9  C   UNL     1     -10.754  -2.951 -22.912  1.00  0.00     0.094 A 
ATOM     10  C   UNL     1     -11.480  -1.786 -22.652  1.00  0.00     0.146 A 
ATOM     11  O   UNL     1     -12.764  -1.896 -22.333  1.00  0.00    -0.452 OA
ENDROOT
BRANCH   1  12
ATOM     12  C   UNL     1     -14.959  -1.114 -21.716  1.00  0.00     0.025 A 
ATOM     13  C   UNL     1     -15.895  -1.568 -22.662  1.00  0.00     0.016 A 
ATOM     14  C   UNL     1     -17.225  -1.784 -22.293  1.00  0.00     0.051 A 
ATOM     15  C   UNL     1     -17.643  -1.537 -20.979  1.00  0.00     0.157 A 
ATOM     16  C   UNL     1     -15.388  -0.849 -20.404  1.00  0.00     0.062 A 
ATOM     17  C   UNL     1     -16.722  -1.066 -20.033  1.00  0.00     0.158 A 
BRANCH  15  18
ATOM     18  O   UNL     1     -18.968  -1.752 -20.606  1.00  0.00    -0.504 OA
ATOM     19  H   UNL     1     -19.689  -1.935 -21.294  1.00  0.00     0.293 HD
ENDBRANCH  15  18
BRANCH  17  20
ATOM     20  O   UNL     1     -17.142  -0.814 -18.728  1.00  0.00    -0.504 OA
ATOM     21  H   UNL     1     -17.224   0.130 -18.371  1.00  0.00     0.293 HD
ENDBRANCH  17  20
ENDBRANCH   1  12
BRANCH   2  22
ATOM     22  O   UNL     1     -13.878   1.553 -22.049  1.00  0.00    -0.502 OA
ATOM     23  H   UNL     1     -14.866   1.458 -21.840  1.00  0.00     0.293 HD
ENDBRANCH   2  22
BRANCH   6  24
ATOM     24  O   UNL     1      -8.709   0.720 -23.028  1.00  0.00    -0.507 OA
ATOM     25  H   UNL     1      -7.722   0.772 -23.225  1.00  0.00     0.293 HD
ENDBRANCH   6  24
BRANCH   8  26
ATOM     26  O   UNL     1      -8.682  -4.037 -23.543  1.00  0.00    -0.508 OA
ATOM     27  H   UNL     1      -8.618  -4.797 -22.875  1.00  0.00     0.293 HD
ENDBRANCH   8  26
TORSDOF 6
ENDMDL
MODEL 8
REMARK VINA RESULT:    -6.637      1.851      7.002
REMARK INTER + INTRA:          -8.188
REMARK INTER:                  -7.865
REMARK INTRA:                  -0.324
REMARK UNBOUND:                -0.193
REMARK SMILES O=c1c(O)c(-c2ccc(O)c(O)c2)oc2cc(O)cc(O)c12
REMARK SMILES IDX 5 1 3 2 2 3 1 4 22 5 20 6 19 7 17 8 16 9 15 10 14 11 6 12
REMARK SMILES IDX 7 13 8 14 9 15 13 16 11 17 10 18 12 20 4 22 21 24 18 26
REMARK H PARENT 10 19 12 21 4 23 21 25 18 27
REMARK Flexibility Score: inf
ROOT
ATOM      1  C   UNL     1     -12.689  -1.626 -23.232  1.00  0.00     0.180 A 
ATOM      2  C   UNL     1     -12.853  -0.485 -24.037  1.00  0.00     0.208 A 
ATOM      3  C   UNL     1     -13.932   0.376 -23.784  1.00  0.00     0.238 A 
ATOM      4  O   UNL     1     -14.043   1.424 -24.473  1.00  0.00    -0.285 OA
ATOM      5  C   UNL     1     -14.841   0.079 -22.741  1.00  0.00     0.111 A 
ATOM      6  C   UNL     1     -15.993   0.862 -22.421  1.00  0.00     0.134 A 
ATOM      7  C   UNL     1     -16.748   0.547 -21.286  1.00  0.00     0.093 A 
ATOM      8  C   UNL     1     -16.435  -0.560 -20.497  1.00  0.00     0.123 A 
ATOM      9  C   UNL     1     -15.347  -1.366 -20.834  1.00  0.00     0.094 A 
ATOM     10  C   UNL     1     -14.553  -1.055 -21.939  1.00  0.00     0.146 A 
ATOM     11  O   UNL     1     -13.520  -1.842 -22.220  1.00  0.00    -0.452 OA
ENDROOT
BRANCH   1  12
ATOM     12  C   UNL     1     -11.591  -2.595 -23.454  1.00  0.00     0.025 A 
ATOM     13  C   UNL     1     -10.343  -2.445 -22.824  1.00  0.00     0.016 A 
ATOM     14  C   UNL     1      -9.314  -3.359 -23.067  1.00  0.00     0.051 A 
ATOM     15  C   UNL     1      -9.512  -4.426 -23.952  1.00  0.00     0.157 A 
ATOM     16  C   UNL     1     -11.778  -3.656 -24.357  1.00  0.00     0.062 A 
ATOM     17  C   UNL     1     -10.746  -4.573 -24.600  1.00  0.00     0.158 A 
BRANCH  15  18
ATOM     18  O   UNL     1      -8.490  -5.341 -24.196  1.00  0.00    -0.504 OA
ATOM     19  H   UNL     1      -7.588  -5.045 -24.551  1.00  0.00     0.293 HD
ENDBRANCH  15  18
BRANCH  17  20
ATOM     20  O   UNL     1     -10.938  -5.632 -25.486  1.00  0.00    -0.504 OA
ATOM     21  H   UNL     1     -11.864  -5.986 -25.697  1.00  0.00     0.293 HD
ENDBRANCH  17  20
ENDBRANCH   1  12
BRANCH   2  22
ATOM     22  O   UNL     1     -11.931  -0.200 -25.048  1.00  0.00    -0.502 OA
ATOM     23  H   UNL     1     -10.959  -0.481 -24.992  1.00  0.00     0.293 HD
ENDBRANCH   2  22
BRANCH   6  24
ATOM     24  O   UNL     1     -16.447   1.933 -23.196  1.00  0.00    -0.507 OA
ATOM     25  H   UNL     1     -16.551   2.879 -22.865  1.00  0.00     0.293 HD
ENDBRANCH   6  24
BRANCH   8  26
ATOM     26  O   UNL     1     -17.219  -0.853 -19.383  1.00  0.00    -0.508 OA
ATOM     27  H   UNL     1     -16.899  -0.651 -18.442  1.00  0.00     0.293 HD
ENDBRANCH   8  26
TORSDOF 6
ENDMDL
MODEL 9
REMARK VINA RESULT:    -6.466      3.978      5.787
REMARK INTER + INTRA:          -7.982
REMARK INTER:                  -7.727
REMARK INTRA:                  -0.255
REMARK UNBOUND:                -0.193
REMARK SMILES O=c1c(O)c(-c2ccc(O)c(O)c2)oc2cc(O)cc(O)c12
REMARK SMILES IDX 5 1 3 2 2 3 1 4 22 5 20 6 19 7 17 8 16 9 15 10 14 11 6 12
REMARK SMILES IDX 7 13 8 14 9 15 13 16 11 17 10 18 12 20 4 22 21 24 18 26
REMARK H PARENT 10 19 12 21 4 23 21 25 18 27
REMARK Flexibility Score: inf
ROOT
ATOM      1  C   UNL     1     -12.994   1.203 -23.455  1.00  0.00     0.180 A 
ATOM      2  C   UNL     1     -13.624  -0.030 -23.698  1.00  0.00     0.208 A 
ATOM      3  C   UNL     1     -12.891  -1.215 -23.527  1.00  0.00     0.238 A 
ATOM      4  O   UNL     1     -13.476  -2.317 -23.693  1.00  0.00    -0.285 OA
ATOM      5  C   UNL     1     -11.534  -1.152 -23.131  1.00  0.00     0.111 A 
ATOM      6  C   UNL     1     -10.684  -2.289 -22.965  1.00  0.00     0.134 A 
ATOM      7  C   UNL     1      -9.397  -2.118 -22.444  1.00  0.00     0.093 A 
ATOM      8  C   UNL     1      -8.903  -0.848 -22.143  1.00  0.00     0.123 A 
ATOM      9  C   UNL     1      -9.704   0.274 -22.357  1.00  0.00     0.094 A 
ATOM     10  C   UNL     1     -11.006   0.133 -22.842  1.00  0.00     0.146 A 
ATOM     11  O   UNL     1     -11.739   1.225 -23.021  1.00  0.00    -0.452 OA
ENDROOT
BRANCH   1  12
ATOM     12  C   UNL     1     -13.693   2.495 -23.639  1.00  0.00     0.025 A 
ATOM     13  C   UNL     1     -14.656   2.944 -22.718  1.00  0.00     0.016 A 
ATOM     14  C   UNL     1     -15.320   4.156 -22.925  1.00  0.00     0.051 A 
ATOM     15  C   UNL     1     -15.043   4.929 -24.059  1.00  0.00     0.157 A 
ATOM     16  C   UNL     1     -13.433   3.265 -24.786  1.00  0.00     0.062 A 
ATOM     17  C   UNL     1     -14.099   4.481 -24.993  1.00  0.00     0.158 A 
BRANCH  15  18
ATOM     18  O   UNL     1     -15.701   6.139 -24.268  1.00  0.00    -0.504 OA
ATOM     19  H   UNL     1     -15.635   6.633 -25.151  1.00  0.00     0.293 HD
ENDBRANCH  15  18
BRANCH  17  20
ATOM     20  O   UNL     1     -13.830   5.248 -26.125  1.00  0.00    -0.504 OA
ATOM     21  H   UNL     1     -14.179   4.985 -27.039  1.00  0.00     0.293 HD
ENDBRANCH  17  20
ENDBRANCH   1  12
BRANCH   2  22
ATOM     22  O   UNL     1     -14.971  -0.069 -24.067  1.00  0.00    -0.502 OA
ATOM     23  H   UNL     1     -15.303  -0.610 -24.858  1.00  0.00     0.293 HD
ENDBRANCH   2  22
BRANCH   6  24
ATOM     24  O   UNL     1     -11.046  -3.591 -23.321  1.00  0.00    -0.507 OA
ATOM     25  H   UNL     1     -10.633  -4.116 -24.078  1.00  0.00     0.293 HD
ENDBRANCH   6  24
BRANCH   8  26
ATOM     26  O   UNL     1      -7.611  -0.715 -21.640  1.00  0.00    -0.508 OA
ATOM     27  H   UNL     1      -6.887  -0.233 -22.161  1.00  0.00     0.293 HD
ENDBRANCH   8  26
TORSDOF 6
ENDMDL
