MODEL 1
REMARK VINA RESULT:    -3.409      0.000      0.000
REMARK INTER + INTRA:          -9.382
REMARK INTER:                  -6.599
REMARK INTRA:                  -2.784
REMARK UNBOUND:                -2.784
REMARK SMILES CCCCCCCCCCCCCCCCCC(=O)[O-]
REMARK SMILES IDX 10 1 11 2 12 3 13 4 14 5 15 6 16 7 17 8 18 9 19 10 20 11
REMARK SMILES IDX 9 12 8 13 7 14 6 15 5 16 4 17 3 18 2 19 1 20
REMARK H PARENT
REMARK Flexibility Score: inf
ROOT
ATOM      1  C   UNL     1      -4.738  -1.919  37.617  1.00  0.00     0.000 C 
ENDROOT
BRANCH   1   2
ATOM      2  C   UNL     1      -5.744  -2.679  36.739  1.00  0.00     0.000 C 
BRANCH   2   3
ATOM      3  C   UNL     1      -5.060  -3.566  35.688  1.00  0.00     0.000 C 
BRANCH   3   4
ATOM      4  C   UNL     1      -4.912  -2.825  34.354  1.00  0.00     0.000 C 
BRANCH   4   5
ATOM      5  C   UNL     1      -3.437  -2.523  34.052  1.00  0.00     0.000 C 
BRANCH   5   6
ATOM      6  C   UNL     1      -3.088  -1.037  34.232  1.00  0.00     0.000 C 
BRANCH   6   7
ATOM      7  C   UNL     1      -2.014  -0.808  35.307  1.00  0.00     0.006 C 
BRANCH   7   8
ATOM      8  C   UNL     1      -1.492  -2.140  35.852  1.00  0.00     0.053 C 
BRANCH   8   9
ATOM      9  C   UNL     1      -0.020  -2.062  36.107  1.00  0.00     0.041 C 
ATOM     10  O   UNL     1       0.680  -3.109  36.102  1.00  0.00    -0.550 OA
ATOM     11  O   UNL     1       0.571  -0.840  36.402  1.00  0.00    -0.550 OA
ENDBRANCH   8   9
ENDBRANCH   7   8
ENDBRANCH   6   7
ENDBRANCH   5   6
ENDBRANCH   4   5
ENDBRANCH   3   4
ENDBRANCH   2   3
ENDBRANCH   1   2
BRANCH   1  12
ATOM     12  C   UNL     1      -5.423  -0.983  38.629  1.00  0.00     0.000 C 
BRANCH  12  13
ATOM     13  C   UNL     1      -5.910   0.325  37.969  1.00  0.00    -0.000 C 
BRANCH  13  14
ATOM     14  C   UNL     1      -4.975   0.844  36.863  1.00  0.00    -0.000 C 
BRANCH  14  15
ATOM     15  C   UNL     1      -5.735   1.308  35.610  1.00  0.00    -0.000 C 
BRANCH  15  16
ATOM     16  C   UNL     1      -6.826   0.315  35.168  1.00  0.00    -0.000 C 
BRANCH  16  17
ATOM     17  C   UNL     1      -6.958   0.118  33.644  1.00  0.00    -0.000 C 
BRANCH  17  18
ATOM     18  C   UNL     1      -5.918   0.875  32.793  1.00  0.00    -0.000 C 
BRANCH  18  19
ATOM     19  C   UNL     1      -6.513   1.835  31.748  1.00  0.00    -0.003 C 
ATOM     20  C   UNL     1      -8.031   1.973  31.862  1.00  0.00     0.004 C 
ENDBRANCH  18  19
ENDBRANCH  17  18
ENDBRANCH  16  17
ENDBRANCH  15  16
ENDBRANCH  14  15
ENDBRANCH  13  14
ENDBRANCH  12  13
ENDBRANCH   1  12
TORSDOF 16
ENDMDL
MODEL 2
REMARK VINA RESULT:    -3.390      1.455      2.146
REMARK INTER + INTRA:          -9.345
REMARK INTER:                  -6.114
REMARK INTRA:                  -3.231
REMARK UNBOUND:                -2.784
REMARK SMILES CCCCCCCCCCCCCCCCCC(=O)[O-]
REMARK SMILES IDX 10 1 11 2 12 3 13 4 14 5 15 6 16 7 17 8 18 9 19 10 20 11
REMARK SMILES IDX 9 12 8 13 7 14 6 15 5 16 4 17 3 18 2 19 1 20
REMARK H PARENT
REMARK Flexibility Score: inf
ROOT
ATOM      1  C   UNL     1      -5.816  -0.790  38.058  1.00  0.00     0.000 C 
ENDROOT
BRANCH   1   2
ATOM      2  C   UNL     1      -6.355  -1.770  37.003  1.00  0.00     0.000 C 
BRANCH   2   3
ATOM      3  C   UNL     1      -5.365  -2.900  36.684  1.00  0.00     0.000 C 
BRANCH   3   4
ATOM      4  C   UNL     1      -5.333  -3.196  35.180  1.00  0.00     0.000 C 
BRANCH   4   5
ATOM      5  C   UNL     1      -3.935  -2.939  34.598  1.00  0.00     0.000 C 
BRANCH   5   6
ATOM      6  C   UNL     1      -2.847  -2.871  35.680  1.00  0.00     0.000 C 
BRANCH   6   7
ATOM      7  C   UNL     1      -1.540  -2.245  35.168  1.00  0.00     0.006 C 
BRANCH   7   8
ATOM      8  C   UNL     1      -0.360  -2.631  36.065  1.00  0.00     0.053 C 
BRANCH   8   9
ATOM      9  C   UNL     1       0.925  -2.135  35.483  1.00  0.00     0.041 C 
ATOM     10  O   UNL     1       0.923  -1.169  34.675  1.00  0.00    -0.550 OA
ATOM     11  O   UNL     1       2.121  -2.771  35.792  1.00  0.00    -0.550 OA
ENDBRANCH   8   9
ENDBRANCH   7   8
ENDBRANCH   6   7
ENDBRANCH   5   6
ENDBRANCH   4   5
ENDBRANCH   3   4
ENDBRANCH   2   3
ENDBRANCH   1   2
BRANCH   1  12
ATOM     12  C   UNL     1      -4.551  -1.313  38.762  1.00  0.00     0.000 C 
BRANCH  12  13
ATOM     13  C   UNL     1      -3.314  -0.445  38.448  1.00  0.00    -0.000 C 
BRANCH  13  14
ATOM     14  C   UNL     1      -3.620   0.762  37.544  1.00  0.00    -0.000 C 
BRANCH  14  15
ATOM     15  C   UNL     1      -2.559   0.971  36.450  1.00  0.00    -0.000 C 
BRANCH  15  16
ATOM     16  C   UNL     1      -3.166   1.060  35.038  1.00  0.00    -0.000 C 
BRANCH  16  17
ATOM     17  C   UNL     1      -4.702   0.939  34.973  1.00  0.00    -0.000 C 
BRANCH  17  18
ATOM     18  C   UNL     1      -5.253   0.259  33.704  1.00  0.00    -0.000 C 
BRANCH  18  19
ATOM     19  C   UNL     1      -6.763  -0.037  33.733  1.00  0.00    -0.003 C 
ATOM     20  C   UNL     1      -7.527   0.860  34.706  1.00  0.00     0.004 C 
ENDBRANCH  18  19
ENDBRANCH  17  18
ENDBRANCH  16  17
ENDBRANCH  15  16
ENDBRANCH  14  15
ENDBRANCH  13  14
ENDBRANCH  12  13
ENDBRANCH   1  12
TORSDOF 16
ENDMDL
MODEL 3
REMARK VINA RESULT:    -3.390      2.158      4.111
REMARK INTER + INTRA:          -9.344
REMARK INTER:                  -6.345
REMARK INTRA:                  -3.000
REMARK UNBOUND:                -2.784
REMARK SMILES CCCCCCCCCCCCCCCCCC(=O)[O-]
REMARK SMILES IDX 10 1 11 2 12 3 13 4 14 5 15 6 16 7 17 8 18 9 19 10 20 11
REMARK SMILES IDX 9 12 8 13 7 14 6 15 5 16 4 17 3 18 2 19 1 20
REMARK H PARENT
REMARK Flexibility Score: inf
ROOT
ATOM      1  C   UNL     1      -5.328  -1.413  34.357  1.00  0.00     0.000 C 
ENDROOT
BRANCH   1   2
ATOM      2  C   UNL     1      -4.157  -2.397  34.200  1.00  0.00     0.000 C 
BRANCH   2   3
ATOM      3  C   UNL     1      -4.244  -3.581  35.174  1.00  0.00     0.000 C 
BRANCH   3   4
ATOM      4  C   UNL     1      -3.046  -3.595  36.131  1.00  0.00     0.000 C 
BRANCH   4   5
ATOM      5  C   UNL     1      -1.850  -2.844  35.527  1.00  0.00     0.000 C 
BRANCH   5   6
ATOM      6  C   UNL     1      -0.627  -2.832  36.457  1.00  0.00     0.000 C 
BRANCH   6   7
ATOM      7  C   UNL     1       0.639  -2.304  35.765  1.00  0.00     0.006 C 
BRANCH   7   8
ATOM      8  C   UNL     1       0.871  -0.829  36.103  1.00  0.00     0.053 C 
BRANCH   8   9
ATOM      9  C   UNL     1       2.269  -0.426  35.754  1.00  0.00     0.041 C 
ATOM     10  O   UNL     1       2.527   0.042  34.613  1.00  0.00    -0.550 OA
ATOM     11  O   UNL     1       3.297  -0.613  36.670  1.00  0.00    -0.550 OA
ENDBRANCH   8   9
ENDBRANCH   7   8
ENDBRANCH   6   7
ENDBRANCH   5   6
ENDBRANCH   4   5
ENDBRANCH   3   4
ENDBRANCH   2   3
ENDBRANCH   1   2
BRANCH   1  12
ATOM     12  C   UNL     1      -4.860   0.026  34.636  1.00  0.00     0.000 C 
BRANCH  12  13
ATOM     13  C   UNL     1      -3.384   0.243  34.238  1.00  0.00    -0.000 C 
BRANCH  13  14
ATOM     14  C   UNL     1      -2.493   0.704  35.403  1.00  0.00    -0.000 C 
BRANCH  14  15
ATOM     15  C   UNL     1      -3.252   0.785  36.738  1.00  0.00    -0.000 C 
BRANCH  15  16
ATOM     16  C   UNL     1      -2.650  -0.124  37.825  1.00  0.00    -0.000 C 
BRANCH  16  17
ATOM     17  C   UNL     1      -3.658  -0.669  38.858  1.00  0.00    -0.000 C 
BRANCH  17  18
ATOM     18  C   UNL     1      -4.930  -1.303  38.262  1.00  0.00    -0.000 C 
BRANCH  18  19
ATOM     19  C   UNL     1      -6.222  -0.501  38.493  1.00  0.00    -0.003 C 
ATOM     20  C   UNL     1      -7.279  -0.754  37.419  1.00  0.00     0.004 C 
ENDBRANCH  18  19
ENDBRANCH  17  18
ENDBRANCH  16  17
ENDBRANCH  15  16
ENDBRANCH  14  15
ENDBRANCH  13  14
ENDBRANCH  12  13
ENDBRANCH   1  12
TORSDOF 16
ENDMDL
MODEL 4
REMARK VINA RESULT:    -3.386      1.736      3.274
REMARK INTER + INTRA:          -9.337
REMARK INTER:                  -6.371
REMARK INTRA:                  -2.965
REMARK UNBOUND:                -2.784
REMARK SMILES CCCCCCCCCCCCCCCCCC(=O)[O-]
REMARK SMILES IDX 10 1 11 2 12 3 13 4 14 5 15 6 16 7 17 8 18 9 19 10 20 11
REMARK SMILES IDX 9 12 8 13 7 14 6 15 5 16 4 17 3 18 2 19 1 20
REMARK H PARENT
REMARK Flexibility Score: inf
ROOT
ATOM      1  C   UNL     1      -5.382  -3.276  35.529  1.00  0.00     0.000 C 
ENDROOT
BRANCH   1   2
ATOM      2  C   UNL     1      -3.861  -3.446  35.390  1.00  0.00     0.000 C 
BRANCH   2   3
ATOM      3  C   UNL     1      -3.267  -2.570  34.276  1.00  0.00     0.000 C 
BRANCH   3   4
ATOM      4  C   UNL     1      -1.919  -1.977  34.703  1.00  0.00     0.000 C 
BRANCH   4   5
ATOM      5  C   UNL     1      -1.296  -2.792  35.846  1.00  0.00     0.000 C 
BRANCH   5   6
ATOM      6  C   UNL     1      -0.144  -2.051  36.542  1.00  0.00     0.000 C 
BRANCH   6   7
ATOM      7  C   UNL     1       0.701  -1.218  35.565  1.00  0.00     0.006 C 
BRANCH   7   8
ATOM      8  C   UNL     1       2.070  -0.892  36.168  1.00  0.00     0.053 C 
BRANCH   8   9
ATOM      9  C   UNL     1       3.134  -1.734  35.538  1.00  0.00     0.041 C 
ATOM     10  O   UNL     1       2.827  -2.611  34.688  1.00  0.00    -0.550 OA
ATOM     11  O   UNL     1       4.460  -1.587  35.928  1.00  0.00    -0.550 OA
ENDBRANCH   8   9
ENDBRANCH   7   8
ENDBRANCH   6   7
ENDBRANCH   5   6
ENDBRANCH   4   5
ENDBRANCH   3   4
ENDBRANCH   2   3
ENDBRANCH   1   2
BRANCH   1  12
ATOM     12  C   UNL     1      -5.781  -2.512  36.803  1.00  0.00     0.000 C 
BRANCH  12  13
ATOM     13  C   UNL     1      -4.637  -2.479  37.840  1.00  0.00    -0.000 C 
BRANCH  13  14
ATOM     14  C   UNL     1      -4.391  -1.085  38.443  1.00  0.00    -0.000 C 
BRANCH  14  15
ATOM     15  C   UNL     1      -2.949  -0.593  38.235  1.00  0.00    -0.000 C 
BRANCH  15  16
ATOM     16  C   UNL     1      -2.841   0.507  37.163  1.00  0.00    -0.000 C 
BRANCH  16  17
ATOM     17  C   UNL     1      -4.186   1.072  36.662  1.00  0.00    -0.000 C 
BRANCH  17  18
ATOM     18  C   UNL     1      -4.500   0.800  35.178  1.00  0.00    -0.000 C 
BRANCH  18  19
ATOM     19  C   UNL     1      -5.998   0.754  34.831  1.00  0.00    -0.003 C 
ATOM     20  C   UNL     1      -6.327  -0.272  33.746  1.00  0.00     0.004 C 
ENDBRANCH  18  19
ENDBRANCH  17  18
ENDBRANCH  16  17
ENDBRANCH  15  16
ENDBRANCH  14  15
ENDBRANCH  13  14
ENDBRANCH  12  13
ENDBRANCH   1  12
TORSDOF 16
ENDMDL
MODEL 5
REMARK VINA RESULT:    -3.384      3.176      5.994
REMARK INTER + INTRA:          -9.332
REMARK INTER:                  -6.414
REMARK INTRA:                  -2.918
REMARK UNBOUND:                -2.784
REMARK SMILES CCCCCCCCCCCCCCCCCC(=O)[O-]
REMARK SMILES IDX 10 1 11 2 12 3 13 4 14 5 15 6 16 7 17 8 18 9 19 10 20 11
REMARK SMILES IDX 9 12 8 13 7 14 6 15 5 16 4 17 3 18 2 19 1 20
REMARK H PARENT
REMARK Flexibility Score: inf
ROOT
ATOM      1  C   UNL     1      -4.967  -2.548  37.590  1.00  0.00     0.000 C 
ENDROOT
BRANCH   1   2
ATOM      2  C   UNL     1      -5.674  -1.272  38.073  1.00  0.00     0.000 C 
BRANCH   2   3
ATOM      3  C   UNL     1      -6.654  -0.707  37.033  1.00  0.00     0.000 C 
BRANCH   3   4
ATOM      4  C   UNL     1      -6.622   0.826  37.024  1.00  0.00     0.000 C 
BRANCH   4   5
ATOM      5  C   UNL     1      -6.243   1.360  35.635  1.00  0.00     0.000 C 
BRANCH   5   6
ATOM      6  C   UNL     1      -5.251   0.446  34.899  1.00  0.00     0.000 C 
BRANCH   6   7
ATOM      7  C   UNL     1      -5.758   0.012  33.516  1.00  0.00     0.006 C 
BRANCH   7   8
ATOM      8  C   UNL     1      -7.013   0.797  33.123  1.00  0.00     0.053 C 
BRANCH   8   9
ATOM      9  C   UNL     1      -6.752   1.628  31.906  1.00  0.00     0.041 C 
ATOM     10  O   UNL     1      -7.675   1.843  31.077  1.00  0.00    -0.550 OA
ATOM     11  O   UNL     1      -5.477   2.122  31.662  1.00  0.00    -0.550 OA
ENDBRANCH   8   9
ENDBRANCH   7   8
ENDBRANCH   6   7
ENDBRANCH   5   6
ENDBRANCH   4   5
ENDBRANCH   3   4
ENDBRANCH   2   3
ENDBRANCH   1   2
BRANCH   1  12
ATOM     12  C   UNL     1      -5.383  -2.953  36.165  1.00  0.00     0.000 C 
BRANCH  12  13
ATOM     13  C   UNL     1      -4.255  -3.703  35.424  1.00  0.00    -0.000 C 
BRANCH  13  14
ATOM     14  C   UNL     1      -3.839  -3.039  34.100  1.00  0.00    -0.000 C 
BRANCH  14  15
ATOM     15  C   UNL     1      -2.627  -2.106  34.256  1.00  0.00    -0.000 C 
BRANCH  15  16
ATOM     16  C   UNL     1      -1.731  -2.483  35.450  1.00  0.00    -0.000 C 
BRANCH  16  17
ATOM     17  C   UNL     1      -1.107  -1.292  36.206  1.00  0.00    -0.000 C 
BRANCH  17  18
ATOM     18  C   UNL     1      -1.920  -0.782  37.412  1.00  0.00    -0.000 C 
BRANCH  18  19
ATOM     19  C   UNL     1      -2.576   0.595  37.214  1.00  0.00    -0.003 C 
ATOM     20  C   UNL     1      -2.928   1.282  38.533  1.00  0.00     0.004 C 
ENDBRANCH  18  19
ENDBRANCH  17  18
ENDBRANCH  16  17
ENDBRANCH  15  16
ENDBRANCH  14  15
ENDBRANCH  13  14
ENDBRANCH  12  13
ENDBRANCH   1  12
TORSDOF 16
ENDMDL
MODEL 6
REMARK VINA RESULT:    -3.372      2.913      5.776
REMARK INTER + INTRA:          -9.310
REMARK INTER:                  -6.232
REMARK INTRA:                  -3.078
REMARK UNBOUND:                -2.784
REMARK SMILES CCCCCCCCCCCCCCCCCC(=O)[O-]
REMARK SMILES IDX 10 1 11 2 12 3 13 4 14 5 15 6 16 7 17 8 18 9 19 10 20 11
REMARK SMILES IDX 9 12 8 13 7 14 6 15 5 16 4 17 3 18 2 19 1 20
REMARK H PARENT
REMARK Flexibility Score: inf
ROOT
ATOM      1  C   UNL     1      -5.378  -3.259  36.091  1.00  0.00     0.000 C 
ENDROOT
BRANCH   1   2
ATOM      2  C   UNL     1      -6.050  -2.111  36.861  1.00  0.00     0.000 C 
BRANCH   2   3
ATOM      3  C   UNL     1      -5.128  -1.489  37.920  1.00  0.00     0.000 C 
BRANCH   3   4
ATOM      4  C   UNL     1      -5.005   0.027  37.719  1.00  0.00     0.000 C 
BRANCH   4   5
ATOM      5  C   UNL     1      -3.580   0.412  37.294  1.00  0.00     0.000 C 
BRANCH   5   6
ATOM      6  C   UNL     1      -3.523   0.995  35.873  1.00  0.00     0.000 C 
BRANCH   6   7
ATOM      7  C   UNL     1      -4.892   0.990  35.176  1.00  0.00     0.006 C 
BRANCH   7   8
ATOM      8  C   UNL     1      -4.733   0.862  33.658  1.00  0.00     0.053 C 
BRANCH   8   9
ATOM      9  C   UNL     1      -6.059   0.617  33.011  1.00  0.00     0.041 C 
ATOM     10  O   UNL     1      -6.348   1.186  31.925  1.00  0.00    -0.550 OA
ATOM     11  O   UNL     1      -6.996  -0.200  33.631  1.00  0.00    -0.550 OA
ENDBRANCH   8   9
ENDBRANCH   7   8
ENDBRANCH   6   7
ENDBRANCH   5   6
ENDBRANCH   4   5
ENDBRANCH   3   4
ENDBRANCH   2   3
ENDBRANCH   1   2
BRANCH   1  12
ATOM     12  C   UNL     1      -4.973  -2.858  34.661  1.00  0.00     0.000 C 
BRANCH  12  13
ATOM     13  C   UNL     1      -3.474  -2.502  34.563  1.00  0.00    -0.000 C 
BRANCH  13  14
ATOM     14  C   UNL     1      -2.592  -3.264  35.566  1.00  0.00    -0.000 C 
BRANCH  14  15
ATOM     15  C   UNL     1      -1.743  -2.329  36.444  1.00  0.00    -0.000 C 
BRANCH  15  16
ATOM     16  C   UNL     1      -0.243  -2.672  36.406  1.00  0.00    -0.000 C 
BRANCH  16  17
ATOM     17  C   UNL     1       0.689  -1.504  36.021  1.00  0.00    -0.000 C 
BRANCH  17  18
ATOM     18  C   UNL     1      -0.005  -0.312  35.332  1.00  0.00    -0.000 C 
BRANCH  18  19
ATOM     19  C   UNL     1       0.134  -0.279  33.800  1.00  0.00    -0.003 C 
ATOM     20  C   UNL     1      -1.195  -0.031  33.087  1.00  0.00     0.004 C 
ENDBRANCH  18  19
ENDBRANCH  17  18
ENDBRANCH  16  17
ENDBRANCH  15  16
ENDBRANCH  14  15
ENDBRANCH  13  14
ENDBRANCH  12  13
ENDBRANCH   1  12
TORSDOF 16
ENDMDL
MODEL 7
REMARK VINA RESULT:    -3.361      3.183      6.003
REMARK INTER + INTRA:          -9.289
REMARK INTER:                  -5.906
REMARK INTRA:                  -3.383
REMARK UNBOUND:                -2.784
REMARK SMILES CCCCCCCCCCCCCCCCCC(=O)[O-]
REMARK SMILES IDX 10 1 11 2 12 3 13 4 14 5 15 6 16 7 17 8 18 9 19 10 20 11
REMARK SMILES IDX 9 12 8 13 7 14 6 15 5 16 4 17 3 18 2 19 1 20
REMARK H PARENT
REMARK Flexibility Score: inf
ROOT
ATOM      1  C   UNL     1      -4.757  -2.492  37.744  1.00  0.00     0.000 C 
ENDROOT
BRANCH   1   2
ATOM      2  C   UNL     1      -5.342  -1.274  38.476  1.00  0.00     0.000 C 
BRANCH   2   3
ATOM      3  C   UNL     1      -6.557  -0.674  37.751  1.00  0.00     0.000 C 
BRANCH   3   4
ATOM      4  C   UNL     1      -6.734   0.806  38.108  1.00  0.00     0.000 C 
BRANCH   4   5
ATOM      5  C   UNL     1      -7.719   1.490  37.148  1.00  0.00     0.000 C 
BRANCH   5   6
ATOM      6  C   UNL     1      -7.873   0.733  35.819  1.00  0.00     0.000 C 
BRANCH   6   7
ATOM      7  C   UNL     1      -8.128   1.670  34.629  1.00  0.00     0.006 C 
BRANCH   7   8
ATOM      8  C   UNL     1      -7.968   0.924  33.301  1.00  0.00     0.053 C 
BRANCH   8   9
ATOM      9  C   UNL     1      -7.222   1.764  32.314  1.00  0.00     0.041 C 
ATOM     10  O   UNL     1      -6.253   2.475  32.692  1.00  0.00    -0.550 OA
ATOM     11  O   UNL     1      -7.627   1.803  30.986  1.00  0.00    -0.550 OA
ENDBRANCH   8   9
ENDBRANCH   7   8
ENDBRANCH   6   7
ENDBRANCH   5   6
ENDBRANCH   4   5
ENDBRANCH   3   4
ENDBRANCH   2   3
ENDBRANCH   1   2
BRANCH   1  12
ATOM     12  C   UNL     1      -5.573  -2.886  36.500  1.00  0.00     0.000 C 
BRANCH  12  13
ATOM     13  C   UNL     1      -4.699  -3.569  35.427  1.00  0.00    -0.000 C 
BRANCH  13  14
ATOM     14  C   UNL     1      -4.572  -2.758  34.126  1.00  0.00    -0.000 C 
BRANCH  14  15
ATOM     15  C   UNL     1      -5.293  -1.401  34.198  1.00  0.00    -0.000 C 
BRANCH  15  16
ATOM     16  C   UNL     1      -4.331  -0.205  34.071  1.00  0.00    -0.000 C 
BRANCH  16  17
ATOM     17  C   UNL     1      -4.177   0.652  35.345  1.00  0.00    -0.000 C 
BRANCH  17  18
ATOM     18  C   UNL     1      -2.916   0.360  36.182  1.00  0.00    -0.000 C 
BRANCH  18  19
ATOM     19  C   UNL     1      -1.900  -0.583  35.515  1.00  0.00    -0.003 C 
ATOM     20  C   UNL     1      -1.446  -1.715  36.436  1.00  0.00     0.004 C 
ENDBRANCH  18  19
ENDBRANCH  17  18
ENDBRANCH  16  17
ENDBRANCH  15  16
ENDBRANCH  14  15
ENDBRANCH  13  14
ENDBRANCH  12  13
ENDBRANCH   1  12
TORSDOF 16
ENDMDL
MODEL 8
REMARK VINA RESULT:    -3.352      1.505      3.374
REMARK INTER + INTRA:          -9.271
REMARK INTER:                  -6.540
REMARK INTRA:                  -2.731
REMARK UNBOUND:                -2.784
REMARK SMILES CCCCCCCCCCCCCCCCCC(=O)[O-]
REMARK SMILES IDX 10 1 11 2 12 3 13 4 14 5 15 6 16 7 17 8 18 9 19 10 20 11
REMARK SMILES IDX 9 12 8 13 7 14 6 15 5 16 4 17 3 18 2 19 1 20
REMARK H PARENT
REMARK Flexibility Score: inf
ROOT
ATOM      1  C   UNL     1      -3.878  -3.250  34.009  1.00  0.00     0.000 C 
ENDROOT
BRANCH   1   2
ATOM      2  C   UNL     1      -3.745  -1.720  34.045  1.00  0.00     0.000 C 
BRANCH   2   3
ATOM      3  C   UNL     1      -2.321  -1.256  34.388  1.00  0.00     0.000 C 
BRANCH   3   4
ATOM      4  C   UNL     1      -2.280  -0.575  35.761  1.00  0.00     0.000 C 
BRANCH   4   5
ATOM      5  C   UNL     1      -1.393  -1.360  36.739  1.00  0.00     0.000 C 
BRANCH   5   6
ATOM      6  C   UNL     1      -0.934  -2.711  36.169  1.00  0.00     0.000 C 
BRANCH   6   7
ATOM      7  C   UNL     1       0.594  -2.866  36.172  1.00  0.00     0.006 C 
BRANCH   7   8
ATOM      8  C   UNL     1       1.244  -1.911  35.166  1.00  0.00     0.053 C 
BRANCH   8   9
ATOM      9  C   UNL     1       2.433  -1.238  35.775  1.00  0.00     0.041 C 
ATOM     10  O   UNL     1       2.277  -0.271  36.566  1.00  0.00    -0.550 OA
ATOM     11  O   UNL     1       3.716  -1.646  35.429  1.00  0.00    -0.550 OA
ENDBRANCH   8   9
ENDBRANCH   7   8
ENDBRANCH   6   7
ENDBRANCH   5   6
ENDBRANCH   4   5
ENDBRANCH   3   4
ENDBRANCH   2   3
ENDBRANCH   1   2
BRANCH   1  12
ATOM     12  C   UNL     1      -4.331  -3.839  35.357  1.00  0.00     0.000 C 
BRANCH  12  13
ATOM     13  C   UNL     1      -5.351  -2.927  36.072  1.00  0.00    -0.000 C 
BRANCH  13  14
ATOM     14  C   UNL     1      -4.916  -2.505  37.486  1.00  0.00    -0.000 C 
BRANCH  14  15
ATOM     15  C   UNL     1      -5.519  -1.158  37.917  1.00  0.00    -0.000 C 
BRANCH  15  16
ATOM     16  C   UNL     1      -6.938  -0.933  37.364  1.00  0.00    -0.000 C 
BRANCH  16  17
ATOM     17  C   UNL     1      -7.135   0.376  36.572  1.00  0.00    -0.000 C 
BRANCH  17  18
ATOM     18  C   UNL     1      -5.859   0.948  35.923  1.00  0.00    -0.000 C 
BRANCH  18  19
ATOM     19  C   UNL     1      -5.899   1.039  34.388  1.00  0.00    -0.003 C 
ATOM     20  C   UNL     1      -6.953   0.125  33.764  1.00  0.00     0.004 C 
ENDBRANCH  18  19
ENDBRANCH  17  18
ENDBRANCH  16  17
ENDBRANCH  15  16
ENDBRANCH  14  15
ENDBRANCH  13  14
ENDBRANCH  12  13
ENDBRANCH   1  12
TORSDOF 16
ENDMDL
MODEL 9
REMARK VINA RESULT:    -3.350      1.066      2.200
REMARK INTER + INTRA:          -9.267
REMARK INTER:                  -6.303
REMARK INTRA:                  -2.964
REMARK UNBOUND:                -2.784
REMARK SMILES CCCCCCCCCCCCCCCCCC(=O)[O-]
REMARK SMILES IDX 10 1 11 2 12 3 13 4 14 5 15 6 16 7 17 8 18 9 19 10 20 11
REMARK SMILES IDX 9 12 8 13 7 14 6 15 5 16 4 17 3 18 2 19 1 20
REMARK H PARENT
REMARK Flexibility Score: inf
ROOT
ATOM      1  C   UNL     1      -4.674  -3.626  35.495  1.00  0.00     0.000 C 
ENDROOT
BRANCH   1   2
ATOM      2  C   UNL     1      -4.306  -2.822  34.238  1.00  0.00     0.000 C 
BRANCH   2   3
ATOM      3  C   UNL     1      -5.058  -1.486  34.147  1.00  0.00     0.000 C 
BRANCH   3   4
ATOM      4  C   UNL     1      -4.085  -0.302  34.198  1.00  0.00     0.000 C 
BRANCH   4   5
ATOM      5  C   UNL     1      -2.692  -0.754  34.662  1.00  0.00     0.000 C 
BRANCH   5   6
ATOM      6  C   UNL     1      -2.354  -0.268  36.080  1.00  0.00     0.000 C 
BRANCH   6   7
ATOM      7  C   UNL     1      -1.552  -1.302  36.886  1.00  0.00     0.006 C 
BRANCH   7   8
ATOM      8  C   UNL     1      -0.913  -2.341  35.959  1.00  0.00     0.053 C 
BRANCH   8   9
ATOM      9  C   UNL     1       0.572  -2.170  35.926  1.00  0.00     0.041 C 
ATOM     10  O   UNL     1       1.311  -3.120  35.554  1.00  0.00    -0.550 OA
ATOM     11  O   UNL     1       1.146  -0.980  36.354  1.00  0.00    -0.550 OA
ENDBRANCH   8   9
ENDBRANCH   7   8
ENDBRANCH   6   7
ENDBRANCH   5   6
ENDBRANCH   4   5
ENDBRANCH   3   4
ENDBRANCH   2   3
ENDBRANCH   1   2
BRANCH   1  12
ATOM     12  C   UNL     1      -5.622  -2.859  36.433  1.00  0.00     0.000 C 
BRANCH  12  13
ATOM     13  C   UNL     1      -4.923  -2.434  37.742  1.00  0.00    -0.000 C 
BRANCH  13  14
ATOM     14  C   UNL     1      -5.393  -1.072  38.278  1.00  0.00    -0.000 C 
BRANCH  14  15
ATOM     15  C   UNL     1      -6.627  -0.533  37.536  1.00  0.00    -0.000 C 
BRANCH  15  16
ATOM     16  C   UNL     1      -6.387   0.847  36.898  1.00  0.00    -0.000 C 
BRANCH  16  17
ATOM     17  C   UNL     1      -7.210   1.136  35.625  1.00  0.00    -0.000 C 
BRANCH  17  18
ATOM     18  C   UNL     1      -6.995   2.531  35.007  1.00  0.00    -0.000 C 
BRANCH  18  19
ATOM     19  C   UNL     1      -6.956   2.559  33.470  1.00  0.00    -0.003 C 
ATOM     20  C   UNL     1      -7.272   1.202  32.842  1.00  0.00     0.004 C 
ENDBRANCH  18  19
ENDBRANCH  17  18
ENDBRANCH  16  17
ENDBRANCH  15  16
ENDBRANCH  14  15
ENDBRANCH  13  14
ENDBRANCH  12  13
ENDBRANCH   1  12
TORSDOF 16
ENDMDL
