MODEL 1
REMARK VINA RESULT:    -5.134      0.000      0.000
REMARK INTER + INTRA:          -6.334
REMARK INTER:                  -6.034
REMARK INTRA:                  -0.300
REMARK UNBOUND:                -0.300
REMARK SMILES O=c1c(O)c(-c2ccc(O)cc2)oc2cc(O)cc(O)c12
REMARK SMILES IDX 5 1 3 2 2 3 1 4 21 5 19 6 18 7 16 8 15 9 14 10 13 11 6 12
REMARK SMILES IDX 7 13 8 14 9 15 12 16 11 17 10 18 4 20 20 22 17 24
REMARK H PARENT 10 19 4 21 20 23 17 25
REMARK Flexibility Score: inf
ROOT
ATOM      1  C   UNL     1      93.361  99.729  77.560  1.00  0.00     0.180 A 
ATOM      2  C   UNL     1      94.515  99.397  76.830  1.00  0.00     0.208 A 
ATOM      3  C   UNL     1      95.662  98.980  77.525  1.00  0.00     0.238 A 
ATOM      4  O   UNL     1      96.676  98.631  76.863  1.00  0.00    -0.285 OA
ATOM      5  C   UNL     1      95.647  98.917  78.939  1.00  0.00     0.111 A 
ATOM      6  C   UNL     1      96.764  98.547  79.746  1.00  0.00     0.134 A 
ATOM      7  C   UNL     1      96.598  98.392  81.128  1.00  0.00     0.093 A 
ATOM      8  C   UNL     1      95.372  98.658  81.739  1.00  0.00     0.123 A 
ATOM      9  C   UNL     1      94.289  99.077  80.967  1.00  0.00     0.094 A 
ATOM     10  C   UNL     1      94.414  99.205  79.581  1.00  0.00     0.146 A 
ATOM     11  O   UNL     1      93.356  99.597  78.882  1.00  0.00    -0.452 OA
ENDROOT
BRANCH   1  12
ATOM     12  C   UNL     1      92.121 100.200  76.902  1.00  0.00     0.021 A 
ATOM     13  C   UNL     1      91.116  99.274  76.575  1.00  0.00     0.016 A 
ATOM     14  C   UNL     1      89.928  99.701  75.974  1.00  0.00     0.047 A 
ATOM     15  C   UNL     1      89.724 101.061  75.706  1.00  0.00     0.115 A 
ATOM     16  C   UNL     1      91.900 101.567  76.648  1.00  0.00     0.016 A 
ATOM     17  C   UNL     1      90.710 101.990  76.047  1.00  0.00     0.047 A 
BRANCH  15  18
ATOM     18  O   UNL     1      88.545 101.497  75.107  1.00  0.00    -0.508 OA
ATOM     19  H   UNL     1      87.824 100.845  74.819  1.00  0.00     0.293 HD
ENDBRANCH  15  18
ENDBRANCH   1  12
BRANCH   2  20
ATOM     20  O   UNL     1      94.503  99.445  75.434  1.00  0.00    -0.502 OA
ATOM     21  H   UNL     1      94.937  98.731  74.861  1.00  0.00     0.293 HD
ENDBRANCH   2  20
BRANCH   6  22
ATOM     22  O   UNL     1      98.056  98.349  79.248  1.00  0.00    -0.507 OA
ATOM     23  H   UNL     1      98.762  99.065  79.182  1.00  0.00     0.293 HD
ENDBRANCH   6  22
BRANCH   8  24
ATOM     24  O   UNL     1      95.246  98.508  83.119  1.00  0.00    -0.508 OA
ATOM     25  H   UNL     1      96.056  98.510  83.728  1.00  0.00     0.293 HD
ENDBRANCH   8  24
TORSDOF 5
ENDMDL
MODEL 2
REMARK VINA RESULT:    -5.094     14.078     15.358
REMARK INTER + INTRA:          -6.287
REMARK INTER:                  -5.987
REMARK INTRA:                  -0.300
REMARK UNBOUND:                -0.300
REMARK SMILES O=c1c(O)c(-c2ccc(O)cc2)oc2cc(O)cc(O)c12
REMARK SMILES IDX 5 1 3 2 2 3 1 4 21 5 19 6 18 7 16 8 15 9 14 10 13 11 6 12
REMARK SMILES IDX 7 13 8 14 9 15 12 16 11 17 10 18 4 20 20 22 17 24
REMARK H PARENT 10 19 4 21 20 23 17 25
REMARK Flexibility Score: inf
ROOT
ATOM      1  C   UNL     1      91.661  85.404  78.547  1.00  0.00     0.180 A 
ATOM      2  C   UNL     1      90.608  85.647  77.647  1.00  0.00     0.208 A 
ATOM      3  C   UNL     1      89.360  86.044  78.153  1.00  0.00     0.238 A 
ATOM      4  O   UNL     1      88.437  86.313  77.339  1.00  0.00    -0.285 OA
ATOM      5  C   UNL     1      89.174  86.177  79.550  1.00  0.00     0.111 A 
ATOM      6  C   UNL     1      87.942  86.535  80.173  1.00  0.00     0.134 A 
ATOM      7  C   UNL     1      87.906  86.765  81.554  1.00  0.00     0.093 A 
ATOM      8  C   UNL     1      89.043  86.587  82.342  1.00  0.00     0.123 A 
ATOM      9  C   UNL     1      90.240  86.180  81.751  1.00  0.00     0.094 A 
ATOM     10  C   UNL     1      90.315  85.978  80.371  1.00  0.00     0.146 A 
ATOM     11  O   UNL     1      91.475  85.602  79.847  1.00  0.00    -0.452 OA
ENDROOT
BRANCH   1  12
ATOM     12  C   UNL     1      92.998  84.959  78.093  1.00  0.00     0.021 A 
ATOM     13  C   UNL     1      94.004  85.913  77.861  1.00  0.00     0.016 A 
ATOM     14  C   UNL     1      95.280  85.512  77.454  1.00  0.00     0.047 A 
ATOM     15  C   UNL     1      95.571  84.151  77.289  1.00  0.00     0.115 A 
ATOM     16  C   UNL     1      93.305  83.593  77.945  1.00  0.00     0.016 A 
ATOM     17  C   UNL     1      94.583  83.196  77.539  1.00  0.00     0.047 A 
BRANCH  15  18
ATOM     18  O   UNL     1      96.839  83.741  76.884  1.00  0.00    -0.508 OA
ATOM     19  H   UNL     1      96.963  83.039  76.163  1.00  0.00     0.293 HD
ENDBRANCH  15  18
ENDBRANCH   1  12
BRANCH   2  20
ATOM     20  O   UNL     1      90.819  85.530  76.271  1.00  0.00    -0.502 OA
ATOM     21  H   UNL     1      90.484  84.738  75.735  1.00  0.00     0.293 HD
ENDBRANCH   2  20
BRANCH   6  22
ATOM     22  O   UNL     1      86.726  86.648  79.491  1.00  0.00    -0.507 OA
ATOM     23  H   UNL     1      86.637  86.824  78.502  1.00  0.00     0.293 HD
ENDBRANCH   6  22
BRANCH   8  24
ATOM     24  O   UNL     1      88.968  86.810  83.715  1.00  0.00    -0.508 OA
ATOM     25  H   UNL     1      88.132  87.186  84.147  1.00  0.00     0.293 HD
ENDBRANCH   8  24
TORSDOF 5
ENDMDL
MODEL 3
REMARK VINA RESULT:    -5.089     14.060     15.307
REMARK INTER + INTRA:          -6.282
REMARK INTER:                  -5.993
REMARK INTRA:                  -0.289
REMARK UNBOUND:                -0.300
REMARK SMILES O=c1c(O)c(-c2ccc(O)cc2)oc2cc(O)cc(O)c12
REMARK SMILES IDX 5 1 3 2 2 3 1 4 21 5 19 6 18 7 16 8 15 9 14 10 13 11 6 12
REMARK SMILES IDX 7 13 8 14 9 15 12 16 11 17 10 18 4 20 20 22 17 24
REMARK H PARENT 10 19 4 21 20 23 17 25
REMARK Flexibility Score: inf
ROOT
ATOM      1  C   UNL     1      91.677  85.436  78.575  1.00  0.00     0.180 A 
ATOM      2  C   UNL     1      90.617  85.655  77.678  1.00  0.00     0.208 A 
ATOM      3  C   UNL     1      89.363  86.031  78.187  1.00  0.00     0.238 A 
ATOM      4  O   UNL     1      88.432  86.279  77.376  1.00  0.00    -0.285 OA
ATOM      5  C   UNL     1      89.180  86.165  79.584  1.00  0.00     0.111 A 
ATOM      6  C   UNL     1      87.943  86.502  80.211  1.00  0.00     0.134 A 
ATOM      7  C   UNL     1      87.908  86.736  81.591  1.00  0.00     0.093 A 
ATOM      8  C   UNL     1      89.051  86.583  82.375  1.00  0.00     0.123 A 
ATOM      9  C   UNL     1      90.253  86.196  81.782  1.00  0.00     0.094 A 
ATOM     10  C   UNL     1      90.327  85.991  80.402  1.00  0.00     0.146 A 
ATOM     11  O   UNL     1      91.492  85.634  79.875  1.00  0.00    -0.452 OA
ENDROOT
BRANCH   1  12
ATOM     12  C   UNL     1      93.021  85.015  78.118  1.00  0.00     0.021 A 
ATOM     13  C   UNL     1      93.297  83.648  77.946  1.00  0.00     0.016 A 
ATOM     14  C   UNL     1      94.552  83.230  77.494  1.00  0.00     0.047 A 
ATOM     15  C   UNL     1      95.543  84.174  77.194  1.00  0.00     0.115 A 
ATOM     16  C   UNL     1      94.015  85.958  77.795  1.00  0.00     0.016 A 
ATOM     17  C   UNL     1      95.269  85.536  77.342  1.00  0.00     0.047 A 
BRANCH  15  18
ATOM     18  O   UNL     1      96.797  83.770  76.743  1.00  0.00    -0.508 OA
ATOM     19  H   UNL     1      97.031  83.771  75.757  1.00  0.00     0.293 HD
ENDBRANCH  15  18
ENDBRANCH   1  12
BRANCH   2  20
ATOM     20  O   UNL     1      90.825  85.538  76.302  1.00  0.00    -0.502 OA
ATOM     21  H   UNL     1      90.490  86.229  75.640  1.00  0.00     0.293 HD
ENDBRANCH   2  20
BRANCH   6  22
ATOM     22  O   UNL     1      86.723  86.590  79.533  1.00  0.00    -0.507 OA
ATOM     23  H   UNL     1      86.533  86.171  78.635  1.00  0.00     0.293 HD
ENDBRANCH   6  22
BRANCH   8  24
ATOM     24  O   UNL     1      88.977  86.809  83.748  1.00  0.00    -0.508 OA
ATOM     25  H   UNL     1      89.487  86.233  84.409  1.00  0.00     0.293 HD
ENDBRANCH   8  24
TORSDOF 5
ENDMDL
MODEL 4
REMARK VINA RESULT:    -5.070     12.306     13.572
REMARK INTER + INTRA:          -6.259
REMARK INTER:                  -6.095
REMARK INTRA:                  -0.164
REMARK UNBOUND:                -0.300
REMARK SMILES O=c1c(O)c(-c2ccc(O)cc2)oc2cc(O)cc(O)c12
REMARK SMILES IDX 5 1 3 2 2 3 1 4 21 5 19 6 18 7 16 8 15 9 14 10 13 11 6 12
REMARK SMILES IDX 7 13 8 14 9 15 12 16 11 17 10 18 4 20 20 22 17 24
REMARK H PARENT 10 19 4 21 20 23 17 25
REMARK Flexibility Score: inf
ROOT
ATOM      1  C   UNL     1      84.814  90.217  78.406  1.00  0.00     0.180 A 
ATOM      2  C   UNL     1      84.447  89.950  77.076  1.00  0.00     0.208 A 
ATOM      3  C   UNL     1      85.130  88.946  76.370  1.00  0.00     0.238 A 
ATOM      4  O   UNL     1      84.760  88.673  75.198  1.00  0.00    -0.285 OA
ATOM      5  C   UNL     1      86.182  88.235  76.996  1.00  0.00     0.111 A 
ATOM      6  C   UNL     1      86.968  87.227  76.363  1.00  0.00     0.134 A 
ATOM      7  C   UNL     1      87.896  86.498  77.117  1.00  0.00     0.093 A 
ATOM      8  C   UNL     1      88.112  86.786  78.464  1.00  0.00     0.123 A 
ATOM      9  C   UNL     1      87.391  87.810  79.079  1.00  0.00     0.094 A 
ATOM     10  C   UNL     1      86.432  88.530  78.362  1.00  0.00     0.146 A 
ATOM     11  O   UNL     1      85.761  89.489  78.987  1.00  0.00    -0.452 OA
ENDROOT
BRANCH   1  12
ATOM     12  C   UNL     1      84.158  91.276  79.207  1.00  0.00     0.021 A 
ATOM     13  C   UNL     1      82.830  91.102  79.630  1.00  0.00     0.016 A 
ATOM     14  C   UNL     1      82.199  92.078  80.406  1.00  0.00     0.047 A 
ATOM     15  C   UNL     1      82.894  93.236  80.782  1.00  0.00     0.115 A 
ATOM     16  C   UNL     1      84.856  92.432  79.606  1.00  0.00     0.016 A 
ATOM     17  C   UNL     1      84.223  93.406  80.383  1.00  0.00     0.047 A 
BRANCH  15  18
ATOM     18  O   UNL     1      82.276  94.215  81.555  1.00  0.00    -0.508 OA
ATOM     19  H   UNL     1      81.417  94.029  82.058  1.00  0.00     0.293 HD
ENDBRANCH  15  18
ENDBRANCH   1  12
BRANCH   2  20
ATOM     20  O   UNL     1      83.391  90.648  76.484  1.00  0.00    -0.502 OA
ATOM     21  H   UNL     1      82.791  91.274  77.009  1.00  0.00     0.293 HD
ENDBRANCH   2  20
BRANCH   6  22
ATOM     22  O   UNL     1      86.897  86.923  74.999  1.00  0.00    -0.507 OA
ATOM     23  H   UNL     1      86.506  86.075  74.619  1.00  0.00     0.293 HD
ENDBRANCH   6  22
BRANCH   8  24
ATOM     24  O   UNL     1      89.054  86.050  79.181  1.00  0.00    -0.508 OA
ATOM     25  H   UNL     1      89.025  85.038  79.210  1.00  0.00     0.293 HD
ENDBRANCH   8  24
TORSDOF 5
ENDMDL
MODEL 5
REMARK VINA RESULT:    -4.946      4.071      8.597
REMARK INTER + INTRA:          -6.113
REMARK INTER:                  -5.822
REMARK INTRA:                  -0.291
REMARK UNBOUND:                -0.300
REMARK SMILES O=c1c(O)c(-c2ccc(O)cc2)oc2cc(O)cc(O)c12
REMARK SMILES IDX 5 1 3 2 2 3 1 4 21 5 19 6 18 7 16 8 15 9 14 10 13 11 6 12
REMARK SMILES IDX 7 13 8 14 9 15 12 16 11 17 10 18 4 20 20 22 17 24
REMARK H PARENT 10 19 4 21 20 23 17 25
REMARK Flexibility Score: inf
ROOT
ATOM      1  C   UNL     1      96.125  95.815  82.709  1.00  0.00     0.180 A 
ATOM      2  C   UNL     1      96.994  96.665  82.004  1.00  0.00     0.208 A 
ATOM      3  C   UNL     1      96.454  97.734  81.272  1.00  0.00     0.238 A 
ATOM      4  O   UNL     1      97.241  98.525  80.688  1.00  0.00    -0.285 OA
ATOM      5  C   UNL     1      95.052  97.930  81.240  1.00  0.00     0.111 A 
ATOM      6  C   UNL     1      94.395  98.957  80.498  1.00  0.00     0.134 A 
ATOM      7  C   UNL     1      93.014  99.138  80.643  1.00  0.00     0.093 A 
ATOM      8  C   UNL     1      92.258  98.289  81.452  1.00  0.00     0.123 A 
ATOM      9  C   UNL     1      92.882  97.245  82.135  1.00  0.00     0.094 A 
ATOM     10  C   UNL     1      94.263  97.062  82.039  1.00  0.00     0.146 A 
ATOM     11  O   UNL     1      94.820  96.063  82.713  1.00  0.00    -0.452 OA
ENDROOT
BRANCH   1  12
ATOM     12  C   UNL     1      96.615  94.652  83.484  1.00  0.00     0.021 A 
ATOM     13  C   UNL     1      96.775  94.764  84.875  1.00  0.00     0.016 A 
ATOM     14  C   UNL     1      97.215  93.672  85.628  1.00  0.00     0.047 A 
ATOM     15  C   UNL     1      97.487  92.448  85.001  1.00  0.00     0.115 A 
ATOM     16  C   UNL     1      96.871  93.414  82.864  1.00  0.00     0.016 A 
ATOM     17  C   UNL     1      97.311  92.323  83.621  1.00  0.00     0.047 A 
BRANCH  15  18
ATOM     18  O   UNL     1      97.927  91.354  85.741  1.00  0.00    -0.508 OA
ATOM     19  H   UNL     1      98.534  91.467  86.545  1.00  0.00     0.293 HD
ENDBRANCH  15  18
ENDBRANCH   1  12
BRANCH   2  20
ATOM     20  O   UNL     1      98.375  96.466  82.067  1.00  0.00    -0.502 OA
ATOM     21  H   UNL     1      99.039  97.225  81.966  1.00  0.00     0.293 HD
ENDBRANCH   2  20
BRANCH   6  22
ATOM     22  O   UNL     1      95.042  99.801  79.591  1.00  0.00    -0.507 OA
ATOM     23  H   UNL     1      96.023 100.033  79.621  1.00  0.00     0.293 HD
ENDBRANCH   6  22
BRANCH   8  24
ATOM     24  O   UNL     1      90.883  98.489  81.561  1.00  0.00    -0.508 OA
ATOM     25  H   UNL     1      90.388  98.306  82.426  1.00  0.00     0.293 HD
ENDBRANCH   8  24
TORSDOF 5
ENDMDL
MODEL 6
REMARK VINA RESULT:    -4.877     14.113     16.047
REMARK INTER + INTRA:          -6.033
REMARK INTER:                  -5.756
REMARK INTRA:                  -0.277
REMARK UNBOUND:                -0.300
REMARK SMILES O=c1c(O)c(-c2ccc(O)cc2)oc2cc(O)cc(O)c12
REMARK SMILES IDX 5 1 3 2 2 3 1 4 21 5 19 6 18 7 16 8 15 9 14 10 13 11 6 12
REMARK SMILES IDX 7 13 8 14 9 15 12 16 11 17 10 18 4 20 20 22 17 24
REMARK H PARENT 10 19 4 21 20 23 17 25
REMARK Flexibility Score: inf
ROOT
ATOM      1  C   UNL     1      90.314  85.429  79.069  1.00  0.00     0.180 A 
ATOM      2  C   UNL     1      89.417  85.982  79.999  1.00  0.00     0.208 A 
ATOM      3  C   UNL     1      88.261  86.625  79.528  1.00  0.00     0.238 A 
ATOM      4  O   UNL     1      87.433  87.070  80.367  1.00  0.00    -0.285 OA
ATOM      5  C   UNL     1      88.025  86.723  78.135  1.00  0.00     0.111 A 
ATOM      6  C   UNL     1      86.908  87.388  77.548  1.00  0.00     0.134 A 
ATOM      7  C   UNL     1      86.707  87.310  76.164  1.00  0.00     0.093 A 
ATOM      8  C   UNL     1      87.617  86.648  75.341  1.00  0.00     0.123 A 
ATOM      9  C   UNL     1      88.745  86.045  75.899  1.00  0.00     0.094 A 
ATOM     10  C   UNL     1      88.953  86.074  77.280  1.00  0.00     0.146 A 
ATOM     11  O   UNL     1      90.034  85.479  77.771  1.00  0.00    -0.452 OA
ENDROOT
BRANCH   1  12
ATOM     12  C   UNL     1      91.567  84.757  79.485  1.00  0.00     0.021 A 
ATOM     13  C   UNL     1      91.635  83.353  79.479  1.00  0.00     0.016 A 
ATOM     14  C   UNL     1      92.814  82.700  79.847  1.00  0.00     0.047 A 
ATOM     15  C   UNL     1      93.946  83.441  80.212  1.00  0.00     0.115 A 
ATOM     16  C   UNL     1      92.714  85.495  79.833  1.00  0.00     0.016 A 
ATOM     17  C   UNL     1      93.892  84.837  80.200  1.00  0.00     0.047 A 
BRANCH  15  18
ATOM     18  O   UNL     1      95.126  82.800  80.580  1.00  0.00    -0.508 OA
ATOM     19  H   UNL     1      95.803  82.500  79.889  1.00  0.00     0.293 HD
ENDBRANCH  15  18
ENDBRANCH   1  12
BRANCH   2  20
ATOM     20  O   UNL     1      89.658  85.855  81.369  1.00  0.00    -0.502 OA
ATOM     21  H   UNL     1      89.556  84.974  81.860  1.00  0.00     0.293 HD
ENDBRANCH   2  20
BRANCH   6  22
ATOM     22  O   UNL     1      85.988  88.156  78.269  1.00  0.00    -0.507 OA
ATOM     23  H   UNL     1      86.187  88.621  79.141  1.00  0.00     0.293 HD
ENDBRANCH   6  22
BRANCH   8  24
ATOM     24  O   UNL     1      87.394  86.603  73.966  1.00  0.00    -0.508 OA
ATOM     25  H   UNL     1      86.612  86.093  73.573  1.00  0.00     0.293 HD
ENDBRANCH   8  24
TORSDOF 5
ENDMDL
MODEL 7
REMARK VINA RESULT:    -4.827     13.175     13.613
REMARK INTER + INTRA:          -5.973
REMARK INTER:                  -5.790
REMARK INTRA:                  -0.184
REMARK UNBOUND:                -0.300
REMARK SMILES O=c1c(O)c(-c2ccc(O)cc2)oc2cc(O)cc(O)c12
REMARK SMILES IDX 5 1 3 2 2 3 1 4 21 5 19 6 18 7 16 8 15 9 14 10 13 11 6 12
REMARK SMILES IDX 7 13 8 14 9 15 12 16 11 17 10 18 4 20 20 22 17 24
REMARK H PARENT 10 19 4 21 20 23 17 25
REMARK Flexibility Score: inf
ROOT
ATOM      1  C   UNL     1      86.619  88.077  76.892  1.00  0.00     0.180 A 
ATOM      2  C   UNL     1      87.758  87.859  76.099  1.00  0.00     0.208 A 
ATOM      3  C   UNL     1      88.887  87.263  76.681  1.00  0.00     0.238 A 
ATOM      4  O   UNL     1      89.885  87.019  75.952  1.00  0.00    -0.285 OA
ATOM      5  C   UNL     1      88.871  86.908  78.052  1.00  0.00     0.111 A 
ATOM      6  C   UNL     1      89.973  86.335  78.754  1.00  0.00     0.134 A 
ATOM      7  C   UNL     1      89.802  85.903  80.075  1.00  0.00     0.093 A 
ATOM      8  C   UNL     1      88.589  86.084  80.739  1.00  0.00     0.123 A 
ATOM      9  C   UNL     1      87.522  86.697  80.081  1.00  0.00     0.094 A 
ATOM     10  C   UNL     1      87.652  87.104  78.751  1.00  0.00     0.146 A 
ATOM     11  O   UNL     1      86.610  87.674  78.158  1.00  0.00    -0.452 OA
ENDROOT
BRANCH   1  12
ATOM     12  C   UNL     1      85.398  88.723  76.358  1.00  0.00     0.021 A 
ATOM     13  C   UNL     1      84.573  88.016  75.466  1.00  0.00     0.016 A 
ATOM     14  C   UNL     1      83.405  88.598  74.968  1.00  0.00     0.047 A 
ATOM     15  C   UNL     1      83.037  89.890  75.366  1.00  0.00     0.115 A 
ATOM     16  C   UNL     1      85.011  90.013  76.769  1.00  0.00     0.016 A 
ATOM     17  C   UNL     1      83.840  90.592  76.269  1.00  0.00     0.047 A 
BRANCH  15  18
ATOM     18  O   UNL     1      81.875  90.481  74.875  1.00  0.00    -0.508 OA
ATOM     19  H   UNL     1      81.319  91.108  75.445  1.00  0.00     0.293 HD
ENDBRANCH  15  18
ENDBRANCH   1  12
BRANCH   2  20
ATOM     20  O   UNL     1      87.745  88.196  74.743  1.00  0.00    -0.502 OA
ATOM     21  H   UNL     1      87.058  88.827  74.346  1.00  0.00     0.293 HD
ENDBRANCH   2  20
BRANCH   6  22
ATOM     22  O   UNL     1      91.255  86.194  78.213  1.00  0.00    -0.507 OA
ATOM     23  H   UNL     1      91.707  85.312  78.029  1.00  0.00     0.293 HD
ENDBRANCH   6  22
BRANCH   8  24
ATOM     24  O   UNL     1      88.459  85.657  82.059  1.00  0.00    -0.508 OA
ATOM     25  H   UNL     1      89.218  85.191  82.543  1.00  0.00     0.293 HD
ENDBRANCH   8  24
TORSDOF 5
ENDMDL
MODEL 8
REMARK VINA RESULT:    -4.754      3.128      7.235
REMARK INTER + INTRA:          -5.887
REMARK INTER:                  -5.921
REMARK INTRA:                   0.033
REMARK UNBOUND:                -0.300
REMARK SMILES O=c1c(O)c(-c2ccc(O)cc2)oc2cc(O)cc(O)c12
REMARK SMILES IDX 5 1 3 2 2 3 1 4 21 5 19 6 18 7 16 8 15 9 14 10 13 11 6 12
REMARK SMILES IDX 7 13 8 14 9 15 12 16 11 17 10 18 4 20 20 22 17 24
REMARK H PARENT 10 19 4 21 20 23 17 25
REMARK Flexibility Score: inf
ROOT
ATOM      1  C   UNL     1      97.232  97.894  77.452  1.00  0.00     0.180 A 
ATOM      2  C   UNL     1      97.068  98.187  78.817  1.00  0.00     0.208 A 
ATOM      3  C   UNL     1      95.930  98.900  79.227  1.00  0.00     0.238 A 
ATOM      4  O   UNL     1      95.761  99.113  80.456  1.00  0.00    -0.285 OA
ATOM      5  C   UNL     1      94.980  99.325  78.267  1.00  0.00     0.111 A 
ATOM      6  C   UNL     1      93.811 100.088  78.566  1.00  0.00     0.134 A 
ATOM      7  C   UNL     1      92.874 100.341  77.556  1.00  0.00     0.093 A 
ATOM      8  C   UNL     1      93.095  99.915  76.247  1.00  0.00     0.123 A 
ATOM      9  C   UNL     1      94.263  99.220  75.931  1.00  0.00     0.094 A 
ATOM     10  C   UNL     1      95.199  98.921  76.924  1.00  0.00     0.146 A 
ATOM     11  O   UNL     1      96.291  98.248  76.584  1.00  0.00    -0.452 OA
ENDROOT
BRANCH   1  12
ATOM     12  C   UNL     1      98.416  97.167  76.939  1.00  0.00     0.021 A 
ATOM     13  C   UNL     1      98.763  95.926  77.497  1.00  0.00     0.016 A 
ATOM     14  C   UNL     1      99.864  95.213  77.013  1.00  0.00     0.047 A 
ATOM     15  C   UNL     1     100.623  95.727  75.953  1.00  0.00     0.115 A 
ATOM     16  C   UNL     1      99.172  97.667  75.861  1.00  0.00     0.016 A 
ATOM     17  C   UNL     1     100.272  96.951  75.378  1.00  0.00     0.047 A 
BRANCH  15  18
ATOM     18  O   UNL     1     101.722  95.026  75.462  1.00  0.00    -0.508 OA
ATOM     19  H   UNL     1     101.994  95.082  74.487  1.00  0.00     0.293 HD
ENDBRANCH  15  18
ENDBRANCH   1  12
BRANCH   2  20
ATOM     20  O   UNL     1      98.007  97.740  79.750  1.00  0.00    -0.502 OA
ATOM     21  H   UNL     1      97.741  97.380  80.659  1.00  0.00     0.293 HD
ENDBRANCH   2  20
BRANCH   6  22
ATOM     22  O   UNL     1      93.540 100.640  79.821  1.00  0.00    -0.507 OA
ATOM     23  H   UNL     1      92.627 100.929  80.137  1.00  0.00     0.293 HD
ENDBRANCH   6  22
BRANCH   8  24
ATOM     24  O   UNL     1      92.148 100.197  75.264  1.00  0.00    -0.508 OA
ATOM     25  H   UNL     1      92.049 101.128  74.876  1.00  0.00     0.293 HD
ENDBRANCH   8  24
TORSDOF 5
ENDMDL
MODEL 9
REMARK VINA RESULT:    -4.739      2.558      4.398
REMARK INTER + INTRA:          -5.870
REMARK INTER:                  -5.586
REMARK INTRA:                  -0.285
REMARK UNBOUND:                -0.300
REMARK SMILES O=c1c(O)c(-c2ccc(O)cc2)oc2cc(O)cc(O)c12
REMARK SMILES IDX 5 1 3 2 2 3 1 4 21 5 19 6 18 7 16 8 15 9 14 10 13 11 6 12
REMARK SMILES IDX 7 13 8 14 9 15 12 16 11 17 10 18 4 20 20 22 17 24
REMARK H PARENT 10 19 4 21 20 23 17 25
REMARK Flexibility Score: inf
ROOT
ATOM      1  C   UNL     1      94.436  99.418  78.984  1.00  0.00     0.180 A 
ATOM      2  C   UNL     1      95.313  98.922  79.964  1.00  0.00     0.208 A 
ATOM      3  C   UNL     1      96.497  98.286  79.557  1.00  0.00     0.238 A 
ATOM      4  O   UNL     1      97.305  97.893  80.440  1.00  0.00    -0.285 OA
ATOM      5  C   UNL     1      96.781  98.138  78.178  1.00  0.00     0.111 A 
ATOM      6  C   UNL     1      97.930  97.475  77.654  1.00  0.00     0.134 A 
ATOM      7  C   UNL     1      98.176  97.502  76.276  1.00  0.00     0.093 A 
ATOM      8  C   UNL     1      97.280  98.111  75.398  1.00  0.00     0.123 A 
ATOM      9  C   UNL     1      96.122  98.712  75.894  1.00  0.00     0.094 A 
ATOM     10  C   UNL     1      95.869  98.733  77.268  1.00  0.00     0.146 A 
ATOM     11  O   UNL     1      94.761  99.323  77.699  1.00  0.00    -0.452 OA
ENDROOT
BRANCH   1  12
ATOM     12  C   UNL     1      93.158 100.079  79.332  1.00  0.00     0.021 A 
ATOM     13  C   UNL     1      93.073 101.482  79.305  1.00  0.00     0.016 A 
ATOM     14  C   UNL     1      91.869 102.125  79.608  1.00  0.00     0.047 A 
ATOM     15  C   UNL     1      90.731 101.373  79.929  1.00  0.00     0.115 A 
ATOM     16  C   UNL     1      92.004  99.331  79.635  1.00  0.00     0.016 A 
ATOM     17  C   UNL     1      90.802  99.978  79.938  1.00  0.00     0.047 A 
BRANCH  15  18
ATOM     18  O   UNL     1      89.527 102.003  80.233  1.00  0.00    -0.508 OA
ATOM     19  H   UNL     1      89.394 102.499  81.107  1.00  0.00     0.293 HD
ENDBRANCH  15  18
ENDBRANCH   1  12
BRANCH   2  20
ATOM     20  O   UNL     1      95.024  99.098  81.320  1.00  0.00    -0.502 OA
ATOM     21  H   UNL     1      94.575  98.381  81.877  1.00  0.00     0.293 HD
ENDBRANCH   2  20
BRANCH   6  22
ATOM     22  O   UNL     1      98.841  96.756  78.436  1.00  0.00    -0.507 OA
ATOM     23  H   UNL     1      99.843  96.790  78.329  1.00  0.00     0.293 HD
ENDBRANCH   6  22
BRANCH   8  24
ATOM     24  O   UNL     1      97.548  98.106  74.030  1.00  0.00    -0.508 OA
ATOM     25  H   UNL     1      97.915  97.284  73.565  1.00  0.00     0.293 HD
ENDBRANCH   8  24
TORSDOF 5
ENDMDL
