MODEL 1
REMARK VINA RESULT:    -3.757      0.000      0.000
REMARK INTER + INTRA:         -15.173
REMARK INTER:                  -9.908
REMARK INTRA:                  -5.265
REMARK UNBOUND:                -5.265
REMARK SMILES CCCCCCCCCCCCCCCCCCCCCCCCCCCCCC(=O)[O-]
REMARK SMILES IDX 16 1 17 2 18 3 19 4 20 5 21 6 22 7 23 8 24 9 25 10 26 11
REMARK SMILES IDX 27 12 28 13 29 14 30 15 31 16 32 17 15 18 14 19 13 20 12 21
REMARK SMILES IDX 11 22 10 23 9 24 8 25 7 26 6 27 5 28 4 29 3 30 2 31 1 32
REMARK H PARENT
REMARK Flexibility Score: inf
ROOT
ATOM      1  C   UNL     1      -1.267  -5.800 -26.851  1.00  0.00     0.000 C 
ENDROOT
BRANCH   1   2
ATOM      2  C   UNL     1      -1.321  -4.304 -27.219  1.00  0.00     0.000 C 
BRANCH   2   3
ATOM      3  C   UNL     1      -0.270  -3.903 -28.274  1.00  0.00     0.000 C 
BRANCH   3   4
ATOM      4  C   UNL     1      -0.317  -2.420 -28.683  1.00  0.00     0.000 C 
BRANCH   4   5
ATOM      5  C   UNL     1      -1.663  -1.751 -28.359  1.00  0.00     0.000 C 
BRANCH   5   6
ATOM      6  C   UNL     1      -1.577  -0.215 -28.338  1.00  0.00     0.000 C 
BRANCH   6   7
ATOM      7  C   UNL     1      -0.703   0.319 -27.191  1.00  0.00     0.000 C 
BRANCH   7   8
ATOM      8  C   UNL     1      -1.354   0.043 -25.827  1.00  0.00     0.000 C 
BRANCH   8   9
ATOM      9  C   UNL     1      -0.697  -1.143 -25.089  1.00  0.00     0.000 C 
BRANCH   9  10
ATOM     10  C   UNL     1      -1.702  -2.080 -24.399  1.00  0.00     0.000 C 
BRANCH  10  11
ATOM     11  C   UNL     1      -1.071  -2.905 -23.264  1.00  0.00     0.000 C 
BRANCH  11  12
ATOM     12  C   UNL     1      -2.078  -3.848 -22.587  1.00  0.00     0.000 C 
BRANCH  12  13
ATOM     13  C   UNL     1      -3.395  -3.141 -22.223  1.00  0.00     0.006 C 
BRANCH  13  14
ATOM     14  C   UNL     1      -3.533  -2.919 -20.710  1.00  0.00     0.053 C 
BRANCH  14  15
ATOM     15  C   UNL     1      -4.050  -4.137 -20.011  1.00  0.00     0.041 C 
ATOM     16  O   UNL     1      -3.354  -4.702 -19.126  1.00  0.00    -0.550 OA
ATOM     17  O   UNL     1      -5.312  -4.633 -20.313  1.00  0.00    -0.550 OA
ENDBRANCH  14  15
ENDBRANCH  13  14
ENDBRANCH  12  13
ENDBRANCH  11  12
ENDBRANCH  10  11
ENDBRANCH   9  10
ENDBRANCH   8   9
ENDBRANCH   7   8
ENDBRANCH   6   7
ENDBRANCH   5   6
ENDBRANCH   4   5
ENDBRANCH   3   4
ENDBRANCH   2   3
ENDBRANCH   1   2
BRANCH   1  18
ATOM     18  C   UNL     1      -2.600  -6.316 -26.287  1.00  0.00     0.000 C 
BRANCH  18  19
ATOM     19  C   UNL     1      -3.779  -5.374 -26.590  1.00  0.00     0.000 C 
BRANCH  19  20
ATOM     20  C   UNL     1      -4.646  -5.095 -25.352  1.00  0.00     0.000 C 
BRANCH  20  21
ATOM     21  C   UNL     1      -5.342  -3.726 -25.417  1.00  0.00     0.000 C 
BRANCH  21  22
ATOM     22  C   UNL     1      -5.077  -3.030 -26.757  1.00  0.00     0.000 C 
BRANCH  22  23
ATOM     23  C   UNL     1      -4.788  -1.536 -26.547  1.00  0.00     0.000 C 
BRANCH  23  24
ATOM     24  C   UNL     1      -4.933  -1.103 -25.079  1.00  0.00    -0.000 C 
BRANCH  24  25
ATOM     25  C   UNL     1      -4.927   0.428 -24.921  1.00  0.00    -0.000 C 
BRANCH  25  26
ATOM     26  C   UNL     1      -4.147   0.903 -23.680  1.00  0.00    -0.000 C 
BRANCH  26  27
ATOM     27  C   UNL     1      -4.062   2.432 -23.502  1.00  0.00    -0.000 C 
BRANCH  27  28
ATOM     28  C   UNL     1      -4.530   2.960 -22.132  1.00  0.00    -0.000 C 
BRANCH  28  29
ATOM     29  C   UNL     1      -3.465   2.841 -21.016  1.00  0.00    -0.000 C 
BRANCH  29  30
ATOM     30  C   UNL     1      -3.892   1.959 -19.828  1.00  0.00    -0.000 C 
BRANCH  30  31
ATOM     31  C   UNL     1      -2.892   0.827 -19.541  1.00  0.00    -0.003 C 
ATOM     32  C   UNL     1      -2.005   0.560 -20.755  1.00  0.00     0.004 C 
ENDBRANCH  30  31
ENDBRANCH  29  30
ENDBRANCH  28  29
ENDBRANCH  27  28
ENDBRANCH  26  27
ENDBRANCH  25  26
ENDBRANCH  24  25
ENDBRANCH  23  24
ENDBRANCH  22  23
ENDBRANCH  21  22
ENDBRANCH  20  21
ENDBRANCH  19  20
ENDBRANCH  18  19
ENDBRANCH   1  18
TORSDOF 28
ENDMDL
MODEL 2
REMARK VINA RESULT:    -3.622      7.628     11.470
REMARK INTER + INTRA:         -14.815
REMARK INTER:                 -10.048
REMARK INTRA:                  -4.767
REMARK UNBOUND:                -5.265
REMARK SMILES CCCCCCCCCCCCCCCCCCCCCCCCCCCCCC(=O)[O-]
REMARK SMILES IDX 16 1 17 2 18 3 19 4 20 5 21 6 22 7 23 8 24 9 25 10 26 11
REMARK SMILES IDX 27 12 28 13 29 14 30 15 31 16 32 17 15 18 14 19 13 20 12 21
REMARK SMILES IDX 11 22 10 23 9 24 8 25 7 26 6 27 5 28 4 29 3 30 2 31 1 32
REMARK H PARENT
REMARK Flexibility Score: inf
ROOT
ATOM      1  C   UNL     1      -0.504 -10.895 -15.132  1.00  0.00     0.000 C 
ENDROOT
BRANCH   1   2
ATOM      2  C   UNL     1      -0.475  -9.983 -13.889  1.00  0.00     0.000 C 
BRANCH   2   3
ATOM      3  C   UNL     1       0.470  -8.774 -14.051  1.00  0.00     0.000 C 
BRANCH   3   4
ATOM      4  C   UNL     1       0.479  -7.813 -12.850  1.00  0.00     0.000 C 
BRANCH   4   5
ATOM      5  C   UNL     1      -0.131  -6.439 -13.176  1.00  0.00     0.000 C 
BRANCH   5   6
ATOM      6  C   UNL     1      -0.935  -5.849 -12.005  1.00  0.00     0.000 C 
BRANCH   6   7
ATOM      7  C   UNL     1      -1.658  -4.543 -12.374  1.00  0.00     0.000 C 
BRANCH   7   8
ATOM      8  C   UNL     1      -2.074  -4.543 -13.854  1.00  0.00     0.000 C 
BRANCH   8   9
ATOM      9  C   UNL     1      -1.757  -3.204 -14.554  1.00  0.00     0.000 C 
BRANCH   9  10
ATOM     10  C   UNL     1      -1.527  -3.334 -16.069  1.00  0.00     0.000 C 
BRANCH  10  11
ATOM     11  C   UNL     1      -2.527  -2.511 -16.900  1.00  0.00     0.000 C 
BRANCH  11  12
ATOM     12  C   UNL     1      -3.945  -2.532 -16.309  1.00  0.00     0.000 C 
BRANCH  12  13
ATOM     13  C   UNL     1      -4.648  -1.168 -16.413  1.00  0.00     0.006 C 
BRANCH  13  14
ATOM     14  C   UNL     1      -3.781  -0.125 -17.131  1.00  0.00     0.053 C 
BRANCH  14  15
ATOM     15  C   UNL     1      -3.252   0.909 -16.186  1.00  0.00     0.041 C 
ATOM     16  O   UNL     1      -3.145   2.109 -16.555  1.00  0.00    -0.550 OA
ATOM     17  O   UNL     1      -2.906   0.556 -14.887  1.00  0.00    -0.550 OA
ENDBRANCH  14  15
ENDBRANCH  13  14
ENDBRANCH  12  13
ENDBRANCH  11  12
ENDBRANCH  10  11
ENDBRANCH   9  10
ENDBRANCH   8   9
ENDBRANCH   7   8
ENDBRANCH   6   7
ENDBRANCH   5   6
ENDBRANCH   4   5
ENDBRANCH   3   4
ENDBRANCH   2   3
ENDBRANCH   1   2
BRANCH   1  18
ATOM     18  C   UNL     1      -1.706 -11.853 -15.129  1.00  0.00     0.000 C 
BRANCH  18  19
ATOM     19  C   UNL     1      -2.832 -11.401 -16.076  1.00  0.00     0.000 C 
BRANCH  19  20
ATOM     20  C   UNL     1      -4.077 -12.298 -15.986  1.00  0.00     0.000 C 
BRANCH  20  21
ATOM     21  C   UNL     1      -5.372 -11.540 -16.313  1.00  0.00     0.000 C 
BRANCH  21  22
ATOM     22  C   UNL     1      -5.075 -10.186 -16.969  1.00  0.00     0.000 C 
BRANCH  22  23
ATOM     23  C   UNL     1      -5.503 -10.191 -18.444  1.00  0.00     0.000 C 
BRANCH  23  24
ATOM     24  C   UNL     1      -4.308 -10.242 -19.410  1.00  0.00    -0.000 C 
BRANCH  24  25
ATOM     25  C   UNL     1      -3.915  -8.846 -19.925  1.00  0.00    -0.000 C 
BRANCH  25  26
ATOM     26  C   UNL     1      -2.413  -8.542 -19.758  1.00  0.00    -0.000 C 
BRANCH  26  27
ATOM     27  C   UNL     1      -1.814  -8.918 -18.389  1.00  0.00    -0.000 C 
BRANCH  27  28
ATOM     28  C   UNL     1      -0.814  -7.899 -17.808  1.00  0.00    -0.000 C 
BRANCH  28  29
ATOM     29  C   UNL     1      -1.366  -7.092 -16.610  1.00  0.00    -0.000 C 
BRANCH  29  30
ATOM     30  C   UNL     1      -2.855  -7.345 -16.310  1.00  0.00    -0.000 C 
BRANCH  30  31
ATOM     31  C   UNL     1      -3.745  -6.143 -16.664  1.00  0.00    -0.003 C 
ATOM     32  C   UNL     1      -5.078  -6.603 -17.249  1.00  0.00     0.004 C 
ENDBRANCH  30  31
ENDBRANCH  29  30
ENDBRANCH  28  29
ENDBRANCH  27  28
ENDBRANCH  26  27
ENDBRANCH  25  26
ENDBRANCH  24  25
ENDBRANCH  23  24
ENDBRANCH  22  23
ENDBRANCH  21  22
ENDBRANCH  20  21
ENDBRANCH  19  20
ENDBRANCH  18  19
ENDBRANCH   1  18
TORSDOF 28
ENDMDL
MODEL 3
REMARK VINA RESULT:    -3.471      2.940      8.090
REMARK INTER + INTRA:         -14.418
REMARK INTER:                  -9.488
REMARK INTRA:                  -4.930
REMARK UNBOUND:                -5.265
REMARK SMILES CCCCCCCCCCCCCCCCCCCCCCCCCCCCCC(=O)[O-]
REMARK SMILES IDX 16 1 17 2 18 3 19 4 20 5 21 6 22 7 23 8 24 9 25 10 26 11
REMARK SMILES IDX 27 12 28 13 29 14 30 15 31 16 32 17 15 18 14 19 13 20 12 21
REMARK SMILES IDX 11 22 10 23 9 24 8 25 7 26 6 27 5 28 4 29 3 30 2 31 1 32
REMARK H PARENT
REMARK Flexibility Score: inf
ROOT
ATOM      1  C   UNL     1      -1.538   0.615 -24.832  1.00  0.00     0.000 C 
ENDROOT
BRANCH   1   2
ATOM      2  C   UNL     1      -1.972  -0.195 -23.594  1.00  0.00     0.000 C 
BRANCH   2   3
ATOM      3  C   UNL     1      -3.504  -0.338 -23.474  1.00  0.00     0.000 C 
BRANCH   3   4
ATOM      4  C   UNL     1      -4.300   0.552 -24.443  1.00  0.00     0.000 C 
BRANCH   4   5
ATOM      5  C   UNL     1      -5.045  -0.252 -25.522  1.00  0.00     0.000 C 
BRANCH   5   6
ATOM      6  C   UNL     1      -4.648  -1.738 -25.540  1.00  0.00     0.000 C 
BRANCH   6   7
ATOM      7  C   UNL     1      -4.984  -2.430 -26.872  1.00  0.00     0.000 C 
BRANCH   7   8
ATOM      8  C   UNL     1      -5.025  -3.957 -26.705  1.00  0.00     0.000 C 
BRANCH   8   9
ATOM      9  C   UNL     1      -4.671  -4.403 -25.270  1.00  0.00     0.000 C 
BRANCH   9  10
ATOM     10  C   UNL     1      -4.265  -5.882 -25.161  1.00  0.00     0.000 C 
BRANCH  10  11
ATOM     11  C   UNL     1      -4.472  -6.659 -26.472  1.00  0.00     0.000 C 
BRANCH  11  12
ATOM     12  C   UNL     1      -4.205  -8.165 -26.316  1.00  0.00     0.000 C 
BRANCH  12  13
ATOM     13  C   UNL     1      -4.040  -8.586 -24.846  1.00  0.00     0.006 C 
BRANCH  13  14
ATOM     14  C   UNL     1      -3.196  -9.859 -24.701  1.00  0.00     0.053 C 
BRANCH  14  15
ATOM     15  C   UNL     1      -1.768  -9.630 -25.086  1.00  0.00     0.041 C 
ATOM     16  O   UNL     1      -1.311 -10.127 -26.150  1.00  0.00    -0.550 OA
ATOM     17  O   UNL     1      -0.947  -8.844 -24.287  1.00  0.00    -0.550 OA
ENDBRANCH  14  15
ENDBRANCH  13  14
ENDBRANCH  12  13
ENDBRANCH  11  12
ENDBRANCH  10  11
ENDBRANCH   9  10
ENDBRANCH   8   9
ENDBRANCH   7   8
ENDBRANCH   6   7
ENDBRANCH   5   6
ENDBRANCH   4   5
ENDBRANCH   3   4
ENDBRANCH   2   3
ENDBRANCH   1   2
BRANCH   1  18
ATOM     18  C   UNL     1      -0.994  -0.279 -25.957  1.00  0.00     0.000 C 
BRANCH  18  19
ATOM     19  C   UNL     1      -1.632   0.029 -27.324  1.00  0.00     0.000 C 
BRANCH  19  20
ATOM     20  C   UNL     1      -1.829  -1.231 -28.182  1.00  0.00     0.000 C 
BRANCH  20  21
ATOM     21  C   UNL     1      -0.510  -1.753 -28.772  1.00  0.00     0.000 C 
BRANCH  21  22
ATOM     22  C   UNL     1      -0.270  -3.218 -28.388  1.00  0.00     0.000 C 
BRANCH  22  23
ATOM     23  C   UNL     1      -1.469  -3.781 -27.610  1.00  0.00     0.000 C 
BRANCH  23  24
ATOM     24  C   UNL     1      -1.068  -4.390 -26.256  1.00  0.00    -0.000 C 
BRANCH  24  25
ATOM     25  C   UNL     1      -0.246  -5.680 -26.418  1.00  0.00    -0.000 C 
BRANCH  25  26
ATOM     26  C   UNL     1      -0.959  -6.747 -27.272  1.00  0.00    -0.000 C 
BRANCH  26  27
ATOM     27  C   UNL     1      -0.111  -7.358 -28.404  1.00  0.00    -0.000 C 
BRANCH  27  28
ATOM     28  C   UNL     1       1.314  -6.786 -28.539  1.00  0.00    -0.000 C 
BRANCH  28  29
ATOM     29  C   UNL     1       1.547  -5.983 -29.840  1.00  0.00    -0.000 C 
BRANCH  29  30
ATOM     30  C   UNL     1       3.026  -5.867 -30.253  1.00  0.00    -0.000 C 
BRANCH  30  31
ATOM     31  C   UNL     1       3.275  -4.726 -31.253  1.00  0.00    -0.003 C 
ATOM     32  C   UNL     1       2.079  -3.777 -31.309  1.00  0.00     0.004 C 
ENDBRANCH  30  31
ENDBRANCH  29  30
ENDBRANCH  28  29
ENDBRANCH  27  28
ENDBRANCH  26  27
ENDBRANCH  25  26
ENDBRANCH  24  25
ENDBRANCH  23  24
ENDBRANCH  22  23
ENDBRANCH  21  22
ENDBRANCH  20  21
ENDBRANCH  19  20
ENDBRANCH  18  19
ENDBRANCH   1  18
TORSDOF 28
ENDMDL
MODEL 4
REMARK VINA RESULT:    -3.469      3.925      8.414
REMARK INTER + INTRA:         -14.413
REMARK INTER:                  -9.363
REMARK INTRA:                  -5.050
REMARK UNBOUND:                -5.265
REMARK SMILES CCCCCCCCCCCCCCCCCCCCCCCCCCCCCC(=O)[O-]
REMARK SMILES IDX 16 1 17 2 18 3 19 4 20 5 21 6 22 7 23 8 24 9 25 10 26 11
REMARK SMILES IDX 27 12 28 13 29 14 30 15 31 16 32 17 15 18 14 19 13 20 12 21
REMARK SMILES IDX 11 22 10 23 9 24 8 25 7 26 6 27 5 28 4 29 3 30 2 31 1 32
REMARK H PARENT
REMARK Flexibility Score: inf
ROOT
ATOM      1  C   UNL     1      -1.715  -4.632 -27.248  1.00  0.00     0.000 C 
ENDROOT
BRANCH   1   2
ATOM      2  C   UNL     1      -1.910  -4.151 -25.796  1.00  0.00     0.000 C 
BRANCH   2   3
ATOM      3  C   UNL     1      -3.393  -3.949 -25.422  1.00  0.00     0.000 C 
BRANCH   3   4
ATOM      4  C   UNL     1      -4.378  -4.225 -26.571  1.00  0.00     0.000 C 
BRANCH   4   5
ATOM      5  C   UNL     1      -5.172  -2.978 -26.994  1.00  0.00     0.000 C 
BRANCH   5   6
ATOM      6  C   UNL     1      -4.422  -1.666 -26.706  1.00  0.00     0.000 C 
BRANCH   6   7
ATOM      7  C   UNL     1      -5.252  -0.673 -25.876  1.00  0.00     0.000 C 
BRANCH   7   8
ATOM      8  C   UNL     1      -4.345   0.214 -25.009  1.00  0.00     0.000 C 
BRANCH   8   9
ATOM      9  C   UNL     1      -3.610  -0.588 -23.914  1.00  0.00     0.000 C 
BRANCH   9  10
ATOM     10  C   UNL     1      -2.083  -0.629 -24.092  1.00  0.00     0.000 C 
BRANCH  10  11
ATOM     11  C   UNL     1      -1.599   0.186 -25.304  1.00  0.00     0.000 C 
BRANCH  11  12
ATOM     12  C   UNL     1      -0.585  -0.581 -26.167  1.00  0.00     0.000 C 
BRANCH  12  13
ATOM     13  C   UNL     1      -0.413   0.036 -27.565  1.00  0.00     0.006 C 
BRANCH  13  14
ATOM     14  C   UNL     1      -1.713  -0.008 -28.380  1.00  0.00     0.053 C 
BRANCH  14  15
ATOM     15  C   UNL     1      -1.459   0.139 -29.848  1.00  0.00     0.041 C 
ATOM     16  O   UNL     1      -0.420  -0.356 -30.362  1.00  0.00    -0.550 OA
ATOM     17  O   UNL     1      -2.380   0.794 -30.655  1.00  0.00    -0.550 OA
ENDBRANCH  14  15
ENDBRANCH  13  14
ENDBRANCH  12  13
ENDBRANCH  11  12
ENDBRANCH  10  11
ENDBRANCH   9  10
ENDBRANCH   8   9
ENDBRANCH   7   8
ENDBRANCH   6   7
ENDBRANCH   5   6
ENDBRANCH   4   5
ENDBRANCH   3   4
ENDBRANCH   2   3
ENDBRANCH   1   2
BRANCH   1  18
ATOM     18  C   UNL     1      -0.884  -3.647 -28.086  1.00  0.00     0.000 C 
BRANCH  18  19
ATOM     19  C   UNL     1       0.372  -4.295 -28.696  1.00  0.00     0.000 C 
BRANCH  19  20
ATOM     20  C   UNL     1       0.608  -5.725 -28.184  1.00  0.00     0.000 C 
BRANCH  20  21
ATOM     21  C   UNL     1       1.693  -6.464 -28.983  1.00  0.00     0.000 C 
BRANCH  21  22
ATOM     22  C   UNL     1       1.338  -7.945 -29.165  1.00  0.00     0.000 C 
BRANCH  22  23
ATOM     23  C   UNL     1      -0.061  -8.243 -28.605  1.00  0.00     0.000 C 
BRANCH  23  24
ATOM     24  C   UNL     1      -0.957  -8.989 -29.607  1.00  0.00    -0.000 C 
BRANCH  24  25
ATOM     25  C   UNL     1      -1.286 -10.418 -29.143  1.00  0.00    -0.000 C 
BRANCH  25  26
ATOM     26  C   UNL     1      -1.349 -10.554 -27.609  1.00  0.00    -0.000 C 
BRANCH  26  27
ATOM     27  C   UNL     1      -2.693 -11.062 -27.049  1.00  0.00    -0.000 C 
BRANCH  27  28
ATOM     28  C   UNL     1      -3.520 -10.014 -26.279  1.00  0.00    -0.000 C 
BRANCH  28  29
ATOM     29  C   UNL     1      -3.138  -8.551 -26.602  1.00  0.00    -0.000 C 
BRANCH  29  30
ATOM     30  C   UNL     1      -2.707  -7.725 -25.376  1.00  0.00    -0.000 C 
BRANCH  30  31
ATOM     31  C   UNL     1      -1.187  -7.754 -25.145  1.00  0.00    -0.003 C 
ATOM     32  C   UNL     1      -0.802  -8.876 -24.183  1.00  0.00     0.004 C 
ENDBRANCH  30  31
ENDBRANCH  29  30
ENDBRANCH  28  29
ENDBRANCH  27  28
ENDBRANCH  26  27
ENDBRANCH  25  26
ENDBRANCH  24  25
ENDBRANCH  23  24
ENDBRANCH  22  23
ENDBRANCH  21  22
ENDBRANCH  20  21
ENDBRANCH  19  20
ENDBRANCH  18  19
ENDBRANCH   1  18
TORSDOF 28
ENDMDL
MODEL 5
REMARK VINA RESULT:    -3.458      3.505      8.357
REMARK INTER + INTRA:         -14.384
REMARK INTER:                  -7.852
REMARK INTRA:                  -6.532
REMARK UNBOUND:                -5.265
REMARK SMILES CCCCCCCCCCCCCCCCCCCCCCCCCCCCCC(=O)[O-]
REMARK SMILES IDX 16 1 17 2 18 3 19 4 20 5 21 6 22 7 23 8 24 9 25 10 26 11
REMARK SMILES IDX 27 12 28 13 29 14 30 15 31 16 32 17 15 18 14 19 13 20 12 21
REMARK SMILES IDX 11 22 10 23 9 24 8 25 7 26 6 27 5 28 4 29 3 30 2 31 1 32
REMARK H PARENT
REMARK Flexibility Score: inf
ROOT
ATOM      1  C   UNL     1      -0.911  -5.187 -23.290  1.00  0.00     0.000 C 
ENDROOT
BRANCH   1   2
ATOM      2  C   UNL     1      -1.341  -4.182 -24.377  1.00  0.00     0.000 C 
BRANCH   2   3
ATOM      3  C   UNL     1      -0.436  -2.934 -24.437  1.00  0.00     0.000 C 
BRANCH   3   4
ATOM      4  C   UNL     1      -1.159  -1.612 -24.127  1.00  0.00     0.000 C 
BRANCH   4   5
ATOM      5  C   UNL     1      -1.896  -1.633 -22.778  1.00  0.00     0.000 C 
BRANCH   5   6
ATOM      6  C   UNL     1      -3.426  -1.607 -22.931  1.00  0.00     0.000 C 
BRANCH   6   7
ATOM      7  C   UNL     1      -3.877  -1.184 -24.339  1.00  0.00     0.000 C 
BRANCH   7   8
ATOM      8  C   UNL     1      -4.664  -2.311 -25.027  1.00  0.00     0.000 C 
BRANCH   8   9
ATOM      9  C   UNL     1      -4.615  -2.209 -26.567  1.00  0.00     0.000 C 
BRANCH   9  10
ATOM     10  C   UNL     1      -3.336  -2.795 -27.188  1.00  0.00     0.000 C 
BRANCH  10  11
ATOM     11  C   UNL     1      -2.403  -1.717 -27.768  1.00  0.00     0.000 C 
BRANCH  11  12
ATOM     12  C   UNL     1      -0.975  -2.233 -28.000  1.00  0.00     0.000 C 
BRANCH  12  13
ATOM     13  C   UNL     1      -0.894  -3.770 -27.993  1.00  0.00     0.006 C 
BRANCH  13  14
ATOM     14  C   UNL     1       0.382  -4.284 -28.674  1.00  0.00     0.053 C 
BRANCH  14  15
ATOM     15  C   UNL     1       1.455  -4.605 -27.682  1.00  0.00     0.041 C 
ATOM     16  O   UNL     1       1.171  -5.217 -26.618  1.00  0.00    -0.550 OA
ATOM     17  O   UNL     1       2.775  -4.256 -27.942  1.00  0.00    -0.550 OA
ENDBRANCH  14  15
ENDBRANCH  13  14
ENDBRANCH  12  13
ENDBRANCH  11  12
ENDBRANCH  10  11
ENDBRANCH   9  10
ENDBRANCH   8   9
ENDBRANCH   7   8
ENDBRANCH   6   7
ENDBRANCH   5   6
ENDBRANCH   4   5
ENDBRANCH   3   4
ENDBRANCH   2   3
ENDBRANCH   1   2
BRANCH   1  18
ATOM     18  C   UNL     1      -2.099  -5.968 -22.709  1.00  0.00     0.000 C 
BRANCH  18  19
ATOM     19  C   UNL     1      -3.460  -5.409 -23.162  1.00  0.00     0.000 C 
BRANCH  19  20
ATOM     20  C   UNL     1      -4.357  -6.480 -23.801  1.00  0.00     0.000 C 
BRANCH  20  21
ATOM     21  C   UNL     1      -5.103  -5.961 -25.040  1.00  0.00     0.000 C 
BRANCH  21  22
ATOM     22  C   UNL     1      -4.229  -6.058 -26.297  1.00  0.00     0.000 C 
BRANCH  22  23
ATOM     23  C   UNL     1      -3.350  -7.317 -26.252  1.00  0.00     0.000 C 
BRANCH  23  24
ATOM     24  C   UNL     1      -1.864  -7.014 -26.504  1.00  0.00    -0.000 C 
BRANCH  24  25
ATOM     25  C   UNL     1      -0.948  -8.154 -26.025  1.00  0.00    -0.000 C 
BRANCH  25  26
ATOM     26  C   UNL     1      -1.569  -8.990 -24.889  1.00  0.00    -0.000 C 
BRANCH  26  27
ATOM     27  C   UNL     1      -1.703 -10.498 -25.178  1.00  0.00    -0.000 C 
BRANCH  27  28
ATOM     28  C   UNL     1      -3.113 -10.965 -25.587  1.00  0.00    -0.000 C 
BRANCH  28  29
ATOM     29  C   UNL     1      -3.243 -11.333 -27.084  1.00  0.00    -0.000 C 
BRANCH  29  30
ATOM     30  C   UNL     1      -1.947 -11.148 -27.894  1.00  0.00    -0.000 C 
BRANCH  30  31
ATOM     31  C   UNL     1      -2.045 -10.004 -28.917  1.00  0.00    -0.003 C 
ATOM     32  C   UNL     1      -0.683  -9.712 -29.542  1.00  0.00     0.004 C 
ENDBRANCH  30  31
ENDBRANCH  29  30
ENDBRANCH  28  29
ENDBRANCH  27  28
ENDBRANCH  26  27
ENDBRANCH  25  26
ENDBRANCH  24  25
ENDBRANCH  23  24
ENDBRANCH  22  23
ENDBRANCH  21  22
ENDBRANCH  20  21
ENDBRANCH  19  20
ENDBRANCH  18  19
ENDBRANCH   1  18
TORSDOF 28
ENDMDL
MODEL 6
REMARK VINA RESULT:    -3.457     14.481     17.404
REMARK INTER + INTRA:         -14.381
REMARK INTER:                  -9.162
REMARK INTRA:                  -5.220
REMARK UNBOUND:                -5.265
REMARK SMILES CCCCCCCCCCCCCCCCCCCCCCCCCCCCCC(=O)[O-]
REMARK SMILES IDX 16 1 17 2 18 3 19 4 20 5 21 6 22 7 23 8 24 9 25 10 26 11
REMARK SMILES IDX 27 12 28 13 29 14 30 15 31 16 32 17 15 18 14 19 13 20 12 21
REMARK SMILES IDX 11 22 10 23 9 24 8 25 7 26 6 27 5 28 4 29 3 30 2 31 1 32
REMARK H PARENT
REMARK Flexibility Score: inf
ROOT
ATOM      1  C   UNL     1       9.536 -11.728 -24.473  1.00  0.00     0.000 C 
ENDROOT
BRANCH   1   2
ATOM      2  C   UNL     1      10.355 -10.875 -23.484  1.00  0.00     0.000 C 
BRANCH   2   3
ATOM      3  C   UNL     1      11.729 -11.492 -23.149  1.00  0.00     0.000 C 
BRANCH   3   4
ATOM      4  C   UNL     1      12.828 -11.186 -24.181  1.00  0.00     0.000 C 
BRANCH   4   5
ATOM      5  C   UNL     1      13.540  -9.848 -23.921  1.00  0.00     0.000 C 
BRANCH   5   6
ATOM      6  C   UNL     1      13.802  -9.050 -25.210  1.00  0.00     0.000 C 
BRANCH   6   7
ATOM      7  C   UNL     1      12.707  -9.252 -26.270  1.00  0.00     0.000 C 
BRANCH   7   8
ATOM      8  C   UNL     1      11.893  -7.964 -26.474  1.00  0.00     0.000 C 
BRANCH   8   9
ATOM      9  C   UNL     1      10.955  -7.665 -25.285  1.00  0.00     0.000 C 
BRANCH   9  10
ATOM     10  C   UNL     1      11.277  -6.351 -24.554  1.00  0.00     0.000 C 
BRANCH  10  11
ATOM     11  C   UNL     1      11.782  -6.572 -23.117  1.00  0.00     0.000 C 
BRANCH  11  12
ATOM     12  C   UNL     1      13.278  -6.255 -22.961  1.00  0.00     0.000 C 
BRANCH  12  13
ATOM     13  C   UNL     1      13.539  -5.131 -21.943  1.00  0.00     0.006 C 
BRANCH  13  14
ATOM     14  C   UNL     1      12.775  -3.847 -22.292  1.00  0.00     0.053 C 
BRANCH  14  15
ATOM     15  C   UNL     1      11.852  -3.429 -21.190  1.00  0.00     0.041 C 
ATOM     16  O   UNL     1      11.474  -2.230 -21.102  1.00  0.00    -0.550 OA
ATOM     17  O   UNL     1      11.384  -4.366 -20.277  1.00  0.00    -0.550 OA
ENDBRANCH  14  15
ENDBRANCH  13  14
ENDBRANCH  12  13
ENDBRANCH  11  12
ENDBRANCH  10  11
ENDBRANCH   9  10
ENDBRANCH   8   9
ENDBRANCH   7   8
ENDBRANCH   6   7
ENDBRANCH   5   6
ENDBRANCH   4   5
ENDBRANCH   3   4
ENDBRANCH   2   3
ENDBRANCH   1   2
BRANCH   1  18
ATOM     18  C   UNL     1       9.414 -11.070 -25.856  1.00  0.00     0.000 C 
BRANCH  18  19
ATOM     19  C   UNL     1      10.235 -11.797 -26.937  1.00  0.00     0.000 C 
BRANCH  19  20
ATOM     20  C   UNL     1      10.744 -13.170 -26.470  1.00  0.00     0.000 C 
BRANCH  20  21
ATOM     21  C   UNL     1      10.617 -14.245 -27.560  1.00  0.00     0.000 C 
BRANCH  21  22
ATOM     22  C   UNL     1      10.343 -15.626 -26.950  1.00  0.00     0.000 C 
BRANCH  22  23
ATOM     23  C   UNL     1       9.249 -16.361 -27.739  1.00  0.00     0.000 C 
BRANCH  23  24
ATOM     24  C   UNL     1       9.507 -16.364 -29.254  1.00  0.00    -0.000 C 
BRANCH  24  25
ATOM     25  C   UNL     1       8.201 -16.412 -30.067  1.00  0.00    -0.000 C 
BRANCH  25  26
ATOM     26  C   UNL     1       6.988 -15.858 -29.294  1.00  0.00    -0.000 C 
BRANCH  26  27
ATOM     27  C   UNL     1       6.617 -14.397 -29.614  1.00  0.00    -0.000 C 
BRANCH  27  28
ATOM     28  C   UNL     1       7.370 -13.333 -28.791  1.00  0.00    -0.000 C 
BRANCH  28  29
ATOM     29  C   UNL     1       6.446 -12.414 -27.957  1.00  0.00    -0.000 C 
BRANCH  29  30
ATOM     30  C   UNL     1       6.026 -13.006 -26.599  1.00  0.00    -0.000 C 
BRANCH  30  31
ATOM     31  C   UNL     1       7.069 -13.981 -26.029  1.00  0.00    -0.003 C 
ATOM     32  C   UNL     1       6.613 -14.545 -24.686  1.00  0.00     0.004 C 
ENDBRANCH  30  31
ENDBRANCH  29  30
ENDBRANCH  28  29
ENDBRANCH  27  28
ENDBRANCH  26  27
ENDBRANCH  25  26
ENDBRANCH  24  25
ENDBRANCH  23  24
ENDBRANCH  22  23
ENDBRANCH  21  22
ENDBRANCH  20  21
ENDBRANCH  19  20
ENDBRANCH  18  19
ENDBRANCH   1  18
TORSDOF 28
ENDMDL
MODEL 7
REMARK VINA RESULT:    -3.456     10.386     13.408
REMARK INTER + INTRA:         -14.378
REMARK INTER:                  -8.168
REMARK INTRA:                  -6.209
REMARK UNBOUND:                -5.265
REMARK SMILES CCCCCCCCCCCCCCCCCCCCCCCCCCCCCC(=O)[O-]
REMARK SMILES IDX 16 1 17 2 18 3 19 4 20 5 21 6 22 7 23 8 24 9 25 10 26 11
REMARK SMILES IDX 27 12 28 13 29 14 30 15 31 16 32 17 15 18 14 19 13 20 12 21
REMARK SMILES IDX 11 22 10 23 9 24 8 25 7 26 6 27 5 28 4 29 3 30 2 31 1 32
REMARK H PARENT
REMARK Flexibility Score: inf
ROOT
ATOM      1  C   UNL     1      -0.955 -10.323 -15.159  1.00  0.00     0.000 C 
ENDROOT
BRANCH   1   2
ATOM      2  C   UNL     1      -1.796  -9.120 -15.629  1.00  0.00     0.000 C 
BRANCH   2   3
ATOM      3  C   UNL     1      -2.635  -9.425 -16.888  1.00  0.00     0.000 C 
BRANCH   3   4
ATOM      4  C   UNL     1      -4.117  -9.726 -16.603  1.00  0.00     0.000 C 
BRANCH   4   5
ATOM      5  C   UNL     1      -4.350 -11.153 -16.080  1.00  0.00     0.000 C 
BRANCH   5   6
ATOM      6  C   UNL     1      -5.463 -11.894 -16.841  1.00  0.00     0.000 C 
BRANCH   6   7
ATOM      7  C   UNL     1      -5.267 -11.862 -18.366  1.00  0.00     0.000 C 
BRANCH   7   8
ATOM      8  C   UNL     1      -4.211 -12.886 -18.808  1.00  0.00     0.000 C 
BRANCH   8   9
ATOM      9  C   UNL     1      -2.999 -12.223 -19.496  1.00  0.00     0.000 C 
BRANCH   9  10
ATOM     10  C   UNL     1      -1.674 -12.409 -18.737  1.00  0.00     0.000 C 
BRANCH  10  11
ATOM     11  C   UNL     1      -1.578 -13.769 -18.023  1.00  0.00     0.000 C 
BRANCH  11  12
ATOM     12  C   UNL     1      -1.291 -13.628 -16.520  1.00  0.00     0.000 C 
BRANCH  12  13
ATOM     13  C   UNL     1      -2.428 -14.186 -15.647  1.00  0.00     0.006 C 
BRANCH  13  14
ATOM     14  C   UNL     1      -2.330 -13.705 -14.194  1.00  0.00     0.053 C 
BRANCH  14  15
ATOM     15  C   UNL     1      -2.141 -14.842 -13.239  1.00  0.00     0.041 C 
ATOM     16  O   UNL     1      -1.285 -15.735 -13.480  1.00  0.00    -0.550 OA
ATOM     17  O   UNL     1      -2.887 -14.904 -12.069  1.00  0.00    -0.550 OA
ENDBRANCH  14  15
ENDBRANCH  13  14
ENDBRANCH  12  13
ENDBRANCH  11  12
ENDBRANCH  10  11
ENDBRANCH   9  10
ENDBRANCH   8   9
ENDBRANCH   7   8
ENDBRANCH   6   7
ENDBRANCH   5   6
ENDBRANCH   4   5
ENDBRANCH   3   4
ENDBRANCH   2   3
ENDBRANCH   1   2
BRANCH   1  18
ATOM     18  C   UNL     1       0.194  -9.908 -14.226  1.00  0.00     0.000 C 
BRANCH  18  19
ATOM     19  C   UNL     1      -0.143  -8.665 -13.382  1.00  0.00     0.000 C 
BRANCH  19  20
ATOM     20  C   UNL     1       1.071  -8.132 -12.604  1.00  0.00     0.000 C 
BRANCH  20  21
ATOM     21  C   UNL     1       0.974  -6.624 -12.324  1.00  0.00     0.000 C 
BRANCH  21  22
ATOM     22  C   UNL     1      -0.480  -6.192 -12.099  1.00  0.00     0.000 C 
BRANCH  22  23
ATOM     23  C   UNL     1      -0.808  -4.936 -12.920  1.00  0.00     0.000 C 
BRANCH  23  24
ATOM     24  C   UNL     1      -1.379  -5.264 -14.309  1.00  0.00    -0.000 C 
BRANCH  24  25
ATOM     25  C   UNL     1      -0.387  -4.937 -15.439  1.00  0.00    -0.000 C 
BRANCH  25  26
ATOM     26  C   UNL     1       0.024  -6.175 -16.259  1.00  0.00    -0.000 C 
BRANCH  26  27
ATOM     27  C   UNL     1       1.454  -6.690 -16.002  1.00  0.00    -0.000 C 
BRANCH  27  28
ATOM     28  C   UNL     1       1.902  -7.860 -16.900  1.00  0.00    -0.000 C 
BRANCH  28  29
ATOM     29  C   UNL     1       0.913  -8.189 -18.042  1.00  0.00    -0.000 C 
BRANCH  29  30
ATOM     30  C   UNL     1       0.793  -9.691 -18.360  1.00  0.00    -0.000 C 
BRANCH  30  31
ATOM     31  C   UNL     1       2.090 -10.464 -18.071  1.00  0.00    -0.003 C 
ATOM     32  C   UNL     1       1.826 -11.649 -17.145  1.00  0.00     0.004 C 
ENDBRANCH  30  31
ENDBRANCH  29  30
ENDBRANCH  28  29
ENDBRANCH  27  28
ENDBRANCH  26  27
ENDBRANCH  25  26
ENDBRANCH  24  25
ENDBRANCH  23  24
ENDBRANCH  22  23
ENDBRANCH  21  22
ENDBRANCH  20  21
ENDBRANCH  19  20
ENDBRANCH  18  19
ENDBRANCH   1  18
TORSDOF 28
ENDMDL
MODEL 8
REMARK VINA RESULT:    -3.426      4.628      7.602
REMARK INTER + INTRA:         -14.298
REMARK INTER:                  -9.607
REMARK INTRA:                  -4.691
REMARK UNBOUND:                -5.265
REMARK SMILES CCCCCCCCCCCCCCCCCCCCCCCCCCCCCC(=O)[O-]
REMARK SMILES IDX 16 1 17 2 18 3 19 4 20 5 21 6 22 7 23 8 24 9 25 10 26 11
REMARK SMILES IDX 27 12 28 13 29 14 30 15 31 16 32 17 15 18 14 19 13 20 12 21
REMARK SMILES IDX 11 22 10 23 9 24 8 25 7 26 6 27 5 28 4 29 3 30 2 31 1 32
REMARK H PARENT
REMARK Flexibility Score: inf
ROOT
ATOM      1  C   UNL     1      -3.111 -11.407 -27.257  1.00  0.00     0.000 C 
ENDROOT
BRANCH   1   2
ATOM      2  C   UNL     1      -1.716 -12.014 -27.508  1.00  0.00     0.000 C 
BRANCH   2   3
ATOM      3  C   UNL     1      -0.913 -11.254 -28.584  1.00  0.00     0.000 C 
BRANCH   3   4
ATOM      4  C   UNL     1      -1.569  -9.944 -29.055  1.00  0.00     0.000 C 
BRANCH   4   5
ATOM      5  C   UNL     1      -0.576  -8.773 -29.143  1.00  0.00     0.000 C 
BRANCH   5   6
ATOM      6  C   UNL     1      -0.339  -8.088 -27.787  1.00  0.00     0.000 C 
BRANCH   6   7
ATOM      7  C   UNL     1      -0.534  -6.564 -27.845  1.00  0.00     0.000 C 
BRANCH   7   8
ATOM      8  C   UNL     1       0.510  -5.909 -28.763  1.00  0.00     0.000 C 
BRANCH   8   9
ATOM      9  C   UNL     1       0.813  -4.449 -28.363  1.00  0.00     0.000 C 
BRANCH   9  10
ATOM     10  C   UNL     1       2.252  -4.004 -28.677  1.00  0.00     0.000 C 
BRANCH  10  11
ATOM     11  C   UNL     1       2.311  -2.805 -29.639  1.00  0.00     0.000 C 
BRANCH  11  12
ATOM     12  C   UNL     1       0.918  -2.332 -30.083  1.00  0.00     0.000 C 
BRANCH  12  13
ATOM     13  C   UNL     1       0.749  -0.808 -29.970  1.00  0.00     0.006 C 
BRANCH  13  14
ATOM     14  C   UNL     1      -0.094  -0.234 -31.117  1.00  0.00     0.053 C 
BRANCH  14  15
ATOM     15  C   UNL     1      -0.893   0.955 -30.683  1.00  0.00     0.041 C 
ATOM     16  O   UNL     1      -0.321   1.941 -30.146  1.00  0.00    -0.550 OA
ATOM     17  O   UNL     1      -2.266   0.991 -30.897  1.00  0.00    -0.550 OA
ENDBRANCH  14  15
ENDBRANCH  13  14
ENDBRANCH  12  13
ENDBRANCH  11  12
ENDBRANCH  10  11
ENDBRANCH   9  10
ENDBRANCH   8   9
ENDBRANCH   7   8
ENDBRANCH   6   7
ENDBRANCH   5   6
ENDBRANCH   4   5
ENDBRANCH   3   4
ENDBRANCH   2   3
ENDBRANCH   1   2
BRANCH   1  18
ATOM     18  C   UNL     1      -3.290 -10.926 -25.808  1.00  0.00     0.000 C 
BRANCH  18  19
ATOM     19  C   UNL     1      -2.981  -9.428 -25.635  1.00  0.00     0.000 C 
BRANCH  19  20
ATOM     20  C   UNL     1      -3.895  -8.533 -26.488  1.00  0.00     0.000 C 
BRANCH  20  21
ATOM     21  C   UNL     1      -3.736  -7.042 -26.153  1.00  0.00     0.000 C 
BRANCH  21  22
ATOM     22  C   UNL     1      -3.360  -6.838 -24.680  1.00  0.00     0.000 C 
BRANCH  22  23
ATOM     23  C   UNL     1      -2.249  -5.786 -24.543  1.00  0.00     0.000 C 
BRANCH  23  24
ATOM     24  C   UNL     1      -2.644  -4.620 -23.622  1.00  0.00    -0.000 C 
BRANCH  24  25
ATOM     25  C   UNL     1      -4.160  -4.359 -23.632  1.00  0.00    -0.000 C 
BRANCH  25  26
ATOM     26  C   UNL     1      -4.564  -3.184 -24.543  1.00  0.00    -0.000 C 
BRANCH  26  27
ATOM     27  C   UNL     1      -5.167  -3.584 -25.904  1.00  0.00    -0.000 C 
BRANCH  27  28
ATOM     28  C   UNL     1      -4.390  -3.087 -27.139  1.00  0.00    -0.000 C 
BRANCH  28  29
ATOM     29  C   UNL     1      -2.950  -3.643 -27.240  1.00  0.00    -0.000 C 
BRANCH  29  30
ATOM     30  C   UNL     1      -1.856  -2.559 -27.259  1.00  0.00    -0.000 C 
BRANCH  30  31
ATOM     31  C   UNL     1      -2.339  -1.239 -27.882  1.00  0.00    -0.003 C 
ATOM     32  C   UNL     1      -1.643  -0.043 -27.235  1.00  0.00     0.004 C 
ENDBRANCH  30  31
ENDBRANCH  29  30
ENDBRANCH  28  29
ENDBRANCH  27  28
ENDBRANCH  26  27
ENDBRANCH  25  26
ENDBRANCH  24  25
ENDBRANCH  23  24
ENDBRANCH  22  23
ENDBRANCH  21  22
ENDBRANCH  20  21
ENDBRANCH  19  20
ENDBRANCH  18  19
ENDBRANCH   1  18
TORSDOF 28
ENDMDL
