MODEL 1
REMARK VINA RESULT:    -3.303      0.000      0.000
REMARK INTER + INTRA:          -6.539
REMARK INTER:                  -5.620
REMARK INTRA:                  -0.919
REMARK UNBOUND:                -0.919
REMARK SMILES CCCCCCCCCCCCCC(=O)[O-]
REMARK SMILES IDX 8 1 9 2 10 3 11 4 12 5 13 6 14 7 15 8 16 9 7 10 6 11 5 12
REMARK SMILES IDX 4 13 3 14 2 15 1 16
REMARK H PARENT
REMARK Flexibility Score: inf
ROOT
ATOM      1  C   UNL     1       0.278  -0.289  -0.140  1.00  0.00     0.000 C 
ENDROOT
BRANCH   1   2
ATOM      2  C   UNL     1      -0.412  -1.364  -0.989  1.00  0.00     0.000 C 
BRANCH   2   3
ATOM      3  C   UNL     1      -1.689  -0.814  -1.641  1.00  0.00     0.000 C 
BRANCH   3   4
ATOM      4  C   UNL     1      -2.975  -1.367  -1.002  1.00  0.00     0.000 C 
BRANCH   4   5
ATOM      5  C   UNL     1      -3.312  -2.826  -1.370  1.00  0.00     0.006 C 
BRANCH   5   6
ATOM      6  C   UNL     1      -3.125  -3.833  -0.224  1.00  0.00     0.053 C 
BRANCH   6   7
ATOM      7  C   UNL     1      -2.270  -4.993  -0.635  1.00  0.00     0.041 C 
ATOM      8  O   UNL     1      -1.019  -4.935  -0.509  1.00  0.00    -0.550 OA
ATOM      9  O   UNL     1      -2.859  -6.150  -1.128  1.00  0.00    -0.550 OA
ENDBRANCH   6   7
ENDBRANCH   5   6
ENDBRANCH   4   5
ENDBRANCH   3   4
ENDBRANCH   2   3
ENDBRANCH   1   2
BRANCH   1  10
ATOM     10  C   UNL     1       0.581   0.961  -0.975  1.00  0.00     0.000 C 
BRANCH  10  11
ATOM     11  C   UNL     1       1.841   0.763  -1.826  1.00  0.00    -0.000 C 
BRANCH  11  12
ATOM     12  C   UNL     1       2.825   1.926  -1.631  1.00  0.00    -0.000 C 
BRANCH  12  13
ATOM     13  C   UNL     1       2.654   2.623  -0.272  1.00  0.00    -0.000 C 
BRANCH  13  14
ATOM     14  C   UNL     1       2.971   4.127  -0.334  1.00  0.00    -0.000 C 
BRANCH  14  15
ATOM     15  C   UNL     1       1.757   4.967  -0.764  1.00  0.00    -0.003 C 
ATOM     16  C   UNL     1       0.448   4.466  -0.153  1.00  0.00     0.004 C 
ENDBRANCH  14  15
ENDBRANCH  13  14
ENDBRANCH  12  13
ENDBRANCH  11  12
ENDBRANCH  10  11
ENDBRANCH   1  10
TORSDOF 12
ENDMDL
MODEL 2
REMARK VINA RESULT:    -3.239      3.796      8.099
REMARK INTER + INTRA:          -6.431
REMARK INTER:                  -5.529
REMARK INTRA:                  -0.901
REMARK UNBOUND:                -0.919
REMARK SMILES CCCCCCCCCCCCCC(=O)[O-]
REMARK SMILES IDX 8 1 9 2 10 3 11 4 12 5 13 6 14 7 15 8 16 9 7 10 6 11 5 12
REMARK SMILES IDX 4 13 3 14 2 15 1 16
REMARK H PARENT
REMARK Flexibility Score: inf
ROOT
ATOM      1  C   UNL     1      -0.108  -0.367  -0.015  1.00  0.00     0.000 C 
ENDROOT
BRANCH   1   2
ATOM      2  C   UNL     1       0.249   0.954  -0.707  1.00  0.00     0.000 C 
BRANCH   2   3
ATOM      3  C   UNL     1       1.438   0.772  -1.661  1.00  0.00     0.000 C 
BRANCH   3   4
ATOM      4  C   UNL     1       2.780   1.191  -1.035  1.00  0.00     0.000 C 
BRANCH   4   5
ATOM      5  C   UNL     1       3.208   2.645  -1.319  1.00  0.00     0.006 C 
BRANCH   5   6
ATOM      6  C   UNL     1       3.031   3.607  -0.134  1.00  0.00     0.053 C 
BRANCH   6   7
ATOM      7  C   UNL     1       2.132   4.755  -0.476  1.00  0.00     0.041 C 
ATOM      8  O   UNL     1       2.616   5.834  -0.908  1.00  0.00    -0.550 OA
ATOM      9  O   UNL     1       0.755   4.622  -0.349  1.00  0.00    -0.550 OA
ENDBRANCH   6   7
ENDBRANCH   5   6
ENDBRANCH   4   5
ENDBRANCH   3   4
ENDBRANCH   2   3
ENDBRANCH   1   2
BRANCH   1  10
ATOM     10  C   UNL     1      -0.540  -1.425  -1.038  1.00  0.00     0.000 C 
BRANCH  10  11
ATOM     11  C   UNL     1      -1.841  -1.014  -1.739  1.00  0.00    -0.000 C 
BRANCH  11  12
ATOM     12  C   UNL     1      -3.065  -1.561  -0.991  1.00  0.00    -0.000 C 
BRANCH  12  13
ATOM     13  C   UNL     1      -3.435  -2.988  -1.426  1.00  0.00    -0.000 C 
BRANCH  13  14
ATOM     14  C   UNL     1      -3.193  -4.026  -0.316  1.00  0.00    -0.000 C 
BRANCH  14  15
ATOM     15  C   UNL     1      -2.248  -5.153  -0.760  1.00  0.00    -0.003 C 
ATOM     16  C   UNL     1      -0.784  -4.860  -0.429  1.00  0.00     0.004 C 
ENDBRANCH  14  15
ENDBRANCH  13  14
ENDBRANCH  12  13
ENDBRANCH  11  12
ENDBRANCH  10  11
ENDBRANCH   1  10
TORSDOF 12
ENDMDL
MODEL 3
REMARK VINA RESULT:    -2.906      4.324      8.236
REMARK INTER + INTRA:          -5.864
REMARK INTER:                  -5.027
REMARK INTRA:                  -0.837
REMARK UNBOUND:                -0.919
REMARK SMILES CCCCCCCCCCCCCC(=O)[O-]
REMARK SMILES IDX 8 1 9 2 10 3 11 4 12 5 13 6 14 7 15 8 16 9 7 10 6 11 5 12
REMARK SMILES IDX 4 13 3 14 2 15 1 16
REMARK H PARENT
REMARK Flexibility Score: inf
ROOT
ATOM      1  C   UNL     1      -0.709  -0.025  -0.362  1.00  0.00     0.000 C 
ENDROOT
BRANCH   1   2
ATOM      2  C   UNL     1       0.704  -0.572  -0.597  1.00  0.00     0.000 C 
BRANCH   2   3
ATOM      3  C   UNL     1       1.472   0.300  -1.602  1.00  0.00     0.000 C 
BRANCH   3   4
ATOM      4  C   UNL     1       2.770   0.884  -1.019  1.00  0.00     0.000 C 
BRANCH   4   5
ATOM      5  C   UNL     1       3.018   2.373  -1.338  1.00  0.00     0.006 C 
BRANCH   5   6
ATOM      6  C   UNL     1       2.066   3.346  -0.626  1.00  0.00     0.053 C 
BRANCH   6   7
ATOM      7  C   UNL     1       2.695   4.689  -0.415  1.00  0.00     0.041 C 
ATOM      8  O   UNL     1       2.102   5.734  -0.789  1.00  0.00    -0.550 OA
ATOM      9  O   UNL     1       3.924   4.788   0.225  1.00  0.00    -0.550 OA
ENDBRANCH   6   7
ENDBRANCH   5   6
ENDBRANCH   4   5
ENDBRANCH   3   4
ENDBRANCH   2   3
ENDBRANCH   1   2
BRANCH   1  10
ATOM     10  C   UNL     1      -1.441   0.197  -1.690  1.00  0.00     0.000 C 
BRANCH  10  11
ATOM     11  C   UNL     1      -2.212  -1.061  -2.112  1.00  0.00    -0.000 C 
BRANCH  11  12
ATOM     12  C   UNL     1      -3.084  -1.584  -0.961  1.00  0.00    -0.000 C 
BRANCH  12  13
ATOM     13  C   UNL     1      -3.283  -3.107  -1.014  1.00  0.00    -0.000 C 
BRANCH  13  14
ATOM     14  C   UNL     1      -2.056  -3.882  -0.503  1.00  0.00    -0.000 C 
BRANCH  14  15
ATOM     15  C   UNL     1      -2.117  -5.377  -0.854  1.00  0.00    -0.003 C 
ATOM     16  C   UNL     1      -3.530  -5.951  -0.747  1.00  0.00     0.004 C 
ENDBRANCH  14  15
ENDBRANCH  13  14
ENDBRANCH  12  13
ENDBRANCH  11  12
ENDBRANCH  10  11
ENDBRANCH   1  10
TORSDOF 12
ENDMDL
MODEL 4
REMARK VINA RESULT:    -2.059      1.256      1.813
REMARK INTER + INTRA:          -4.423
REMARK INTER:                  -3.828
REMARK INTRA:                  -0.595
REMARK UNBOUND:                -0.919
REMARK SMILES CCCCCCCCCCCCCC(=O)[O-]
REMARK SMILES IDX 8 1 9 2 10 3 11 4 12 5 13 6 14 7 15 8 16 9 7 10 6 11 5 12
REMARK SMILES IDX 4 13 3 14 2 15 1 16
REMARK H PARENT
REMARK Flexibility Score: inf
ROOT
ATOM      1  C   UNL     1      -1.503   0.287  -1.693  1.00  0.00     0.000 C 
ENDROOT
BRANCH   1   2
ATOM      2  C   UNL     1      -1.503  -1.215  -1.384  1.00  0.00     0.000 C 
BRANCH   2   3
ATOM      3  C   UNL     1      -2.812  -1.871  -1.846  1.00  0.00     0.000 C 
BRANCH   3   4
ATOM      4  C   UNL     1      -3.504  -2.677  -0.733  1.00  0.00     0.000 C 
BRANCH   4   5
ATOM      5  C   UNL     1      -2.650  -3.803  -0.114  1.00  0.00     0.006 C 
BRANCH   5   6
ATOM      6  C   UNL     1      -2.497  -5.049  -0.999  1.00  0.00     0.053 C 
BRANCH   6   7
ATOM      7  C   UNL     1      -3.500  -6.107  -0.652  1.00  0.00     0.041 C 
ATOM      8  O   UNL     1      -3.275  -7.312  -0.936  1.00  0.00    -0.550 OA
ATOM      9  O   UNL     1      -4.669  -5.764   0.014  1.00  0.00    -0.550 OA
ENDBRANCH   6   7
ENDBRANCH   5   6
ENDBRANCH   4   5
ENDBRANCH   3   4
ENDBRANCH   2   3
ENDBRANCH   1   2
BRANCH   1  10
ATOM     10  C   UNL     1      -0.333   0.992  -0.996  1.00  0.00     0.000 C 
BRANCH  10  11
ATOM     11  C   UNL     1       0.858   0.041  -0.820  1.00  0.00    -0.000 C 
BRANCH  11  12
ATOM     12  C   UNL     1       2.084   0.547  -1.594  1.00  0.00    -0.000 C 
BRANCH  12  13
ATOM     13  C   UNL     1       3.013   1.413  -0.729  1.00  0.00    -0.000 C 
BRANCH  13  14
ATOM     14  C   UNL     1       3.083   2.872  -1.214  1.00  0.00    -0.000 C 
BRANCH  14  15
ATOM     15  C   UNL     1       2.721   3.877  -0.108  1.00  0.00    -0.003 C 
ATOM     16  C   UNL     1       2.346   5.252  -0.662  1.00  0.00     0.004 C 
ENDBRANCH  14  15
ENDBRANCH  13  14
ENDBRANCH  12  13
ENDBRANCH  11  12
ENDBRANCH  10  11
ENDBRANCH   1  10
TORSDOF 12
ENDMDL
MODEL 5
REMARK VINA RESULT:    -2.008      3.635      7.898
REMARK INTER + INTRA:          -4.336
REMARK INTER:                  -3.931
REMARK INTRA:                  -0.404
REMARK UNBOUND:                -0.919
REMARK SMILES CCCCCCCCCCCCCC(=O)[O-]
REMARK SMILES IDX 8 1 9 2 10 3 11 4 12 5 13 6 14 7 15 8 16 9 7 10 6 11 5 12
REMARK SMILES IDX 4 13 3 14 2 15 1 16
REMARK H PARENT
REMARK Flexibility Score: inf
ROOT
ATOM      1  C   UNL     1       0.978  -0.851  -1.473  1.00  0.00     0.000 C 
ENDROOT
BRANCH   1   2
ATOM      2  C   UNL     1       1.188   0.668  -1.504  1.00  0.00     0.000 C 
BRANCH   2   3
ATOM      3  C   UNL     1       0.419   1.353  -0.365  1.00  0.00     0.000 C 
BRANCH   3   4
ATOM      4  C   UNL     1      -0.142   2.729  -0.763  1.00  0.00     0.000 C 
BRANCH   4   5
ATOM      5  C   UNL     1       0.458   3.926   0.002  1.00  0.00     0.006 C 
BRANCH   5   6
ATOM      6  C   UNL     1       1.569   4.674  -0.751  1.00  0.00     0.053 C 
BRANCH   6   7
ATOM      7  C   UNL     1       2.926   4.121  -0.438  1.00  0.00     0.041 C 
ATOM      8  O   UNL     1       3.244   2.966  -0.822  1.00  0.00    -0.550 OA
ATOM      9  O   UNL     1       3.850   4.896   0.251  1.00  0.00    -0.550 OA
ENDBRANCH   6   7
ENDBRANCH   5   6
ENDBRANCH   4   5
ENDBRANCH   3   4
ENDBRANCH   2   3
ENDBRANCH   1   2
BRANCH   1  10
ATOM     10  C   UNL     1      -0.339  -1.210  -0.774  1.00  0.00     0.000 C 
BRANCH  10  11
ATOM     11  C   UNL     1      -1.546  -0.798  -1.626  1.00  0.00    -0.000 C 
BRANCH  11  12
ATOM     12  C   UNL     1      -2.847  -1.378  -1.053  1.00  0.00    -0.000 C 
BRANCH  12  13
ATOM     13  C   UNL     1      -3.131  -2.803  -1.553  1.00  0.00    -0.000 C 
BRANCH  13  14
ATOM     14  C   UNL     1      -3.238  -3.823  -0.406  1.00  0.00    -0.000 C 
BRANCH  14  15
ATOM     15  C   UNL     1      -2.410  -5.091  -0.668  1.00  0.00    -0.003 C 
ATOM     16  C   UNL     1      -0.908  -4.858  -0.510  1.00  0.00     0.004 C 
ENDBRANCH  14  15
ENDBRANCH  13  14
ENDBRANCH  12  13
ENDBRANCH  11  12
ENDBRANCH  10  11
ENDBRANCH   1  10
TORSDOF 12
ENDMDL
MODEL 6
REMARK VINA RESULT:    -1.760      0.890      2.381
REMARK INTER + INTRA:          -3.913
REMARK INTER:                  -3.340
REMARK INTRA:                  -0.572
REMARK UNBOUND:                -0.919
REMARK SMILES CCCCCCCCCCCCCC(=O)[O-]
REMARK SMILES IDX 8 1 9 2 10 3 11 4 12 5 13 6 14 7 15 8 16 9 7 10 6 11 5 12
REMARK SMILES IDX 4 13 3 14 2 15 1 16
REMARK H PARENT
REMARK Flexibility Score: inf
ROOT
ATOM      1  C   UNL     1      -0.179   1.099  -1.141  1.00  0.00     0.000 C 
ENDROOT
BRANCH   1   2
ATOM      2  C   UNL     1       0.507  -0.191  -0.677  1.00  0.00     0.000 C 
BRANCH   2   3
ATOM      3  C   UNL     1      -0.376  -1.416  -0.958  1.00  0.00     0.000 C 
BRANCH   3   4
ATOM      4  C   UNL     1      -1.774  -1.040  -1.478  1.00  0.00     0.000 C 
BRANCH   4   5
ATOM      5  C   UNL     1      -2.948  -1.746  -0.769  1.00  0.00     0.006 C 
BRANCH   5   6
ATOM      6  C   UNL     1      -3.365  -3.083  -1.401  1.00  0.00     0.053 C 
BRANCH   6   7
ATOM      7  C   UNL     1      -2.936  -4.252  -0.568  1.00  0.00     0.041 C 
ATOM      8  O   UNL     1      -3.793  -5.047  -0.100  1.00  0.00    -0.550 OA
ATOM      9  O   UNL     1      -1.586  -4.482  -0.334  1.00  0.00    -0.550 OA
ENDBRANCH   6   7
ENDBRANCH   5   6
ENDBRANCH   4   5
ENDBRANCH   3   4
ENDBRANCH   2   3
ENDBRANCH   1   2
BRANCH   1  10
ATOM     10  C   UNL     1      -0.062   2.198  -0.078  1.00  0.00     0.000 C 
BRANCH  10  11
ATOM     11  C   UNL     1      -0.156   3.591  -0.713  1.00  0.00    -0.000 C 
BRANCH  11  12
ATOM     12  C   UNL     1       0.745   4.594   0.024  1.00  0.00    -0.000 C 
BRANCH  12  13
ATOM     13  C   UNL     1       2.089   4.815  -0.688  1.00  0.00    -0.000 C 
BRANCH  13  14
ATOM     14  C   UNL     1       3.132   3.743  -0.328  1.00  0.00    -0.000 C 
BRANCH  14  15
ATOM     15  C   UNL     1       3.109   2.550  -1.297  1.00  0.00    -0.003 C 
ATOM     16  C   UNL     1       3.466   1.229  -0.615  1.00  0.00     0.004 C 
ENDBRANCH  14  15
ENDBRANCH  13  14
ENDBRANCH  12  13
ENDBRANCH  11  12
ENDBRANCH  10  11
ENDBRANCH   1  10
TORSDOF 12
ENDMDL
MODEL 7
REMARK VINA RESULT:    -1.317      4.117      7.871
REMARK INTER + INTRA:          -3.160
REMARK INTER:                  -2.873
REMARK INTRA:                  -0.288
REMARK UNBOUND:                -0.919
REMARK SMILES CCCCCCCCCCCCCC(=O)[O-]
REMARK SMILES IDX 8 1 9 2 10 3 11 4 12 5 13 6 14 7 15 8 16 9 7 10 6 11 5 12
REMARK SMILES IDX 4 13 3 14 2 15 1 16
REMARK H PARENT
REMARK Flexibility Score: inf
ROOT
ATOM      1  C   UNL     1      -1.102  -0.536  -1.496  1.00  0.00     0.000 C 
ENDROOT
BRANCH   1   2
ATOM      2  C   UNL     1      -0.658   0.931  -1.490  1.00  0.00     0.000 C 
BRANCH   2   3
ATOM      3  C   UNL     1       0.681   1.099  -0.757  1.00  0.00     0.000 C 
BRANCH   3   4
ATOM      4  C   UNL     1       1.882   1.184  -1.714  1.00  0.00     0.000 C 
BRANCH   4   5
ATOM      5  C   UNL     1       3.043   2.077  -1.230  1.00  0.00     0.006 C 
BRANCH   5   6
ATOM      6  C   UNL     1       2.698   2.981  -0.037  1.00  0.00     0.053 C 
BRANCH   6   7
ATOM      7  C   UNL     1       2.878   4.432  -0.365  1.00  0.00     0.041 C 
ATOM      8  O   UNL     1       1.967   5.066  -0.958  1.00  0.00    -0.550 OA
ATOM      9  O   UNL     1       4.041   5.091   0.013  1.00  0.00    -0.550 OA
ENDBRANCH   6   7
ENDBRANCH   5   6
ENDBRANCH   4   5
ENDBRANCH   3   4
ENDBRANCH   2   3
ENDBRANCH   1   2
BRANCH   1  10
ATOM     10  C   UNL     1      -0.347  -1.344  -0.433  1.00  0.00     0.000 C 
BRANCH  10  11
ATOM     11  C   UNL     1       0.049  -2.726  -0.969  1.00  0.00    -0.000 C 
BRANCH  11  12
ATOM     12  C   UNL     1      -0.449  -3.840  -0.037  1.00  0.00    -0.000 C 
BRANCH  12  13
ATOM     13  C   UNL     1      -1.484  -4.755  -0.711  1.00  0.00    -0.000 C 
BRANCH  13  14
ATOM     14  C   UNL     1      -2.932  -4.324  -0.422  1.00  0.00    -0.000 C 
BRANCH  14  15
ATOM     15  C   UNL     1      -3.368  -3.120  -1.272  1.00  0.00    -0.003 C 
ATOM     16  C   UNL     1      -3.680  -1.885  -0.428  1.00  0.00     0.004 C 
ENDBRANCH  14  15
ENDBRANCH  13  14
ENDBRANCH  12  13
ENDBRANCH  11  12
ENDBRANCH  10  11
ENDBRANCH   1  10
TORSDOF 12
ENDMDL
MODEL 8
REMARK VINA RESULT:    -0.729      1.813      2.298
REMARK INTER + INTRA:          -2.160
REMARK INTER:                  -1.687
REMARK INTRA:                  -0.473
REMARK UNBOUND:                -0.919
REMARK SMILES CCCCCCCCCCCCCC(=O)[O-]
REMARK SMILES IDX 8 1 9 2 10 3 11 4 12 5 13 6 14 7 15 8 16 9 7 10 6 11 5 12
REMARK SMILES IDX 4 13 3 14 2 15 1 16
REMARK H PARENT
REMARK Flexibility Score: inf
ROOT
ATOM      1  C   UNL     1       0.062  -0.195  -0.708  1.00  0.00     0.000 C 
ENDROOT
BRANCH   1   2
ATOM      2  C   UNL     1       0.051  -1.537   0.033  1.00  0.00     0.000 C 
BRANCH   2   3
ATOM      3  C   UNL     1       0.124  -2.711  -0.955  1.00  0.00     0.000 C 
BRANCH   3   4
ATOM      4  C   UNL     1      -0.412  -4.027  -0.365  1.00  0.00     0.000 C 
BRANCH   4   5
ATOM      5  C   UNL     1      -1.906  -4.010   0.019  1.00  0.00     0.006 C 
BRANCH   5   6
ATOM      6  C   UNL     1      -2.856  -3.627  -1.126  1.00  0.00     0.053 C 
BRANCH   6   7
ATOM      7  C   UNL     1      -3.129  -2.154  -1.156  1.00  0.00     0.041 C 
ATOM      8  O   UNL     1      -3.805  -1.616  -0.241  1.00  0.00    -0.550 OA
ATOM      9  O   UNL     1      -2.611  -1.372  -2.180  1.00  0.00    -0.550 OA
ENDBRANCH   6   7
ENDBRANCH   5   6
ENDBRANCH   4   5
ENDBRANCH   3   4
ENDBRANCH   2   3
ENDBRANCH   1   2
BRANCH   1  10
ATOM     10  C   UNL     1       1.278  -0.087  -1.635  1.00  0.00     0.000 C 
BRANCH  10  11
ATOM     11  C   UNL     1       1.739   1.369  -1.773  1.00  0.00    -0.000 C 
BRANCH  11  12
ATOM     12  C   UNL     1       3.002   1.628  -0.939  1.00  0.00    -0.000 C 
BRANCH  12  13
ATOM     13  C   UNL     1       2.798   2.727   0.117  1.00  0.00    -0.000 C 
BRANCH  13  14
ATOM     14  C   UNL     1       3.084   4.136  -0.432  1.00  0.00    -0.000 C 
BRANCH  14  15
ATOM     15  C   UNL     1       1.799   4.909  -0.768  1.00  0.00    -0.003 C 
ATOM     16  C   UNL     1       0.563   4.322  -0.085  1.00  0.00     0.004 C 
ENDBRANCH  14  15
ENDBRANCH  13  14
ENDBRANCH  12  13
ENDBRANCH  11  12
ENDBRANCH  10  11
ENDBRANCH   1  10
TORSDOF 12
ENDMDL
MODEL 9
REMARK VINA RESULT:    -0.590      3.375      7.473
REMARK INTER + INTRA:          -1.922
REMARK INTER:                  -0.804
REMARK INTRA:                  -1.117
REMARK UNBOUND:                -0.919
REMARK SMILES CCCCCCCCCCCCCC(=O)[O-]
REMARK SMILES IDX 8 1 9 2 10 3 11 4 12 5 13 6 14 7 15 8 16 9 7 10 6 11 5 12
REMARK SMILES IDX 4 13 3 14 2 15 1 16
REMARK H PARENT
REMARK Flexibility Score: inf
ROOT
ATOM      1  C   UNL     1       1.528   0.795  -1.947  1.00  0.00     0.000 C 
ENDROOT
BRANCH   1   2
ATOM      2  C   UNL     1       2.506   0.453  -0.817  1.00  0.00     0.000 C 
BRANCH   2   3
ATOM      3  C   UNL     1       3.356   1.674  -0.436  1.00  0.00     0.000 C 
BRANCH   3   4
ATOM      4  C   UNL     1       2.989   2.934  -1.239  1.00  0.00     0.000 C 
BRANCH   4   5
ATOM      5  C   UNL     1       2.853   4.224  -0.405  1.00  0.00     0.006 C 
BRANCH   5   6
ATOM      6  C   UNL     1       1.484   4.913  -0.514  1.00  0.00     0.053 C 
BRANCH   6   7
ATOM      7  C   UNL     1       0.357   3.963  -0.246  1.00  0.00     0.041 C 
ATOM      8  O   UNL     1       0.298   3.340   0.847  1.00  0.00    -0.550 OA
ATOM      9  O   UNL     1      -0.645   3.788  -1.192  1.00  0.00    -0.550 OA
ENDBRANCH   6   7
ENDBRANCH   5   6
ENDBRANCH   4   5
ENDBRANCH   3   4
ENDBRANCH   2   3
ENDBRANCH   1   2
BRANCH   1  10
ATOM     10  C   UNL     1       0.082   0.496  -1.533  1.00  0.00     0.000 C 
BRANCH  10  11
ATOM     11  C   UNL     1       0.039  -0.381  -0.275  1.00  0.00    -0.000 C 
BRANCH  11  12
ATOM     12  C   UNL     1      -0.915  -1.570  -0.465  1.00  0.00    -0.000 C 
BRANCH  12  13
ATOM     13  C   UNL     1      -2.007  -1.289  -1.510  1.00  0.00    -0.000 C 
BRANCH  13  14
ATOM     14  C   UNL     1      -3.189  -2.269  -1.408  1.00  0.00    -0.000 C 
BRANCH  14  15
ATOM     15  C   UNL     1      -2.989  -3.319  -0.303  1.00  0.00    -0.003 C 
ATOM     16  C   UNL     1      -2.607  -4.692  -0.856  1.00  0.00     0.004 C 
ENDBRANCH  14  15
ENDBRANCH  13  14
ENDBRANCH  12  13
ENDBRANCH  11  12
ENDBRANCH  10  11
ENDBRANCH   1  10
TORSDOF 12
ENDMDL
