MODEL 1
REMARK VINA RESULT:     5.890      0.000      0.000
REMARK INTER + INTRA:           7.105
REMARK INTER:                   6.406
REMARK INTRA:                   0.699
REMARK UNBOUND:                 0.699
REMARK SMILES C[C@@H]1[C@@H](C)CC[C@@]2(C(=O)[O-])CC[C@]3(C)C(=CC[C@H]4[C@]5(C)CC[C@H](O)C(C)(C)[C@H]5CC[C@@]43C)[C@@H]12
REMARK SMILES IDX 7 1 6 2 11 3 33 4 5 5 12 6 15 7 2 8 3 9 13 10 16 11 1 12
REMARK SMILES IDX 4 13 14 14 31 15 17 16 18 17 30 18 32 19 19 20 29 21 28 22
REMARK SMILES IDX 21 23 20 24 25 25 22 26 23 27 26 28 27 29 8 30 9 31 10 32
REMARK SMILES IDX 24 33
REMARK H PARENT 24 34
REMARK Flexibility Score: inf
ROOT
ATOM      1  C   UNL     1      -0.705   6.447  -7.383  1.00  0.00     0.017 C 
ATOM      2  C   UNL     1      -0.074   5.062  -7.070  1.00  0.00     0.014 C 
ATOM      3  C   UNL     1      -0.107   7.505  -6.409  1.00  0.00     0.014 C 
ATOM      4  C   UNL     1      -0.448   6.791  -8.904  1.00  0.00     0.030 C 
ATOM      5  C   UNL     1      -0.690   3.937  -7.909  1.00  0.00     0.004 C 
ATOM      6  C   UNL     1       1.292   8.028  -6.763  1.00  0.00     0.013 C 
ATOM      7  C   UNL     1       0.991   7.342  -9.122  1.00  0.00    -0.063 C 
ATOM      8  C   UNL     1      -0.924   5.620  -9.868  1.00  0.00    -0.003 C 
ATOM      9  C   UNL     1      -0.526   4.167  -9.419  1.00  0.00    -0.011 C 
ATOM     10  C   UNL     1       1.447   8.532  -8.235  1.00  0.00    -0.006 C 
ATOM     11  C   UNL     1       1.846   6.764 -10.008  1.00  0.00    -0.027 C 
ATOM     12  C   UNL     1      -2.448   5.669 -10.121  1.00  0.00     0.008 C 
ATOM     13  C   UNL     1       0.862   3.707  -9.889  1.00  0.00     0.008 C 
ATOM     14  C   UNL     1       0.458   9.728  -8.437  1.00  0.00     0.017 C 
ATOM     15  C   UNL     1       2.965   9.021  -8.576  1.00  0.00    -0.020 C 
ATOM     16  C   UNL     1       3.323   7.015 -10.085  1.00  0.00     0.032 C 
ATOM     17  C   UNL     1       3.856   7.748  -8.842  1.00  0.00     0.006 C 
ATOM     18  C   UNL     1       3.582   9.852  -7.402  1.00  0.00     0.008 C 
ATOM     19  C   UNL     1       2.941   9.946  -9.841  1.00  0.00     0.012 C 
ATOM     20  C   UNL     1       5.452   7.886  -8.806  1.00  0.00    -0.025 C 
ATOM     21  C   UNL     1       5.083  10.103  -7.549  1.00  0.00     0.005 C 
ATOM     22  C   UNL     1       5.847   8.757  -7.559  1.00  0.00     0.003 C 
ATOM     23  C   UNL     1       6.072   6.444  -8.635  1.00  0.00     0.010 C 
ATOM     24  C   UNL     1       6.038   8.486 -10.124  1.00  0.00     0.012 C 
ATOM     25  C   UNL     1       7.401   8.875  -7.248  1.00  0.00    -0.006 C 
ATOM     26  C   UNL     1       7.253   6.339  -7.650  1.00  0.00     0.033 C 
ATOM     27  C   UNL     1       8.164   7.569  -7.694  1.00  0.00     0.120 C 
ATOM     28  C   UNL     1       8.058  10.093  -7.949  1.00  0.00     0.014 C 
ATOM     29  C   UNL     1       7.577   9.083  -5.715  1.00  0.00     0.014 C 
ENDROOT
BRANCH   1  30
ATOM     30  C   UNL     1      -2.198   6.446  -7.067  1.00  0.00     0.048 C 
ATOM     31  O   UNL     1      -3.026   6.990  -7.847  1.00  0.00    -0.550 OA
ATOM     32  O   UNL     1      -2.684   5.702  -5.997  1.00  0.00    -0.550 OA
ENDBRANCH   1  30
BRANCH  27  33
ATOM     33  O   UNL     1       9.290   7.311  -6.888  1.00  0.00    -0.393 OA
ATOM     34  H   UNL     1       9.604   6.394  -7.108  1.00  0.00     0.210 HD
ENDBRANCH  27  33
TORSDOF 2
ENDMDL
