MODEL 1
REMARK VINA RESULT:    -7.458      0.000      0.000
REMARK INTER + INTRA:          -9.388
REMARK INTER:                  -8.984
REMARK INTRA:                  -0.403
REMARK UNBOUND:                -0.403
REMARK SMILES O=c1c(O)c(-c2ccc(O)cc2O)oc2cc(O)cc(O)c12
REMARK SMILES IDX 5 1 3 2 2 3 1 4 22 5 20 6 19 7 17 8 16 9 15 10 14 11 6 12
REMARK SMILES IDX 8 13 7 14 9 15 11 16 12 17 10 18 13 20 4 22 21 24 18 26
REMARK H PARENT 10 19 13 21 4 23 21 25 18 27
REMARK Flexibility Score: inf
ROOT
ATOM      1  C   UNL     1      37.432  28.976   8.988  1.00  0.00     0.184 A 
ATOM      2  C   UNL     1      36.438  28.205   8.361  1.00  0.00     0.208 A 
ATOM      3  C   UNL     1      35.655  28.795   7.357  1.00  0.00     0.238 A 
ATOM      4  O   UNL     1      34.767  28.109   6.779  1.00  0.00    -0.285 OA
ATOM      5  C   UNL     1      35.866  30.146   7.014  1.00  0.00     0.111 A 
ATOM      6  C   UNL     1      35.118  30.818   6.016  1.00  0.00     0.134 A 
ATOM      7  C   UNL     1      35.382  32.167   5.739  1.00  0.00     0.093 A 
ATOM      8  C   UNL     1      36.376  32.858   6.437  1.00  0.00     0.123 A 
ATOM      9  C   UNL     1      37.118  32.200   7.423  1.00  0.00     0.094 A 
ATOM     10  C   UNL     1      36.872  30.855   7.713  1.00  0.00     0.146 A 
ATOM     11  O   UNL     1      37.594  30.252   8.652  1.00  0.00    -0.451 OA
ENDROOT
BRANCH   1  12
ATOM     12  C   UNL     1      38.299  28.415  10.044  1.00  0.00     0.063 A 
ATOM     13  C   UNL     1      40.292  27.159  10.646  1.00  0.00     0.047 A 
ATOM     14  C   UNL     1      39.453  27.707   9.673  1.00  0.00     0.020 A 
ATOM     15  C   UNL     1      39.980  27.299  12.003  1.00  0.00     0.119 A 
ATOM     16  C   UNL     1      38.821  27.984  12.382  1.00  0.00     0.093 A 
ATOM     17  C   UNL     1      37.970  28.532  11.411  1.00  0.00     0.130 A 
BRANCH  15  18
ATOM     18  O   UNL     1      40.811  26.760  12.983  1.00  0.00    -0.508 OA
ATOM     19  H   UNL     1      41.123  27.311  13.774  1.00  0.00     0.293 HD
ENDBRANCH  15  18
BRANCH  17  20
ATOM     20  O   UNL     1      36.792  29.169  11.801  1.00  0.00    -0.507 OA
ATOM     21  H   UNL     1      35.951  29.122  11.239  1.00  0.00     0.293 HD
ENDBRANCH  17  20
ENDBRANCH   1  12
BRANCH   2  22
ATOM     22  O   UNL     1      36.223  26.882   8.755  1.00  0.00    -0.502 OA
ATOM     23  H   UNL     1      36.395  26.563   9.700  1.00  0.00     0.293 HD
ENDBRANCH   2  22
BRANCH   6  24
ATOM     24  O   UNL     1      34.119  30.156   5.302  1.00  0.00    -0.507 OA
ATOM     25  H   UNL     1      34.324  29.355   4.715  1.00  0.00     0.293 HD
ENDBRANCH   6  24
BRANCH   8  26
ATOM     26  O   UNL     1      36.618  34.197   6.143  1.00  0.00    -0.508 OA
ATOM     27  H   UNL     1      35.880  34.810   5.815  1.00  0.00     0.293 HD
ENDBRANCH   8  26
TORSDOF 6
ENDMDL
MODEL 2
REMARK VINA RESULT:    -7.016      2.683      6.438
REMARK INTER + INTRA:          -8.855
REMARK INTER:                  -8.491
REMARK INTRA:                  -0.364
REMARK UNBOUND:                -0.403
REMARK SMILES O=c1c(O)c(-c2ccc(O)cc2O)oc2cc(O)cc(O)c12
REMARK SMILES IDX 5 1 3 2 2 3 1 4 22 5 20 6 19 7 17 8 16 9 15 10 14 11 6 12
REMARK SMILES IDX 8 13 7 14 9 15 11 16 12 17 10 18 13 20 4 22 21 24 18 26
REMARK H PARENT 10 19 13 21 4 23 21 25 18 27
REMARK Flexibility Score: inf
ROOT
ATOM      1  C   UNL     1      36.930  29.493   7.488  1.00  0.00     0.184 A 
ATOM      2  C   UNL     1      37.302  29.253   8.822  1.00  0.00     0.208 A 
ATOM      3  C   UNL     1      38.578  28.732   9.088  1.00  0.00     0.238 A 
ATOM      4  O   UNL     1      38.927  28.523  10.282  1.00  0.00    -0.285 OA
ATOM      5  C   UNL     1      39.447  28.443   8.016  1.00  0.00     0.111 A 
ATOM      6  C   UNL     1      40.748  27.912   8.196  1.00  0.00     0.134 A 
ATOM      7  C   UNL     1      41.550  27.643   7.077  1.00  0.00     0.093 A 
ATOM      8  C   UNL     1      41.080  27.891   5.785  1.00  0.00     0.123 A 
ATOM      9  C   UNL     1      39.796  28.415   5.601  1.00  0.00     0.094 A 
ATOM     10  C   UNL     1      38.981  28.692   6.702  1.00  0.00     0.146 A 
ATOM     11  O   UNL     1      37.768  29.194   6.500  1.00  0.00    -0.451 OA
ENDROOT
BRANCH   1  12
ATOM     12  C   UNL     1      35.607  30.051   7.139  1.00  0.00     0.063 A 
ATOM     13  C   UNL     1      34.252  31.990   6.581  1.00  0.00     0.047 A 
ATOM     14  C   UNL     1      35.489  31.430   6.908  1.00  0.00     0.020 A 
ATOM     15  C   UNL     1      33.113  31.180   6.496  1.00  0.00     0.119 A 
ATOM     16  C   UNL     1      33.217  29.808   6.747  1.00  0.00     0.093 A 
ATOM     17  C   UNL     1      34.455  29.239   7.081  1.00  0.00     0.130 A 
BRANCH  15  18
ATOM     18  O   UNL     1      31.875  31.727   6.167  1.00  0.00    -0.508 OA
ATOM     19  H   UNL     1      31.012  31.343   6.533  1.00  0.00     0.293 HD
ENDBRANCH  15  18
BRANCH  17  20
ATOM     20  O   UNL     1      34.534  27.878   7.377  1.00  0.00    -0.507 OA
ATOM     21  H   UNL     1      33.858  27.424   7.979  1.00  0.00     0.293 HD
ENDBRANCH  17  20
ENDBRANCH   1  12
BRANCH   2  22
ATOM     22  O   UNL     1      36.400  29.508   9.859  1.00  0.00    -0.502 OA
ATOM     23  H   UNL     1      35.489  29.070   9.906  1.00  0.00     0.293 HD
ENDBRANCH   2  22
BRANCH   6  24
ATOM     24  O   UNL     1      41.247  27.653   9.473  1.00  0.00    -0.507 OA
ATOM     25  H   UNL     1      42.210  27.376   9.622  1.00  0.00     0.293 HD
ENDBRANCH   6  24
BRANCH   8  26
ATOM     26  O   UNL     1      41.896  27.614   4.691  1.00  0.00    -0.508 OA
ATOM     27  H   UNL     1      41.735  26.806   4.101  1.00  0.00     0.293 HD
ENDBRANCH   8  26
TORSDOF 6
ENDMDL
MODEL 3
REMARK VINA RESULT:    -6.820      4.546      6.029
REMARK INTER + INTRA:          -8.618
REMARK INTER:                  -8.327
REMARK INTRA:                  -0.292
REMARK UNBOUND:                -0.403
REMARK SMILES O=c1c(O)c(-c2ccc(O)cc2O)oc2cc(O)cc(O)c12
REMARK SMILES IDX 5 1 3 2 2 3 1 4 22 5 20 6 19 7 17 8 16 9 15 10 14 11 6 12
REMARK SMILES IDX 8 13 7 14 9 15 11 16 12 17 10 18 13 20 4 22 21 24 18 26
REMARK H PARENT 10 19 13 21 4 23 21 25 18 27
REMARK Flexibility Score: inf
ROOT
ATOM      1  C   UNL     1      40.522  28.194   6.298  1.00  0.00     0.184 A 
ATOM      2  C   UNL     1      40.391  27.963   7.679  1.00  0.00     0.208 A 
ATOM      3  C   UNL     1      39.106  27.928   8.243  1.00  0.00     0.238 A 
ATOM      4  O   UNL     1      38.977  27.711   9.478  1.00  0.00    -0.285 OA
ATOM      5  C   UNL     1      37.981  28.143   7.421  1.00  0.00     0.111 A 
ATOM      6  C   UNL     1      36.651  28.128   7.909  1.00  0.00     0.134 A 
ATOM      7  C   UNL     1      35.584  28.360   7.029  1.00  0.00     0.093 A 
ATOM      8  C   UNL     1      35.818  28.607   5.674  1.00  0.00     0.123 A 
ATOM      9  C   UNL     1      37.128  28.623   5.186  1.00  0.00     0.094 A 
ATOM     10  C   UNL     1      38.206  28.393   6.046  1.00  0.00     0.146 A 
ATOM     11  O   UNL     1      39.441  28.409   5.555  1.00  0.00    -0.451 OA
ENDROOT
BRANCH   1  12
ATOM     12  C   UNL     1      41.843  28.232   5.639  1.00  0.00     0.063 A 
ATOM     13  C   UNL     1      44.057  29.225   5.480  1.00  0.00     0.047 A 
ATOM     14  C   UNL     1      42.799  29.159   6.084  1.00  0.00     0.020 A 
ATOM     15  C   UNL     1      44.370  28.375   4.412  1.00  0.00     0.119 A 
ATOM     16  C   UNL     1      43.416  27.464   3.947  1.00  0.00     0.093 A 
ATOM     17  C   UNL     1      42.149  27.395   4.546  1.00  0.00     0.130 A 
BRANCH  15  18
ATOM     18  O   UNL     1      45.622  28.430   3.804  1.00  0.00    -0.508 OA
ATOM     19  H   UNL     1      46.464  28.166   4.302  1.00  0.00     0.293 HD
ENDBRANCH  15  18
BRANCH  17  20
ATOM     20  O   UNL     1      41.191  26.517   4.040  1.00  0.00    -0.507 OA
ATOM     21  H   UNL     1      40.791  26.639   3.117  1.00  0.00     0.293 HD
ENDBRANCH  17  20
ENDBRANCH   1  12
BRANCH   2  22
ATOM     22  O   UNL     1      41.529  27.799   8.474  1.00  0.00    -0.502 OA
ATOM     23  H   UNL     1      41.540  28.031   9.459  1.00  0.00     0.293 HD
ENDBRANCH   2  22
BRANCH   6  24
ATOM     24  O   UNL     1      36.385  27.885   9.257  1.00  0.00    -0.507 OA
ATOM     25  H   UNL     1      36.751  28.484   9.989  1.00  0.00     0.293 HD
ENDBRANCH   6  24
BRANCH   8  26
ATOM     26  O   UNL     1      34.740  28.835   4.821  1.00  0.00    -0.508 OA
ATOM     27  H   UNL     1      33.816  28.473   5.026  1.00  0.00     0.293 HD
ENDBRANCH   8  26
TORSDOF 6
ENDMDL
MODEL 4
REMARK VINA RESULT:    -6.784      1.703      3.108
REMARK INTER + INTRA:          -8.576
REMARK INTER:                  -8.161
REMARK INTRA:                  -0.415
REMARK UNBOUND:                -0.403
REMARK SMILES O=c1c(O)c(-c2ccc(O)cc2O)oc2cc(O)cc(O)c12
REMARK SMILES IDX 5 1 3 2 2 3 1 4 22 5 20 6 19 7 17 8 16 9 15 10 14 11 6 12
REMARK SMILES IDX 8 13 7 14 9 15 11 16 12 17 10 18 13 20 4 22 21 24 18 26
REMARK H PARENT 10 19 13 21 4 23 21 25 18 27
REMARK Flexibility Score: inf
ROOT
ATOM      1  C   UNL     1      38.043  29.369   8.387  1.00  0.00     0.184 A 
ATOM      2  C   UNL     1      38.513  30.641   8.014  1.00  0.00     0.208 A 
ATOM      3  C   UNL     1      38.070  31.202   6.807  1.00  0.00     0.238 A 
ATOM      4  O   UNL     1      38.476  32.347   6.468  1.00  0.00    -0.285 OA
ATOM      5  C   UNL     1      37.183  30.474   5.987  1.00  0.00     0.111 A 
ATOM      6  C   UNL     1      36.690  30.965   4.753  1.00  0.00     0.134 A 
ATOM      7  C   UNL     1      35.817  30.176   3.989  1.00  0.00     0.093 A 
ATOM      8  C   UNL     1      35.427  28.910   4.433  1.00  0.00     0.123 A 
ATOM      9  C   UNL     1      35.910  28.420   5.651  1.00  0.00     0.094 A 
ATOM     10  C   UNL     1      36.779  29.191   6.427  1.00  0.00     0.146 A 
ATOM     11  O   UNL     1      37.220  28.704   7.583  1.00  0.00    -0.451 OA
ENDROOT
BRANCH   1  12
ATOM     12  C   UNL     1      38.461  28.726   9.650  1.00  0.00     0.063 A 
ATOM     13  C   UNL     1      40.108  27.418  10.868  1.00  0.00     0.047 A 
ATOM     14  C   UNL     1      39.685  28.041   9.692  1.00  0.00     0.020 A 
ATOM     15  C   UNL     1      39.304  27.459  12.014  1.00  0.00     0.119 A 
ATOM     16  C   UNL     1      38.072  28.120  11.975  1.00  0.00     0.093 A 
ATOM     17  C   UNL     1      37.639  28.744  10.795  1.00  0.00     0.130 A 
BRANCH  15  18
ATOM     18  O   UNL     1      39.717  26.844  13.194  1.00  0.00    -0.508 OA
ATOM     19  H   UNL     1      39.751  27.350  14.071  1.00  0.00     0.293 HD
ENDBRANCH  15  18
BRANCH  17  20
ATOM     20  O   UNL     1      36.386  29.356  10.756  1.00  0.00    -0.507 OA
ATOM     21  H   UNL     1      35.724  29.166  10.014  1.00  0.00     0.293 HD
ENDBRANCH  17  20
ENDBRANCH   1  12
BRANCH   2  22
ATOM     22  O   UNL     1      39.427  31.317   8.827  1.00  0.00    -0.502 OA
ATOM     23  H   UNL     1      40.427  31.178   8.752  1.00  0.00     0.293 HD
ENDBRANCH   2  22
BRANCH   6  24
ATOM     24  O   UNL     1      37.061  32.225   4.283  1.00  0.00    -0.507 OA
ATOM     25  H   UNL     1      37.747  32.793   4.767  1.00  0.00     0.293 HD
ENDBRANCH   6  24
BRANCH   8  26
ATOM     26  O   UNL     1      34.560  28.147   3.656  1.00  0.00    -0.508 OA
ATOM     27  H   UNL     1      33.920  28.576   2.997  1.00  0.00     0.293 HD
ENDBRANCH   8  26
TORSDOF 6
ENDMDL
MODEL 5
REMARK VINA RESULT:    -6.749     12.477     15.261
REMARK INTER + INTRA:          -8.533
REMARK INTER:                  -8.223
REMARK INTRA:                  -0.310
REMARK UNBOUND:                -0.403
REMARK SMILES O=c1c(O)c(-c2ccc(O)cc2O)oc2cc(O)cc(O)c12
REMARK SMILES IDX 5 1 3 2 2 3 1 4 22 5 20 6 19 7 17 8 16 9 15 10 14 11 6 12
REMARK SMILES IDX 8 13 7 14 9 15 11 16 12 17 10 18 13 20 4 22 21 24 18 26
REMARK H PARENT 10 19 13 21 4 23 21 25 18 27
REMARK Flexibility Score: inf
ROOT
ATOM      1  C   UNL     1      46.529  39.069   8.176  1.00  0.00     0.184 A 
ATOM      2  C   UNL     1      45.823  39.381   9.351  1.00  0.00     0.208 A 
ATOM      3  C   UNL     1      46.501  39.346  10.579  1.00  0.00     0.238 A 
ATOM      4  O   UNL     1      45.881  39.635  11.639  1.00  0.00    -0.285 OA
ATOM      5  C   UNL     1      47.864  38.983  10.611  1.00  0.00     0.111 A 
ATOM      6  C   UNL     1      48.620  38.919  11.807  1.00  0.00     0.134 A 
ATOM      7  C   UNL     1      49.970  38.540  11.757  1.00  0.00     0.093 A 
ATOM      8  C   UNL     1      50.577  38.223  10.539  1.00  0.00     0.123 A 
ATOM      9  C   UNL     1      49.835  38.284   9.355  1.00  0.00     0.094 A 
ATOM     10  C   UNL     1      48.490  38.661   9.383  1.00  0.00     0.146 A 
ATOM     11  O   UNL     1      47.809  38.715   8.243  1.00  0.00    -0.451 OA
ENDROOT
BRANCH   1  12
ATOM     12  C   UNL     1      45.879  39.097   6.849  1.00  0.00     0.063 A 
ATOM     13  C   UNL     1      44.137  38.265   5.372  1.00  0.00     0.047 A 
ATOM     14  C   UNL     1      44.772  38.266   6.616  1.00  0.00     0.020 A 
ATOM     15  C   UNL     1      44.610  39.084   4.340  1.00  0.00     0.119 A 
ATOM     16  C   UNL     1      45.727  39.898   4.556  1.00  0.00     0.093 A 
ATOM     17  C   UNL     1      46.373  39.901   5.801  1.00  0.00     0.130 A 
BRANCH  15  18
ATOM     18  O   UNL     1      43.983  39.093   3.096  1.00  0.00    -0.508 OA
ATOM     19  H   UNL     1      44.508  39.219   2.239  1.00  0.00     0.293 HD
ENDBRANCH  15  18
BRANCH  17  20
ATOM     20  O   UNL     1      47.515  40.681   5.987  1.00  0.00    -0.507 OA
ATOM     21  H   UNL     1      48.406  40.268   6.233  1.00  0.00     0.293 HD
ENDBRANCH  17  20
ENDBRANCH   1  12
BRANCH   2  22
ATOM     22  O   UNL     1      44.462  39.693   9.291  1.00  0.00    -0.502 OA
ATOM     23  H   UNL     1      43.971  40.124  10.063  1.00  0.00     0.293 HD
ENDBRANCH   2  22
BRANCH   6  24
ATOM     24  O   UNL     1      48.043  39.230  13.038  1.00  0.00    -0.507 OA
ATOM     25  H   UNL     1      47.158  39.720  13.103  1.00  0.00     0.293 HD
ENDBRANCH   6  24
BRANCH   8  26
ATOM     26  O   UNL     1      51.918  37.848  10.517  1.00  0.00    -0.508 OA
ATOM     27  H   UNL     1      52.374  37.459  11.335  1.00  0.00     0.293 HD
ENDBRANCH   8  26
TORSDOF 6
ENDMDL
MODEL 6
REMARK VINA RESULT:    -6.735      1.480      3.097
REMARK INTER + INTRA:          -8.516
REMARK INTER:                  -8.174
REMARK INTRA:                  -0.342
REMARK UNBOUND:                -0.403
REMARK SMILES O=c1c(O)c(-c2ccc(O)cc2O)oc2cc(O)cc(O)c12
REMARK SMILES IDX 5 1 3 2 2 3 1 4 22 5 20 6 19 7 17 8 16 9 15 10 14 11 6 12
REMARK SMILES IDX 8 13 7 14 9 15 11 16 12 17 10 18 13 20 4 22 21 24 18 26
REMARK H PARENT 10 19 13 21 4 23 21 25 18 27
REMARK Flexibility Score: inf
ROOT
ATOM      1  C   UNL     1      38.073  29.545   9.084  1.00  0.00     0.184 A 
ATOM      2  C   UNL     1      38.868  30.544   8.496  1.00  0.00     0.208 A 
ATOM      3  C   UNL     1      38.287  31.411   7.558  1.00  0.00     0.238 A 
ATOM      4  O   UNL     1      38.988  32.318   7.034  1.00  0.00    -0.285 OA
ATOM      5  C   UNL     1      36.929  31.250   7.212  1.00  0.00     0.111 A 
ATOM      6  C   UNL     1      36.267  32.078   6.273  1.00  0.00     0.134 A 
ATOM      7  C   UNL     1      34.916  31.848   5.974  1.00  0.00     0.093 A 
ATOM      8  C   UNL     1      34.215  30.810   6.592  1.00  0.00     0.123 A 
ATOM      9  C   UNL     1      34.864  29.989   7.520  1.00  0.00     0.094 A 
ATOM     10  C   UNL     1      36.209  30.202   7.833  1.00  0.00     0.146 A 
ATOM     11  O   UNL     1      36.801  29.411   8.722  1.00  0.00    -0.451 OA
ENDROOT
BRANCH   1  12
ATOM     12  C   UNL     1      38.619  28.607  10.086  1.00  0.00     0.063 A 
ATOM     13  C   UNL     1      38.898  27.994  12.422  1.00  0.00     0.047 A 
ATOM     14  C   UNL     1      38.392  28.858  11.448  1.00  0.00     0.020 A 
ATOM     15  C   UNL     1      39.650  26.874  12.046  1.00  0.00     0.119 A 
ATOM     16  C   UNL     1      39.900  26.628  10.692  1.00  0.00     0.093 A 
ATOM     17  C   UNL     1      39.400  27.495   9.709  1.00  0.00     0.130 A 
BRANCH  15  18
ATOM     18  O   UNL     1      40.157  26.004  13.008  1.00  0.00    -0.508 OA
ATOM     19  H   UNL     1      39.546  25.430  13.578  1.00  0.00     0.293 HD
ENDBRANCH  15  18
BRANCH  17  20
ATOM     20  O   UNL     1      39.699  27.265   8.366  1.00  0.00    -0.507 OA
ATOM     21  H   UNL     1      38.985  27.301   7.648  1.00  0.00     0.293 HD
ENDBRANCH  17  20
ENDBRANCH   1  12
BRANCH   2  22
ATOM     22  O   UNL     1      40.222  30.649   8.828  1.00  0.00    -0.502 OA
ATOM     23  H   UNL     1      40.950  30.697   8.126  1.00  0.00     0.293 HD
ENDBRANCH   2  22
BRANCH   6  24
ATOM     24  O   UNL     1      36.939  33.123   5.638  1.00  0.00    -0.507 OA
ATOM     25  H   UNL     1      37.144  33.993   6.116  1.00  0.00     0.293 HD
ENDBRANCH   6  24
BRANCH   8  26
ATOM     26  O   UNL     1      32.874  30.602   6.277  1.00  0.00    -0.508 OA
ATOM     27  H   UNL     1      32.314  31.326   5.843  1.00  0.00     0.293 HD
ENDBRANCH   8  26
TORSDOF 6
ENDMDL
MODEL 7
REMARK VINA RESULT:    -6.713      4.199      5.333
REMARK INTER + INTRA:          -8.490
REMARK INTER:                  -8.180
REMARK INTRA:                  -0.310
REMARK UNBOUND:                -0.403
REMARK SMILES O=c1c(O)c(-c2ccc(O)cc2O)oc2cc(O)cc(O)c12
REMARK SMILES IDX 5 1 3 2 2 3 1 4 22 5 20 6 19 7 17 8 16 9 15 10 14 11 6 12
REMARK SMILES IDX 8 13 7 14 9 15 11 16 12 17 10 18 13 20 4 22 21 24 18 26
REMARK H PARENT 10 19 13 21 4 23 21 25 18 27
REMARK Flexibility Score: inf
ROOT
ATOM      1  C   UNL     1      39.905  28.589   6.359  1.00  0.00     0.184 A 
ATOM      2  C   UNL     1      39.746  28.159   7.689  1.00  0.00     0.208 A 
ATOM      3  C   UNL     1      38.611  28.571   8.404  1.00  0.00     0.238 A 
ATOM      4  O   UNL     1      38.452  28.183   9.593  1.00  0.00    -0.285 OA
ATOM      5  C   UNL     1      37.669  29.419   7.785  1.00  0.00     0.111 A 
ATOM      6  C   UNL     1      36.500  29.884   8.436  1.00  0.00     0.134 A 
ATOM      7  C   UNL     1      35.616  30.733   7.755  1.00  0.00     0.093 A 
ATOM      8  C   UNL     1      35.875  31.127   6.440  1.00  0.00     0.123 A 
ATOM      9  C   UNL     1      37.027  30.671   5.792  1.00  0.00     0.094 A 
ATOM     10  C   UNL     1      37.921  29.823   6.452  1.00  0.00     0.146 A 
ATOM     11  O   UNL     1      39.006  29.401   5.812  1.00  0.00    -0.451 OA
ENDROOT
BRANCH   1  12
ATOM     12  C   UNL     1      41.070  28.183   5.546  1.00  0.00     0.063 A 
ATOM     13  C   UNL     1      41.958  26.883   3.694  1.00  0.00     0.047 A 
ATOM     14  C   UNL     1      40.878  27.291   4.480  1.00  0.00     0.020 A 
ATOM     15  C   UNL     1      43.248  27.351   3.974  1.00  0.00     0.119 A 
ATOM     16  C   UNL     1      43.452  28.222   5.049  1.00  0.00     0.093 A 
ATOM     17  C   UNL     1      42.373  28.632   5.846  1.00  0.00     0.130 A 
BRANCH  15  18
ATOM     18  O   UNL     1      44.332  26.954   3.195  1.00  0.00    -0.508 OA
ATOM     19  H   UNL     1      44.926  26.181   3.470  1.00  0.00     0.293 HD
ENDBRANCH  15  18
BRANCH  17  20
ATOM     20  O   UNL     1      42.598  29.462   6.944  1.00  0.00    -0.507 OA
ATOM     21  H   UNL     1      43.036  30.370   6.844  1.00  0.00     0.293 HD
ENDBRANCH  17  20
ENDBRANCH   1  12
BRANCH   2  22
ATOM     22  O   UNL     1      40.720  27.356   8.288  1.00  0.00    -0.502 OA
ATOM     23  H   UNL     1      41.620  27.184   7.859  1.00  0.00     0.293 HD
ENDBRANCH   2  22
BRANCH   6  24
ATOM     24  O   UNL     1      36.214  29.509   9.749  1.00  0.00    -0.507 OA
ATOM     25  H   UNL     1      35.262  29.477  10.098  1.00  0.00     0.293 HD
ENDBRANCH   6  24
BRANCH   8  26
ATOM     26  O   UNL     1      34.981  31.972   5.787  1.00  0.00    -0.508 OA
ATOM     27  H   UNL     1      33.980  31.891   5.922  1.00  0.00     0.293 HD
ENDBRANCH   8  26
TORSDOF 6
ENDMDL
MODEL 8
REMARK VINA RESULT:    -6.678     12.334     14.904
REMARK INTER + INTRA:          -8.448
REMARK INTER:                  -8.138
REMARK INTRA:                  -0.310
REMARK UNBOUND:                -0.403
REMARK SMILES O=c1c(O)c(-c2ccc(O)cc2O)oc2cc(O)cc(O)c12
REMARK SMILES IDX 5 1 3 2 2 3 1 4 22 5 20 6 19 7 17 8 16 9 15 10 14 11 6 12
REMARK SMILES IDX 8 13 7 14 9 15 11 16 12 17 10 18 13 20 4 22 21 24 18 26
REMARK H PARENT 10 19 13 21 4 23 21 25 18 27
REMARK Flexibility Score: inf
ROOT
ATOM      1  C   UNL     1      46.910  38.548   8.819  1.00  0.00     0.184 A 
ATOM      2  C   UNL     1      46.311  39.080   9.975  1.00  0.00     0.208 A 
ATOM      3  C   UNL     1      46.804  38.698  11.232  1.00  0.00     0.238 A 
ATOM      4  O   UNL     1      46.282  39.177  12.275  1.00  0.00    -0.285 OA
ATOM      5  C   UNL     1      47.871  37.779  11.310  1.00  0.00     0.111 A 
ATOM      6  C   UNL     1      48.426  37.339  12.536  1.00  0.00     0.134 A 
ATOM      7  C   UNL     1      49.481  36.415  12.531  1.00  0.00     0.093 A 
ATOM      8  C   UNL     1      49.993  35.923  11.328  1.00  0.00     0.123 A 
ATOM      9  C   UNL     1      49.449  36.354  10.113  1.00  0.00     0.094 A 
ATOM     10  C   UNL     1      48.398  37.275  10.096  1.00  0.00     0.146 A 
ATOM     11  O   UNL     1      47.903  37.672   8.929  1.00  0.00    -0.451 OA
ENDROOT
BRANCH   1  12
ATOM     12  C   UNL     1      46.447  38.917   7.465  1.00  0.00     0.063 A 
ATOM     13  C   UNL     1      46.862  40.085   5.374  1.00  0.00     0.047 A 
ATOM     14  C   UNL     1      47.272  39.714   6.657  1.00  0.00     0.020 A 
ATOM     15  C   UNL     1      45.615  39.674   4.888  1.00  0.00     0.119 A 
ATOM     16  C   UNL     1      44.777  38.898   5.694  1.00  0.00     0.093 A 
ATOM     17  C   UNL     1      45.179  38.526   6.986  1.00  0.00     0.130 A 
BRANCH  15  18
ATOM     18  O   UNL     1      45.198  40.034   3.609  1.00  0.00    -0.508 OA
ATOM     19  H   UNL     1      44.298  40.470   3.448  1.00  0.00     0.293 HD
ENDBRANCH  15  18
BRANCH  17  20
ATOM     20  O   UNL     1      44.312  37.794   7.797  1.00  0.00    -0.507 OA
ATOM     21  H   UNL     1      43.507  37.311   7.417  1.00  0.00     0.293 HD
ENDBRANCH  17  20
ENDBRANCH   1  12
BRANCH   2  22
ATOM     22  O   UNL     1      45.225  39.953   9.865  1.00  0.00    -0.502 OA
ATOM     23  H   UNL     1      44.920  40.538  10.632  1.00  0.00     0.293 HD
ENDBRANCH   2  22
BRANCH   6  24
ATOM     24  O   UNL     1      47.937  37.811  13.755  1.00  0.00    -0.507 OA
ATOM     25  H   UNL     1      47.612  37.181  14.479  1.00  0.00     0.293 HD
ENDBRANCH   6  24
BRANCH   8  26
ATOM     26  O   UNL     1      51.040  35.006  11.350  1.00  0.00    -0.508 OA
ATOM     27  H   UNL     1      50.879  34.021  11.523  1.00  0.00     0.293 HD
ENDBRANCH   8  26
TORSDOF 6
ENDMDL
MODEL 9
REMARK VINA RESULT:    -6.606     12.546     13.854
REMARK INTER + INTRA:          -8.362
REMARK INTER:                  -7.950
REMARK INTRA:                  -0.411
REMARK UNBOUND:                -0.403
REMARK SMILES O=c1c(O)c(-c2ccc(O)cc2O)oc2cc(O)cc(O)c12
REMARK SMILES IDX 5 1 3 2 2 3 1 4 22 5 20 6 19 7 17 8 16 9 15 10 14 11 6 12
REMARK SMILES IDX 8 13 7 14 9 15 11 16 12 17 10 18 13 20 4 22 21 24 18 26
REMARK H PARENT 10 19 13 21 4 23 21 25 18 27
REMARK Flexibility Score: inf
ROOT
ATOM      1  C   UNL     1      47.801  38.231   9.372  1.00  0.00     0.184 A 
ATOM      2  C   UNL     1      46.627  37.462   9.459  1.00  0.00     0.208 A 
ATOM      3  C   UNL     1      45.710  37.500   8.398  1.00  0.00     0.238 A 
ATOM      4  O   UNL     1      44.659  36.805   8.460  1.00  0.00    -0.285 OA
ATOM      5  C   UNL     1      45.973  38.320   7.281  1.00  0.00     0.111 A 
ATOM      6  C   UNL     1      45.100  38.419   6.170  1.00  0.00     0.134 A 
ATOM      7  C   UNL     1      45.428  39.264   5.100  1.00  0.00     0.093 A 
ATOM      8  C   UNL     1      46.609  40.011   5.118  1.00  0.00     0.123 A 
ATOM      9  C   UNL     1      47.475  39.917   6.211  1.00  0.00     0.094 A 
ATOM     10  C   UNL     1      47.167  39.080   7.287  1.00  0.00     0.146 A 
ATOM     11  O   UNL     1      48.010  39.005   8.312  1.00  0.00    -0.451 OA
ENDROOT
BRANCH   1  12
ATOM     12  C   UNL     1      48.813  38.228  10.448  1.00  0.00     0.063 A 
ATOM     13  C   UNL     1      50.808  37.237  11.420  1.00  0.00     0.047 A 
ATOM     14  C   UNL     1      49.838  37.270  10.416  1.00  0.00     0.020 A 
ATOM     15  C   UNL     1      50.757  38.152  12.479  1.00  0.00     0.119 A 
ATOM     16  C   UNL     1      49.726  39.096  12.531  1.00  0.00     0.093 A 
ATOM     17  C   UNL     1      48.745  39.132  11.529  1.00  0.00     0.130 A 
BRANCH  15  18
ATOM     18  O   UNL     1      51.721  38.131  13.484  1.00  0.00    -0.508 OA
ATOM     19  H   UNL     1      52.628  38.564  13.357  1.00  0.00     0.293 HD
ENDBRANCH  15  18
BRANCH  17  20
ATOM     20  O   UNL     1      47.695  40.046  11.620  1.00  0.00    -0.507 OA
ATOM     21  H   UNL     1      46.989  39.975  12.343  1.00  0.00     0.293 HD
ENDBRANCH  17  20
ENDBRANCH   1  12
BRANCH   2  22
ATOM     22  O   UNL     1      46.374  36.695  10.600  1.00  0.00    -0.502 OA
ATOM     23  H   UNL     1      46.655  35.725  10.674  1.00  0.00     0.293 HD
ENDBRANCH   2  22
BRANCH   6  24
ATOM     24  O   UNL     1      43.914  37.686   6.123  1.00  0.00    -0.507 OA
ATOM     25  H   UNL     1      43.199  37.872   5.428  1.00  0.00     0.293 HD
ENDBRANCH   6  24
BRANCH   8  26
ATOM     26  O   UNL     1      46.911  40.844   4.043  1.00  0.00    -0.508 OA
ATOM     27  H   UNL     1      47.777  41.369   4.006  1.00  0.00     0.293 HD
ENDBRANCH   8  26
TORSDOF 6
ENDMDL
