MODEL 1
REMARK VINA RESULT:    -4.921      0.000      0.000
REMARK INTER + INTRA:         -10.920
REMARK INTER:                  -8.948
REMARK INTRA:                  -1.972
REMARK UNBOUND:                -1.972
REMARK SMILES CCCCCCCCCCCCCCCC(=O)[O-]
REMARK SMILES IDX 9 1 10 2 11 3 12 4 13 5 14 6 15 7 16 8 17 9 18 10 8 11 7 12
REMARK SMILES IDX 6 13 5 14 4 15 3 16 2 17 1 18
REMARK H PARENT
REMARK Flexibility Score: inf
ROOT
ATOM      1  C   UNL     1      13.085  21.408  29.147  1.00  0.00     0.000 C 
ENDROOT
BRANCH   1   2
ATOM      2  C   UNL     1      13.407  22.042  30.515  1.00  0.00     0.000 C 
BRANCH   2   3
ATOM      3  C   UNL     1      13.396  23.581  30.533  1.00  0.00     0.000 C 
BRANCH   3   4
ATOM      4  C   UNL     1      12.015  24.169  30.200  1.00  0.00     0.000 C 
BRANCH   4   5
ATOM      5  C   UNL     1      11.140  24.360  31.449  1.00  0.00     0.000 C 
BRANCH   5   6
ATOM      6  C   UNL     1       9.953  23.382  31.493  1.00  0.00     0.006 C 
BRANCH   6   7
ATOM      7  C   UNL     1       9.668  22.755  30.122  1.00  0.00     0.053 C 
BRANCH   7   8
ATOM      8  C   UNL     1       8.947  21.447  30.251  1.00  0.00     0.041 C 
ATOM      9  O   UNL     1       9.586  20.364  30.210  1.00  0.00    -0.550 OA
ATOM     10  O   UNL     1       7.573  21.429  30.450  1.00  0.00    -0.550 OA
ENDBRANCH   7   8
ENDBRANCH   6   7
ENDBRANCH   5   6
ENDBRANCH   4   5
ENDBRANCH   3   4
ENDBRANCH   2   3
ENDBRANCH   1   2
BRANCH   1  11
ATOM     11  C   UNL     1      14.263  20.683  28.466  1.00  0.00     0.000 C 
BRANCH  11  12
ATOM     12  C   UNL     1      15.487  20.437  29.366  1.00  0.00    -0.000 C 
BRANCH  12  13
ATOM     13  C   UNL     1      16.757  21.133  28.848  1.00  0.00    -0.000 C 
BRANCH  13  14
ATOM     14  C   UNL     1      16.892  22.575  29.363  1.00  0.00    -0.000 C 
BRANCH  14  15
ATOM     15  C   UNL     1      17.059  23.598  28.230  1.00  0.00    -0.000 C 
BRANCH  15  16
ATOM     16  C   UNL     1      15.744  23.789  27.465  1.00  0.00    -0.000 C 
BRANCH  16  17
ATOM     17  C   UNL     1      15.977  23.742  25.951  1.00  0.00    -0.003 C 
ATOM     18  C   UNL     1      16.140  22.305  25.463  1.00  0.00     0.004 C 
ENDBRANCH  16  17
ENDBRANCH  15  16
ENDBRANCH  14  15
ENDBRANCH  13  14
ENDBRANCH  12  13
ENDBRANCH  11  12
ENDBRANCH   1  11
TORSDOF 14
ENDMDL
MODEL 2
REMARK VINA RESULT:    -4.909      1.606      2.876
REMARK INTER + INTRA:         -10.898
REMARK INTER:                  -9.346
REMARK INTRA:                  -1.553
REMARK UNBOUND:                -1.972
REMARK SMILES CCCCCCCCCCCCCCCC(=O)[O-]
REMARK SMILES IDX 9 1 10 2 11 3 12 4 13 5 14 6 15 7 16 8 17 9 18 10 8 11 7 12
REMARK SMILES IDX 6 13 5 14 4 15 3 16 2 17 1 18
REMARK H PARENT
REMARK Flexibility Score: inf
ROOT
ATOM      1  C   UNL     1      12.771  21.511  28.736  1.00  0.00     0.000 C 
ENDROOT
BRANCH   1   2
ATOM      2  C   UNL     1      13.580  20.200  28.683  1.00  0.00     0.000 C 
BRANCH   2   3
ATOM      3  C   UNL     1      12.841  18.962  29.222  1.00  0.00     0.000 C 
BRANCH   3   4
ATOM      4  C   UNL     1      12.519  19.068  30.722  1.00  0.00     0.000 C 
BRANCH   4   5
ATOM      5  C   UNL     1      11.023  18.875  31.018  1.00  0.00     0.000 C 
BRANCH   5   6
ATOM      6  C   UNL     1      10.315  20.196  31.364  1.00  0.00     0.006 C 
BRANCH   6   7
ATOM      7  C   UNL     1       9.490  20.735  30.187  1.00  0.00     0.053 C 
BRANCH   7   8
ATOM      8  C   UNL     1       8.404  21.658  30.650  1.00  0.00     0.041 C 
ATOM      9  O   UNL     1       8.672  22.618  31.419  1.00  0.00    -0.550 OA
ATOM     10  O   UNL     1       7.101  21.477  30.205  1.00  0.00    -0.550 OA
ENDBRANCH   7   8
ENDBRANCH   6   7
ENDBRANCH   5   6
ENDBRANCH   4   5
ENDBRANCH   3   4
ENDBRANCH   2   3
ENDBRANCH   1   2
BRANCH   1  11
ATOM     11  C   UNL     1      13.142  22.466  29.888  1.00  0.00     0.000 C 
BRANCH  11  12
ATOM     12  C   UNL     1      14.211  23.519  29.546  1.00  0.00    -0.000 C 
BRANCH  12  13
ATOM     13  C   UNL     1      15.643  23.018  29.796  1.00  0.00    -0.000 C 
BRANCH  13  14
ATOM     14  C   UNL     1      16.511  23.053  28.528  1.00  0.00    -0.000 C 
BRANCH  14  15
ATOM     15  C   UNL     1      16.867  21.650  28.012  1.00  0.00    -0.000 C 
BRANCH  15  16
ATOM     16  C   UNL     1      17.027  21.651  26.487  1.00  0.00    -0.000 C 
BRANCH  16  17
ATOM     17  C   UNL     1      15.815  22.297  25.807  1.00  0.00    -0.003 C 
ATOM     18  C   UNL     1      15.926  22.214  24.287  1.00  0.00     0.004 C 
ENDBRANCH  16  17
ENDBRANCH  15  16
ENDBRANCH  14  15
ENDBRANCH  13  14
ENDBRANCH  12  13
ENDBRANCH  11  12
ENDBRANCH   1  11
TORSDOF 14
ENDMDL
MODEL 3
REMARK VINA RESULT:    -4.816      1.311      2.872
REMARK INTER + INTRA:         -10.729
REMARK INTER:                  -8.840
REMARK INTRA:                  -1.889
REMARK UNBOUND:                -1.972
REMARK SMILES CCCCCCCCCCCCCCCC(=O)[O-]
REMARK SMILES IDX 9 1 10 2 11 3 12 4 13 5 14 6 15 7 16 8 17 9 18 10 8 11 7 12
REMARK SMILES IDX 6 13 5 14 4 15 3 16 2 17 1 18
REMARK H PARENT
REMARK Flexibility Score: inf
ROOT
ATOM      1  C   UNL     1      14.499  21.012  27.878  1.00  0.00     0.000 C 
ENDROOT
BRANCH   1   2
ATOM      2  C   UNL     1      13.308  21.199  28.840  1.00  0.00     0.000 C 
BRANCH   2   3
ATOM      3  C   UNL     1      13.607  22.062  30.078  1.00  0.00     0.000 C 
BRANCH   3   4
ATOM      4  C   UNL     1      13.939  23.521  29.721  1.00  0.00     0.000 C 
BRANCH   4   5
ATOM      5  C   UNL     1      12.881  24.509  30.238  1.00  0.00     0.000 C 
BRANCH   5   6
ATOM      6  C   UNL     1      11.945  23.879  31.283  1.00  0.00     0.006 C 
BRANCH   6   7
ATOM      7  C   UNL     1      10.471  24.208  31.013  1.00  0.00     0.053 C 
BRANCH   7   8
ATOM      8  C   UNL     1       9.690  22.985  30.639  1.00  0.00     0.041 C 
ATOM      9  O   UNL     1      10.031  22.294  29.644  1.00  0.00    -0.550 OA
ATOM     10  O   UNL     1       8.606  22.590  31.412  1.00  0.00    -0.550 OA
ENDBRANCH   7   8
ENDBRANCH   6   7
ENDBRANCH   5   6
ENDBRANCH   4   5
ENDBRANCH   3   4
ENDBRANCH   2   3
ENDBRANCH   1   2
BRANCH   1  11
ATOM     11  C   UNL     1      14.314  21.630  26.478  1.00  0.00     0.000 C 
BRANCH  11  12
ATOM     12  C   UNL     1      15.619  21.985  25.742  1.00  0.00    -0.000 C 
BRANCH  12  13
ATOM     13  C   UNL     1      16.812  22.160  26.696  1.00  0.00    -0.000 C 
BRANCH  13  14
ATOM     14  C   UNL     1      16.864  23.562  27.325  1.00  0.00    -0.000 C 
BRANCH  14  15
ATOM     15  C   UNL     1      17.530  23.569  28.709  1.00  0.00    -0.000 C 
BRANCH  15  16
ATOM     16  C   UNL     1      17.582  22.154  29.300  1.00  0.00    -0.000 C 
BRANCH  16  17
ATOM     17  C   UNL     1      18.120  22.177  30.735  1.00  0.00    -0.003 C 
ATOM     18  C   UNL     1      16.982  22.125  31.751  1.00  0.00     0.004 C 
ENDBRANCH  16  17
ENDBRANCH  15  16
ENDBRANCH  14  15
ENDBRANCH  13  14
ENDBRANCH  12  13
ENDBRANCH  11  12
ENDBRANCH   1  11
TORSDOF 14
ENDMDL
MODEL 4
REMARK VINA RESULT:    -4.791      1.695      2.963
REMARK INTER + INTRA:         -10.684
REMARK INTER:                  -8.736
REMARK INTRA:                  -1.948
REMARK UNBOUND:                -1.972
REMARK SMILES CCCCCCCCCCCCCCCC(=O)[O-]
REMARK SMILES IDX 9 1 10 2 11 3 12 4 13 5 14 6 15 7 16 8 17 9 18 10 8 11 7 12
REMARK SMILES IDX 6 13 5 14 4 15 3 16 2 17 1 18
REMARK H PARENT
REMARK Flexibility Score: inf
ROOT
ATOM      1  C   UNL     1      16.663  20.117  29.320  1.00  0.00     0.000 C 
ENDROOT
BRANCH   1   2
ATOM      2  C   UNL     1      15.822  19.274  30.300  1.00  0.00     0.000 C 
BRANCH   2   3
ATOM      3  C   UNL     1      14.430  18.875  29.779  1.00  0.00     0.000 C 
BRANCH   3   4
ATOM      4  C   UNL     1      13.819  19.933  28.844  1.00  0.00     0.000 C 
BRANCH   4   5
ATOM      5  C   UNL     1      12.782  20.818  29.554  1.00  0.00     0.000 C 
BRANCH   5   6
ATOM      6  C   UNL     1      11.788  21.464  28.574  1.00  0.00     0.006 C 
BRANCH   6   7
ATOM      7  C   UNL     1      10.535  21.992  29.285  1.00  0.00     0.053 C 
BRANCH   7   8
ATOM      8  C   UNL     1       9.960  20.974  30.223  1.00  0.00     0.041 C 
ATOM      9  O   UNL     1       9.444  19.917  29.774  1.00  0.00    -0.550 OA
ATOM     10  O   UNL     1      10.026  21.179  31.595  1.00  0.00    -0.550 OA
ENDBRANCH   7   8
ENDBRANCH   6   7
ENDBRANCH   5   6
ENDBRANCH   4   5
ENDBRANCH   3   4
ENDBRANCH   2   3
ENDBRANCH   1   2
BRANCH   1  11
ATOM     11  C   UNL     1      17.190  21.450  29.887  1.00  0.00     0.000 C 
BRANCH  11  12
ATOM     12  C   UNL     1      16.133  22.331  30.577  1.00  0.00    -0.000 C 
BRANCH  12  13
ATOM     13  C   UNL     1      15.428  23.289  29.602  1.00  0.00    -0.000 C 
BRANCH  13  14
ATOM     14  C   UNL     1      16.355  23.773  28.475  1.00  0.00    -0.000 C 
BRANCH  14  15
ATOM     15  C   UNL     1      15.663  23.790  27.103  1.00  0.00    -0.000 C 
BRANCH  15  16
ATOM     16  C   UNL     1      15.344  22.367  26.632  1.00  0.00    -0.000 C 
BRANCH  16  17
ATOM     17  C   UNL     1      16.404  21.863  25.646  1.00  0.00    -0.003 C 
ATOM     18  C   UNL     1      16.002  22.159  24.204  1.00  0.00     0.004 C 
ENDBRANCH  16  17
ENDBRANCH  15  16
ENDBRANCH  14  15
ENDBRANCH  13  14
ENDBRANCH  12  13
ENDBRANCH  11  12
ENDBRANCH   1  11
TORSDOF 14
ENDMDL
MODEL 5
REMARK VINA RESULT:    -4.775      2.873      6.368
REMARK INTER + INTRA:         -10.656
REMARK INTER:                  -8.690
REMARK INTRA:                  -1.966
REMARK UNBOUND:                -1.972
REMARK SMILES CCCCCCCCCCCCCCCC(=O)[O-]
REMARK SMILES IDX 9 1 10 2 11 3 12 4 13 5 14 6 15 7 16 8 17 9 18 10 8 11 7 12
REMARK SMILES IDX 6 13 5 14 4 15 3 16 2 17 1 18
REMARK H PARENT
REMARK Flexibility Score: inf
ROOT
ATOM      1  C   UNL     1      13.366  20.407  28.560  1.00  0.00     0.000 C 
ENDROOT
BRANCH   1   2
ATOM      2  C   UNL     1      14.735  20.542  29.256  1.00  0.00     0.000 C 
BRANCH   2   3
ATOM      3  C   UNL     1      14.751  21.486  30.471  1.00  0.00     0.000 C 
BRANCH   3   4
ATOM      4  C   UNL     1      15.726  22.663  30.298  1.00  0.00     0.000 C 
BRANCH   4   5
ATOM      5  C   UNL     1      15.383  23.537  29.081  1.00  0.00     0.000 C 
BRANCH   5   6
ATOM      6  C   UNL     1      16.600  23.792  28.176  1.00  0.00     0.006 C 
BRANCH   6   7
ATOM      7  C   UNL     1      16.242  23.706  26.686  1.00  0.00     0.053 C 
BRANCH   7   8
ATOM      8  C   UNL     1      16.147  22.285  26.221  1.00  0.00     0.041 C 
ATOM      9  O   UNL     1      17.156  21.534  26.263  1.00  0.00    -0.550 OA
ATOM     10  O   UNL     1      14.932  21.780  25.774  1.00  0.00    -0.550 OA
ENDBRANCH   7   8
ENDBRANCH   6   7
ENDBRANCH   5   6
ENDBRANCH   4   5
ENDBRANCH   3   4
ENDBRANCH   2   3
ENDBRANCH   1   2
BRANCH   1  11
ATOM     11  C   UNL     1      12.169  20.181  29.505  1.00  0.00     0.000 C 
BRANCH  11  12
ATOM     12  C   UNL     1      10.799  20.588  28.933  1.00  0.00    -0.000 C 
BRANCH  12  13
ATOM     13  C   UNL     1       9.644  20.335  29.916  1.00  0.00    -0.000 C 
BRANCH  13  14
ATOM     14  C   UNL     1       9.753  21.189  31.189  1.00  0.00    -0.000 C 
BRANCH  14  15
ATOM     15  C   UNL     1       9.240  22.623  30.990  1.00  0.00    -0.000 C 
BRANCH  15  16
ATOM     16  C   UNL     1      10.125  23.631  31.733  1.00  0.00    -0.000 C 
BRANCH  16  17
ATOM     17  C   UNL     1      11.592  23.491  31.310  1.00  0.00    -0.003 C 
ATOM     18  C   UNL     1      11.828  24.094  29.928  1.00  0.00     0.004 C 
ENDBRANCH  16  17
ENDBRANCH  15  16
ENDBRANCH  14  15
ENDBRANCH  13  14
ENDBRANCH  12  13
ENDBRANCH  11  12
ENDBRANCH   1  11
TORSDOF 14
ENDMDL
MODEL 6
REMARK VINA RESULT:    -4.742      1.934      3.636
REMARK INTER + INTRA:         -10.595
REMARK INTER:                  -8.260
REMARK INTRA:                  -2.335
REMARK UNBOUND:                -1.972
REMARK SMILES CCCCCCCCCCCCCCCC(=O)[O-]
REMARK SMILES IDX 9 1 10 2 11 3 12 4 13 5 14 6 15 7 16 8 17 9 18 10 8 11 7 12
REMARK SMILES IDX 6 13 5 14 4 15 3 16 2 17 1 18
REMARK H PARENT
REMARK Flexibility Score: inf
ROOT
ATOM      1  C   UNL     1      14.363  21.525  26.385  1.00  0.00     0.000 C 
ENDROOT
BRANCH   1   2
ATOM      2  C   UNL     1      14.030  20.640  27.603  1.00  0.00     0.000 C 
BRANCH   2   3
ATOM      3  C   UNL     1      12.905  21.177  28.504  1.00  0.00     0.000 C 
BRANCH   3   4
ATOM      4  C   UNL     1      12.305  20.093  29.416  1.00  0.00     0.000 C 
BRANCH   4   5
ATOM      5  C   UNL     1      12.394  20.462  30.905  1.00  0.00     0.000 C 
BRANCH   5   6
ATOM      6  C   UNL     1      12.620  21.968  31.128  1.00  0.00     0.006 C 
BRANCH   6   7
ATOM      7  C   UNL     1      11.330  22.693  31.533  1.00  0.00     0.053 C 
BRANCH   7   8
ATOM      8  C   UNL     1      11.153  23.973  30.774  1.00  0.00     0.041 C 
ATOM      9  O   UNL     1      11.988  24.309  29.893  1.00  0.00    -0.550 OA
ATOM     10  O   UNL     1      10.047  24.777  31.016  1.00  0.00    -0.550 OA
ENDBRANCH   7   8
ENDBRANCH   6   7
ENDBRANCH   5   6
ENDBRANCH   4   5
ENDBRANCH   3   4
ENDBRANCH   2   3
ENDBRANCH   1   2
BRANCH   1  11
ATOM     11  C   UNL     1      15.831  21.989  26.292  1.00  0.00     0.000 C 
BRANCH  11  12
ATOM     12  C   UNL     1      16.066  23.480  26.590  1.00  0.00    -0.000 C 
BRANCH  12  13
ATOM     13  C   UNL     1      16.706  23.718  27.968  1.00  0.00    -0.000 C 
BRANCH  13  14
ATOM     14  C   UNL     1      15.682  23.666  29.113  1.00  0.00    -0.000 C 
BRANCH  14  15
ATOM     15  C   UNL     1      15.990  22.564  30.137  1.00  0.00    -0.000 C 
BRANCH  15  16
ATOM     16  C   UNL     1      17.366  21.940  29.874  1.00  0.00    -0.000 C 
BRANCH  16  17
ATOM     17  C   UNL     1      17.232  20.476  29.437  1.00  0.00    -0.003 C 
ATOM     18  C   UNL     1      16.244  19.724  30.326  1.00  0.00     0.004 C 
ENDBRANCH  16  17
ENDBRANCH  15  16
ENDBRANCH  14  15
ENDBRANCH  13  14
ENDBRANCH  12  13
ENDBRANCH  11  12
ENDBRANCH   1  11
TORSDOF 14
ENDMDL
MODEL 7
REMARK VINA RESULT:    -4.694      2.945      6.178
REMARK INTER + INTRA:         -10.507
REMARK INTER:                  -8.199
REMARK INTRA:                  -2.308
REMARK UNBOUND:                -1.972
REMARK SMILES CCCCCCCCCCCCCCCC(=O)[O-]
REMARK SMILES IDX 9 1 10 2 11 3 12 4 13 5 14 6 15 7 16 8 17 9 18 10 8 11 7 12
REMARK SMILES IDX 6 13 5 14 4 15 3 16 2 17 1 18
REMARK H PARENT
REMARK Flexibility Score: inf
ROOT
ATOM      1  C   UNL     1      12.852  21.308  28.372  1.00  0.00     0.000 C 
ENDROOT
BRANCH   1   2
ATOM      2  C   UNL     1      13.668  20.034  28.671  1.00  0.00     0.000 C 
BRANCH   2   3
ATOM      3  C   UNL     1      14.997  20.276  29.409  1.00  0.00     0.000 C 
BRANCH   3   4
ATOM      4  C   UNL     1      14.921  21.448  30.402  1.00  0.00     0.000 C 
BRANCH   4   5
ATOM      5  C   UNL     1      16.112  22.410  30.269  1.00  0.00     0.000 C 
BRANCH   5   6
ATOM      6  C   UNL     1      16.619  22.527  28.821  1.00  0.00     0.006 C 
BRANCH   6   7
ATOM      7  C   UNL     1      16.133  23.813  28.140  1.00  0.00     0.053 C 
BRANCH   7   8
ATOM      8  C   UNL     1      15.835  23.590  26.688  1.00  0.00     0.041 C 
ATOM      9  O   UNL     1      15.364  22.490  26.298  1.00  0.00    -0.550 OA
ATOM     10  O   UNL     1      16.046  24.612  25.771  1.00  0.00    -0.550 OA
ENDBRANCH   7   8
ENDBRANCH   6   7
ENDBRANCH   5   6
ENDBRANCH   4   5
ENDBRANCH   3   4
ENDBRANCH   2   3
ENDBRANCH   1   2
BRANCH   1  11
ATOM     11  C   UNL     1      11.355  21.228  28.731  1.00  0.00     0.000 C 
BRANCH  11  12
ATOM     12  C   UNL     1      11.003  20.232  29.850  1.00  0.00    -0.000 C 
BRANCH  12  13
ATOM     13  C   UNL     1      10.055  20.829  30.903  1.00  0.00    -0.000 C 
BRANCH  13  14
ATOM     14  C   UNL     1      10.671  22.029  31.639  1.00  0.00    -0.000 C 
BRANCH  14  15
ATOM     15  C   UNL     1       9.869  23.324  31.441  1.00  0.00    -0.000 C 
BRANCH  15  16
ATOM     16  C   UNL     1      10.771  24.455  30.930  1.00  0.00    -0.000 C 
BRANCH  16  17
ATOM     17  C   UNL     1      12.251  24.099  31.104  1.00  0.00    -0.003 C 
ATOM     18  C   UNL     1      13.091  24.655  29.957  1.00  0.00     0.004 C 
ENDBRANCH  16  17
ENDBRANCH  15  16
ENDBRANCH  14  15
ENDBRANCH  13  14
ENDBRANCH  12  13
ENDBRANCH  11  12
ENDBRANCH   1  11
TORSDOF 14
ENDMDL
MODEL 8
REMARK VINA RESULT:    -4.692      3.389      6.493
REMARK INTER + INTRA:         -10.504
REMARK INTER:                  -8.549
REMARK INTRA:                  -1.955
REMARK UNBOUND:                -1.972
REMARK SMILES CCCCCCCCCCCCCCCC(=O)[O-]
REMARK SMILES IDX 9 1 10 2 11 3 12 4 13 5 14 6 15 7 16 8 17 9 18 10 8 11 7 12
REMARK SMILES IDX 6 13 5 14 4 15 3 16 2 17 1 18
REMARK H PARENT
REMARK Flexibility Score: inf
ROOT
ATOM      1  C   UNL     1      11.673  24.134  30.150  1.00  0.00     0.000 C 
ENDROOT
BRANCH   1   2
ATOM      2  C   UNL     1      13.136  24.503  30.468  1.00  0.00     0.000 C 
BRANCH   2   3
ATOM      3  C   UNL     1      14.135  23.339  30.351  1.00  0.00     0.000 C 
BRANCH   3   4
ATOM      4  C   UNL     1      14.938  23.373  29.040  1.00  0.00     0.000 C 
BRANCH   4   5
ATOM      5  C   UNL     1      16.112  22.381  29.042  1.00  0.00     0.000 C 
BRANCH   5   6
ATOM      6  C   UNL     1      16.485  21.905  27.627  1.00  0.00     0.006 C 
BRANCH   6   7
ATOM      7  C   UNL     1      15.370  22.183  26.610  1.00  0.00     0.053 C 
BRANCH   7   8
ATOM      8  C   UNL     1      15.883  22.938  25.421  1.00  0.00     0.041 C 
ATOM      9  O   UNL     1      16.065  24.182  25.489  1.00  0.00    -0.550 OA
ATOM     10  O   UNL     1      16.191  22.261  24.248  1.00  0.00    -0.550 OA
ENDBRANCH   7   8
ENDBRANCH   6   7
ENDBRANCH   5   6
ENDBRANCH   4   5
ENDBRANCH   3   4
ENDBRANCH   2   3
ENDBRANCH   1   2
BRANCH   1  11
ATOM     11  C   UNL     1      10.720  24.125  31.362  1.00  0.00     0.000 C 
BRANCH  11  12
ATOM     12  C   UNL     1       9.542  23.141  31.260  1.00  0.00    -0.000 C 
BRANCH  12  13
ATOM     13  C   UNL     1       9.992  21.670  31.259  1.00  0.00    -0.000 C 
BRANCH  13  14
ATOM     14  C   UNL     1       9.769  20.986  29.901  1.00  0.00    -0.000 C 
BRANCH  14  15
ATOM     15  C   UNL     1      10.898  20.011  29.535  1.00  0.00    -0.000 C 
BRANCH  15  16
ATOM     16  C   UNL     1      12.048  20.742  28.831  1.00  0.00    -0.000 C 
BRANCH  16  17
ATOM     17  C   UNL     1      13.286  19.845  28.722  1.00  0.00    -0.003 C 
ATOM     18  C   UNL     1      13.899  19.582  30.095  1.00  0.00     0.004 C 
ENDBRANCH  16  17
ENDBRANCH  15  16
ENDBRANCH  14  15
ENDBRANCH  13  14
ENDBRANCH  12  13
ENDBRANCH  11  12
ENDBRANCH   1  11
TORSDOF 14
ENDMDL
MODEL 9
REMARK VINA RESULT:    -4.680      2.168      3.064
REMARK INTER + INTRA:         -10.483
REMARK INTER:                  -8.641
REMARK INTRA:                  -1.842
REMARK UNBOUND:                -1.972
REMARK SMILES CCCCCCCCCCCCCCCC(=O)[O-]
REMARK SMILES IDX 9 1 10 2 11 3 12 4 13 5 14 6 15 7 16 8 17 9 18 10 8 11 7 12
REMARK SMILES IDX 6 13 5 14 4 15 3 16 2 17 1 18
REMARK H PARENT
REMARK Flexibility Score: inf
ROOT
ATOM      1  C   UNL     1      13.754  20.120  28.608  1.00  0.00     0.000 C 
ENDROOT
BRANCH   1   2
ATOM      2  C   UNL     1      13.075  18.883  29.229  1.00  0.00     0.000 C 
BRANCH   2   3
ATOM      3  C   UNL     1      12.645  19.051  30.697  1.00  0.00     0.000 C 
BRANCH   3   4
ATOM      4  C   UNL     1      11.130  18.875  30.897  1.00  0.00     0.000 C 
BRANCH   4   5
ATOM      5  C   UNL     1      10.315  19.994  30.230  1.00  0.00     0.000 C 
BRANCH   5   6
ATOM      6  C   UNL     1      10.625  21.381  30.818  1.00  0.00     0.006 C 
BRANCH   6   7
ATOM      7  C   UNL     1      10.811  22.444  29.726  1.00  0.00     0.053 C 
BRANCH   7   8
ATOM      8  C   UNL     1      11.056  23.801  30.312  1.00  0.00     0.041 C 
ATOM      9  O   UNL     1      11.968  24.536  29.850  1.00  0.00    -0.550 OA
ATOM     10  O   UNL     1      10.253  24.267  31.345  1.00  0.00    -0.550 OA
ENDBRANCH   7   8
ENDBRANCH   6   7
ENDBRANCH   5   6
ENDBRANCH   4   5
ENDBRANCH   3   4
ENDBRANCH   2   3
ENDBRANCH   1   2
BRANCH   1  11
ATOM     11  C   UNL     1      14.869  20.755  29.463  1.00  0.00     0.000 C 
BRANCH  11  12
ATOM     12  C   UNL     1      14.526  22.128  30.070  1.00  0.00    -0.000 C 
BRANCH  12  13
ATOM     13  C   UNL     1      15.510  23.230  29.644  1.00  0.00    -0.000 C 
BRANCH  13  14
ATOM     14  C   UNL     1      15.376  23.600  28.158  1.00  0.00    -0.000 C 
BRANCH  14  15
ATOM     15  C   UNL     1      16.697  23.459  27.388  1.00  0.00    -0.000 C 
BRANCH  15  16
ATOM     16  C   UNL     1      16.784  22.095  26.693  1.00  0.00    -0.000 C 
BRANCH  16  17
ATOM     17  C   UNL     1      15.576  21.865  25.778  1.00  0.00    -0.003 C 
ATOM     18  C   UNL     1      15.907  22.218  24.330  1.00  0.00     0.004 C 
ENDBRANCH  16  17
ENDBRANCH  15  16
ENDBRANCH  14  15
ENDBRANCH  13  14
ENDBRANCH  12  13
ENDBRANCH  11  12
ENDBRANCH   1  11
TORSDOF 14
ENDMDL
