MODEL 1
REMARK VINA RESULT:    -4.129      0.000      0.000
REMARK INTER + INTRA:          -7.237
REMARK INTER:                  -6.542
REMARK INTRA:                  -0.695
REMARK UNBOUND:                -0.695
REMARK SMILES CCCCCCCCCCCC(=O)[O-]
REMARK SMILES IDX 7 1 8 2 9 3 10 4 11 5 12 6 13 7 14 8 6 9 5 10 4 11 3 12 2 13
REMARK SMILES IDX 1 14
REMARK H PARENT
REMARK Flexibility Score: inf
ROOT
ATOM      1  C   UNL     1       9.919  34.079  -0.481  1.00  0.00     0.000 C 
ENDROOT
BRANCH   1   2
ATOM      2  C   UNL     1       8.413  33.938  -0.744  1.00  0.00     0.000 C 
BRANCH   2   3
ATOM      3  C   UNL     1       8.099  33.243  -2.080  1.00  0.00     0.000 C 
BRANCH   3   4
ATOM      4  C   UNL     1       6.751  33.628  -2.720  1.00  0.00     0.006 C 
BRANCH   4   5
ATOM      5  C   UNL     1       5.809  34.404  -1.781  1.00  0.00     0.053 C 
BRANCH   5   6
ATOM      6  C   UNL     1       4.390  34.410  -2.262  1.00  0.00     0.041 C 
ATOM      7  O   UNL     1       3.741  33.334  -2.340  1.00  0.00    -0.550 OA
ATOM      8  O   UNL     1       3.795  35.599  -2.664  1.00  0.00    -0.550 OA
ENDBRANCH   5   6
ENDBRANCH   4   5
ENDBRANCH   3   4
ENDBRANCH   2   3
ENDBRANCH   1   2
BRANCH   1   9
ATOM      9  C   UNL     1      10.482  35.326  -1.173  1.00  0.00     0.000 C 
BRANCH   9  10
ATOM     10  C   UNL     1       9.437  36.447  -1.229  1.00  0.00    -0.000 C 
BRANCH  10  11
ATOM     11  C   UNL     1      10.011  37.763  -0.685  1.00  0.00    -0.000 C 
BRANCH  11  12
ATOM     12  C   UNL     1      10.825  37.566   0.603  1.00  0.00    -0.000 C 
BRANCH  12  13
ATOM     13  C   UNL     1      10.032  37.936   1.865  1.00  0.00    -0.003 C 
ATOM     14  C   UNL     1      10.301  39.381   2.279  1.00  0.00     0.004 C 
ENDBRANCH  12  13
ENDBRANCH  11  12
ENDBRANCH  10  11
ENDBRANCH   9  10
ENDBRANCH   1   9
TORSDOF 10
ENDMDL
MODEL 2
REMARK VINA RESULT:    -4.120      3.210      4.007
REMARK INTER + INTRA:          -7.223
REMARK INTER:                  -6.230
REMARK INTRA:                  -0.992
REMARK UNBOUND:                -0.695
REMARK SMILES CCCCCCCCCCCC(=O)[O-]
REMARK SMILES IDX 7 1 8 2 9 3 10 4 11 5 12 6 13 7 14 8 6 9 5 10 4 11 3 12 2 13
REMARK SMILES IDX 1 14
REMARK H PARENT
REMARK Flexibility Score: inf
ROOT
ATOM      1  C   UNL     1       8.640  37.075  -0.905  1.00  0.00     0.000 C 
ENDROOT
BRANCH   1   2
ATOM      2  C   UNL     1       8.021  35.925  -1.715  1.00  0.00     0.000 C 
BRANCH   2   3
ATOM      3  C   UNL     1       7.740  34.675  -0.864  1.00  0.00     0.000 C 
BRANCH   3   4
ATOM      4  C   UNL     1       8.288  33.354  -1.438  1.00  0.00     0.006 C 
BRANCH   4   5
ATOM      5  C   UNL     1       9.806  33.170  -1.252  1.00  0.00     0.053 C 
BRANCH   5   6
ATOM      6  C   UNL     1      10.198  31.733  -1.090  1.00  0.00     0.041 C 
ATOM      7  O   UNL     1       9.891  31.104  -0.044  1.00  0.00    -0.550 OA
ATOM      8  O   UNL     1      10.941  31.098  -2.078  1.00  0.00    -0.550 OA
ENDBRANCH   5   6
ENDBRANCH   4   5
ENDBRANCH   3   4
ENDBRANCH   2   3
ENDBRANCH   1   2
BRANCH   1   9
ATOM      9  C   UNL     1      10.171  37.016  -0.950  1.00  0.00     0.000 C 
BRANCH   9  10
ATOM     10  C   UNL     1      10.736  36.369   0.321  1.00  0.00    -0.000 C 
BRANCH  10  11
ATOM     11  C   UNL     1      10.194  37.064   1.578  1.00  0.00    -0.000 C 
BRANCH  11  12
ATOM     12  C   UNL     1      10.823  38.448   1.808  1.00  0.00    -0.000 C 
BRANCH  12  13
ATOM     13  C   UNL     1       9.831  39.455   2.409  1.00  0.00    -0.003 C 
ATOM     14  C   UNL     1       8.423  38.867   2.470  1.00  0.00     0.004 C 
ENDBRANCH  12  13
ENDBRANCH  11  12
ENDBRANCH  10  11
ENDBRANCH   9  10
ENDBRANCH   1   9
TORSDOF 10
ENDMDL
MODEL 3
REMARK VINA RESULT:    -4.102      3.164      4.423
REMARK INTER + INTRA:          -7.195
REMARK INTER:                  -5.539
REMARK INTRA:                  -1.656
REMARK UNBOUND:                -0.695
REMARK SMILES CCCCCCCCCCCC(=O)[O-]
REMARK SMILES IDX 7 1 8 2 9 3 10 4 11 5 12 6 13 7 14 8 6 9 5 10 4 11 3 12 2 13
REMARK SMILES IDX 1 14
REMARK H PARENT
REMARK Flexibility Score: inf
ROOT
ATOM      1  C   UNL     1       7.185  37.151   0.662  1.00  0.00     0.000 C 
ENDROOT
BRANCH   1   2
ATOM      2  C   UNL     1       7.519  37.291  -0.830  1.00  0.00     0.000 C 
BRANCH   2   3
ATOM      3  C   UNL     1       8.348  36.115  -1.373  1.00  0.00     0.000 C 
BRANCH   3   4
ATOM      4  C   UNL     1       8.288  34.825  -0.532  1.00  0.00     0.006 C 
BRANCH   4   5
ATOM      5  C   UNL     1       9.666  34.308  -0.074  1.00  0.00     0.053 C 
BRANCH   5   6
ATOM      6  C   UNL     1      10.556  33.942  -1.223  1.00  0.00     0.041 C 
ATOM      7  O   UNL     1      11.585  34.623  -1.472  1.00  0.00    -0.550 OA
ATOM      8  O   UNL     1      10.226  32.872  -2.046  1.00  0.00    -0.550 OA
ENDBRANCH   5   6
ENDBRANCH   4   5
ENDBRANCH   3   4
ENDBRANCH   2   3
ENDBRANCH   1   2
BRANCH   1   9
ATOM      9  C   UNL     1       8.003  38.139   1.502  1.00  0.00     0.000 C 
BRANCH   9  10
ATOM     10  C   UNL     1       9.293  37.490   2.019  1.00  0.00    -0.000 C 
BRANCH  10  11
ATOM     11  C   UNL     1      10.525  38.305   1.600  1.00  0.00    -0.000 C 
BRANCH  11  12
ATOM     12  C   UNL     1      11.209  37.742   0.345  1.00  0.00    -0.000 C 
BRANCH  12  13
ATOM     13  C   UNL     1      11.107  38.690  -0.859  1.00  0.00    -0.003 C 
ATOM     14  C   UNL     1      10.434  40.003  -0.467  1.00  0.00     0.004 C 
ENDBRANCH  12  13
ENDBRANCH  11  12
ENDBRANCH  10  11
ENDBRANCH   9  10
ENDBRANCH   1   9
TORSDOF 10
ENDMDL
MODEL 4
REMARK VINA RESULT:    -4.097      3.190      5.947
REMARK INTER + INTRA:          -7.187
REMARK INTER:                  -5.921
REMARK INTRA:                  -1.266
REMARK UNBOUND:                -0.695
REMARK SMILES CCCCCCCCCCCC(=O)[O-]
REMARK SMILES IDX 7 1 8 2 9 3 10 4 11 5 12 6 13 7 14 8 6 9 5 10 4 11 3 12 2 13
REMARK SMILES IDX 1 14
REMARK H PARENT
REMARK Flexibility Score: inf
ROOT
ATOM      1  C   UNL     1       6.480  34.957  -0.283  1.00  0.00     0.000 C 
ENDROOT
BRANCH   1   2
ATOM      2  C   UNL     1       7.137  36.306   0.041  1.00  0.00     0.000 C 
BRANCH   2   3
ATOM      3  C   UNL     1       7.897  36.908  -1.153  1.00  0.00     0.000 C 
BRANCH   3   4
ATOM      4  C   UNL     1       9.333  37.375  -0.850  1.00  0.00     0.006 C 
BRANCH   4   5
ATOM      5  C   UNL     1      10.404  36.286  -1.055  1.00  0.00     0.053 C 
BRANCH   5   6
ATOM      6  C   UNL     1      10.372  35.236   0.013  1.00  0.00     0.041 C 
ATOM      7  O   UNL     1      10.274  34.019  -0.295  1.00  0.00    -0.550 OA
ATOM      8  O   UNL     1      10.409  35.603   1.352  1.00  0.00    -0.550 OA
ENDBRANCH   5   6
ENDBRANCH   4   5
ENDBRANCH   3   4
ENDBRANCH   2   3
ENDBRANCH   1   2
BRANCH   1   9
ATOM      9  C   UNL     1       6.906  34.459  -1.670  1.00  0.00     0.000 C 
BRANCH   9  10
ATOM     10  C   UNL     1       5.702  33.936  -2.463  1.00  0.00    -0.000 C 
BRANCH  10  11
ATOM     11  C   UNL     1       4.385  34.265  -1.744  1.00  0.00    -0.000 C 
BRANCH  11  12
ATOM     12  C   UNL     1       3.549  35.317  -2.491  1.00  0.00    -0.000 C 
BRANCH  12  13
ATOM     13  C   UNL     1       3.692  36.722  -1.888  1.00  0.00    -0.003 C 
ATOM     14  C   UNL     1       4.761  37.528  -2.621  1.00  0.00     0.004 C 
ENDBRANCH  12  13
ENDBRANCH  11  12
ENDBRANCH  10  11
ENDBRANCH   9  10
ENDBRANCH   1   9
TORSDOF 10
ENDMDL
MODEL 5
REMARK VINA RESULT:    -4.059      1.685      3.851
REMARK INTER + INTRA:          -7.127
REMARK INTER:                  -6.047
REMARK INTRA:                  -1.080
REMARK UNBOUND:                -0.695
REMARK SMILES CCCCCCCCCCCC(=O)[O-]
REMARK SMILES IDX 7 1 8 2 9 3 10 4 11 5 12 6 13 7 14 8 6 9 5 10 4 11 3 12 2 13
REMARK SMILES IDX 1 14
REMARK H PARENT
REMARK Flexibility Score: inf
ROOT
ATOM      1  C   UNL     1       9.006  37.148  -0.796  1.00  0.00     0.000 C 
ENDROOT
BRANCH   1   2
ATOM      2  C   UNL     1       8.304  36.498   0.405  1.00  0.00     0.000 C 
BRANCH   2   3
ATOM      3  C   UNL     1       7.032  35.727   0.013  1.00  0.00     0.000 C 
BRANCH   3   4
ATOM      4  C   UNL     1       6.844  35.497  -1.499  1.00  0.00     0.006 C 
BRANCH   4   5
ATOM      5  C   UNL     1       6.190  34.148  -1.853  1.00  0.00     0.053 C 
BRANCH   5   6
ATOM      6  C   UNL     1       4.761  34.293  -2.279  1.00  0.00     0.041 C 
ATOM      7  O   UNL     1       4.057  33.273  -2.500  1.00  0.00    -0.550 OA
ATOM      8  O   UNL     1       4.217  35.556  -2.474  1.00  0.00    -0.550 OA
ENDBRANCH   5   6
ENDBRANCH   4   5
ENDBRANCH   3   4
ENDBRANCH   2   3
ENDBRANCH   1   2
BRANCH   1   9
ATOM      9  C   UNL     1      10.377  36.508  -1.041  1.00  0.00     0.000 C 
BRANCH   9  10
ATOM     10  C   UNL     1      10.543  35.223  -0.220  1.00  0.00    -0.000 C 
BRANCH  10  11
ATOM     11  C   UNL     1      10.424  33.981  -1.114  1.00  0.00    -0.000 C 
BRANCH  11  12
ATOM     12  C   UNL     1       9.501  32.907  -0.515  1.00  0.00    -0.000 C 
BRANCH  12  13
ATOM     13  C   UNL     1       9.967  31.480  -0.841  1.00  0.00    -0.003 C 
ATOM     14  C   UNL     1      11.270  31.497  -1.637  1.00  0.00     0.004 C 
ENDBRANCH  12  13
ENDBRANCH  11  12
ENDBRANCH  10  11
ENDBRANCH   9  10
ENDBRANCH   1   9
TORSDOF 10
ENDMDL
MODEL 6
REMARK VINA RESULT:    -4.051      3.264      4.479
REMARK INTER + INTRA:          -7.114
REMARK INTER:                  -5.812
REMARK INTRA:                  -1.302
REMARK UNBOUND:                -0.695
REMARK SMILES CCCCCCCCCCCC(=O)[O-]
REMARK SMILES IDX 7 1 8 2 9 3 10 4 11 5 12 6 13 7 14 8 6 9 5 10 4 11 3 12 2 13
REMARK SMILES IDX 1 14
REMARK H PARENT
REMARK Flexibility Score: inf
ROOT
ATOM      1  C   UNL     1       5.605  35.258  -0.844  1.00  0.00     0.000 C 
ENDROOT
BRANCH   1   2
ATOM      2  C   UNL     1       6.115  34.251  -1.884  1.00  0.00     0.000 C 
BRANCH   2   3
ATOM      3  C   UNL     1       7.637  34.320  -2.091  1.00  0.00     0.000 C 
BRANCH   3   4
ATOM      4  C   UNL     1       8.384  32.982  -1.925  1.00  0.00     0.006 C 
BRANCH   4   5
ATOM      5  C   UNL     1       9.332  32.938  -0.712  1.00  0.00     0.053 C 
BRANCH   5   6
ATOM      6  C   UNL     1      10.000  31.606  -0.548  1.00  0.00     0.041 C 
ATOM      7  O   UNL     1      10.817  31.195  -1.412  1.00  0.00    -0.550 OA
ATOM      8  O   UNL     1       9.687  30.799   0.539  1.00  0.00    -0.550 OA
ENDBRANCH   5   6
ENDBRANCH   4   5
ENDBRANCH   3   4
ENDBRANCH   2   3
ENDBRANCH   1   2
BRANCH   1   9
ATOM      9  C   UNL     1       6.469  35.225   0.422  1.00  0.00     0.000 C 
BRANCH   9  10
ATOM     10  C   UNL     1       6.503  36.598   1.104  1.00  0.00    -0.000 C 
BRANCH  10  11
ATOM     11  C   UNL     1       7.933  37.156   1.145  1.00  0.00    -0.000 C 
BRANCH  11  12
ATOM     12  C   UNL     1       8.997  36.051   1.239  1.00  0.00    -0.000 C 
BRANCH  12  13
ATOM     13  C   UNL     1      10.288  36.409   0.489  1.00  0.00    -0.003 C 
ATOM     14  C   UNL     1       9.981  36.931  -0.913  1.00  0.00     0.004 C 
ENDBRANCH  12  13
ENDBRANCH  11  12
ENDBRANCH  10  11
ENDBRANCH   9  10
ENDBRANCH   1   9
TORSDOF 10
ENDMDL
MODEL 7
REMARK VINA RESULT:    -4.036      3.455      6.216
REMARK INTER + INTRA:          -7.090
REMARK INTER:                  -5.844
REMARK INTRA:                  -1.246
REMARK UNBOUND:                -0.695
REMARK SMILES CCCCCCCCCCCC(=O)[O-]
REMARK SMILES IDX 7 1 8 2 9 3 10 4 11 5 12 6 13 7 14 8 6 9 5 10 4 11 3 12 2 13
REMARK SMILES IDX 1 14
REMARK H PARENT
REMARK Flexibility Score: inf
ROOT
ATOM      1  C   UNL     1      10.133  36.337  -0.988  1.00  0.00     0.000 C 
ENDROOT
BRANCH   1   2
ATOM      2  C   UNL     1      10.736  36.083   0.401  1.00  0.00     0.000 C 
BRANCH   2   3
ATOM      3  C   UNL     1      10.134  36.986   1.491  1.00  0.00     0.000 C 
BRANCH   3   4
ATOM      4  C   UNL     1      10.860  38.327   1.709  1.00  0.00     0.006 C 
BRANCH   4   5
ATOM      5  C   UNL     1       9.959  39.565   1.538  1.00  0.00     0.053 C 
BRANCH   5   6
ATOM      6  C   UNL     1       9.894  40.040   0.118  1.00  0.00     0.041 C 
ATOM      7  O   UNL     1       8.895  40.689  -0.289  1.00  0.00    -0.550 OA
ATOM      8  O   UNL     1      10.917  39.729  -0.768  1.00  0.00    -0.550 OA
ENDBRANCH   5   6
ENDBRANCH   4   5
ENDBRANCH   3   4
ENDBRANCH   2   3
ENDBRANCH   1   2
BRANCH   1   9
ATOM      9  C   UNL     1       8.642  36.676  -0.885  1.00  0.00     0.000 C 
BRANCH   9  10
ATOM     10  C   UNL     1       7.824  35.896  -1.922  1.00  0.00    -0.000 C 
BRANCH  10  11
ATOM     11  C   UNL     1       7.318  34.570  -1.338  1.00  0.00    -0.000 C 
BRANCH  11  12
ATOM     12  C   UNL     1       7.704  33.357  -2.199  1.00  0.00    -0.000 C 
BRANCH  12  13
ATOM     13  C   UNL     1       9.139  32.878  -1.933  1.00  0.00    -0.003 C 
ATOM     14  C   UNL     1       9.381  32.668  -0.441  1.00  0.00     0.004 C 
ENDBRANCH  12  13
ENDBRANCH  11  12
ENDBRANCH  10  11
ENDBRANCH   9  10
ENDBRANCH   1   9
TORSDOF 10
ENDMDL
MODEL 8
REMARK VINA RESULT:    -4.031      1.795      2.663
REMARK INTER + INTRA:          -7.082
REMARK INTER:                  -5.799
REMARK INTRA:                  -1.283
REMARK UNBOUND:                -0.695
REMARK SMILES CCCCCCCCCCCC(=O)[O-]
REMARK SMILES IDX 7 1 8 2 9 3 10 4 11 5 12 6 13 7 14 8 6 9 5 10 4 11 3 12 2 13
REMARK SMILES IDX 1 14
REMARK H PARENT
REMARK Flexibility Score: inf
ROOT
ATOM      1  C   UNL     1       7.946  35.976   1.012  1.00  0.00     0.000 C 
ENDROOT
BRANCH   1   2
ATOM      2  C   UNL     1       9.040  35.174   0.293  1.00  0.00     0.000 C 
BRANCH   2   3
ATOM      3  C   UNL     1       8.990  35.327  -1.237  1.00  0.00     0.000 C 
BRANCH   3   4
ATOM      4  C   UNL     1       7.884  36.258  -1.768  1.00  0.00     0.006 C 
BRANCH   4   5
ATOM      5  C   UNL     1       6.991  35.620  -2.849  1.00  0.00     0.053 C 
BRANCH   5   6
ATOM      6  C   UNL     1       6.281  34.393  -2.362  1.00  0.00     0.041 C 
ATOM      7  O   UNL     1       6.555  33.265  -2.848  1.00  0.00    -0.550 OA
ATOM      8  O   UNL     1       5.286  34.501  -1.399  1.00  0.00    -0.550 OA
ENDBRANCH   5   6
ENDBRANCH   4   5
ENDBRANCH   3   4
ENDBRANCH   2   3
ENDBRANCH   1   2
BRANCH   1   9
ATOM      9  C   UNL     1       8.520  37.255   1.632  1.00  0.00     0.000 C 
BRANCH   9  10
ATOM     10  C   UNL     1       9.999  37.077   1.996  1.00  0.00    -0.000 C 
BRANCH  10  11
ATOM     11  C   UNL     1      10.844  38.232   1.442  1.00  0.00    -0.000 C 
BRANCH  11  12
ATOM     12  C   UNL     1      11.452  37.915   0.066  1.00  0.00    -0.000 C 
BRANCH  12  13
ATOM     13  C   UNL     1      11.076  38.955  -0.999  1.00  0.00    -0.003 C 
ATOM     14  C   UNL     1      10.254  40.089  -0.393  1.00  0.00     0.004 C 
ENDBRANCH  12  13
ENDBRANCH  11  12
ENDBRANCH  10  11
ENDBRANCH   9  10
ENDBRANCH   1   9
TORSDOF 10
ENDMDL
MODEL 9
REMARK VINA RESULT:    -4.004      3.093      4.599
REMARK INTER + INTRA:          -7.040
REMARK INTER:                  -5.809
REMARK INTRA:                  -1.231
REMARK UNBOUND:                -0.695
REMARK SMILES CCCCCCCCCCCC(=O)[O-]
REMARK SMILES IDX 7 1 8 2 9 3 10 4 11 5 12 6 13 7 14 8 6 9 5 10 4 11 3 12 2 13
REMARK SMILES IDX 1 14
REMARK H PARENT
REMARK Flexibility Score: inf
ROOT
ATOM      1  C   UNL     1      10.702  38.632  -1.000  1.00  0.00     0.000 C 
ENDROOT
BRANCH   1   2
ATOM      2  C   UNL     1      11.818  37.904  -0.237  1.00  0.00     0.000 C 
BRANCH   2   3
ATOM      3  C   UNL     1      11.494  36.426   0.037  1.00  0.00     0.000 C 
BRANCH   3   4
ATOM      4  C   UNL     1      10.516  35.773  -0.959  1.00  0.00     0.006 C 
BRANCH   4   5
ATOM      5  C   UNL     1      10.712  34.254  -1.128  1.00  0.00     0.053 C 
BRANCH   5   6
ATOM      6  C   UNL     1       9.534  33.463  -0.647  1.00  0.00     0.041 C 
ATOM      7  O   UNL     1       9.422  32.245  -0.945  1.00  0.00    -0.550 OA
ATOM      8  O   UNL     1       8.536  34.081   0.096  1.00  0.00    -0.550 OA
ENDBRANCH   5   6
ENDBRANCH   4   5
ENDBRANCH   3   4
ENDBRANCH   2   3
ENDBRANCH   1   2
BRANCH   1   9
ATOM      9  C   UNL     1      10.733  40.138  -0.712  1.00  0.00     0.000 C 
BRANCH   9  10
ATOM     10  C   UNL     1       9.562  40.553   0.186  1.00  0.00    -0.000 C 
BRANCH  10  11
ATOM     11  C   UNL     1       9.947  40.463   1.669  1.00  0.00    -0.000 C 
BRANCH  11  12
ATOM     12  C   UNL     1       8.942  39.644   2.494  1.00  0.00    -0.000 C 
BRANCH  12  13
ATOM     13  C   UNL     1       9.202  38.132   2.410  1.00  0.00    -0.003 C 
ATOM     14  C   UNL     1       8.128  37.437   1.577  1.00  0.00     0.004 C 
ENDBRANCH  12  13
ENDBRANCH  11  12
ENDBRANCH  10  11
ENDBRANCH   9  10
ENDBRANCH   1   9
TORSDOF 10
ENDMDL
