MODEL 1
REMARK VINA RESULT:    -7.843      0.000      0.000
REMARK INTER + INTRA:          -9.441
REMARK INTER:                  -9.219
REMARK INTRA:                  -0.222
REMARK UNBOUND:                -0.222
REMARK SMILES O=c1c(O)c(-c2ccc(O)cc2)oc2cc(O)cc(O)c12
REMARK SMILES IDX 5 1 3 2 2 3 1 4 21 5 19 6 18 7 16 8 15 9 14 10 13 11 6 12
REMARK SMILES IDX 7 13 8 14 9 15 12 16 11 17 10 18 4 20 20 22 17 24
REMARK H PARENT 10 19 4 21 20 23 17 25
REMARK Flexibility Score: inf
ROOT
ATOM      1  C   UNL     1     -25.222 -18.920 -13.221  1.00  0.00     0.180 A 
ATOM      2  C   UNL     1     -24.459 -20.017 -13.656  1.00  0.00     0.208 A 
ATOM      3  C   UNL     1     -24.521 -21.220 -12.933  1.00  0.00     0.238 A 
ATOM      4  O   UNL     1     -23.878 -22.215 -13.357  1.00  0.00    -0.285 OA
ATOM      5  C   UNL     1     -25.334 -21.305 -11.777  1.00  0.00     0.111 A 
ATOM      6  C   UNL     1     -25.442 -22.460 -10.946  1.00  0.00     0.134 A 
ATOM      7  C   UNL     1     -26.376 -22.475  -9.902  1.00  0.00     0.093 A 
ATOM      8  C   UNL     1     -27.158 -21.354  -9.620  1.00  0.00     0.123 A 
ATOM      9  C   UNL     1     -27.018 -20.201 -10.389  1.00  0.00     0.094 A 
ATOM     10  C   UNL     1     -26.121 -20.168 -11.459  1.00  0.00     0.146 A 
ATOM     11  O   UNL     1     -26.025 -19.052 -12.171  1.00  0.00    -0.452 OA
ENDROOT
BRANCH   1  12
ATOM     12  C   UNL     1     -25.189 -17.612 -13.916  1.00  0.00     0.021 A 
ATOM     13  C   UNL     1     -26.325 -17.173 -14.617  1.00  0.00     0.016 A 
ATOM     14  C   UNL     1     -26.323 -15.932 -15.261  1.00  0.00     0.047 A 
ATOM     15  C   UNL     1     -25.195 -15.109 -15.200  1.00  0.00     0.115 A 
ATOM     16  C   UNL     1     -24.064 -16.772 -13.842  1.00  0.00     0.016 A 
ATOM     17  C   UNL     1     -24.066 -15.531 -14.486  1.00  0.00     0.047 A 
BRANCH  15  18
ATOM     18  O   UNL     1     -25.206 -13.875 -15.847  1.00  0.00    -0.508 OA
ATOM     19  H   UNL     1     -24.606 -13.116 -15.550  1.00  0.00     0.293 HD
ENDBRANCH  15  18
ENDBRANCH   1  12
BRANCH   2  20
ATOM     20  O   UNL     1     -23.680 -19.918 -14.812  1.00  0.00    -0.502 OA
ATOM     21  H   UNL     1     -22.939 -20.575 -15.027  1.00  0.00     0.293 HD
ENDBRANCH   2  20
BRANCH   6  22
ATOM     22  O   UNL     1     -24.642 -23.600 -11.085  1.00  0.00    -0.507 OA
ATOM     23  H   UNL     1     -23.773 -23.633 -11.595  1.00  0.00     0.293 HD
ENDBRANCH   6  22
BRANCH   8  24
ATOM     24  O   UNL     1     -28.073 -21.372  -8.570  1.00  0.00    -0.508 OA
ATOM     25  H   UNL     1     -27.777 -21.518  -7.611  1.00  0.00     0.293 HD
ENDBRANCH   8  24
TORSDOF 5
ENDMDL
MODEL 2
REMARK VINA RESULT:    -7.742      2.136      3.557
REMARK INTER + INTRA:          -9.321
REMARK INTER:                  -9.066
REMARK INTRA:                  -0.255
REMARK UNBOUND:                -0.222
REMARK SMILES O=c1c(O)c(-c2ccc(O)cc2)oc2cc(O)cc(O)c12
REMARK SMILES IDX 5 1 3 2 2 3 1 4 21 5 19 6 18 7 16 8 15 9 14 10 13 11 6 12
REMARK SMILES IDX 7 13 8 14 9 15 12 16 11 17 10 18 4 20 20 22 17 24
REMARK H PARENT 10 19 4 21 20 23 17 25
REMARK Flexibility Score: inf
ROOT
ATOM      1  C   UNL     1     -24.757 -20.077 -13.645  1.00  0.00     0.180 A 
ATOM      2  C   UNL     1     -24.556 -20.483 -12.315  1.00  0.00     0.208 A 
ATOM      3  C   UNL     1     -24.566 -21.854 -12.013  1.00  0.00     0.238 A 
ATOM      4  O   UNL     1     -24.332 -22.216 -10.831  1.00  0.00    -0.285 OA
ATOM      5  C   UNL     1     -24.791 -22.801 -13.042  1.00  0.00     0.111 A 
ATOM      6  C   UNL     1     -24.862 -24.212 -12.844  1.00  0.00     0.134 A 
ATOM      7  C   UNL     1     -24.959 -25.061 -13.954  1.00  0.00     0.093 A 
ATOM      8  C   UNL     1     -25.054 -24.546 -15.248  1.00  0.00     0.123 A 
ATOM      9  C   UNL     1     -25.046 -23.168 -15.447  1.00  0.00     0.094 A 
ATOM     10  C   UNL     1     -24.914 -22.297 -14.363  1.00  0.00     0.146 A 
ATOM     11  O   UNL     1     -24.900 -20.991 -14.598  1.00  0.00    -0.452 OA
ENDROOT
BRANCH   1  12
ATOM     12  C   UNL     1     -24.785 -18.648 -14.037  1.00  0.00     0.021 A 
ATOM     13  C   UNL     1     -26.022 -18.000 -14.198  1.00  0.00     0.016 A 
ATOM     14  C   UNL     1     -26.070 -16.646 -14.545  1.00  0.00     0.047 A 
ATOM     15  C   UNL     1     -24.889 -15.920 -14.720  1.00  0.00     0.115 A 
ATOM     16  C   UNL     1     -23.599 -17.909 -14.195  1.00  0.00     0.016 A 
ATOM     17  C   UNL     1     -23.652 -16.555 -14.541  1.00  0.00     0.047 A 
BRANCH  15  18
ATOM     18  O   UNL     1     -24.952 -14.573 -15.067  1.00  0.00    -0.508 OA
ATOM     19  H   UNL     1     -24.904 -14.272 -16.033  1.00  0.00     0.293 HD
ENDBRANCH  15  18
ENDBRANCH   1  12
BRANCH   2  20
ATOM     20  O   UNL     1     -24.313 -19.534 -11.318  1.00  0.00    -0.502 OA
ATOM     21  H   UNL     1     -24.023 -18.587 -11.528  1.00  0.00     0.293 HD
ENDBRANCH   2  20
BRANCH   6  22
ATOM     22  O   UNL     1     -24.868 -24.825 -11.586  1.00  0.00    -0.507 OA
ATOM     23  H   UNL     1     -25.589 -24.702 -10.892  1.00  0.00     0.293 HD
ENDBRANCH   6  22
BRANCH   8  24
ATOM     24  O   UNL     1     -25.168 -25.398 -16.345  1.00  0.00    -0.508 OA
ATOM     25  H   UNL     1     -24.751 -26.323 -16.344  1.00  0.00     0.293 HD
ENDBRANCH   8  24
TORSDOF 5
ENDMDL
MODEL 3
REMARK VINA RESULT:    -7.695      4.153      6.290
REMARK INTER + INTRA:          -9.267
REMARK INTER:                  -9.008
REMARK INTRA:                  -0.259
REMARK UNBOUND:                -0.222
REMARK SMILES O=c1c(O)c(-c2ccc(O)cc2)oc2cc(O)cc(O)c12
REMARK SMILES IDX 5 1 3 2 2 3 1 4 21 5 19 6 18 7 16 8 15 9 14 10 13 11 6 12
REMARK SMILES IDX 7 13 8 14 9 15 12 16 11 17 10 18 4 20 20 22 17 24
REMARK H PARENT 10 19 4 21 20 23 17 25
REMARK Flexibility Score: inf
ROOT
ATOM      1  C   UNL     1     -26.441 -21.950 -11.068  1.00  0.00     0.180 A 
ATOM      2  C   UNL     1     -25.119 -21.515 -11.262  1.00  0.00     0.208 A 
ATOM      3  C   UNL     1     -24.406 -21.978 -12.379  1.00  0.00     0.238 A 
ATOM      4  O   UNL     1     -23.242 -21.543 -12.577  1.00  0.00    -0.285 OA
ATOM      5  C   UNL     1     -25.018 -22.881 -13.281  1.00  0.00     0.111 A 
ATOM      6  C   UNL     1     -24.377 -23.445 -14.424  1.00  0.00     0.134 A 
ATOM      7  C   UNL     1     -25.121 -24.225 -15.319  1.00  0.00     0.093 A 
ATOM      8  C   UNL     1     -26.465 -24.514 -15.076  1.00  0.00     0.123 A 
ATOM      9  C   UNL     1     -27.085 -24.017 -13.932  1.00  0.00     0.094 A 
ATOM     10  C   UNL     1     -26.379 -23.207 -13.040  1.00  0.00     0.146 A 
ATOM     11  O   UNL     1     -27.010 -22.746 -11.967  1.00  0.00    -0.452 OA
ENDROOT
BRANCH   1  12
ATOM     12  C   UNL     1     -27.247 -21.526  -9.900  1.00  0.00     0.021 A 
ATOM     13  C   UNL     1     -27.887 -20.275  -9.919  1.00  0.00     0.016 A 
ATOM     14  C   UNL     1     -28.671 -19.865  -8.836  1.00  0.00     0.047 A 
ATOM     15  C   UNL     1     -28.839 -20.703  -7.731  1.00  0.00     0.115 A 
ATOM     16  C   UNL     1     -27.435 -22.374  -8.794  1.00  0.00     0.016 A 
ATOM     17  C   UNL     1     -28.222 -21.961  -7.714  1.00  0.00     0.047 A 
BRANCH  15  18
ATOM     18  O   UNL     1     -29.622 -20.281  -6.659  1.00  0.00    -0.508 OA
ATOM     19  H   UNL     1     -29.298 -19.572  -6.013  1.00  0.00     0.293 HD
ENDBRANCH  15  18
ENDBRANCH   1  12
BRANCH   2  20
ATOM     20  O   UNL     1     -24.540 -20.607 -10.371  1.00  0.00    -0.502 OA
ATOM     21  H   UNL     1     -24.882 -19.660 -10.260  1.00  0.00     0.293 HD
ENDBRANCH   2  20
BRANCH   6  22
ATOM     22  O   UNL     1     -23.016 -23.294 -14.710  1.00  0.00    -0.507 OA
ATOM     23  H   UNL     1     -22.355 -24.053 -14.774  1.00  0.00     0.293 HD
ENDBRANCH   6  22
BRANCH   8  24
ATOM     24  O   UNL     1     -27.194 -25.305 -15.963  1.00  0.00    -0.508 OA
ATOM     25  H   UNL     1     -27.031 -25.267 -16.963  1.00  0.00     0.293 HD
ENDBRANCH   8  24
TORSDOF 5
ENDMDL
MODEL 4
REMARK VINA RESULT:    -7.558      2.245      3.792
REMARK INTER + INTRA:          -9.106
REMARK INTER:                  -9.174
REMARK INTRA:                   0.069
REMARK UNBOUND:                -0.222
REMARK SMILES O=c1c(O)c(-c2ccc(O)cc2)oc2cc(O)cc(O)c12
REMARK SMILES IDX 5 1 3 2 2 3 1 4 21 5 19 6 18 7 16 8 15 9 14 10 13 11 6 12
REMARK SMILES IDX 7 13 8 14 9 15 12 16 11 17 10 18 4 20 20 22 17 24
REMARK H PARENT 10 19 4 21 20 23 17 25
REMARK Flexibility Score: inf
ROOT
ATOM      1  C   UNL     1     -25.626 -21.979 -11.343  1.00  0.00     0.180 A 
ATOM      2  C   UNL     1     -24.843 -23.144 -11.276  1.00  0.00     0.208 A 
ATOM      3  C   UNL     1     -25.241 -24.183 -10.420  1.00  0.00     0.238 A 
ATOM      4  O   UNL     1     -24.567 -25.246 -10.403  1.00  0.00    -0.285 OA
ATOM      5  C   UNL     1     -26.409 -24.039  -9.632  1.00  0.00     0.111 A 
ATOM      6  C   UNL     1     -26.884 -25.011  -8.702  1.00  0.00     0.134 A 
ATOM      7  C   UNL     1     -28.121 -24.818  -8.073  1.00  0.00     0.093 A 
ATOM      8  C   UNL     1     -28.867 -23.658  -8.292  1.00  0.00     0.123 A 
ATOM      9  C   UNL     1     -28.383 -22.676  -9.153  1.00  0.00     0.094 A 
ATOM     10  C   UNL     1     -27.171 -22.856  -9.822  1.00  0.00     0.146 A 
ATOM     11  O   UNL     1     -26.751 -21.900 -10.642  1.00  0.00    -0.452 OA
ENDROOT
BRANCH   1  12
ATOM     12  C   UNL     1     -25.256 -20.830 -12.203  1.00  0.00     0.021 A 
ATOM     13  C   UNL     1     -25.206 -19.539 -11.648  1.00  0.00     0.016 A 
ATOM     14  C   UNL     1     -24.839 -18.445 -12.436  1.00  0.00     0.047 A 
ATOM     15  C   UNL     1     -24.501 -18.626 -13.780  1.00  0.00     0.115 A 
ATOM     16  C   UNL     1     -24.897 -21.010 -13.550  1.00  0.00     0.016 A 
ATOM     17  C   UNL     1     -24.528 -19.913 -14.335  1.00  0.00     0.047 A 
BRANCH  15  18
ATOM     18  O   UNL     1     -24.137 -17.526 -14.554  1.00  0.00    -0.508 OA
ATOM     19  H   UNL     1     -24.232 -16.580 -14.207  1.00  0.00     0.293 HD
ENDBRANCH  15  18
ENDBRANCH   1  12
BRANCH   2  20
ATOM     20  O   UNL     1     -23.706 -23.275 -12.078  1.00  0.00    -0.502 OA
ATOM     21  H   UNL     1     -22.973 -23.945 -11.877  1.00  0.00     0.293 HD
ENDBRANCH   2  20
BRANCH   6  22
ATOM     22  O   UNL     1     -26.174 -26.160  -8.342  1.00  0.00    -0.507 OA
ATOM     23  H   UNL     1     -26.395 -26.749  -7.554  1.00  0.00     0.293 HD
ENDBRANCH   6  22
BRANCH   8  24
ATOM     24  O   UNL     1     -30.089 -23.467  -7.649  1.00  0.00    -0.508 OA
ATOM     25  H   UNL     1     -30.515 -24.198  -7.091  1.00  0.00     0.293 HD
ENDBRANCH   8  24
TORSDOF 5
ENDMDL
MODEL 5
REMARK VINA RESULT:    -7.373      4.419      6.091
REMARK INTER + INTRA:          -8.888
REMARK INTER:                  -8.804
REMARK INTRA:                  -0.084
REMARK UNBOUND:                -0.222
REMARK SMILES O=c1c(O)c(-c2ccc(O)cc2)oc2cc(O)cc(O)c12
REMARK SMILES IDX 5 1 3 2 2 3 1 4 21 5 19 6 18 7 16 8 15 9 14 10 13 11 6 12
REMARK SMILES IDX 7 13 8 14 9 15 12 16 11 17 10 18 4 20 20 22 17 24
REMARK H PARENT 10 19 4 21 20 23 17 25
REMARK Flexibility Score: inf
ROOT
ATOM      1  C   UNL     1     -26.929 -22.117 -10.265  1.00  0.00     0.180 A 
ATOM      2  C   UNL     1     -27.539 -23.149  -9.531  1.00  0.00     0.208 A 
ATOM      3  C   UNL     1     -28.434 -22.816  -8.501  1.00  0.00     0.238 A 
ATOM      4  O   UNL     1     -29.018 -23.743  -7.883  1.00  0.00    -0.285 OA
ATOM      5  C   UNL     1     -28.696 -21.456  -8.209  1.00  0.00     0.111 A 
ATOM      6  C   UNL     1     -29.554 -21.003  -7.163  1.00  0.00     0.134 A 
ATOM      7  C   UNL     1     -29.842 -19.636  -7.049  1.00  0.00     0.093 A 
ATOM      8  C   UNL     1     -29.252 -18.702  -7.902  1.00  0.00     0.123 A 
ATOM      9  C   UNL     1     -28.367 -19.129  -8.890  1.00  0.00     0.094 A 
ATOM     10  C   UNL     1     -28.088 -20.488  -9.051  1.00  0.00     0.146 A 
ATOM     11  O   UNL     1     -27.246 -20.853 -10.010  1.00  0.00    -0.452 OA
ENDROOT
BRANCH   1  12
ATOM     12  C   UNL     1     -25.956 -22.390 -11.348  1.00  0.00     0.021 A 
ATOM     13  C   UNL     1     -26.371 -23.095 -12.490  1.00  0.00     0.016 A 
ATOM     14  C   UNL     1     -25.474 -23.343 -13.533  1.00  0.00     0.047 A 
ATOM     15  C   UNL     1     -24.159 -22.877 -13.457  1.00  0.00     0.115 A 
ATOM     16  C   UNL     1     -24.636 -21.906 -11.285  1.00  0.00     0.016 A 
ATOM     17  C   UNL     1     -23.743 -22.155 -12.331  1.00  0.00     0.047 A 
BRANCH  15  18
ATOM     18  O   UNL     1     -23.276 -23.133 -14.504  1.00  0.00    -0.508 OA
ATOM     19  H   UNL     1     -22.453 -23.710 -14.374  1.00  0.00     0.293 HD
ENDBRANCH  15  18
ENDBRANCH   1  12
BRANCH   2  20
ATOM     20  O   UNL     1     -27.282 -24.486  -9.849  1.00  0.00    -0.502 OA
ATOM     21  H   UNL     1     -27.733 -24.956 -10.625  1.00  0.00     0.293 HD
ENDBRANCH   2  20
BRANCH   6  22
ATOM     22  O   UNL     1     -30.122 -21.843  -6.200  1.00  0.00    -0.507 OA
ATOM     23  H   UNL     1     -30.386 -22.803  -6.359  1.00  0.00     0.293 HD
ENDBRANCH   6  22
BRANCH   8  24
ATOM     24  O   UNL     1     -29.531 -17.343  -7.772  1.00  0.00    -0.508 OA
ATOM     25  H   UNL     1     -28.927 -16.727  -7.239  1.00  0.00     0.293 HD
ENDBRANCH   8  24
TORSDOF 5
ENDMDL
MODEL 6
REMARK VINA RESULT:    -7.372      3.958      8.134
REMARK INTER + INTRA:          -8.887
REMARK INTER:                  -8.593
REMARK INTRA:                  -0.294
REMARK UNBOUND:                -0.222
REMARK SMILES O=c1c(O)c(-c2ccc(O)cc2)oc2cc(O)cc(O)c12
REMARK SMILES IDX 5 1 3 2 2 3 1 4 21 5 19 6 18 7 16 8 15 9 14 10 13 11 6 12
REMARK SMILES IDX 7 13 8 14 9 15 12 16 11 17 10 18 4 20 20 22 17 24
REMARK H PARENT 10 19 4 21 20 23 17 25
REMARK Flexibility Score: inf
ROOT
ATOM      1  C   UNL     1     -25.984 -23.915 -10.503  1.00  0.00     0.180 A 
ATOM      2  C   UNL     1     -25.118 -22.825 -10.314  1.00  0.00     0.208 A 
ATOM      3  C   UNL     1     -24.651 -22.123 -11.437  1.00  0.00     0.238 A 
ATOM      4  O   UNL     1     -23.919 -21.115 -11.259  1.00  0.00    -0.285 OA
ATOM      5  C   UNL     1     -25.044 -22.529 -12.735  1.00  0.00     0.111 A 
ATOM      6  C   UNL     1     -24.601 -21.916 -13.945  1.00  0.00     0.134 A 
ATOM      7  C   UNL     1     -25.157 -22.317 -15.167  1.00  0.00     0.093 A 
ATOM      8  C   UNL     1     -26.091 -23.353 -15.227  1.00  0.00     0.123 A 
ATOM      9  C   UNL     1     -26.486 -23.998 -14.057  1.00  0.00     0.094 A 
ATOM     10  C   UNL     1     -25.976 -23.596 -12.820  1.00  0.00     0.146 A 
ATOM     11  O   UNL     1     -26.387 -24.230 -11.729  1.00  0.00    -0.452 OA
ENDROOT
BRANCH   1  12
ATOM     12  C   UNL     1     -26.498 -24.720  -9.371  1.00  0.00     0.021 A 
ATOM     13  C   UNL     1     -27.779 -24.452  -8.857  1.00  0.00     0.016 A 
ATOM     14  C   UNL     1     -28.292 -25.214  -7.803  1.00  0.00     0.047 A 
ATOM     15  C   UNL     1     -27.541 -26.261  -7.260  1.00  0.00     0.115 A 
ATOM     16  C   UNL     1     -25.755 -25.786  -8.833  1.00  0.00     0.016 A 
ATOM     17  C   UNL     1     -26.272 -26.547  -7.780  1.00  0.00     0.047 A 
BRANCH  15  18
ATOM     18  O   UNL     1     -28.064 -27.011  -6.209  1.00  0.00    -0.508 OA
ATOM     19  H   UNL     1     -28.916 -26.737  -5.735  1.00  0.00     0.293 HD
ENDBRANCH  15  18
ENDBRANCH   1  12
BRANCH   2  20
ATOM     20  O   UNL     1     -24.760 -22.427  -9.023  1.00  0.00    -0.502 OA
ATOM     21  H   UNL     1     -24.689 -23.081  -8.252  1.00  0.00     0.293 HD
ENDBRANCH   2  20
BRANCH   6  22
ATOM     22  O   UNL     1     -23.605 -20.936 -14.004  1.00  0.00    -0.507 OA
ATOM     23  H   UNL     1     -22.804 -20.893 -13.393  1.00  0.00     0.293 HD
ENDBRANCH   6  22
BRANCH   8  24
ATOM     24  O   UNL     1     -26.626 -23.757 -16.448  1.00  0.00    -0.508 OA
ATOM     25  H   UNL     1     -26.710 -23.115 -17.229  1.00  0.00     0.293 HD
ENDBRANCH   8  24
TORSDOF 5
ENDMDL
MODEL 7
REMARK VINA RESULT:    -7.293      2.350      4.717
REMARK INTER + INTRA:          -8.794
REMARK INTER:                  -9.129
REMARK INTRA:                   0.335
REMARK UNBOUND:                -0.222
REMARK SMILES O=c1c(O)c(-c2ccc(O)cc2)oc2cc(O)cc(O)c12
REMARK SMILES IDX 5 1 3 2 2 3 1 4 21 5 19 6 18 7 16 8 15 9 14 10 13 11 6 12
REMARK SMILES IDX 7 13 8 14 9 15 12 16 11 17 10 18 4 20 20 22 17 24
REMARK H PARENT 10 19 4 21 20 23 17 25
REMARK Flexibility Score: inf
ROOT
ATOM      1  C   UNL     1     -26.397 -21.375 -10.937  1.00  0.00     0.180 A 
ATOM      2  C   UNL     1     -27.509 -20.799 -10.297  1.00  0.00     0.208 A 
ATOM      3  C   UNL     1     -28.218 -21.555  -9.351  1.00  0.00     0.238 A 
ATOM      4  O   UNL     1     -29.178 -21.017  -8.742  1.00  0.00    -0.285 OA
ATOM      5  C   UNL     1     -27.815 -22.883  -9.065  1.00  0.00     0.111 A 
ATOM      6  C   UNL     1     -28.483 -23.753  -8.154  1.00  0.00     0.134 A 
ATOM      7  C   UNL     1     -27.921 -25.001  -7.852  1.00  0.00     0.093 A 
ATOM      8  C   UNL     1     -26.750 -25.433  -8.478  1.00  0.00     0.123 A 
ATOM      9  C   UNL     1     -26.122 -24.614  -9.414  1.00  0.00     0.094 A 
ATOM     10  C   UNL     1     -26.640 -23.350  -9.709  1.00  0.00     0.146 A 
ATOM     11  O   UNL     1     -26.005 -22.598 -10.599  1.00  0.00    -0.452 OA
ENDROOT
BRANCH   1  12
ATOM     12  C   UNL     1     -25.616 -20.648 -11.964  1.00  0.00     0.021 A 
ATOM     13  C   UNL     1     -24.995 -21.370 -12.999  1.00  0.00     0.016 A 
ATOM     14  C   UNL     1     -24.272 -20.702 -13.991  1.00  0.00     0.047 A 
ATOM     15  C   UNL     1     -24.172 -19.308 -13.973  1.00  0.00     0.115 A 
ATOM     16  C   UNL     1     -25.528 -19.245 -11.962  1.00  0.00     0.016 A 
ATOM     17  C   UNL     1     -24.805 -18.580 -12.957  1.00  0.00     0.047 A 
BRANCH  15  18
ATOM     18  O   UNL     1     -23.447 -18.656 -14.968  1.00  0.00    -0.508 OA
ATOM     19  H   UNL     1     -23.734 -18.687 -15.939  1.00  0.00     0.293 HD
ENDBRANCH  15  18
ENDBRANCH   1  12
BRANCH   2  20
ATOM     20  O   UNL     1     -27.876 -19.480 -10.578  1.00  0.00    -0.502 OA
ATOM     21  H   UNL     1     -27.947 -19.124 -11.524  1.00  0.00     0.293 HD
ENDBRANCH   2  20
BRANCH   6  22
ATOM     22  O   UNL     1     -29.706 -23.456  -7.543  1.00  0.00    -0.507 OA
ATOM     23  H   UNL     1     -30.589 -23.397  -8.026  1.00  0.00     0.293 HD
ENDBRANCH   6  22
BRANCH   8  24
ATOM     24  O   UNL     1     -26.206 -26.682  -8.184  1.00  0.00    -0.508 OA
ATOM     25  H   UNL     1     -26.290 -27.461  -8.827  1.00  0.00     0.293 HD
ENDBRANCH   8  24
TORSDOF 5
ENDMDL
MODEL 8
REMARK VINA RESULT:    -7.262      2.925      7.891
REMARK INTER + INTRA:          -8.758
REMARK INTER:                  -8.881
REMARK INTRA:                   0.124
REMARK UNBOUND:                -0.222
REMARK SMILES O=c1c(O)c(-c2ccc(O)cc2)oc2cc(O)cc(O)c12
REMARK SMILES IDX 5 1 3 2 2 3 1 4 21 5 19 6 18 7 16 8 15 9 14 10 13 11 6 12
REMARK SMILES IDX 7 13 8 14 9 15 12 16 11 17 10 18 4 20 20 22 17 24
REMARK H PARENT 10 19 4 21 20 23 17 25
REMARK Flexibility Score: inf
ROOT
ATOM      1  C   UNL     1     -27.040 -22.704 -10.101  1.00  0.00     0.180 A 
ATOM      2  C   UNL     1     -27.382 -21.341 -10.092  1.00  0.00     0.208 A 
ATOM      3  C   UNL     1     -26.653 -20.450 -10.896  1.00  0.00     0.238 A 
ATOM      4  O   UNL     1     -26.997 -19.240 -10.925  1.00  0.00    -0.285 OA
ATOM      5  C   UNL     1     -25.582 -20.931 -11.687  1.00  0.00     0.111 A 
ATOM      6  C   UNL     1     -24.750 -20.113 -12.509  1.00  0.00     0.134 A 
ATOM      7  C   UNL     1     -23.804 -20.714 -13.349  1.00  0.00     0.093 A 
ATOM      8  C   UNL     1     -23.616 -22.098 -13.348  1.00  0.00     0.123 A 
ATOM      9  C   UNL     1     -24.383 -22.900 -12.506  1.00  0.00     0.094 A 
ATOM     10  C   UNL     1     -25.359 -22.333 -11.683  1.00  0.00     0.146 A 
ATOM     11  O   UNL     1     -26.074 -23.134 -10.904  1.00  0.00    -0.452 OA
ENDROOT
BRANCH   1  12
ATOM     12  C   UNL     1     -27.746 -23.699  -9.261  1.00  0.00     0.021 A 
ATOM     13  C   UNL     1     -29.152 -23.712  -9.238  1.00  0.00     0.016 A 
ATOM     14  C   UNL     1     -29.838 -24.657  -8.469  1.00  0.00     0.047 A 
ATOM     15  C   UNL     1     -29.132 -25.609  -7.728  1.00  0.00     0.115 A 
ATOM     16  C   UNL     1     -27.042 -24.671  -8.529  1.00  0.00     0.016 A 
ATOM     17  C   UNL     1     -27.731 -25.616  -7.763  1.00  0.00     0.047 A 
BRANCH  15  18
ATOM     18  O   UNL     1     -29.829 -26.544  -6.966  1.00  0.00    -0.508 OA
ATOM     19  H   UNL     1     -29.766 -26.556  -5.955  1.00  0.00     0.293 HD
ENDBRANCH  15  18
ENDBRANCH   1  12
BRANCH   2  20
ATOM     20  O   UNL     1     -28.457 -20.890  -9.320  1.00  0.00    -0.502 OA
ATOM     21  H   UNL     1     -28.386 -20.747  -8.319  1.00  0.00     0.293 HD
ENDBRANCH   2  20
BRANCH   6  22
ATOM     22  O   UNL     1     -24.793 -18.715 -12.516  1.00  0.00    -0.507 OA
ATOM     23  H   UNL     1     -24.001 -18.115 -12.344  1.00  0.00     0.293 HD
ENDBRANCH   6  22
BRANCH   8  24
ATOM     24  O   UNL     1     -22.662 -22.686 -14.175  1.00  0.00    -0.508 OA
ATOM     25  H   UNL     1     -21.908 -22.144 -14.584  1.00  0.00     0.293 HD
ENDBRANCH   8  24
TORSDOF 5
ENDMDL
MODEL 9
REMARK VINA RESULT:    -7.196      2.897      6.265
REMARK INTER + INTRA:          -8.680
REMARK INTER:                  -9.032
REMARK INTRA:                   0.352
REMARK UNBOUND:                -0.222
REMARK SMILES O=c1c(O)c(-c2ccc(O)cc2)oc2cc(O)cc(O)c12
REMARK SMILES IDX 5 1 3 2 2 3 1 4 21 5 19 6 18 7 16 8 15 9 14 10 13 11 6 12
REMARK SMILES IDX 7 13 8 14 9 15 12 16 11 17 10 18 4 20 20 22 17 24
REMARK H PARENT 10 19 4 21 20 23 17 25
REMARK Flexibility Score: inf
ROOT
ATOM      1  C   UNL     1     -27.350 -20.824  -9.819  1.00  0.00     0.180 A 
ATOM      2  C   UNL     1     -27.342 -22.230  -9.801  1.00  0.00     0.208 A 
ATOM      3  C   UNL     1     -26.634 -22.919 -10.799  1.00  0.00     0.238 A 
ATOM      4  O   UNL     1     -26.585 -24.176 -10.747  1.00  0.00    -0.285 OA
ATOM      5  C   UNL     1     -25.956 -22.196 -11.810  1.00  0.00     0.111 A 
ATOM      6  C   UNL     1     -25.241 -22.792 -12.891  1.00  0.00     0.134 A 
ATOM      7  C   UNL     1     -24.499 -21.980 -13.759  1.00  0.00     0.093 A 
ATOM      8  C   UNL     1     -24.500 -20.590 -13.622  1.00  0.00     0.123 A 
ATOM      9  C   UNL     1     -25.243 -19.996 -12.605  1.00  0.00     0.094 A 
ATOM     10  C   UNL     1     -25.963 -20.781 -11.702  1.00  0.00     0.146 A 
ATOM     11  O   UNL     1     -26.650 -20.174 -10.742  1.00  0.00    -0.452 OA
ENDROOT
BRANCH   1  12
ATOM     12  C   UNL     1     -28.094 -20.028  -8.816  1.00  0.00     0.021 A 
ATOM     13  C   UNL     1     -28.250 -20.529  -7.513  1.00  0.00     0.016 A 
ATOM     14  C   UNL     1     -28.930 -19.784  -6.545  1.00  0.00     0.047 A 
ATOM     15  C   UNL     1     -29.447 -18.524  -6.860  1.00  0.00     0.115 A 
ATOM     16  C   UNL     1     -28.599 -18.752  -9.123  1.00  0.00     0.016 A 
ATOM     17  C   UNL     1     -29.277 -18.008  -8.152  1.00  0.00     0.047 A 
BRANCH  15  18
ATOM     18  O   UNL     1     -30.123 -17.792  -5.887  1.00  0.00    -0.508 OA
ATOM     19  H   UNL     1     -30.981 -18.132  -5.470  1.00  0.00     0.293 HD
ENDBRANCH  15  18
ENDBRANCH   1  12
BRANCH   2  20
ATOM     20  O   UNL     1     -28.000 -22.924  -8.782  1.00  0.00    -0.502 OA
ATOM     21  H   UNL     1     -28.978 -23.178  -8.842  1.00  0.00     0.293 HD
ENDBRANCH   2  20
BRANCH   6  22
ATOM     22  O   UNL     1     -25.249 -24.162 -13.172  1.00  0.00    -0.507 OA
ATOM     23  H   UNL     1     -24.711 -24.854 -12.673  1.00  0.00     0.293 HD
ENDBRANCH   6  22
BRANCH   8  24
ATOM     24  O   UNL     1     -23.772 -19.789 -14.500  1.00  0.00    -0.508 OA
ATOM     25  H   UNL     1     -23.032 -20.172 -15.077  1.00  0.00     0.293 HD
ENDBRANCH   8  24
TORSDOF 5
ENDMDL
