MODEL 1
REMARK VINA RESULT:    -4.016      0.000      0.000
REMARK INTER + INTRA:         -11.798
REMARK INTER:                  -9.180
REMARK INTRA:                  -2.618
REMARK UNBOUND:                -2.618
REMARK SMILES CCCCCCCCCCCCCCCCCCCCCCCC(=O)[O-]
REMARK SMILES IDX 13 1 14 2 15 3 16 4 17 5 18 6 19 7 20 8 21 9 22 10 23 11
REMARK SMILES IDX 24 12 25 13 26 14 12 15 11 16 10 17 9 18 8 19 7 20 6 21 5 22
REMARK SMILES IDX 4 23 3 24 2 25 1 26
REMARK H PARENT
REMARK Flexibility Score: inf
ROOT
ATOM      1  C   UNL     1     -24.174 -12.397   4.562  1.00  0.00     0.000 C 
ENDROOT
BRANCH   1   2
ATOM      2  C   UNL     1     -25.630 -12.578   4.096  1.00  0.00     0.000 C 
BRANCH   2   3
ATOM      3  C   UNL     1     -26.059 -14.056   4.083  1.00  0.00     0.000 C 
BRANCH   3   4
ATOM      4  C   UNL     1     -24.878 -15.007   4.343  1.00  0.00     0.000 C 
BRANCH   4   5
ATOM      5  C   UNL     1     -25.088 -15.874   5.602  1.00  0.00     0.000 C 
BRANCH   5   6
ATOM      6  C   UNL     1     -25.634 -15.092   6.812  1.00  0.00     0.000 C 
BRANCH   6   7
ATOM      7  C   UNL     1     -24.582 -14.725   7.873  1.00  0.00     0.000 C 
BRANCH   7   8
ATOM      8  C   UNL     1     -24.517 -13.225   8.226  1.00  0.00     0.000 C 
BRANCH   8   9
ATOM      9  C   UNL     1     -24.428 -12.948   9.742  1.00  0.00     0.000 C 
BRANCH   9  10
ATOM     10  C   UNL     1     -23.474 -13.919  10.456  1.00  0.00     0.006 C 
BRANCH  10  11
ATOM     11  C   UNL     1     -22.010 -13.563  10.174  1.00  0.00     0.053 C 
BRANCH  11  12
ATOM     12  C   UNL     1     -21.737 -12.135  10.534  1.00  0.00     0.041 C 
ATOM     13  O   UNL     1     -22.339 -11.599  11.502  1.00  0.00    -0.550 OA
ATOM     14  O   UNL     1     -20.837 -11.389   9.784  1.00  0.00    -0.550 OA
ENDBRANCH  11  12
ENDBRANCH  10  11
ENDBRANCH   9  10
ENDBRANCH   8   9
ENDBRANCH   7   8
ENDBRANCH   6   7
ENDBRANCH   5   6
ENDBRANCH   4   5
ENDBRANCH   3   4
ENDBRANCH   2   3
ENDBRANCH   1   2
BRANCH   1  15
ATOM     15  C   UNL     1     -23.750 -10.922   4.612  1.00  0.00     0.000 C 
BRANCH  15  16
ATOM     16  C   UNL     1     -22.397 -10.666   3.923  1.00  0.00     0.000 C 
BRANCH  16  17
ATOM     17  C   UNL     1     -21.558  -9.599   4.644  1.00  0.00     0.000 C 
BRANCH  17  18
ATOM     18  C   UNL     1     -22.385  -8.768   5.637  1.00  0.00    -0.000 C 
BRANCH  18  19
ATOM     19  C   UNL     1     -21.669  -8.648   6.990  1.00  0.00    -0.000 C 
BRANCH  19  20
ATOM     20  C   UNL     1     -22.559  -9.062   8.177  1.00  0.00    -0.000 C 
BRANCH  20  21
ATOM     21  C   UNL     1     -23.818  -9.867   7.805  1.00  0.00    -0.000 C 
BRANCH  21  22
ATOM     22  C   UNL     1     -25.029  -9.527   8.691  1.00  0.00    -0.000 C 
BRANCH  22  23
ATOM     23  C   UNL     1     -25.821  -8.313   8.174  1.00  0.00    -0.000 C 
BRANCH  23  24
ATOM     24  C   UNL     1     -25.762  -7.064   9.075  1.00  0.00    -0.000 C 
BRANCH  24  25
ATOM     25  C   UNL     1     -24.988  -5.884   8.451  1.00  0.00    -0.003 C 
ATOM     26  C   UNL     1     -23.502  -5.917   8.802  1.00  0.00     0.004 C 
ENDBRANCH  24  25
ENDBRANCH  23  24
ENDBRANCH  22  23
ENDBRANCH  21  22
ENDBRANCH  20  21
ENDBRANCH  19  20
ENDBRANCH  18  19
ENDBRANCH  17  18
ENDBRANCH  16  17
ENDBRANCH  15  16
ENDBRANCH   1  15
TORSDOF 22
ENDMDL
MODEL 2
REMARK VINA RESULT:    -3.986      2.074      5.983
REMARK INTER + INTRA:         -11.729
REMARK INTER:                  -9.226
REMARK INTRA:                  -2.504
REMARK UNBOUND:                -2.618
REMARK SMILES CCCCCCCCCCCCCCCCCCCCCCCC(=O)[O-]
REMARK SMILES IDX 13 1 14 2 15 3 16 4 17 5 18 6 19 7 20 8 21 9 22 10 23 11
REMARK SMILES IDX 24 12 25 13 26 14 12 15 11 16 10 17 9 18 8 19 7 20 6 21 5 22
REMARK SMILES IDX 4 23 3 24 2 25 1 26
REMARK H PARENT
REMARK Flexibility Score: inf
ROOT
ATOM      1  C   UNL     1     -24.134 -12.132   4.851  1.00  0.00     0.000 C 
ENDROOT
BRANCH   1   2
ATOM      2  C   UNL     1     -23.006 -11.714   3.890  1.00  0.00     0.000 C 
BRANCH   2   3
ATOM      3  C   UNL     1     -22.774 -10.193   3.889  1.00  0.00     0.000 C 
BRANCH   3   4
ATOM      4  C   UNL     1     -21.671  -9.772   4.875  1.00  0.00     0.000 C 
BRANCH   4   5
ATOM      5  C   UNL     1     -22.049  -8.507   5.674  1.00  0.00     0.000 C 
BRANCH   5   6
ATOM      6  C   UNL     1     -21.588  -8.538   7.144  1.00  0.00     0.000 C 
BRANCH   6   7
ATOM      7  C   UNL     1     -22.713  -8.762   8.170  1.00  0.00     0.000 C 
BRANCH   7   8
ATOM      8  C   UNL     1     -23.671  -9.923   7.835  1.00  0.00     0.000 C 
BRANCH   8   9
ATOM      9  C   UNL     1     -25.106  -9.466   7.497  1.00  0.00     0.000 C 
BRANCH   9  10
ATOM     10  C   UNL     1     -25.776  -8.736   8.671  1.00  0.00     0.006 C 
BRANCH  10  11
ATOM     11  C   UNL     1     -26.263  -7.343   8.252  1.00  0.00     0.053 C 
BRANCH  11  12
ATOM     12  C   UNL     1     -25.478  -6.278   8.953  1.00  0.00     0.041 C 
ATOM     13  O   UNL     1     -24.417  -5.833   8.442  1.00  0.00    -0.550 OA
ATOM     14  O   UNL     1     -25.905  -5.798  10.185  1.00  0.00    -0.550 OA
ENDBRANCH  11  12
ENDBRANCH  10  11
ENDBRANCH   9  10
ENDBRANCH   8   9
ENDBRANCH   7   8
ENDBRANCH   6   7
ENDBRANCH   5   6
ENDBRANCH   4   5
ENDBRANCH   3   4
ENDBRANCH   2   3
ENDBRANCH   1   2
BRANCH   1  15
ATOM     15  C   UNL     1     -25.139 -13.094   4.199  1.00  0.00     0.000 C 
BRANCH  15  16
ATOM     16  C   UNL     1     -24.561 -14.505   3.985  1.00  0.00     0.000 C 
BRANCH  16  17
ATOM     17  C   UNL     1     -24.966 -15.485   5.097  1.00  0.00     0.000 C 
BRANCH  17  18
ATOM     18  C   UNL     1     -25.784 -14.812   6.209  1.00  0.00    -0.000 C 
BRANCH  18  19
ATOM     19  C   UNL     1     -25.243 -15.183   7.598  1.00  0.00    -0.000 C 
BRANCH  19  20
ATOM     20  C   UNL     1     -24.267 -14.133   8.160  1.00  0.00    -0.000 C 
BRANCH  20  21
ATOM     21  C   UNL     1     -23.241 -14.668   9.177  1.00  0.00    -0.000 C 
BRANCH  21  22
ATOM     22  C   UNL     1     -23.520 -14.193  10.614  1.00  0.00    -0.000 C 
BRANCH  22  23
ATOM     23  C   UNL     1     -23.881 -12.699  10.687  1.00  0.00    -0.000 C 
BRANCH  23  24
ATOM     24  C   UNL     1     -22.750 -11.734  10.281  1.00  0.00    -0.000 C 
BRANCH  24  25
ATOM     25  C   UNL     1     -21.432 -11.962  11.049  1.00  0.00    -0.003 C 
ATOM     26  C   UNL     1     -20.282 -11.130  10.486  1.00  0.00     0.004 C 
ENDBRANCH  24  25
ENDBRANCH  23  24
ENDBRANCH  22  23
ENDBRANCH  21  22
ENDBRANCH  20  21
ENDBRANCH  19  20
ENDBRANCH  18  19
ENDBRANCH  17  18
ENDBRANCH  16  17
ENDBRANCH  15  16
ENDBRANCH   1  15
TORSDOF 22
ENDMDL
MODEL 3
REMARK VINA RESULT:    -3.582      2.371      4.594
REMARK INTER + INTRA:         -10.808
REMARK INTER:                  -8.732
REMARK INTRA:                  -2.076
REMARK UNBOUND:                -2.618
REMARK SMILES CCCCCCCCCCCCCCCCCCCCCCCC(=O)[O-]
REMARK SMILES IDX 13 1 14 2 15 3 16 4 17 5 18 6 19 7 20 8 21 9 22 10 23 11
REMARK SMILES IDX 24 12 25 13 26 14 12 15 11 16 10 17 9 18 8 19 7 20 6 21 5 22
REMARK SMILES IDX 4 23 3 24 2 25 1 26
REMARK H PARENT
REMARK Flexibility Score: inf
ROOT
ATOM      1  C   UNL     1     -24.657 -10.604   7.918  1.00  0.00     0.000 C 
ENDROOT
BRANCH   1   2
ATOM      2  C   UNL     1     -24.370 -11.277   9.272  1.00  0.00     0.000 C 
BRANCH   2   3
ATOM      3  C   UNL     1     -22.894 -11.145   9.687  1.00  0.00     0.000 C 
BRANCH   3   4
ATOM      4  C   UNL     1     -22.578 -11.930  10.972  1.00  0.00     0.000 C 
BRANCH   4   5
ATOM      5  C   UNL     1     -23.094 -13.384  10.915  1.00  0.00     0.000 C 
BRANCH   5   6
ATOM      6  C   UNL     1     -22.241 -14.313  10.030  1.00  0.00     0.000 C 
BRANCH   6   7
ATOM      7  C   UNL     1     -23.045 -15.277   9.141  1.00  0.00     0.000 C 
BRANCH   7   8
ATOM      8  C   UNL     1     -24.464 -14.792   8.781  1.00  0.00     0.000 C 
BRANCH   8   9
ATOM      9  C   UNL     1     -24.624 -14.390   7.298  1.00  0.00     0.000 C 
BRANCH   9  10
ATOM     10  C   UNL     1     -25.741 -15.180   6.599  1.00  0.00     0.006 C 
BRANCH  10  11
ATOM     11  C   UNL     1     -25.272 -15.716   5.241  1.00  0.00     0.053 C 
BRANCH  11  12
ATOM     12  C   UNL     1     -24.960 -14.587   4.308  1.00  0.00     0.041 C 
ATOM     13  O   UNL     1     -23.788 -14.429   3.875  1.00  0.00    -0.550 OA
ATOM     14  O   UNL     1     -25.958 -13.694   3.939  1.00  0.00    -0.550 OA
ENDBRANCH  11  12
ENDBRANCH  10  11
ENDBRANCH   9  10
ENDBRANCH   8   9
ENDBRANCH   7   8
ENDBRANCH   6   7
ENDBRANCH   5   6
ENDBRANCH   4   5
ENDBRANCH   3   4
ENDBRANCH   2   3
ENDBRANCH   1   2
BRANCH   1  15
ATOM     15  C   UNL     1     -24.061 -11.381   6.734  1.00  0.00     0.000 C 
BRANCH  15  16
ATOM     16  C   UNL     1     -24.421 -10.761   5.372  1.00  0.00     0.000 C 
BRANCH  16  17
ATOM     17  C   UNL     1     -23.398 -11.104   4.277  1.00  0.00     0.000 C 
BRANCH  17  18
ATOM     18  C   UNL     1     -22.360  -9.991   4.070  1.00  0.00    -0.000 C 
BRANCH  18  19
ATOM     19  C   UNL     1     -21.639  -9.655   5.383  1.00  0.00    -0.000 C 
BRANCH  19  20
ATOM     20  C   UNL     1     -22.221  -8.414   6.086  1.00  0.00    -0.000 C 
BRANCH  20  21
ATOM     21  C   UNL     1     -21.957  -8.333   7.601  1.00  0.00    -0.000 C 
BRANCH  21  22
ATOM     22  C   UNL     1     -23.182  -7.849   8.396  1.00  0.00    -0.000 C 
BRANCH  22  23
ATOM     23  C   UNL     1     -23.286  -6.315   8.453  1.00  0.00    -0.000 C 
BRANCH  23  24
ATOM     24  C   UNL     1     -24.722  -5.760   8.530  1.00  0.00    -0.000 C 
BRANCH  24  25
ATOM     25  C   UNL     1     -25.715  -6.703   9.240  1.00  0.00    -0.003 C 
ATOM     26  C   UNL     1     -26.529  -7.537   8.252  1.00  0.00     0.004 C 
ENDBRANCH  24  25
ENDBRANCH  23  24
ENDBRANCH  22  23
ENDBRANCH  21  22
ENDBRANCH  20  21
ENDBRANCH  19  20
ENDBRANCH  18  19
ENDBRANCH  17  18
ENDBRANCH  16  17
ENDBRANCH  15  16
ENDBRANCH   1  15
TORSDOF 22
ENDMDL
MODEL 4
REMARK VINA RESULT:    -3.532      2.241      5.860
REMARK INTER + INTRA:         -10.692
REMARK INTER:                  -8.461
REMARK INTRA:                  -2.231
REMARK UNBOUND:                -2.618
REMARK SMILES CCCCCCCCCCCCCCCCCCCCCCCC(=O)[O-]
REMARK SMILES IDX 13 1 14 2 15 3 16 4 17 5 18 6 19 7 20 8 21 9 22 10 23 11
REMARK SMILES IDX 24 12 25 13 26 14 12 15 11 16 10 17 9 18 8 19 7 20 6 21 5 22
REMARK SMILES IDX 4 23 3 24 2 25 1 26
REMARK H PARENT
REMARK Flexibility Score: inf
ROOT
ATOM      1  C   UNL     1     -23.917 -13.833   3.905  1.00  0.00     0.000 C 
ENDROOT
BRANCH   1   2
ATOM      2  C   UNL     1     -23.775 -12.304   4.003  1.00  0.00     0.000 C 
BRANCH   2   3
ATOM      3  C   UNL     1     -24.568 -11.718   5.184  1.00  0.00     0.000 C 
BRANCH   3   4
ATOM      4  C   UNL     1     -24.129 -10.284   5.527  1.00  0.00     0.000 C 
BRANCH   4   5
ATOM      5  C   UNL     1     -22.683  -9.988   5.074  1.00  0.00     0.000 C 
BRANCH   5   6
ATOM      6  C   UNL     1     -22.131  -8.646   5.592  1.00  0.00     0.000 C 
BRANCH   6   7
ATOM      7  C   UNL     1     -21.585  -8.683   7.029  1.00  0.00     0.000 C 
BRANCH   7   8
ATOM      8  C   UNL     1     -22.565  -9.243   8.079  1.00  0.00     0.000 C 
BRANCH   8   9
ATOM      9  C   UNL     1     -23.779  -8.327   8.346  1.00  0.00     0.000 C 
BRANCH   9  10
ATOM     10  C   UNL     1     -23.359  -6.885   8.673  1.00  0.00     0.006 C 
BRANCH  10  11
ATOM     11  C   UNL     1     -24.497  -5.899   8.385  1.00  0.00     0.053 C 
BRANCH  11  12
ATOM     12  C   UNL     1     -25.774  -6.373   9.006  1.00  0.00     0.041 C 
ATOM     13  O   UNL     1     -26.053  -6.065  10.195  1.00  0.00    -0.550 OA
ATOM     14  O   UNL     1     -26.643  -7.178   8.281  1.00  0.00    -0.550 OA
ENDBRANCH  11  12
ENDBRANCH  10  11
ENDBRANCH   9  10
ENDBRANCH   8   9
ENDBRANCH   7   8
ENDBRANCH   6   7
ENDBRANCH   5   6
ENDBRANCH   4   5
ENDBRANCH   3   4
ENDBRANCH   2   3
ENDBRANCH   1   2
BRANCH   1  15
ATOM     15  C   UNL     1     -25.327 -14.320   4.272  1.00  0.00     0.000 C 
BRANCH  15  16
ATOM     16  C   UNL     1     -25.319 -15.393   5.376  1.00  0.00     0.000 C 
BRANCH  16  17
ATOM     17  C   UNL     1     -25.617 -14.812   6.768  1.00  0.00     0.000 C 
BRANCH  17  18
ATOM     18  C   UNL     1     -24.347 -14.615   7.610  1.00  0.00    -0.000 C 
BRANCH  18  19
ATOM     19  C   UNL     1     -24.662 -13.886   8.924  1.00  0.00    -0.000 C 
BRANCH  19  20
ATOM     20  C   UNL     1     -24.582 -12.353   8.793  1.00  0.00    -0.000 C 
BRANCH  20  21
ATOM     21  C   UNL     1     -23.931 -11.625   9.984  1.00  0.00    -0.000 C 
BRANCH  21  22
ATOM     22  C   UNL     1     -23.254 -12.586  10.975  1.00  0.00    -0.000 C 
BRANCH  22  23
ATOM     23  C   UNL     1     -21.765 -12.814  10.660  1.00  0.00    -0.000 C 
BRANCH  23  24
ATOM     24  C   UNL     1     -20.864 -11.575  10.834  1.00  0.00    -0.000 C 
BRANCH  24  25
ATOM     25  C   UNL     1     -20.069 -11.201   9.566  1.00  0.00    -0.003 C 
ATOM     26  C   UNL     1     -19.380  -9.844   9.695  1.00  0.00     0.004 C 
ENDBRANCH  24  25
ENDBRANCH  23  24
ENDBRANCH  22  23
ENDBRANCH  21  22
ENDBRANCH  20  21
ENDBRANCH  19  20
ENDBRANCH  18  19
ENDBRANCH  17  18
ENDBRANCH  16  17
ENDBRANCH  15  16
ENDBRANCH   1  15
TORSDOF 22
ENDMDL
MODEL 5
REMARK VINA RESULT:    -3.344      2.357      4.764
REMARK INTER + INTRA:         -10.262
REMARK INTER:                  -7.419
REMARK INTRA:                  -2.843
REMARK UNBOUND:                -2.618
REMARK SMILES CCCCCCCCCCCCCCCCCCCCCCCC(=O)[O-]
REMARK SMILES IDX 13 1 14 2 15 3 16 4 17 5 18 6 19 7 20 8 21 9 22 10 23 11
REMARK SMILES IDX 24 12 25 13 26 14 12 15 11 16 10 17 9 18 8 19 7 20 6 21 5 22
REMARK SMILES IDX 4 23 3 24 2 25 1 26
REMARK H PARENT
REMARK Flexibility Score: inf
ROOT
ATOM      1  C   UNL     1     -21.395  -9.401   8.382  1.00  0.00     0.000 C 
ENDROOT
BRANCH   1   2
ATOM      2  C   UNL     1     -20.223 -10.060   9.131  1.00  0.00     0.000 C 
BRANCH   2   3
ATOM      3  C   UNL     1     -20.681 -11.235  10.013  1.00  0.00     0.000 C 
BRANCH   3   4
ATOM      4  C   UNL     1     -22.157 -11.601   9.776  1.00  0.00     0.000 C 
BRANCH   4   5
ATOM      5  C   UNL     1     -22.793 -12.298  10.997  1.00  0.00     0.000 C 
BRANCH   5   6
ATOM      6  C   UNL     1     -23.750 -13.448  10.629  1.00  0.00     0.000 C 
BRANCH   6   7
ATOM      7  C   UNL     1     -23.110 -14.585   9.813  1.00  0.00     0.000 C 
BRANCH   7   8
ATOM      8  C   UNL     1     -24.041 -15.234   8.768  1.00  0.00     0.000 C 
BRANCH   8   9
ATOM      9  C   UNL     1     -24.663 -14.224   7.780  1.00  0.00     0.000 C 
BRANCH   9  10
ATOM     10  C   UNL     1     -25.724 -14.872   6.877  1.00  0.00     0.006 C 
BRANCH  10  11
ATOM     11  C   UNL     1     -25.095 -15.419   5.590  1.00  0.00     0.053 C 
BRANCH  11  12
ATOM     12  C   UNL     1     -25.056 -14.359   4.532  1.00  0.00     0.041 C 
ATOM     13  O   UNL     1     -23.962 -14.039   3.997  1.00  0.00    -0.550 OA
ATOM     14  O   UNL     1     -26.223 -13.706   4.158  1.00  0.00    -0.550 OA
ENDBRANCH  11  12
ENDBRANCH  10  11
ENDBRANCH   9  10
ENDBRANCH   8   9
ENDBRANCH   7   8
ENDBRANCH   6   7
ENDBRANCH   5   6
ENDBRANCH   4   5
ENDBRANCH   3   4
ENDBRANCH   2   3
ENDBRANCH   1   2
BRANCH   1  15
ATOM     15  C   UNL     1     -20.942  -8.645   7.124  1.00  0.00     0.000 C 
BRANCH  15  16
ATOM     16  C   UNL     1     -22.070  -8.475   6.091  1.00  0.00     0.000 C 
BRANCH  16  17
ATOM     17  C   UNL     1     -22.013  -9.530   4.974  1.00  0.00     0.000 C 
BRANCH  17  18
ATOM     18  C   UNL     1     -23.247 -10.445   4.962  1.00  0.00    -0.000 C 
BRANCH  18  19
ATOM     19  C   UNL     1     -24.290  -9.982   5.990  1.00  0.00    -0.000 C 
BRANCH  19  20
ATOM     20  C   UNL     1     -24.326 -10.871   7.247  1.00  0.00    -0.000 C 
BRANCH  20  21
ATOM     21  C   UNL     1     -25.019 -10.247   8.473  1.00  0.00    -0.000 C 
BRANCH  21  22
ATOM     22  C   UNL     1     -24.605  -8.785   8.715  1.00  0.00    -0.000 C 
BRANCH  22  23
ATOM     23  C   UNL     1     -25.802  -7.819   8.712  1.00  0.00    -0.000 C 
BRANCH  23  24
ATOM     24  C   UNL     1     -25.435  -6.324   8.764  1.00  0.00    -0.000 C 
BRANCH  24  25
ATOM     25  C   UNL     1     -23.915  -6.057   8.786  1.00  0.00    -0.003 C 
ATOM     26  C   UNL     1     -23.484  -5.073   7.700  1.00  0.00     0.004 C 
ENDBRANCH  24  25
ENDBRANCH  23  24
ENDBRANCH  22  23
ENDBRANCH  21  22
ENDBRANCH  20  21
ENDBRANCH  19  20
ENDBRANCH  18  19
ENDBRANCH  17  18
ENDBRANCH  16  17
ENDBRANCH  15  16
ENDBRANCH   1  15
TORSDOF 22
ENDMDL
MODEL 6
REMARK VINA RESULT:    -3.266      2.191      6.662
REMARK INTER + INTRA:         -10.085
REMARK INTER:                  -7.332
REMARK INTRA:                  -2.753
REMARK UNBOUND:                -2.618
REMARK SMILES CCCCCCCCCCCCCCCCCCCCCCCC(=O)[O-]
REMARK SMILES IDX 13 1 14 2 15 3 16 4 17 5 18 6 19 7 20 8 21 9 22 10 23 11
REMARK SMILES IDX 24 12 25 13 26 14 12 15 11 16 10 17 9 18 8 19 7 20 6 21 5 22
REMARK SMILES IDX 4 23 3 24 2 25 1 26
REMARK H PARENT
REMARK Flexibility Score: inf
ROOT
ATOM      1  C   UNL     1     -24.674 -10.610   8.327  1.00  0.00     0.000 C 
ENDROOT
BRANCH   1   2
ATOM      2  C   UNL     1     -23.921 -11.180   7.111  1.00  0.00     0.000 C 
BRANCH   2   3
ATOM      3  C   UNL     1     -24.310 -10.474   5.801  1.00  0.00     0.000 C 
BRANCH   3   4
ATOM      4  C   UNL     1     -23.371 -10.843   4.639  1.00  0.00     0.000 C 
BRANCH   4   5
ATOM      5  C   UNL     1     -22.140  -9.915   4.561  1.00  0.00     0.000 C 
BRANCH   5   6
ATOM      6  C   UNL     1     -22.203  -8.715   5.526  1.00  0.00     0.000 C 
BRANCH   6   7
ATOM      7  C   UNL     1     -21.219  -8.783   6.706  1.00  0.00     0.000 C 
BRANCH   7   8
ATOM      8  C   UNL     1     -21.779  -8.262   8.046  1.00  0.00     0.000 C 
BRANCH   8   9
ATOM      9  C   UNL     1     -23.204  -7.678   7.937  1.00  0.00     0.000 C 
BRANCH   9  10
ATOM     10  C   UNL     1     -23.356  -6.366   8.721  1.00  0.00     0.006 C 
BRANCH  10  11
ATOM     11  C   UNL     1     -24.661  -5.649   8.353  1.00  0.00     0.053 C 
BRANCH  11  12
ATOM     12  C   UNL     1     -25.828  -6.301   9.028  1.00  0.00     0.041 C 
ATOM     13  O   UNL     1     -26.111  -6.013  10.221  1.00  0.00    -0.550 OA
ATOM     14  O   UNL     1     -26.586  -7.246   8.348  1.00  0.00    -0.550 OA
ENDBRANCH  11  12
ENDBRANCH  10  11
ENDBRANCH   9  10
ENDBRANCH   8   9
ENDBRANCH   7   8
ENDBRANCH   6   7
ENDBRANCH   5   6
ENDBRANCH   4   5
ENDBRANCH   3   4
ENDBRANCH   2   3
ENDBRANCH   1   2
BRANCH   1  15
ATOM     15  C   UNL     1     -24.033 -11.017   9.662  1.00  0.00     0.000 C 
BRANCH  15  16
ATOM     16  C   UNL     1     -22.496 -10.949   9.632  1.00  0.00     0.000 C 
BRANCH  16  17
ATOM     17  C   UNL     1     -21.840 -11.941  10.605  1.00  0.00     0.000 C 
BRANCH  17  18
ATOM     18  C   UNL     1     -22.734 -13.155  10.904  1.00  0.00    -0.000 C 
BRANCH  18  19
ATOM     19  C   UNL     1     -22.495 -14.282   9.888  1.00  0.00    -0.000 C 
BRANCH  19  20
ATOM     20  C   UNL     1     -23.779 -15.059   9.544  1.00  0.00    -0.000 C 
BRANCH  20  21
ATOM     21  C   UNL     1     -24.806 -14.288   8.693  1.00  0.00    -0.000 C 
BRANCH  21  22
ATOM     22  C   UNL     1     -24.507 -14.359   7.185  1.00  0.00    -0.000 C 
BRANCH  22  23
ATOM     23  C   UNL     1     -25.398 -15.374   6.450  1.00  0.00    -0.000 C 
BRANCH  23  24
ATOM     24  C   UNL     1     -25.193 -15.437   4.923  1.00  0.00    -0.000 C 
BRANCH  24  25
ATOM     25  C   UNL     1     -24.960 -14.059   4.270  1.00  0.00    -0.003 C 
ATOM     26  C   UNL     1     -26.269 -13.377   3.875  1.00  0.00     0.004 C 
ENDBRANCH  24  25
ENDBRANCH  23  24
ENDBRANCH  22  23
ENDBRANCH  21  22
ENDBRANCH  20  21
ENDBRANCH  19  20
ENDBRANCH  18  19
ENDBRANCH  17  18
ENDBRANCH  16  17
ENDBRANCH  15  16
ENDBRANCH   1  15
TORSDOF 22
ENDMDL
MODEL 7
REMARK VINA RESULT:    -3.254      2.231      6.774
REMARK INTER + INTRA:         -10.057
REMARK INTER:                  -7.451
REMARK INTRA:                  -2.605
REMARK UNBOUND:                -2.618
REMARK SMILES CCCCCCCCCCCCCCCCCCCCCCCC(=O)[O-]
REMARK SMILES IDX 13 1 14 2 15 3 16 4 17 5 18 6 19 7 20 8 21 9 22 10 23 11
REMARK SMILES IDX 24 12 25 13 26 14 12 15 11 16 10 17 9 18 8 19 7 20 6 21 5 22
REMARK SMILES IDX 4 23 3 24 2 25 1 26
REMARK H PARENT
REMARK Flexibility Score: inf
ROOT
ATOM      1  C   UNL     1     -20.147 -10.709  10.018  1.00  0.00     0.000 C 
ENDROOT
BRANCH   1   2
ATOM      2  C   UNL     1     -20.490 -10.471   8.536  1.00  0.00     0.000 C 
BRANCH   2   3
ATOM      3  C   UNL     1     -21.282  -9.170   8.322  1.00  0.00     0.000 C 
BRANCH   3   4
ATOM      4  C   UNL     1     -21.057  -8.575   6.921  1.00  0.00     0.000 C 
BRANCH   4   5
ATOM      5  C   UNL     1     -22.378  -8.376   6.148  1.00  0.00     0.000 C 
BRANCH   5   6
ATOM      6  C   UNL     1     -22.918  -9.663   5.496  1.00  0.00     0.000 C 
BRANCH   6   7
ATOM      7  C   UNL     1     -24.268 -10.151   6.050  1.00  0.00     0.000 C 
BRANCH   7   8
ATOM      8  C   UNL     1     -24.184 -10.884   7.405  1.00  0.00     0.000 C 
BRANCH   8   9
ATOM      9  C   UNL     1     -24.965 -10.183   8.538  1.00  0.00     0.000 C 
BRANCH   9  10
ATOM     10  C   UNL     1     -24.562  -8.709   8.697  1.00  0.00     0.006 C 
BRANCH  10  11
ATOM     11  C   UNL     1     -25.787  -7.790   8.632  1.00  0.00     0.053 C 
BRANCH  11  12
ATOM     12  C   UNL     1     -25.401  -6.375   8.933  1.00  0.00     0.041 C 
ATOM     13  O   UNL     1     -26.263  -5.560   9.355  1.00  0.00    -0.550 OA
ATOM     14  O   UNL     1     -24.096  -5.950   8.720  1.00  0.00    -0.550 OA
ENDBRANCH  11  12
ENDBRANCH  10  11
ENDBRANCH   9  10
ENDBRANCH   8   9
ENDBRANCH   7   8
ENDBRANCH   6   7
ENDBRANCH   5   6
ENDBRANCH   4   5
ENDBRANCH   3   4
ENDBRANCH   2   3
ENDBRANCH   1   2
BRANCH   1  15
ATOM     15  C   UNL     1     -20.999 -11.819  10.651  1.00  0.00     0.000 C 
BRANCH  15  16
ATOM     16  C   UNL     1     -22.510 -11.576  10.490  1.00  0.00     0.000 C 
BRANCH  16  17
ATOM     17  C   UNL     1     -23.329 -12.876  10.550  1.00  0.00     0.000 C 
BRANCH  17  18
ATOM     18  C   UNL     1     -22.462 -14.129  10.352  1.00  0.00    -0.000 C 
BRANCH  18  19
ATOM     19  C   UNL     1     -23.161 -15.147   9.439  1.00  0.00    -0.000 C 
BRANCH  19  20
ATOM     20  C   UNL     1     -24.539 -14.664   8.949  1.00  0.00    -0.000 C 
BRANCH  20  21
ATOM     21  C   UNL     1     -24.597 -14.229   7.473  1.00  0.00    -0.000 C 
BRANCH  21  22
ATOM     22  C   UNL     1     -25.392 -15.207   6.591  1.00  0.00    -0.000 C 
BRANCH  22  23
ATOM     23  C   UNL     1     -25.050 -15.072   5.097  1.00  0.00    -0.000 C 
BRANCH  23  24
ATOM     24  C   UNL     1     -25.791 -13.941   4.358  1.00  0.00    -0.000 C 
BRANCH  24  25
ATOM     25  C   UNL     1     -24.940 -12.671   4.149  1.00  0.00    -0.003 C 
ATOM     26  C   UNL     1     -23.473 -12.996   3.876  1.00  0.00     0.004 C 
ENDBRANCH  24  25
ENDBRANCH  23  24
ENDBRANCH  22  23
ENDBRANCH  21  22
ENDBRANCH  20  21
ENDBRANCH  19  20
ENDBRANCH  18  19
ENDBRANCH  17  18
ENDBRANCH  16  17
ENDBRANCH  15  16
ENDBRANCH   1  15
TORSDOF 22
ENDMDL
MODEL 8
REMARK VINA RESULT:    -3.251      2.376      5.401
REMARK INTER + INTRA:         -10.049
REMARK INTER:                  -7.347
REMARK INTRA:                  -2.702
REMARK UNBOUND:                -2.618
REMARK SMILES CCCCCCCCCCCCCCCCCCCCCCCC(=O)[O-]
REMARK SMILES IDX 13 1 14 2 15 3 16 4 17 5 18 6 19 7 20 8 21 9 22 10 23 11
REMARK SMILES IDX 24 12 25 13 26 14 12 15 11 16 10 17 9 18 8 19 7 20 6 21 5 22
REMARK SMILES IDX 4 23 3 24 2 25 1 26
REMARK H PARENT
REMARK Flexibility Score: inf
ROOT
ATOM      1  C   UNL     1     -20.305 -10.357   8.885  1.00  0.00     0.000 C 
ENDROOT
BRANCH   1   2
ATOM      2  C   UNL     1     -20.227 -10.944  10.305  1.00  0.00     0.000 C 
BRANCH   2   3
ATOM      3  C   UNL     1     -21.209 -12.111  10.508  1.00  0.00     0.000 C 
BRANCH   3   4
ATOM      4  C   UNL     1     -22.599 -11.631  10.959  1.00  0.00     0.000 C 
BRANCH   4   5
ATOM      5  C   UNL     1     -23.671 -12.733  10.834  1.00  0.00     0.000 C 
BRANCH   5   6
ATOM      6  C   UNL     1     -23.091 -14.143  10.607  1.00  0.00     0.000 C 
BRANCH   6   7
ATOM      7  C   UNL     1     -23.470 -14.789   9.263  1.00  0.00     0.000 C 
BRANCH   7   8
ATOM      8  C   UNL     1     -24.716 -14.185   8.584  1.00  0.00     0.000 C 
BRANCH   8   9
ATOM      9  C   UNL     1     -24.675 -14.252   7.042  1.00  0.00     0.000 C 
BRANCH   9  10
ATOM     10  C   UNL     1     -25.480 -15.438   6.489  1.00  0.00     0.006 C 
BRANCH  10  11
ATOM     11  C   UNL     1     -25.136 -15.703   5.019  1.00  0.00     0.053 C 
BRANCH  11  12
ATOM     12  C   UNL     1     -25.002 -14.413   4.269  1.00  0.00     0.041 C 
ATOM     13  O   UNL     1     -26.026 -13.744   3.972  1.00  0.00    -0.550 OA
ATOM     14  O   UNL     1     -23.747 -13.965   3.875  1.00  0.00    -0.550 OA
ENDBRANCH  11  12
ENDBRANCH  10  11
ENDBRANCH   9  10
ENDBRANCH   8   9
ENDBRANCH   7   8
ENDBRANCH   6   7
ENDBRANCH   5   6
ENDBRANCH   4   5
ENDBRANCH   3   4
ENDBRANCH   2   3
ENDBRANCH   1   2
BRANCH   1  15
ATOM     15  C   UNL     1     -21.462  -9.360   8.719  1.00  0.00     0.000 C 
BRANCH  15  16
ATOM     16  C   UNL     1     -21.412  -8.604   7.380  1.00  0.00     0.000 C 
BRANCH  16  17
ATOM     17  C   UNL     1     -22.504  -7.528   7.267  1.00  0.00     0.000 C 
BRANCH  17  18
ATOM     18  C   UNL     1     -23.029  -7.073   8.637  1.00  0.00    -0.000 C 
BRANCH  18  19
ATOM     19  C   UNL     1     -24.434  -6.464   8.517  1.00  0.00    -0.000 C 
BRANCH  19  20
ATOM     20  C   UNL     1     -25.540  -7.404   9.033  1.00  0.00    -0.000 C 
BRANCH  20  21
ATOM     21  C   UNL     1     -25.754  -8.684   8.203  1.00  0.00    -0.000 C 
BRANCH  21  22
ATOM     22  C   UNL     1     -24.921  -9.872   8.711  1.00  0.00    -0.000 C 
BRANCH  22  23
ATOM     23  C   UNL     1     -24.298 -10.693   7.568  1.00  0.00    -0.000 C 
BRANCH  23  24
ATOM     24  C   UNL     1     -24.461 -10.082   6.162  1.00  0.00    -0.000 C 
BRANCH  24  25
ATOM     25  C   UNL     1     -23.852 -10.943   5.036  1.00  0.00    -0.003 C 
ATOM     26  C   UNL     1     -22.565 -10.338   4.477  1.00  0.00     0.004 C 
ENDBRANCH  24  25
ENDBRANCH  23  24
ENDBRANCH  22  23
ENDBRANCH  21  22
ENDBRANCH  20  21
ENDBRANCH  19  20
ENDBRANCH  18  19
ENDBRANCH  17  18
ENDBRANCH  16  17
ENDBRANCH  15  16
ENDBRANCH   1  15
TORSDOF 22
ENDMDL
MODEL 9
REMARK VINA RESULT:    -3.243      1.545      4.478
REMARK INTER + INTRA:         -10.032
REMARK INTER:                  -8.450
REMARK INTRA:                  -1.583
REMARK UNBOUND:                -2.618
REMARK SMILES CCCCCCCCCCCCCCCCCCCCCCCC(=O)[O-]
REMARK SMILES IDX 13 1 14 2 15 3 16 4 17 5 18 6 19 7 20 8 21 9 22 10 23 11
REMARK SMILES IDX 24 12 25 13 26 14 12 15 11 16 10 17 9 18 8 19 7 20 6 21 5 22
REMARK SMILES IDX 4 23 3 24 2 25 1 26
REMARK H PARENT
REMARK Flexibility Score: inf
ROOT
ATOM      1  C   UNL     1     -23.527 -15.290   9.146  1.00  0.00     0.000 C 
ENDROOT
BRANCH   1   2
ATOM      2  C   UNL     1     -24.815 -14.731   8.515  1.00  0.00     0.000 C 
BRANCH   2   3
ATOM      3  C   UNL     1     -24.652 -14.449   7.011  1.00  0.00     0.000 C 
BRANCH   3   4
ATOM      4  C   UNL     1     -25.657 -15.242   6.157  1.00  0.00     0.000 C 
BRANCH   4   5
ATOM      5  C   UNL     1     -24.992 -15.910   4.936  1.00  0.00     0.000 C 
BRANCH   5   6
ATOM      6  C   UNL     1     -24.367 -14.911   3.943  1.00  0.00     0.000 C 
BRANCH   6   7
ATOM      7  C   UNL     1     -25.037 -13.526   3.911  1.00  0.00     0.000 C 
BRANCH   7   8
ATOM      8  C   UNL     1     -24.062 -12.334   3.986  1.00  0.00     0.000 C 
BRANCH   8   9
ATOM      9  C   UNL     1     -24.160 -11.535   5.303  1.00  0.00     0.000 C 
BRANCH   9  10
ATOM     10  C   UNL     1     -23.800 -10.053   5.113  1.00  0.00     0.006 C 
BRANCH  10  11
ATOM     11  C   UNL     1     -22.288  -9.831   5.240  1.00  0.00     0.053 C 
BRANCH  11  12
ATOM     12  C   UNL     1     -21.998  -8.735   6.218  1.00  0.00     0.041 C 
ATOM     13  O   UNL     1     -22.155  -7.530   5.885  1.00  0.00    -0.550 OA
ATOM     14  O   UNL     1     -21.526  -9.042   7.487  1.00  0.00    -0.550 OA
ENDBRANCH  11  12
ENDBRANCH  10  11
ENDBRANCH   9  10
ENDBRANCH   8   9
ENDBRANCH   7   8
ENDBRANCH   6   7
ENDBRANCH   5   6
ENDBRANCH   4   5
ENDBRANCH   3   4
ENDBRANCH   2   3
ENDBRANCH   1   2
BRANCH   1  15
ATOM     15  C   UNL     1     -23.134 -14.555  10.437  1.00  0.00     0.000 C 
BRANCH  15  16
ATOM     16  C   UNL     1     -21.782 -13.829  10.321  1.00  0.00     0.000 C 
BRANCH  16  17
ATOM     17  C   UNL     1     -21.905 -12.312  10.533  1.00  0.00     0.000 C 
BRANCH  17  18
ATOM     18  C   UNL     1     -23.330 -11.882  10.917  1.00  0.00    -0.000 C 
BRANCH  18  19
ATOM     19  C   UNL     1     -24.228 -11.774   9.677  1.00  0.00    -0.000 C 
BRANCH  19  20
ATOM     20  C   UNL     1     -23.844 -10.599   8.759  1.00  0.00    -0.000 C 
BRANCH  20  21
ATOM     21  C   UNL     1     -24.638  -9.299   8.987  1.00  0.00    -0.000 C 
BRANCH  21  22
ATOM     22  C   UNL     1     -25.616  -8.987   7.842  1.00  0.00    -0.000 C 
BRANCH  22  23
ATOM     23  C   UNL     1     -26.347  -7.646   8.032  1.00  0.00    -0.000 C 
BRANCH  23  24
ATOM     24  C   UNL     1     -25.788  -6.753   9.158  1.00  0.00    -0.000 C 
BRANCH  24  25
ATOM     25  C   UNL     1     -24.923  -5.581   8.650  1.00  0.00    -0.003 C 
ATOM     26  C   UNL     1     -23.431  -5.911   8.672  1.00  0.00     0.004 C 
ENDBRANCH  24  25
ENDBRANCH  23  24
ENDBRANCH  22  23
ENDBRANCH  21  22
ENDBRANCH  20  21
ENDBRANCH  19  20
ENDBRANCH  18  19
ENDBRANCH  17  18
ENDBRANCH  16  17
ENDBRANCH  15  16
ENDBRANCH   1  15
TORSDOF 22
ENDMDL
