MODEL 1
REMARK VINA RESULT:    -6.462      0.000      0.000
REMARK INTER + INTRA:          -8.018
REMARK INTER:                  -7.784
REMARK INTRA:                  -0.234
REMARK UNBOUND:                -0.234
REMARK SMILES O=c1c(O)c(-c2ccc(O)c(O)c2)oc2cc(O)cc(O)c12
REMARK SMILES IDX 5 1 3 2 2 3 1 4 22 5 20 6 19 7 17 8 16 9 15 10 14 11 6 12
REMARK SMILES IDX 7 13 8 14 9 15 13 16 11 17 10 18 12 20 4 22 21 24 18 26
REMARK H PARENT 10 19 12 21 4 23 21 25 18 27
REMARK Flexibility Score: inf
ROOT
ATOM      1  C   UNL     1       0.002  -6.542   5.658  1.00  0.00     0.180 A 
ATOM      2  C   UNL     1      -0.233  -6.052   6.954  1.00  0.00     0.208 A 
ATOM      3  C   UNL     1      -1.555  -5.969   7.421  1.00  0.00     0.238 A 
ATOM      4  O   UNL     1      -1.757  -5.579   8.602  1.00  0.00    -0.285 OA
ATOM      5  C   UNL     1      -2.625  -6.361   6.581  1.00  0.00     0.111 A 
ATOM      6  C   UNL     1      -4.005  -6.281   6.936  1.00  0.00     0.134 A 
ATOM      7  C   UNL     1      -4.971  -6.820   6.077  1.00  0.00     0.093 A 
ATOM      8  C   UNL     1      -4.612  -7.376   4.847  1.00  0.00     0.123 A 
ATOM      9  C   UNL     1      -3.272  -7.404   4.466  1.00  0.00     0.094 A 
ATOM     10  C   UNL     1      -2.282  -6.908   5.317  1.00  0.00     0.146 A 
ATOM     11  O   UNL     1      -1.017  -6.965   4.920  1.00  0.00    -0.452 OA
ENDROOT
BRANCH   1  12
ATOM     12  C   UNL     1       1.365  -6.636   5.088  1.00  0.00     0.025 A 
ATOM     13  C   UNL     1       1.913  -7.899   4.813  1.00  0.00     0.016 A 
ATOM     14  C   UNL     1       3.189  -8.011   4.255  1.00  0.00     0.051 A 
ATOM     15  C   UNL     1       3.930  -6.865   3.949  1.00  0.00     0.157 A 
ATOM     16  C   UNL     1       2.104  -5.485   4.761  1.00  0.00     0.062 A 
ATOM     17  C   UNL     1       3.385  -5.595   4.200  1.00  0.00     0.158 A 
BRANCH  15  18
ATOM     18  O   UNL     1       5.202  -7.008   3.396  1.00  0.00    -0.504 OA
ATOM     19  H   UNL     1       5.592  -7.917   3.171  1.00  0.00     0.293 HD
ENDBRANCH  15  18
BRANCH  17  20
ATOM     20  O   UNL     1       4.112  -4.448   3.884  1.00  0.00    -0.504 OA
ATOM     21  H   UNL     1       4.384  -4.238   2.931  1.00  0.00     0.293 HD
ENDBRANCH  17  20
ENDBRANCH   1  12
BRANCH   2  22
ATOM     22  O   UNL     1       0.839  -5.689   7.775  1.00  0.00    -0.502 OA
ATOM     23  H   UNL     1       1.794  -5.660   7.441  1.00  0.00     0.293 HD
ENDBRANCH   2  22
BRANCH   6  24
ATOM     24  O   UNL     1      -4.478  -5.664   8.098  1.00  0.00    -0.507 OA
ATOM     25  H   UNL     1      -4.038  -5.731   9.004  1.00  0.00     0.293 HD
ENDBRANCH   6  24
BRANCH   8  26
ATOM     26  O   UNL     1      -5.580  -7.895   3.991  1.00  0.00    -0.508 OA
ATOM     27  H   UNL     1      -6.410  -7.366   3.747  1.00  0.00     0.293 HD
ENDBRANCH   8  26
TORSDOF 6
ENDMDL
MODEL 2
REMARK VINA RESULT:    -6.265      1.872      3.053
REMARK INTER + INTRA:          -7.781
REMARK INTER:                  -8.246
REMARK INTRA:                   0.465
REMARK UNBOUND:                -0.234
REMARK SMILES O=c1c(O)c(-c2ccc(O)c(O)c2)oc2cc(O)cc(O)c12
REMARK SMILES IDX 5 1 3 2 2 3 1 4 22 5 20 6 19 7 17 8 16 9 15 10 14 11 6 12
REMARK SMILES IDX 7 13 8 14 9 15 13 16 11 17 10 18 12 20 4 22 21 24 18 26
REMARK H PARENT 10 19 12 21 4 23 21 25 18 27
REMARK Flexibility Score: inf
ROOT
ATOM      1  C   UNL     1       1.152  -6.652   4.760  1.00  0.00     0.180 A 
ATOM      2  C   UNL     1       0.904  -8.035   4.742  1.00  0.00     0.208 A 
ATOM      3  C   UNL     1      -0.403  -8.496   4.968  1.00  0.00     0.238 A 
ATOM      4  O   UNL     1      -0.629  -9.733   4.898  1.00  0.00    -0.285 OA
ATOM      5  C   UNL     1      -1.442  -7.570   5.224  1.00  0.00     0.111 A 
ATOM      6  C   UNL     1      -2.795  -7.927   5.506  1.00  0.00     0.134 A 
ATOM      7  C   UNL     1      -3.766  -6.923   5.615  1.00  0.00     0.093 A 
ATOM      8  C   UNL     1      -3.421  -5.573   5.517  1.00  0.00     0.123 A 
ATOM      9  C   UNL     1      -2.092  -5.213   5.302  1.00  0.00     0.094 A 
ATOM     10  C   UNL     1      -1.108  -6.192   5.153  1.00  0.00     0.146 A 
ATOM     11  O   UNL     1       0.144  -5.806   4.937  1.00  0.00    -0.452 OA
ENDROOT
BRANCH   1  12
ATOM     12  C   UNL     1       2.507  -6.093   4.556  1.00  0.00     0.025 A 
ATOM     13  C   UNL     1       2.730  -4.724   4.777  1.00  0.00     0.016 A 
ATOM     14  C   UNL     1       4.006  -4.179   4.611  1.00  0.00     0.051 A 
ATOM     15  C   UNL     1       5.080  -4.993   4.238  1.00  0.00     0.157 A 
ATOM     16  C   UNL     1       3.593  -6.913   4.200  1.00  0.00     0.062 A 
ATOM     17  C   UNL     1       4.874  -6.368   4.034  1.00  0.00     0.158 A 
BRANCH  15  18
ATOM     18  O   UNL     1       6.340  -4.420   4.077  1.00  0.00    -0.504 OA
ATOM     19  H   UNL     1       7.126  -4.675   4.664  1.00  0.00     0.293 HD
ENDBRANCH  15  18
BRANCH  17  20
ATOM     20  O   UNL     1       5.944  -7.188   3.676  1.00  0.00    -0.504 OA
ATOM     21  H   UNL     1       5.875  -8.197   3.717  1.00  0.00     0.293 HD
ENDBRANCH  17  20
ENDBRANCH   1  12
BRANCH   2  22
ATOM     22  O   UNL     1       1.940  -8.932   4.466  1.00  0.00    -0.502 OA
ATOM     23  H   UNL     1       2.290  -9.087   3.529  1.00  0.00     0.293 HD
ENDBRANCH   2  22
BRANCH   6  24
ATOM     24  O   UNL     1      -3.229  -9.240   5.713  1.00  0.00    -0.507 OA
ATOM     25  H   UNL     1      -3.045  -9.781   6.545  1.00  0.00     0.293 HD
ENDBRANCH   6  24
BRANCH   8  26
ATOM     26  O   UNL     1      -4.390  -4.581   5.642  1.00  0.00    -0.508 OA
ATOM     27  H   UNL     1      -4.141  -3.620   5.851  1.00  0.00     0.293 HD
ENDBRANCH   8  26
TORSDOF 6
ENDMDL
MODEL 3
REMARK VINA RESULT:    -6.056      2.174      2.969
REMARK INTER + INTRA:          -7.530
REMARK INTER:                  -7.195
REMARK INTRA:                  -0.334
REMARK UNBOUND:                -0.234
REMARK SMILES O=c1c(O)c(-c2ccc(O)c(O)c2)oc2cc(O)cc(O)c12
REMARK SMILES IDX 5 1 3 2 2 3 1 4 22 5 20 6 19 7 17 8 16 9 15 10 14 11 6 12
REMARK SMILES IDX 7 13 8 14 9 15 13 16 11 17 10 18 12 20 4 22 21 24 18 26
REMARK H PARENT 10 19 12 21 4 23 21 25 18 27
REMARK Flexibility Score: inf
ROOT
ATOM      1  C   UNL     1       1.519  -6.145   5.436  1.00  0.00     0.180 A 
ATOM      2  C   UNL     1       0.658  -5.141   4.959  1.00  0.00     0.208 A 
ATOM      3  C   UNL     1      -0.729  -5.348   5.020  1.00  0.00     0.238 A 
ATOM      4  O   UNL     1      -1.496  -4.423   4.641  1.00  0.00    -0.285 OA
ATOM      5  C   UNL     1      -1.238  -6.561   5.542  1.00  0.00     0.111 A 
ATOM      6  C   UNL     1      -2.625  -6.893   5.614  1.00  0.00     0.134 A 
ATOM      7  C   UNL     1      -3.019  -8.067   6.270  1.00  0.00     0.093 A 
ATOM      8  C   UNL     1      -2.075  -8.950   6.798  1.00  0.00     0.123 A 
ATOM      9  C   UNL     1      -0.717  -8.663   6.678  1.00  0.00     0.094 A 
ATOM     10  C   UNL     1      -0.294  -7.483   6.063  1.00  0.00     0.146 A 
ATOM     11  O   UNL     1       1.010  -7.243   5.981  1.00  0.00    -0.452 OA
ENDROOT
BRANCH   1  12
ATOM     12  C   UNL     1       2.992  -6.009   5.382  1.00  0.00     0.025 A 
ATOM     13  C   UNL     1       3.679  -5.491   6.492  1.00  0.00     0.016 A 
ATOM     14  C   UNL     1       5.071  -5.375   6.471  1.00  0.00     0.051 A 
ATOM     15  C   UNL     1       5.799  -5.787   5.350  1.00  0.00     0.157 A 
ATOM     16  C   UNL     1       3.727  -6.441   4.264  1.00  0.00     0.062 A 
ATOM     17  C   UNL     1       5.125  -6.326   4.242  1.00  0.00     0.158 A 
BRANCH  15  18
ATOM     18  O   UNL     1       7.187  -5.655   5.358  1.00  0.00    -0.504 OA
ATOM     19  H   UNL     1       7.723  -5.557   4.503  1.00  0.00     0.293 HD
ENDBRANCH  15  18
BRANCH  17  20
ATOM     20  O   UNL     1       5.846  -6.752   3.126  1.00  0.00    -0.504 OA
ATOM     21  H   UNL     1       5.804  -6.253   2.246  1.00  0.00     0.293 HD
ENDBRANCH  17  20
ENDBRANCH   1  12
BRANCH   2  22
ATOM     22  O   UNL     1       1.181  -3.941   4.467  1.00  0.00    -0.502 OA
ATOM     23  H   UNL     1       2.171  -3.727   4.493  1.00  0.00     0.293 HD
ENDBRANCH   2  22
BRANCH   6  24
ATOM     24  O   UNL     1      -3.643  -6.126   5.040  1.00  0.00    -0.507 OA
ATOM     25  H   UNL     1      -3.822  -5.157   5.255  1.00  0.00     0.293 HD
ENDBRANCH   6  24
BRANCH   8  26
ATOM     26  O   UNL     1      -2.476 -10.123   7.433  1.00  0.00    -0.508 OA
ATOM     27  H   UNL     1      -3.268 -10.139   8.065  1.00  0.00     0.293 HD
ENDBRANCH   8  26
TORSDOF 6
ENDMDL
MODEL 4
REMARK VINA RESULT:    -5.912      1.720      6.628
REMARK INTER + INTRA:          -7.356
REMARK INTER:                  -7.228
REMARK INTRA:                  -0.129
REMARK UNBOUND:                -0.234
REMARK SMILES O=c1c(O)c(-c2ccc(O)c(O)c2)oc2cc(O)cc(O)c12
REMARK SMILES IDX 5 1 3 2 2 3 1 4 22 5 20 6 19 7 17 8 16 9 15 10 14 11 6 12
REMARK SMILES IDX 7 13 8 14 9 15 13 16 11 17 10 18 12 20 4 22 21 24 18 26
REMARK H PARENT 10 19 12 21 4 23 21 25 18 27
REMARK Flexibility Score: inf
ROOT
ATOM      1  C   UNL     1      -0.074  -6.006   5.988  1.00  0.00     0.180 A 
ATOM      2  C   UNL     1       0.176  -5.690   7.335  1.00  0.00     0.208 A 
ATOM      3  C   UNL     1       1.468  -5.290   7.712  1.00  0.00     0.238 A 
ATOM      4  O   UNL     1       1.673  -4.956   8.909  1.00  0.00    -0.285 OA
ATOM      5  C   UNL     1       2.497  -5.226   6.742  1.00  0.00     0.111 A 
ATOM      6  C   UNL     1       3.852  -4.873   7.020  1.00  0.00     0.134 A 
ATOM      7  C   UNL     1       4.755  -4.716   5.960  1.00  0.00     0.093 A 
ATOM      8  C   UNL     1       4.369  -4.963   4.641  1.00  0.00     0.123 A 
ATOM      9  C   UNL     1       3.064  -5.367   4.367  1.00  0.00     0.094 A 
ATOM     10  C   UNL     1       2.131  -5.497   5.397  1.00  0.00     0.146 A 
ATOM     11  O   UNL     1       0.895  -5.873   5.091  1.00  0.00    -0.452 OA
ENDROOT
BRANCH   1  12
ATOM     12  C   UNL     1      -1.404  -6.459   5.520  1.00  0.00     0.025 A 
ATOM     13  C   UNL     1      -1.550  -7.759   5.010  1.00  0.00     0.016 A 
ATOM     14  C   UNL     1      -2.800  -8.215   4.583  1.00  0.00     0.051 A 
ATOM     15  C   UNL     1      -3.923  -7.388   4.673  1.00  0.00     0.157 A 
ATOM     16  C   UNL     1      -2.539  -5.635   5.629  1.00  0.00     0.062 A 
ATOM     17  C   UNL     1      -3.794  -6.093   5.202  1.00  0.00     0.158 A 
BRANCH  15  18
ATOM     18  O   UNL     1      -5.156  -7.869   4.236  1.00  0.00    -0.504 OA
ATOM     19  H   UNL     1      -5.931  -8.020   4.872  1.00  0.00     0.293 HD
ENDBRANCH  15  18
BRANCH  17  20
ATOM     20  O   UNL     1      -4.913  -5.267   5.308  1.00  0.00    -0.504 OA
ATOM     21  H   UNL     1      -5.126  -4.569   4.606  1.00  0.00     0.293 HD
ENDBRANCH  17  20
ENDBRANCH   1  12
BRANCH   2  22
ATOM     22  O   UNL     1      -0.859  -5.738   8.273  1.00  0.00    -0.502 OA
ATOM     23  H   UNL     1      -0.729  -6.102   9.209  1.00  0.00     0.293 HD
ENDBRANCH   2  22
BRANCH   6  24
ATOM     24  O   UNL     1       4.363  -4.693   8.308  1.00  0.00    -0.507 OA
ATOM     25  H   UNL     1       5.293  -4.958   8.599  1.00  0.00     0.293 HD
ENDBRANCH   6  24
BRANCH   8  26
ATOM     26  O   UNL     1       5.278  -4.820   3.596  1.00  0.00    -0.508 OA
ATOM     27  H   UNL     1       5.461  -3.917   3.172  1.00  0.00     0.293 HD
ENDBRANCH   8  26
TORSDOF 6
ENDMDL
MODEL 5
REMARK VINA RESULT:    -5.838      1.869      7.351
REMARK INTER + INTRA:          -7.267
REMARK INTER:                  -7.076
REMARK INTRA:                  -0.191
REMARK UNBOUND:                -0.234
REMARK SMILES O=c1c(O)c(-c2ccc(O)c(O)c2)oc2cc(O)cc(O)c12
REMARK SMILES IDX 5 1 3 2 2 3 1 4 22 5 20 6 19 7 17 8 16 9 15 10 14 11 6 12
REMARK SMILES IDX 7 13 8 14 9 15 13 16 11 17 10 18 12 20 4 22 21 24 18 26
REMARK H PARENT 10 19 12 21 4 23 21 25 18 27
REMARK Flexibility Score: inf
ROOT
ATOM      1  C   UNL     1       1.351  -5.921   5.820  1.00  0.00     0.180 A 
ATOM      2  C   UNL     1       1.882  -4.873   5.048  1.00  0.00     0.208 A 
ATOM      3  C   UNL     1       3.233  -4.925   4.668  1.00  0.00     0.238 A 
ATOM      4  O   UNL     1       3.689  -4.011   3.932  1.00  0.00    -0.285 OA
ATOM      5  C   UNL     1       4.038  -6.015   5.076  1.00  0.00     0.111 A 
ATOM      6  C   UNL     1       5.429  -6.149   4.782  1.00  0.00     0.134 A 
ATOM      7  C   UNL     1       6.095  -7.333   5.126  1.00  0.00     0.093 A 
ATOM      8  C   UNL     1       5.438  -8.358   5.810  1.00  0.00     0.123 A 
ATOM      9  C   UNL     1       4.096  -8.210   6.154  1.00  0.00     0.094 A 
ATOM     10  C   UNL     1       3.395  -7.057   5.794  1.00  0.00     0.146 A 
ATOM     11  O   UNL     1       2.114  -6.961   6.131  1.00  0.00    -0.452 OA
ENDROOT
BRANCH   1  12
ATOM     12  C   UNL     1      -0.057  -5.924   6.280  1.00  0.00     0.025 A 
ATOM     13  C   UNL     1      -0.338  -5.739   7.643  1.00  0.00     0.016 A 
ATOM     14  C   UNL     1      -1.660  -5.717   8.096  1.00  0.00     0.051 A 
ATOM     15  C   UNL     1      -2.719  -5.863   7.195  1.00  0.00     0.157 A 
ATOM     16  C   UNL     1      -1.124  -6.051   5.373  1.00  0.00     0.062 A 
ATOM     17  C   UNL     1      -2.451  -6.027   5.826  1.00  0.00     0.158 A 
BRANCH  15  18
ATOM     18  O   UNL     1      -4.027  -5.839   7.677  1.00  0.00    -0.504 OA
ATOM     19  H   UNL     1      -4.702  -5.150   7.367  1.00  0.00     0.293 HD
ENDBRANCH  15  18
BRANCH  17  20
ATOM     20  O   UNL     1      -3.503  -6.159   4.920  1.00  0.00    -0.504 OA
ATOM     21  H   UNL     1      -3.986  -7.040   4.793  1.00  0.00     0.293 HD
ENDBRANCH  17  20
ENDBRANCH   1  12
BRANCH   2  22
ATOM     22  O   UNL     1       1.063  -3.817   4.637  1.00  0.00    -0.502 OA
ATOM     23  H   UNL     1       0.196  -3.964   4.136  1.00  0.00     0.293 HD
ENDBRANCH   2  22
BRANCH   6  24
ATOM     24  O   UNL     1       6.201  -5.149   4.184  1.00  0.00    -0.507 OA
ATOM     25  H   UNL     1       6.964  -4.667   4.634  1.00  0.00     0.293 HD
ENDBRANCH   6  24
BRANCH   8  26
ATOM     26  O   UNL     1       6.113  -9.524   6.162  1.00  0.00    -0.508 OA
ATOM     27  H   UNL     1       7.116  -9.532   6.309  1.00  0.00     0.293 HD
ENDBRANCH   8  26
TORSDOF 6
ENDMDL
MODEL 6
REMARK VINA RESULT:    -5.796      2.443      7.691
REMARK INTER + INTRA:          -7.216
REMARK INTER:                  -6.922
REMARK INTRA:                  -0.294
REMARK UNBOUND:                -0.234
REMARK SMILES O=c1c(O)c(-c2ccc(O)c(O)c2)oc2cc(O)cc(O)c12
REMARK SMILES IDX 5 1 3 2 2 3 1 4 22 5 20 6 19 7 17 8 16 9 15 10 14 11 6 12
REMARK SMILES IDX 7 13 8 14 9 15 13 16 11 17 10 18 12 20 4 22 21 24 18 26
REMARK H PARENT 10 19 12 21 4 23 21 25 18 27
REMARK Flexibility Score: inf
ROOT
ATOM      1  C   UNL     1      -3.863  -7.383   4.833  1.00  0.00     0.180 A 
ATOM      2  C   UNL     1      -3.310  -8.668   4.691  1.00  0.00     0.208 A 
ATOM      3  C   UNL     1      -1.913  -8.807   4.655  1.00  0.00     0.238 A 
ATOM      4  O   UNL     1      -1.422  -9.965   4.581  1.00  0.00    -0.285 OA
ATOM      5  C   UNL     1      -1.088  -7.661   4.746  1.00  0.00     0.111 A 
ATOM      6  C   UNL     1       0.338  -7.682   4.680  1.00  0.00     0.134 A 
ATOM      7  C   UNL     1       1.057  -6.502   4.912  1.00  0.00     0.093 A 
ATOM      8  C   UNL     1       0.400  -5.291   5.143  1.00  0.00     0.123 A 
ATOM      9  C   UNL     1      -0.993  -5.250   5.149  1.00  0.00     0.094 A 
ATOM     10  C   UNL     1      -1.737  -6.417   4.957  1.00  0.00     0.146 A 
ATOM     11  O   UNL     1      -3.062  -6.335   4.983  1.00  0.00    -0.452 OA
ENDROOT
BRANCH   1  12
ATOM     12  C   UNL     1      -5.325  -7.155   4.854  1.00  0.00     0.025 A 
ATOM     13  C   UNL     1      -6.039  -7.361   6.045  1.00  0.00     0.016 A 
ATOM     14  C   UNL     1      -7.417  -7.131   6.094  1.00  0.00     0.051 A 
ATOM     15  C   UNL     1      -8.098  -6.676   4.961  1.00  0.00     0.157 A 
ATOM     16  C   UNL     1      -6.009  -6.678   3.721  1.00  0.00     0.062 A 
ATOM     17  C   UNL     1      -7.392  -6.445   3.769  1.00  0.00     0.158 A 
BRANCH  15  18
ATOM     18  O   UNL     1      -9.473  -6.458   5.039  1.00  0.00    -0.504 OA
ATOM     19  H   UNL     1      -9.920  -6.140   5.891  1.00  0.00     0.293 HD
ENDBRANCH  15  18
BRANCH  17  20
ATOM     20  O   UNL     1      -8.063  -5.978   2.639  1.00  0.00    -0.504 OA
ATOM     21  H   UNL     1      -9.006  -5.615   2.694  1.00  0.00     0.293 HD
ENDBRANCH  17  20
ENDBRANCH   1  12
BRANCH   2  22
ATOM     22  O   UNL     1      -4.142  -9.789   4.624  1.00  0.00    -0.502 OA
ATOM     23  H   UNL     1      -4.494 -10.154   3.748  1.00  0.00     0.293 HD
ENDBRANCH   2  22
BRANCH   6  24
ATOM     24  O   UNL     1       1.089  -8.818   4.366  1.00  0.00    -0.507 OA
ATOM     25  H   UNL     1       1.701  -9.298   5.009  1.00  0.00     0.293 HD
ENDBRANCH   6  24
BRANCH   8  26
ATOM     26  O   UNL     1       1.122  -4.120   5.357  1.00  0.00    -0.508 OA
ATOM     27  H   UNL     1       1.500  -3.581   4.586  1.00  0.00     0.293 HD
ENDBRANCH   8  26
TORSDOF 6
ENDMDL
MODEL 7
REMARK VINA RESULT:    -5.748      2.144      3.503
REMARK INTER + INTRA:          -7.158
REMARK INTER:                  -6.898
REMARK INTRA:                  -0.260
REMARK UNBOUND:                -0.234
REMARK SMILES O=c1c(O)c(-c2ccc(O)c(O)c2)oc2cc(O)cc(O)c12
REMARK SMILES IDX 5 1 3 2 2 3 1 4 22 5 20 6 19 7 17 8 16 9 15 10 14 11 6 12
REMARK SMILES IDX 7 13 8 14 9 15 13 16 11 17 10 18 12 20 4 22 21 24 18 26
REMARK H PARENT 10 19 12 21 4 23 21 25 18 27
REMARK Flexibility Score: inf
ROOT
ATOM      1  C   UNL     1       2.231  -7.138   4.985  1.00  0.00     0.180 A 
ATOM      2  C   UNL     1       1.857  -8.493   4.972  1.00  0.00     0.208 A 
ATOM      3  C   UNL     1       0.497  -8.826   5.086  1.00  0.00     0.238 A 
ATOM      4  O   UNL     1       0.163 -10.038   5.019  1.00  0.00    -0.285 OA
ATOM      5  C   UNL     1      -0.469  -7.801   5.228  1.00  0.00     0.111 A 
ATOM      6  C   UNL     1      -1.869  -8.025   5.393  1.00  0.00     0.134 A 
ATOM      7  C   UNL     1      -2.747  -6.934   5.393  1.00  0.00     0.093 A 
ATOM      8  C   UNL     1      -2.269  -5.624   5.300  1.00  0.00     0.123 A 
ATOM      9  C   UNL     1      -0.899  -5.394   5.201  1.00  0.00     0.094 A 
ATOM     10  C   UNL     1      -0.001  -6.463   5.161  1.00  0.00     0.146 A 
ATOM     11  O   UNL     1       1.296  -6.199   5.053  1.00  0.00    -0.452 OA
ENDROOT
BRANCH   1  12
ATOM     12  C   UNL     1       3.645  -6.712   4.894  1.00  0.00     0.025 A 
ATOM     13  C   UNL     1       4.319  -6.300   6.056  1.00  0.00     0.016 A 
ATOM     14  C   UNL     1       5.660  -5.914   5.997  1.00  0.00     0.051 A 
ATOM     15  C   UNL     1       6.354  -5.948   4.783  1.00  0.00     0.157 A 
ATOM     16  C   UNL     1       4.350  -6.764   3.678  1.00  0.00     0.062 A 
ATOM     17  C   UNL     1       5.698  -6.379   3.618  1.00  0.00     0.158 A 
BRANCH  15  18
ATOM     18  O   UNL     1       7.690  -5.554   4.755  1.00  0.00    -0.504 OA
ATOM     19  H   UNL     1       7.984  -4.672   4.351  1.00  0.00     0.293 HD
ENDBRANCH  15  18
BRANCH  17  20
ATOM     20  O   UNL     1       6.387  -6.428   2.407  1.00  0.00    -0.504 OA
ATOM     21  H   UNL     1       7.144  -7.083   2.254  1.00  0.00     0.293 HD
ENDBRANCH  17  20
ENDBRANCH   1  12
BRANCH   2  22
ATOM     22  O   UNL     1       2.825  -9.489   4.808  1.00  0.00    -0.502 OA
ATOM     23  H   UNL     1       3.566  -9.643   5.481  1.00  0.00     0.293 HD
ENDBRANCH   2  22
BRANCH   6  24
ATOM     24  O   UNL     1      -2.441  -9.286   5.585  1.00  0.00    -0.507 OA
ATOM     25  H   UNL     1      -2.530  -9.991   4.869  1.00  0.00     0.293 HD
ENDBRANCH   6  24
BRANCH   8  26
ATOM     26  O   UNL     1      -3.148  -4.544   5.318  1.00  0.00    -0.508 OA
ATOM     27  H   UNL     1      -3.133  -3.861   6.066  1.00  0.00     0.293 HD
ENDBRANCH   8  26
TORSDOF 6
ENDMDL
MODEL 8
REMARK VINA RESULT:    -5.632      2.667      7.628
REMARK INTER + INTRA:          -7.018
REMARK INTER:                  -6.742
REMARK INTRA:                  -0.276
REMARK UNBOUND:                -0.234
REMARK SMILES O=c1c(O)c(-c2ccc(O)c(O)c2)oc2cc(O)cc(O)c12
REMARK SMILES IDX 5 1 3 2 2 3 1 4 22 5 20 6 19 7 17 8 16 9 15 10 14 11 6 12
REMARK SMILES IDX 7 13 8 14 9 15 13 16 11 17 10 18 12 20 4 22 21 24 18 26
REMARK H PARENT 10 19 12 21 4 23 21 25 18 27
REMARK Flexibility Score: inf
ROOT
ATOM      1  C   UNL     1       2.921  -6.202   5.700  1.00  0.00     0.180 A 
ATOM      2  C   UNL     1       3.412  -5.711   6.922  1.00  0.00     0.208 A 
ATOM      3  C   UNL     1       4.800  -5.617   7.110  1.00  0.00     0.238 A 
ATOM      4  O   UNL     1       5.233  -5.126   8.186  1.00  0.00    -0.285 OA
ATOM      5  C   UNL     1       5.680  -6.030   6.081  1.00  0.00     0.111 A 
ATOM      6  C   UNL     1       7.104  -6.016   6.179  1.00  0.00     0.134 A 
ATOM      7  C   UNL     1       7.876  -6.324   5.051  1.00  0.00     0.093 A 
ATOM      8  C   UNL     1       7.276  -6.707   3.850  1.00  0.00     0.123 A 
ATOM      9  C   UNL     1       5.887  -6.782   3.763  1.00  0.00     0.094 A 
ATOM     10  C   UNL     1       5.090  -6.446   4.859  1.00  0.00     0.146 A 
ATOM     11  O   UNL     1       3.770  -6.519   4.730  1.00  0.00    -0.452 OA
ENDROOT
BRANCH   1  12
ATOM     12  C   UNL     1       1.472  -6.353   5.438  1.00  0.00     0.025 A 
ATOM     13  C   UNL     1       0.878  -7.621   5.554  1.00  0.00     0.016 A 
ATOM     14  C   UNL     1      -0.492  -7.782   5.333  1.00  0.00     0.051 A 
ATOM     15  C   UNL     1      -1.291  -6.682   5.008  1.00  0.00     0.157 A 
ATOM     16  C   UNL     1       0.663  -5.245   5.131  1.00  0.00     0.062 A 
ATOM     17  C   UNL     1      -0.713  -5.406   4.910  1.00  0.00     0.158 A 
BRANCH  15  18
ATOM     18  O   UNL     1      -2.655  -6.876   4.790  1.00  0.00    -0.504 OA
ATOM     19  H   UNL     1      -3.003  -7.592   4.163  1.00  0.00     0.293 HD
ENDBRANCH  15  18
BRANCH  17  20
ATOM     20  O   UNL     1      -1.506  -4.302   4.600  1.00  0.00    -0.504 OA
ATOM     21  H   UNL     1      -1.646  -4.000   3.643  1.00  0.00     0.293 HD
ENDBRANCH  17  20
ENDBRANCH   1  12
BRANCH   2  22
ATOM     22  O   UNL     1       2.526  -5.288   7.917  1.00  0.00    -0.502 OA
ATOM     23  H   UNL     1       2.265  -5.876   8.700  1.00  0.00     0.293 HD
ENDBRANCH   2  22
BRANCH   6  24
ATOM     24  O   UNL     1       7.804  -5.736   7.357  1.00  0.00    -0.507 OA
ATOM     25  H   UNL     1       8.591  -5.109   7.421  1.00  0.00     0.293 HD
ENDBRANCH   6  24
BRANCH   8  26
ATOM     26  O   UNL     1       8.051  -7.027   2.738  1.00  0.00    -0.508 OA
ATOM     27  H   UNL     1       7.771  -6.760   1.801  1.00  0.00     0.293 HD
ENDBRANCH   8  26
TORSDOF 6
ENDMDL
MODEL 9
REMARK VINA RESULT:    -5.523     16.617     18.552
REMARK INTER + INTRA:          -6.888
REMARK INTER:                  -6.927
REMARK INTRA:                   0.039
REMARK UNBOUND:                -0.234
REMARK SMILES O=c1c(O)c(-c2ccc(O)c(O)c2)oc2cc(O)cc(O)c12
REMARK SMILES IDX 5 1 3 2 2 3 1 4 22 5 20 6 19 7 17 8 16 9 15 10 14 11 6 12
REMARK SMILES IDX 7 13 8 14 9 15 13 16 11 17 10 18 12 20 4 22 21 24 18 26
REMARK H PARENT 10 19 12 21 4 23 21 25 18 27
REMARK Flexibility Score: inf
ROOT
ATOM      1  C   UNL     1      -2.246  -0.200 -10.330  1.00  0.00     0.180 A 
ATOM      2  C   UNL     1      -1.583  -1.414 -10.580  1.00  0.00     0.208 A 
ATOM      3  C   UNL     1      -0.179  -1.433 -10.594  1.00  0.00     0.238 A 
ATOM      4  O   UNL     1       0.409  -2.534 -10.765  1.00  0.00    -0.285 OA
ATOM      5  C   UNL     1       0.544  -0.237 -10.375  1.00  0.00     0.111 A 
ATOM      6  C   UNL     1       1.967  -0.133 -10.408  1.00  0.00     0.134 A 
ATOM      7  C   UNL     1       2.579   1.075 -10.047  1.00  0.00     0.093 A 
ATOM      8  C   UNL     1       1.818   2.199  -9.719  1.00  0.00     0.123 A 
ATOM      9  C   UNL     1       0.427   2.123  -9.743  1.00  0.00     0.094 A 
ATOM     10  C   UNL     1      -0.212   0.923 -10.063  1.00  0.00     0.146 A 
ATOM     11  O   UNL     1      -1.539   0.892 -10.063  1.00  0.00    -0.452 OA
ENDROOT
BRANCH   1  12
ATOM     12  C   UNL     1      -3.723  -0.096 -10.324  1.00  0.00     0.025 A 
ATOM     13  C   UNL     1      -4.349   0.894 -11.099  1.00  0.00     0.016 A 
ATOM     14  C   UNL     1      -5.742   0.996 -11.125  1.00  0.00     0.051 A 
ATOM     15  C   UNL     1      -6.531   0.104 -10.392  1.00  0.00     0.157 A 
ATOM     16  C   UNL     1      -4.518  -1.005  -9.604  1.00  0.00     0.062 A 
ATOM     17  C   UNL     1      -5.917  -0.904  -9.630  1.00  0.00     0.158 A 
BRANCH  15  18
ATOM     18  O   UNL     1      -7.918   0.233 -10.436  1.00  0.00    -0.504 OA
ATOM     19  H   UNL     1      -8.402   0.996  -9.977  1.00  0.00     0.293 HD
ENDBRANCH  15  18
BRANCH  17  20
ATOM     20  O   UNL     1      -6.698  -1.806  -8.908  1.00  0.00    -0.504 OA
ATOM     21  H   UNL     1      -6.908  -2.730  -9.265  1.00  0.00     0.293 HD
ENDBRANCH  17  20
ENDBRANCH   1  12
BRANCH   2  22
ATOM     22  O   UNL     1      -2.316  -2.589 -10.773  1.00  0.00    -0.502 OA
ATOM     23  H   UNL     1      -2.076  -3.270 -11.482  1.00  0.00     0.293 HD
ENDBRANCH   2  22
BRANCH   6  24
ATOM     24  O   UNL     1       2.817  -1.168 -10.809  1.00  0.00    -0.507 OA
ATOM     25  H   UNL     1       2.513  -2.016 -11.264  1.00  0.00     0.293 HD
ENDBRANCH   6  24
BRANCH   8  26
ATOM     26  O   UNL     1       2.435   3.400  -9.377  1.00  0.00    -0.508 OA
ATOM     27  H   UNL     1       2.772   3.574  -8.437  1.00  0.00     0.293 HD
ENDBRANCH   8  26
TORSDOF 6
ENDMDL
