MODEL 1
REMARK VINA RESULT:    -3.886      0.000      0.000
REMARK INTER + INTRA:         -11.577
REMARK INTER:                  -8.883
REMARK INTRA:                  -2.695
REMARK UNBOUND:                -2.695
REMARK SMILES CCCCCCCCCCCCCCCCCCCCCCCC(=O)[O-]
REMARK SMILES IDX 13 1 14 2 15 3 16 4 17 5 18 6 19 7 20 8 21 9 22 10 23 11
REMARK SMILES IDX 24 12 25 13 26 14 12 15 11 16 10 17 9 18 8 19 7 20 6 21 5 22
REMARK SMILES IDX 4 23 3 24 2 25 1 26
REMARK H PARENT
REMARK Flexibility Score: inf
ROOT
ATOM      1  C   UNL     1      -5.470   6.214  -6.116  1.00  0.00     0.000 C 
ENDROOT
BRANCH   1   2
ATOM      2  C   UNL     1      -6.685   6.369  -5.180  1.00  0.00     0.000 C 
BRANCH   2   3
ATOM      3  C   UNL     1      -7.096   7.820  -4.874  1.00  0.00     0.000 C 
BRANCH   3   4
ATOM      4  C   UNL     1      -8.561   8.112  -5.236  1.00  0.00     0.000 C 
BRANCH   4   5
ATOM      5  C   UNL     1      -8.700   9.054  -6.445  1.00  0.00     0.000 C 
BRANCH   5   6
ATOM      6  C   UNL     1      -9.281   8.408  -7.717  1.00  0.00     0.000 C 
BRANCH   6   7
ATOM      7  C   UNL     1      -8.193   7.918  -8.690  1.00  0.00     0.000 C 
BRANCH   7   8
ATOM      8  C   UNL     1      -8.079   6.382  -8.749  1.00  0.00     0.000 C 
BRANCH   8   9
ATOM      9  C   UNL     1      -9.079   5.688  -9.694  1.00  0.00     0.000 C 
BRANCH   9  10
ATOM     10  C   UNL     1     -10.046   4.744  -8.964  1.00  0.00     0.006 C 
BRANCH  10  11
ATOM     11  C   UNL     1      -9.705   4.648  -7.475  1.00  0.00     0.053 C 
BRANCH  11  12
ATOM     12  C   UNL     1      -9.471   3.223  -7.081  1.00  0.00     0.041 C 
ATOM     13  O   UNL     1      -9.262   2.925  -5.874  1.00  0.00    -0.550 OA
ATOM     14  O   UNL     1      -9.531   2.219  -8.039  1.00  0.00    -0.550 OA
ENDBRANCH  11  12
ENDBRANCH  10  11
ENDBRANCH   9  10
ENDBRANCH   8   9
ENDBRANCH   7   8
ENDBRANCH   6   7
ENDBRANCH   5   6
ENDBRANCH   4   5
ENDBRANCH   3   4
ENDBRANCH   2   3
ENDBRANCH   1   2
BRANCH   1  15
ATOM     15  C   UNL     1      -5.008   7.536  -6.766  1.00  0.00     0.000 C 
BRANCH  15  16
ATOM     16  C   UNL     1      -3.570   7.918  -6.370  1.00  0.00     0.000 C 
BRANCH  16  17
ATOM     17  C   UNL     1      -3.510   8.691  -5.035  1.00  0.00     0.000 C 
BRANCH  17  18
ATOM     18  C   UNL     1      -2.169   9.412  -4.793  1.00  0.00    -0.000 C 
BRANCH  18  19
ATOM     19  C   UNL     1      -0.924   8.508  -4.856  1.00  0.00    -0.000 C 
BRANCH  19  20
ATOM     20  C   UNL     1      -0.091   8.625  -6.150  1.00  0.00    -0.000 C 
BRANCH  20  21
ATOM     21  C   UNL     1       0.168  10.064  -6.635  1.00  0.00    -0.000 C 
BRANCH  21  22
ATOM     22  C   UNL     1       0.716  10.124  -8.068  1.00  0.00    -0.000 C 
BRANCH  22  23
ATOM     23  C   UNL     1       0.512   8.784  -8.790  1.00  0.00    -0.000 C 
BRANCH  23  24
ATOM     24  C   UNL     1       1.763   8.316  -9.555  1.00  0.00    -0.000 C 
BRANCH  24  25
ATOM     25  C   UNL     1       3.005   8.066  -8.679  1.00  0.00    -0.003 C 
ATOM     26  C   UNL     1       2.796   6.957  -7.649  1.00  0.00     0.004 C 
ENDBRANCH  24  25
ENDBRANCH  23  24
ENDBRANCH  22  23
ENDBRANCH  21  22
ENDBRANCH  20  21
ENDBRANCH  19  20
ENDBRANCH  18  19
ENDBRANCH  17  18
ENDBRANCH  16  17
ENDBRANCH  15  16
ENDBRANCH   1  15
TORSDOF 22
ENDMDL
MODEL 2
REMARK VINA RESULT:    -3.859      4.051      8.651
REMARK INTER + INTRA:         -11.517
REMARK INTER:                  -7.600
REMARK INTRA:                  -3.917
REMARK UNBOUND:                -2.695
REMARK SMILES CCCCCCCCCCCCCCCCCCCCCCCC(=O)[O-]
REMARK SMILES IDX 13 1 14 2 15 3 16 4 17 5 18 6 19 7 20 8 21 9 22 10 23 11
REMARK SMILES IDX 24 12 25 13 26 14 12 15 11 16 10 17 9 18 8 19 7 20 6 21 5 22
REMARK SMILES IDX 4 23 3 24 2 25 1 26
REMARK H PARENT
REMARK Flexibility Score: inf
ROOT
ATOM      1  C   UNL     1      -4.383   5.739  -8.143  1.00  0.00     0.000 C 
ENDROOT
BRANCH   1   2
ATOM      2  C   UNL     1      -5.830   6.233  -8.336  1.00  0.00     0.000 C 
BRANCH   2   3
ATOM      3  C   UNL     1      -6.001   7.383  -9.345  1.00  0.00     0.000 C 
BRANCH   3   4
ATOM      4  C   UNL     1      -4.747   8.264  -9.462  1.00  0.00     0.000 C 
BRANCH   4   5
ATOM      5  C   UNL     1      -4.802   9.504  -8.552  1.00  0.00     0.000 C 
BRANCH   5   6
ATOM      6  C   UNL     1      -3.438  10.006  -8.043  1.00  0.00     0.000 C 
BRANCH   6   7
ATOM      7  C   UNL     1      -2.366  10.049  -9.148  1.00  0.00     0.000 C 
BRANCH   7   8
ATOM      8  C   UNL     1      -1.040   9.383  -8.732  1.00  0.00     0.000 C 
BRANCH   8   9
ATOM      9  C   UNL     1      -0.907   9.074  -7.228  1.00  0.00     0.000 C 
BRANCH   9  10
ATOM     10  C   UNL     1       0.520   8.684  -6.815  1.00  0.00     0.006 C 
BRANCH  10  11
ATOM     11  C   UNL     1       1.481   8.765  -8.004  1.00  0.00     0.053 C 
BRANCH  11  12
ATOM     12  C   UNL     1       2.553   7.727  -7.885  1.00  0.00     0.041 C 
ATOM     13  O   UNL     1       3.440   7.627  -8.774  1.00  0.00    -0.550 OA
ATOM     14  O   UNL     1       2.600   6.903  -6.767  1.00  0.00    -0.550 OA
ENDBRANCH  11  12
ENDBRANCH  10  11
ENDBRANCH   9  10
ENDBRANCH   8   9
ENDBRANCH   7   8
ENDBRANCH   6   7
ENDBRANCH   5   6
ENDBRANCH   4   5
ENDBRANCH   3   4
ENDBRANCH   2   3
ENDBRANCH   1   2
BRANCH   1  15
ATOM     15  C   UNL     1      -3.808   6.017  -6.738  1.00  0.00     0.000 C 
BRANCH  15  16
ATOM     16  C   UNL     1      -4.816   6.726  -5.817  1.00  0.00     0.000 C 
BRANCH  16  17
ATOM     17  C   UNL     1      -4.238   8.009  -5.181  1.00  0.00     0.000 C 
BRANCH  17  18
ATOM     18  C   UNL     1      -5.310   9.008  -4.705  1.00  0.00    -0.000 C 
BRANCH  18  19
ATOM     19  C   UNL     1      -6.764   8.584  -4.988  1.00  0.00    -0.000 C 
BRANCH  19  20
ATOM     20  C   UNL     1      -7.460   9.348  -6.135  1.00  0.00    -0.000 C 
BRANCH  20  21
ATOM     21  C   UNL     1      -8.999   9.301  -6.113  1.00  0.00    -0.000 C 
BRANCH  21  22
ATOM     22  C   UNL     1      -9.617   9.230  -7.517  1.00  0.00    -0.000 C 
BRANCH  22  23
ATOM     23  C   UNL     1      -9.530   7.805  -8.083  1.00  0.00    -0.000 C 
BRANCH  23  24
ATOM     24  C   UNL     1      -9.983   6.730  -7.077  1.00  0.00    -0.000 C 
BRANCH  24  25
ATOM     25  C   UNL     1      -9.080   5.485  -7.006  1.00  0.00    -0.003 C 
ATOM     26  C   UNL     1      -8.367   5.339  -5.663  1.00  0.00     0.004 C 
ENDBRANCH  24  25
ENDBRANCH  23  24
ENDBRANCH  22  23
ENDBRANCH  21  22
ENDBRANCH  20  21
ENDBRANCH  19  20
ENDBRANCH  18  19
ENDBRANCH  17  18
ENDBRANCH  16  17
ENDBRANCH  15  16
ENDBRANCH   1  15
TORSDOF 22
ENDMDL
MODEL 3
REMARK VINA RESULT:    -3.599      4.027      9.335
REMARK INTER + INTRA:         -10.921
REMARK INTER:                  -7.779
REMARK INTRA:                  -3.142
REMARK UNBOUND:                -2.695
REMARK SMILES CCCCCCCCCCCCCCCCCCCCCCCC(=O)[O-]
REMARK SMILES IDX 13 1 14 2 15 3 16 4 17 5 18 6 19 7 20 8 21 9 22 10 23 11
REMARK SMILES IDX 24 12 25 13 26 14 12 15 11 16 10 17 9 18 8 19 7 20 6 21 5 22
REMARK SMILES IDX 4 23 3 24 2 25 1 26
REMARK H PARENT
REMARK Flexibility Score: inf
ROOT
ATOM      1  C   UNL     1      -4.207   5.951  -6.898  1.00  0.00     0.000 C 
ENDROOT
BRANCH   1   2
ATOM      2  C   UNL     1      -3.332   7.184  -6.601  1.00  0.00     0.000 C 
BRANCH   2   3
ATOM      3  C   UNL     1      -3.889   8.142  -5.533  1.00  0.00     0.000 C 
BRANCH   3   4
ATOM      4  C   UNL     1      -2.790   8.756  -4.653  1.00  0.00     0.000 C 
BRANCH   4   5
ATOM      5  C   UNL     1      -1.374   8.498  -5.200  1.00  0.00     0.000 C 
BRANCH   5   6
ATOM      6  C   UNL     1      -0.427   9.713  -5.168  1.00  0.00     0.000 C 
BRANCH   6   7
ATOM      7  C   UNL     1       0.066  10.125  -6.568  1.00  0.00     0.000 C 
BRANCH   7   8
ATOM      8  C   UNL     1      -0.317   9.113  -7.666  1.00  0.00     0.000 C 
BRANCH   8   9
ATOM      9  C   UNL     1       0.256   9.418  -9.064  1.00  0.00     0.000 C 
BRANCH   9  10
ATOM     10  C   UNL     1       1.236   8.346  -9.563  1.00  0.00     0.006 C 
BRANCH  10  11
ATOM     11  C   UNL     1       2.677   8.693  -9.177  1.00  0.00     0.053 C 
BRANCH  11  12
ATOM     12  C   UNL     1       3.345   7.519  -8.533  1.00  0.00     0.041 C 
ATOM     13  O   UNL     1       2.672   6.701  -7.849  1.00  0.00    -0.550 OA
ATOM     14  O   UNL     1       4.704   7.300  -8.728  1.00  0.00    -0.550 OA
ENDBRANCH  11  12
ENDBRANCH  10  11
ENDBRANCH   9  10
ENDBRANCH   8   9
ENDBRANCH   7   8
ENDBRANCH   6   7
ENDBRANCH   5   6
ENDBRANCH   4   5
ENDBRANCH   3   4
ENDBRANCH   2   3
ENDBRANCH   1   2
BRANCH   1  15
ATOM     15  C   UNL     1      -4.688   5.861  -8.363  1.00  0.00     0.000 C 
BRANCH  15  16
ATOM     16  C   UNL     1      -5.179   7.214  -8.907  1.00  0.00     0.000 C 
BRANCH  16  17
ATOM     17  C   UNL     1      -6.563   7.113  -9.584  1.00  0.00     0.000 C 
BRANCH  17  18
ATOM     18  C   UNL     1      -7.188   5.706  -9.520  1.00  0.00    -0.000 C 
BRANCH  18  19
ATOM     19  C   UNL     1      -8.707   5.680  -9.266  1.00  0.00    -0.000 C 
BRANCH  19  20
ATOM     20  C   UNL     1      -9.124   5.610  -7.781  1.00  0.00    -0.000 C 
BRANCH  20  21
ATOM     21  C   UNL     1      -7.983   5.306  -6.793  1.00  0.00    -0.000 C 
BRANCH  21  22
ATOM     22  C   UNL     1      -8.240   5.871  -5.388  1.00  0.00    -0.000 C 
BRANCH  22  23
ATOM     23  C   UNL     1      -8.617   7.358  -5.456  1.00  0.00    -0.000 C 
BRANCH  23  24
ATOM     24  C   UNL     1      -7.409   8.294  -5.266  1.00  0.00    -0.000 C 
BRANCH  24  25
ATOM     25  C   UNL     1      -7.235   9.361  -6.361  1.00  0.00    -0.003 C 
ATOM     26  C   UNL     1      -8.399   9.399  -7.350  1.00  0.00     0.004 C 
ENDBRANCH  24  25
ENDBRANCH  23  24
ENDBRANCH  22  23
ENDBRANCH  21  22
ENDBRANCH  20  21
ENDBRANCH  19  20
ENDBRANCH  18  19
ENDBRANCH  17  18
ENDBRANCH  16  17
ENDBRANCH  15  16
ENDBRANCH   1  15
TORSDOF 22
ENDMDL
MODEL 4
REMARK VINA RESULT:    -3.575      5.824     11.337
REMARK INTER + INTRA:         -10.867
REMARK INTER:                  -9.149
REMARK INTRA:                  -1.718
REMARK UNBOUND:                -2.695
REMARK SMILES CCCCCCCCCCCCCCCCCCCCCCCC(=O)[O-]
REMARK SMILES IDX 13 1 14 2 15 3 16 4 17 5 18 6 19 7 20 8 21 9 22 10 23 11
REMARK SMILES IDX 24 12 25 13 26 14 12 15 11 16 10 17 9 18 8 19 7 20 6 21 5 22
REMARK SMILES IDX 4 23 3 24 2 25 1 26
REMARK H PARENT
REMARK Flexibility Score: inf
ROOT
ATOM      1  C   UNL     1      -2.837   8.663  -4.567  1.00  0.00     0.000 C 
ENDROOT
BRANCH   1   2
ATOM      2  C   UNL     1      -1.327   8.804  -4.845  1.00  0.00     0.000 C 
BRANCH   2   3
ATOM      3  C   UNL     1      -0.872   8.350  -6.243  1.00  0.00     0.000 C 
BRANCH   3   4
ATOM      4  C   UNL     1       0.442   9.012  -6.685  1.00  0.00     0.000 C 
BRANCH   4   5
ATOM      5  C   UNL     1       0.639   8.984  -8.212  1.00  0.00     0.000 C 
BRANCH   5   6
ATOM      6  C   UNL     1       2.064   9.315  -8.695  1.00  0.00     0.000 C 
BRANCH   6   7
ATOM      7  C   UNL     1       2.944   8.063  -8.864  1.00  0.00     0.000 C 
BRANCH   7   8
ATOM      8  C   UNL     1       3.996   8.209  -9.982  1.00  0.00     0.000 C 
BRANCH   8   9
ATOM      9  C   UNL     1       5.293   7.404  -9.768  1.00  0.00     0.000 C 
BRANCH   9  10
ATOM     10  C   UNL     1       6.564   8.222 -10.039  1.00  0.00     0.006 C 
BRANCH  10  11
ATOM     11  C   UNL     1       7.822   7.390  -9.779  1.00  0.00     0.053 C 
BRANCH  11  12
ATOM     12  C   UNL     1       8.792   8.154  -8.932  1.00  0.00     0.041 C 
ATOM     13  O   UNL     1       9.970   8.349  -9.335  1.00  0.00    -0.550 OA
ATOM     14  O   UNL     1       8.380   8.692  -7.719  1.00  0.00    -0.550 OA
ENDBRANCH  11  12
ENDBRANCH  10  11
ENDBRANCH   9  10
ENDBRANCH   8   9
ENDBRANCH   7   8
ENDBRANCH   6   7
ENDBRANCH   5   6
ENDBRANCH   4   5
ENDBRANCH   3   4
ENDBRANCH   2   3
ENDBRANCH   1   2
BRANCH   1  15
ATOM     15  C   UNL     1      -3.395   9.717  -3.587  1.00  0.00     0.000 C 
BRANCH  15  16
ATOM     16  C   UNL     1      -4.887  10.012  -3.824  1.00  0.00     0.000 C 
BRANCH  16  17
ATOM     17  C   UNL     1      -5.514   9.079  -4.883  1.00  0.00     0.000 C 
BRANCH  17  18
ATOM     18  C   UNL     1      -6.191   9.826  -6.049  1.00  0.00    -0.000 C 
BRANCH  18  19
ATOM     19  C   UNL     1      -7.698  10.084  -5.868  1.00  0.00    -0.000 C 
BRANCH  19  20
ATOM     20  C   UNL     1      -8.618   9.341  -6.860  1.00  0.00    -0.000 C 
BRANCH  20  21
ATOM     21  C   UNL     1      -8.103   9.280  -8.310  1.00  0.00    -0.000 C 
BRANCH  21  22
ATOM     22  C   UNL     1      -8.056   7.851  -8.870  1.00  0.00    -0.000 C 
BRANCH  22  23
ATOM     23  C   UNL     1      -6.666   7.228  -8.668  1.00  0.00    -0.000 C 
BRANCH  23  24
ATOM     24  C   UNL     1      -6.557   6.409  -7.369  1.00  0.00    -0.000 C 
BRANCH  24  25
ATOM     25  C   UNL     1      -7.810   5.590  -7.009  1.00  0.00    -0.003 C 
ATOM     26  C   UNL     1      -8.363   5.921  -5.624  1.00  0.00     0.004 C 
ENDBRANCH  24  25
ENDBRANCH  23  24
ENDBRANCH  22  23
ENDBRANCH  21  22
ENDBRANCH  20  21
ENDBRANCH  19  20
ENDBRANCH  18  19
ENDBRANCH  17  18
ENDBRANCH  16  17
ENDBRANCH  15  16
ENDBRANCH   1  15
TORSDOF 22
ENDMDL
MODEL 5
REMARK VINA RESULT:    -3.568      2.111      3.118
REMARK INTER + INTRA:         -10.851
REMARK INTER:                  -7.930
REMARK INTRA:                  -2.921
REMARK UNBOUND:                -2.695
REMARK SMILES CCCCCCCCCCCCCCCCCCCCCCCC(=O)[O-]
REMARK SMILES IDX 13 1 14 2 15 3 16 4 17 5 18 6 19 7 20 8 21 9 22 10 23 11
REMARK SMILES IDX 24 12 25 13 26 14 12 15 11 16 10 17 9 18 8 19 7 20 6 21 5 22
REMARK SMILES IDX 4 23 3 24 2 25 1 26
REMARK H PARENT
REMARK Flexibility Score: inf
ROOT
ATOM      1  C   UNL     1      -6.003   6.409  -5.027  1.00  0.00     0.000 C 
ENDROOT
BRANCH   1   2
ATOM      2  C   UNL     1      -7.114   6.208  -6.076  1.00  0.00     0.000 C 
BRANCH   2   3
ATOM      3  C   UNL     1      -8.521   6.644  -5.634  1.00  0.00     0.000 C 
BRANCH   3   4
ATOM      4  C   UNL     1      -9.188   7.604  -6.631  1.00  0.00     0.000 C 
BRANCH   4   5
ATOM      5  C   UNL     1      -9.439   6.956  -8.005  1.00  0.00     0.000 C 
BRANCH   5   6
ATOM      6  C   UNL     1      -8.871   7.731  -9.209  1.00  0.00     0.000 C 
BRANCH   6   7
ATOM      7  C   UNL     1      -8.110   9.005  -8.796  1.00  0.00     0.000 C 
BRANCH   7   8
ATOM      8  C   UNL     1      -6.690   9.082  -9.392  1.00  0.00     0.000 C 
BRANCH   8   9
ATOM      9  C   UNL     1      -5.553   8.697  -8.425  1.00  0.00     0.000 C 
BRANCH   9  10
ATOM     10  C   UNL     1      -4.421   7.914  -9.105  1.00  0.00     0.006 C 
BRANCH  10  11
ATOM     11  C   UNL     1      -4.977   6.879 -10.086  1.00  0.00     0.053 C 
BRANCH  11  12
ATOM     12  C   UNL     1      -5.186   5.564  -9.401  1.00  0.00     0.041 C 
ATOM     13  O   UNL     1      -6.345   5.081  -9.294  1.00  0.00    -0.550 OA
ATOM     14  O   UNL     1      -4.094   4.849  -8.924  1.00  0.00    -0.550 OA
ENDBRANCH  11  12
ENDBRANCH  10  11
ENDBRANCH   9  10
ENDBRANCH   8   9
ENDBRANCH   7   8
ENDBRANCH   6   7
ENDBRANCH   5   6
ENDBRANCH   4   5
ENDBRANCH   3   4
ENDBRANCH   2   3
ENDBRANCH   1   2
BRANCH   1  15
ATOM     15  C   UNL     1      -4.609   6.676  -5.633  1.00  0.00     0.000 C 
BRANCH  15  16
ATOM     16  C   UNL     1      -4.009   8.014  -5.166  1.00  0.00     0.000 C 
BRANCH  16  17
ATOM     17  C   UNL     1      -2.594   8.259  -5.733  1.00  0.00     0.000 C 
BRANCH  17  18
ATOM     18  C   UNL     1      -2.342   9.714  -6.173  1.00  0.00    -0.000 C 
BRANCH  18  19
ATOM     19  C   UNL     1      -1.389   9.874  -7.373  1.00  0.00    -0.000 C 
BRANCH  19  20
ATOM     20  C   UNL     1       0.012   9.254  -7.188  1.00  0.00    -0.000 C 
BRANCH  20  21
ATOM     21  C   UNL     1       1.067   9.698  -8.219  1.00  0.00    -0.000 C 
BRANCH  21  22
ATOM     22  C   UNL     1       0.860   9.062  -9.601  1.00  0.00    -0.000 C 
BRANCH  22  23
ATOM     23  C   UNL     1       1.877   7.937  -9.844  1.00  0.00    -0.000 C 
BRANCH  23  24
ATOM     24  C   UNL     1       3.295   8.294  -9.363  1.00  0.00    -0.000 C 
BRANCH  24  25
ATOM     25  C   UNL     1       3.993   7.203  -8.531  1.00  0.00    -0.003 C 
ATOM     26  C   UNL     1       3.093   6.606  -7.451  1.00  0.00     0.004 C 
ENDBRANCH  24  25
ENDBRANCH  23  24
ENDBRANCH  22  23
ENDBRANCH  21  22
ENDBRANCH  20  21
ENDBRANCH  19  20
ENDBRANCH  18  19
ENDBRANCH  17  18
ENDBRANCH  16  17
ENDBRANCH  15  16
ENDBRANCH   1  15
TORSDOF 22
ENDMDL
MODEL 6
REMARK VINA RESULT:    -3.505      4.216      9.503
REMARK INTER + INTRA:         -10.707
REMARK INTER:                  -8.037
REMARK INTRA:                  -2.670
REMARK UNBOUND:                -2.695
REMARK SMILES CCCCCCCCCCCCCCCCCCCCCCCC(=O)[O-]
REMARK SMILES IDX 13 1 14 2 15 3 16 4 17 5 18 6 19 7 20 8 21 9 22 10 23 11
REMARK SMILES IDX 24 12 25 13 26 14 12 15 11 16 10 17 9 18 8 19 7 20 6 21 5 22
REMARK SMILES IDX 4 23 3 24 2 25 1 26
REMARK H PARENT
REMARK Flexibility Score: inf
ROOT
ATOM      1  C   UNL     1      -4.913   6.476  -5.681  1.00  0.00     0.000 C 
ENDROOT
BRANCH   1   2
ATOM      2  C   UNL     1      -3.755   6.393  -6.694  1.00  0.00     0.000 C 
BRANCH   2   3
ATOM      3  C   UNL     1      -3.537   7.656  -7.545  1.00  0.00     0.000 C 
BRANCH   3   4
ATOM      4  C   UNL     1      -2.808   8.771  -6.779  1.00  0.00     0.000 C 
BRANCH   4   5
ATOM      5  C   UNL     1      -1.704   8.234  -5.850  1.00  0.00     0.000 C 
BRANCH   5   6
ATOM      6  C   UNL     1      -0.402   9.057  -5.834  1.00  0.00     0.000 C 
BRANCH   6   7
ATOM      7  C   UNL     1       0.704   8.445  -6.713  1.00  0.00     0.000 C 
BRANCH   7   8
ATOM      8  C   UNL     1       1.080   9.330  -7.917  1.00  0.00     0.000 C 
BRANCH   8   9
ATOM      9  C   UNL     1       0.708   8.751  -9.296  1.00  0.00     0.000 C 
BRANCH   9  10
ATOM     10  C   UNL     1       1.903   8.130 -10.034  1.00  0.00     0.006 C 
BRANCH  10  11
ATOM     11  C   UNL     1       3.230   8.617  -9.444  1.00  0.00     0.053 C 
BRANCH  11  12
ATOM     12  C   UNL     1       4.029   7.463  -8.924  1.00  0.00     0.041 C 
ATOM     13  O   UNL     1       5.146   7.183  -9.436  1.00  0.00    -0.550 OA
ATOM     14  O   UNL     1       3.561   6.725  -7.843  1.00  0.00    -0.550 OA
ENDBRANCH  11  12
ENDBRANCH  10  11
ENDBRANCH   9  10
ENDBRANCH   8   9
ENDBRANCH   7   8
ENDBRANCH   6   7
ENDBRANCH   5   6
ENDBRANCH   4   5
ENDBRANCH   3   4
ENDBRANCH   2   3
ENDBRANCH   1   2
BRANCH   1  15
ATOM     15  C   UNL     1      -5.954   7.569  -6.007  1.00  0.00     0.000 C 
BRANCH  15  16
ATOM     16  C   UNL     1      -7.052   7.678  -4.933  1.00  0.00     0.000 C 
BRANCH  16  17
ATOM     17  C   UNL     1      -8.399   7.087  -5.401  1.00  0.00     0.000 C 
BRANCH  17  18
ATOM     18  C   UNL     1      -8.368   5.562  -5.623  1.00  0.00    -0.000 C 
BRANCH  18  19
ATOM     19  C   UNL     1      -8.817   5.101  -7.023  1.00  0.00    -0.000 C 
BRANCH  19  20
ATOM     20  C   UNL     1      -7.906   5.547  -8.187  1.00  0.00    -0.000 C 
BRANCH  20  21
ATOM     21  C   UNL     1      -8.605   6.365  -9.288  1.00  0.00    -0.000 C 
BRANCH  21  22
ATOM     22  C   UNL     1      -9.900   7.035  -8.807  1.00  0.00    -0.000 C 
BRANCH  22  23
ATOM     23  C   UNL     1      -9.791   8.565  -8.895  1.00  0.00    -0.000 C 
BRANCH  23  24
ATOM     24  C   UNL     1      -8.483   9.110  -8.292  1.00  0.00    -0.000 C 
BRANCH  24  25
ATOM     25  C   UNL     1      -7.634   9.966  -9.248  1.00  0.00    -0.003 C 
ATOM     26  C   UNL     1      -6.131   9.775  -9.049  1.00  0.00     0.004 C 
ENDBRANCH  24  25
ENDBRANCH  23  24
ENDBRANCH  22  23
ENDBRANCH  21  22
ENDBRANCH  20  21
ENDBRANCH  19  20
ENDBRANCH  18  19
ENDBRANCH  17  18
ENDBRANCH  16  17
ENDBRANCH  15  16
ENDBRANCH   1  15
TORSDOF 22
ENDMDL
MODEL 7
REMARK VINA RESULT:    -3.457      2.663      8.781
REMARK INTER + INTRA:         -10.599
REMARK INTER:                  -7.775
REMARK INTRA:                  -2.824
REMARK UNBOUND:                -2.695
REMARK SMILES CCCCCCCCCCCCCCCCCCCCCCCC(=O)[O-]
REMARK SMILES IDX 13 1 14 2 15 3 16 4 17 5 18 6 19 7 20 8 21 9 22 10 23 11
REMARK SMILES IDX 24 12 25 13 26 14 12 15 11 16 10 17 9 18 8 19 7 20 6 21 5 22
REMARK SMILES IDX 4 23 3 24 2 25 1 26
REMARK H PARENT
REMARK Flexibility Score: inf
ROOT
ATOM      1  C   UNL     1      -2.373   8.414  -9.066  1.00  0.00     0.000 C 
ENDROOT
BRANCH   1   2
ATOM      2  C   UNL     1      -1.530   9.443  -9.845  1.00  0.00     0.000 C 
BRANCH   2   3
ATOM      3  C   UNL     1      -0.045   9.078 -10.016  1.00  0.00     0.000 C 
BRANCH   3   4
ATOM      4  C   UNL     1       0.862   9.779  -8.992  1.00  0.00     0.000 C 
BRANCH   4   5
ATOM      5  C   UNL     1       1.704   8.790  -8.166  1.00  0.00     0.000 C 
BRANCH   5   6
ATOM      6  C   UNL     1       1.030   8.266  -6.884  1.00  0.00     0.000 C 
BRANCH   6   7
ATOM      7  C   UNL     1      -0.038   9.229  -6.333  1.00  0.00     0.000 C 
BRANCH   7   8
ATOM      8  C   UNL     1      -0.817   8.648  -5.136  1.00  0.00     0.000 C 
BRANCH   8   9
ATOM      9  C   UNL     1      -1.655   9.670  -4.343  1.00  0.00     0.000 C 
BRANCH   9  10
ATOM     10  C   UNL     1      -2.766   9.021  -3.505  1.00  0.00     0.006 C 
BRANCH  10  11
ATOM     11  C   UNL     1      -4.057   9.841  -3.570  1.00  0.00     0.053 C 
BRANCH  11  12
ATOM     12  C   UNL     1      -4.982   9.283  -4.606  1.00  0.00     0.041 C 
ATOM     13  O   UNL     1      -5.815  10.033  -5.183  1.00  0.00    -0.550 OA
ATOM     14  O   UNL     1      -4.892   7.945  -4.969  1.00  0.00    -0.550 OA
ENDBRANCH  11  12
ENDBRANCH  10  11
ENDBRANCH   9  10
ENDBRANCH   8   9
ENDBRANCH   7   8
ENDBRANCH   6   7
ENDBRANCH   5   6
ENDBRANCH   4   5
ENDBRANCH   3   4
ENDBRANCH   2   3
ENDBRANCH   1   2
BRANCH   1  15
ATOM     15  C   UNL     1      -3.315   9.041  -8.016  1.00  0.00     0.000 C 
BRANCH  15  16
ATOM     16  C   UNL     1      -4.426   9.894  -8.654  1.00  0.00     0.000 C 
BRANCH  16  17
ATOM     17  C   UNL     1      -5.153   9.159  -9.800  1.00  0.00     0.000 C 
BRANCH  17  18
ATOM     18  C   UNL     1      -6.546   8.624  -9.415  1.00  0.00    -0.000 C 
BRANCH  18  19
ATOM     19  C   UNL     1      -6.629   7.975  -8.020  1.00  0.00    -0.000 C 
BRANCH  19  20
ATOM     20  C   UNL     1      -6.432   6.444  -7.994  1.00  0.00    -0.000 C 
BRANCH  20  21
ATOM     21  C   UNL     1      -7.726   5.619  -7.873  1.00  0.00    -0.000 C 
BRANCH  21  22
ATOM     22  C   UNL     1      -8.789   6.296  -6.996  1.00  0.00    -0.000 C 
BRANCH  22  23
ATOM     23  C   UNL     1      -8.329   6.363  -5.531  1.00  0.00    -0.000 C 
BRANCH  23  24
ATOM     24  C   UNL     1      -8.547   7.748  -4.895  1.00  0.00    -0.000 C 
BRANCH  24  25
ATOM     25  C   UNL     1      -9.701   8.568  -5.502  1.00  0.00    -0.003 C 
ATOM     26  C   UNL     1      -9.218   9.772  -6.310  1.00  0.00     0.004 C 
ENDBRANCH  24  25
ENDBRANCH  23  24
ENDBRANCH  22  23
ENDBRANCH  21  22
ENDBRANCH  20  21
ENDBRANCH  19  20
ENDBRANCH  18  19
ENDBRANCH  17  18
ENDBRANCH  16  17
ENDBRANCH  15  16
ENDBRANCH   1  15
TORSDOF 22
ENDMDL
