MODEL 1
REMARK VINA RESULT:    -4.859      0.000      0.000
REMARK INTER + INTRA:          -5.649
REMARK INTER:                  -5.854
REMARK INTRA:                   0.205
REMARK UNBOUND:                 0.205
REMARK SMILES O=c1c(O)c(-c2ccc(O)c(O)c2)oc2cc(O)cc(O)c12
REMARK SMILES IDX 5 1 3 2 2 3 1 4 22 5 20 6 19 7 17 8 16 9 15 10 14 11 6 12
REMARK SMILES IDX 7 13 8 14 9 15 13 16 11 17 10 18 12 20 4 22 21 24 18 26
REMARK H PARENT 10 19 12 21 4 23 21 25 18 27
REMARK Flexibility Score: inf
ROOT
ATOM      1  C   UNL     1      11.454   5.817  -2.163  1.00  0.00     0.180 A 
ATOM      2  C   UNL     1      10.052   5.728  -2.120  1.00  0.00     0.208 A 
ATOM      3  C   UNL     1       9.299   6.906  -1.989  1.00  0.00     0.238 A 
ATOM      4  O   UNL     1       8.042   6.825  -2.005  1.00  0.00    -0.285 OA
ATOM      5  C   UNL     1       9.957   8.156  -1.887  1.00  0.00     0.111 A 
ATOM      6  C   UNL     1       9.295   9.408  -1.711  1.00  0.00     0.134 A 
ATOM      7  C   UNL     1      10.038  10.594  -1.754  1.00  0.00     0.093 A 
ATOM      8  C   UNL     1      11.424  10.570  -1.900  1.00  0.00     0.123 A 
ATOM      9  C   UNL     1      12.089   9.348  -2.014  1.00  0.00     0.094 A 
ATOM     10  C   UNL     1      11.371   8.149  -2.011  1.00  0.00     0.146 A 
ATOM     11  O   UNL     1      12.039   7.009  -2.131  1.00  0.00    -0.452 OA
ENDROOT
BRANCH   1  12
ATOM     12  C   UNL     1      12.317   4.619  -2.274  1.00  0.00     0.025 A 
ATOM     13  C   UNL     1      11.930   3.506  -3.041  1.00  0.00     0.016 A 
ATOM     14  C   UNL     1      12.749   2.377  -3.112  1.00  0.00     0.051 A 
ATOM     15  C   UNL     1      13.959   2.336  -2.408  1.00  0.00     0.157 A 
ATOM     16  C   UNL     1      13.521   4.564  -1.553  1.00  0.00     0.062 A 
ATOM     17  C   UNL     1      14.344   3.435  -1.622  1.00  0.00     0.158 A 
BRANCH  15  18
ATOM     18  O   UNL     1      14.775   1.208  -2.481  1.00  0.00    -0.504 OA
ATOM     19  H   UNL     1      15.128   0.865  -3.367  1.00  0.00     0.293 HD
ENDBRANCH  15  18
BRANCH  17  20
ATOM     20  O   UNL     1      15.539   3.423  -0.902  1.00  0.00    -0.504 OA
ATOM     21  H   UNL     1      16.274   4.101  -1.068  1.00  0.00     0.293 HD
ENDBRANCH  17  20
ENDBRANCH   1  12
BRANCH   2  22
ATOM     22  O   UNL     1       9.423   4.487  -2.244  1.00  0.00    -0.502 OA
ATOM     23  H   UNL     1       8.544   4.369  -2.735  1.00  0.00     0.293 HD
ENDBRANCH   2  22
BRANCH   6  24
ATOM     24  O   UNL     1       7.924   9.539  -1.466  1.00  0.00    -0.507 OA
ATOM     25  H   UNL     1       7.198   9.311  -2.127  1.00  0.00     0.293 HD
ENDBRANCH   6  24
BRANCH   8  26
ATOM     26  O   UNL     1      12.134  11.769  -1.923  1.00  0.00    -0.508 OA
ATOM     27  H   UNL     1      11.807  12.588  -1.425  1.00  0.00     0.293 HD
ENDBRANCH   8  26
TORSDOF 6
ENDMDL
MODEL 2
REMARK VINA RESULT:    -4.349      1.649      6.819
REMARK INTER + INTRA:          -5.034
REMARK INTER:                  -5.232
REMARK INTRA:                   0.198
REMARK UNBOUND:                 0.205
REMARK SMILES O=c1c(O)c(-c2ccc(O)c(O)c2)oc2cc(O)cc(O)c12
REMARK SMILES IDX 5 1 3 2 2 3 1 4 22 5 20 6 19 7 17 8 16 9 15 10 14 11 6 12
REMARK SMILES IDX 7 13 8 14 9 15 13 16 11 17 10 18 12 20 4 22 21 24 18 26
REMARK H PARENT 10 19 12 21 4 23 21 25 18 27
REMARK Flexibility Score: inf
ROOT
ATOM      1  C   UNL     1      10.852   9.302  -1.755  1.00  0.00     0.180 A 
ATOM      2  C   UNL     1       9.488   8.963  -1.766  1.00  0.00     0.208 A 
ATOM      3  C   UNL     1       9.123   7.612  -1.880  1.00  0.00     0.238 A 
ATOM      4  O   UNL     1       7.902   7.310  -1.835  1.00  0.00    -0.285 OA
ATOM      5  C   UNL     1      10.126   6.618  -1.996  1.00  0.00     0.111 A 
ATOM      6  C   UNL     1       9.870   5.223  -2.155  1.00  0.00     0.134 A 
ATOM      7  C   UNL     1      10.937   4.318  -2.128  1.00  0.00     0.093 A 
ATOM      8  C   UNL     1      12.253   4.760  -2.013  1.00  0.00     0.123 A 
ATOM      9  C   UNL     1      12.520   6.126  -1.916  1.00  0.00     0.094 A 
ATOM     10  C   UNL     1      11.474   7.052  -1.903  1.00  0.00     0.146 A 
ATOM     11  O   UNL     1      11.769   8.342  -1.799  1.00  0.00    -0.452 OA
ENDROOT
BRANCH   1  12
ATOM     12  C   UNL     1      11.314  10.706  -1.665  1.00  0.00     0.025 A 
ATOM     13  C   UNL     1      10.632  11.652  -0.882  1.00  0.00     0.016 A 
ATOM     14  C   UNL     1      11.073  12.977  -0.831  1.00  0.00     0.051 A 
ATOM     15  C   UNL     1      12.192  13.378  -1.569  1.00  0.00     0.157 A 
ATOM     16  C   UNL     1      12.424  11.118  -2.420  1.00  0.00     0.062 A 
ATOM     17  C   UNL     1      12.869  12.444  -2.371  1.00  0.00     0.158 A 
BRANCH  15  18
ATOM     18  O   UNL     1      12.631  14.701  -1.515  1.00  0.00    -0.504 OA
ATOM     19  H   UNL     1      12.048  15.438  -1.134  1.00  0.00     0.293 HD
ENDBRANCH  15  18
BRANCH  17  20
ATOM     20  O   UNL     1      13.983  12.813  -3.125  1.00  0.00    -0.504 OA
ATOM     21  H   UNL     1      14.639  12.131  -3.486  1.00  0.00     0.293 HD
ENDBRANCH  17  20
ENDBRANCH   1  12
BRANCH   2  22
ATOM     22  O   UNL     1       8.516   9.957  -1.630  1.00  0.00    -0.502 OA
ATOM     23  H   UNL     1       8.658  10.905  -1.959  1.00  0.00     0.293 HD
ENDBRANCH   2  22
BRANCH   6  24
ATOM     24  O   UNL     1       8.597   4.683  -2.370  1.00  0.00    -0.507 OA
ATOM     25  H   UNL     1       7.731   5.166  -2.192  1.00  0.00     0.293 HD
ENDBRANCH   6  24
BRANCH   8  26
ATOM     26  O   UNL     1      13.293   3.831  -2.005  1.00  0.00    -0.508 OA
ATOM     27  H   UNL     1      13.784   3.593  -1.151  1.00  0.00     0.293 HD
ENDBRANCH   8  26
TORSDOF 6
ENDMDL
MODEL 3
REMARK VINA RESULT:    -4.261      2.169      3.598
REMARK INTER + INTRA:          -4.927
REMARK INTER:                  -4.727
REMARK INTRA:                  -0.200
REMARK UNBOUND:                 0.205
REMARK SMILES O=c1c(O)c(-c2ccc(O)c(O)c2)oc2cc(O)cc(O)c12
REMARK SMILES IDX 5 1 3 2 2 3 1 4 22 5 20 6 19 7 17 8 16 9 15 10 14 11 6 12
REMARK SMILES IDX 7 13 8 14 9 15 13 16 11 17 10 18 12 20 4 22 21 24 18 26
REMARK H PARENT 10 19 12 21 4 23 21 25 18 27
REMARK Flexibility Score: inf
ROOT
ATOM      1  C   UNL     1      10.348   9.038  -1.629  1.00  0.00     0.180 A 
ATOM      2  C   UNL     1       9.018   9.242  -2.037  1.00  0.00     0.208 A 
ATOM      3  C   UNL     1       8.511  10.550  -2.072  1.00  0.00     0.238 A 
ATOM      4  O   UNL     1       7.336  10.732  -2.489  1.00  0.00    -0.285 OA
ATOM      5  C   UNL     1       9.333  11.636  -1.685  1.00  0.00     0.111 A 
ATOM      6  C   UNL     1       8.910  12.999  -1.645  1.00  0.00     0.134 A 
ATOM      7  C   UNL     1       9.845  14.004  -1.373  1.00  0.00     0.093 A 
ATOM      8  C   UNL     1      11.171  13.693  -1.076  1.00  0.00     0.123 A 
ATOM      9  C   UNL     1      11.582  12.360  -1.055  1.00  0.00     0.094 A 
ATOM     10  C   UNL     1      10.681  11.336  -1.357  1.00  0.00     0.146 A 
ATOM     11  O   UNL     1      11.115  10.082  -1.336  1.00  0.00    -0.452 OA
ENDROOT
BRANCH   1  12
ATOM     12  C   UNL     1      10.947   7.686  -1.541  1.00  0.00     0.025 A 
ATOM     13  C   UNL     1      10.484   6.739  -0.612  1.00  0.00     0.016 A 
ATOM     14  C   UNL     1      11.080   5.478  -0.530  1.00  0.00     0.051 A 
ATOM     15  C   UNL     1      12.154   5.149  -1.366  1.00  0.00     0.157 A 
ATOM     16  C   UNL     1      12.039   7.359  -2.362  1.00  0.00     0.062 A 
ATOM     17  C   UNL     1      12.637   6.096  -2.284  1.00  0.00     0.158 A 
BRANCH  15  18
ATOM     18  O   UNL     1      12.746   3.889  -1.284  1.00  0.00    -0.504 OA
ATOM     19  H   UNL     1      12.367   3.091  -1.780  1.00  0.00     0.293 HD
ENDBRANCH  15  18
BRANCH  17  20
ATOM     20  O   UNL     1      13.711   5.803  -3.125  1.00  0.00    -0.504 OA
ATOM     21  H   UNL     1      13.611   5.763  -4.132  1.00  0.00     0.293 HD
ENDBRANCH  17  20
ENDBRANCH   1  12
BRANCH   2  22
ATOM     22  O   UNL     1       8.232   8.158  -2.434  1.00  0.00    -0.502 OA
ATOM     23  H   UNL     1       7.984   7.991  -3.402  1.00  0.00     0.293 HD
ENDBRANCH   2  22
BRANCH   6  24
ATOM     24  O   UNL     1       7.587  13.412  -1.836  1.00  0.00    -0.507 OA
ATOM     25  H   UNL     1       6.848  12.824  -2.188  1.00  0.00     0.293 HD
ENDBRANCH   6  24
BRANCH   8  26
ATOM     26  O   UNL     1      12.072  14.719  -0.795  1.00  0.00    -0.508 OA
ATOM     27  H   UNL     1      12.520  14.797   0.110  1.00  0.00     0.293 HD
ENDBRANCH   8  26
TORSDOF 6
ENDMDL
MODEL 4
REMARK VINA RESULT:    -4.202      2.739      4.890
REMARK INTER + INTRA:          -4.857
REMARK INTER:                  -4.616
REMARK INTRA:                  -0.241
REMARK UNBOUND:                 0.205
REMARK SMILES O=c1c(O)c(-c2ccc(O)c(O)c2)oc2cc(O)cc(O)c12
REMARK SMILES IDX 5 1 3 2 2 3 1 4 22 5 20 6 19 7 17 8 16 9 15 10 14 11 6 12
REMARK SMILES IDX 7 13 8 14 9 15 13 16 11 17 10 18 12 20 4 22 21 24 18 26
REMARK H PARENT 10 19 12 21 4 23 21 25 18 27
REMARK Flexibility Score: inf
ROOT
ATOM      1  C   UNL     1      11.082   9.538  -2.052  1.00  0.00     0.180 A 
ATOM      2  C   UNL     1      12.345  10.033  -2.422  1.00  0.00     0.208 A 
ATOM      3  C   UNL     1      12.580  11.415  -2.356  1.00  0.00     0.238 A 
ATOM      4  O   UNL     1      13.729  11.847  -2.637  1.00  0.00    -0.285 OA
ATOM      5  C   UNL     1      11.546  12.287  -1.936  1.00  0.00     0.111 A 
ATOM      6  C   UNL     1      11.662  13.708  -1.869  1.00  0.00     0.134 A 
ATOM      7  C   UNL     1      10.619  14.460  -1.315  1.00  0.00     0.093 A 
ATOM      8  C   UNL     1       9.441  13.851  -0.886  1.00  0.00     0.123 A 
ATOM      9  C   UNL     1       9.294  12.468  -1.001  1.00  0.00     0.094 A 
ATOM     10  C   UNL     1      10.331  11.687  -1.516  1.00  0.00     0.146 A 
ATOM     11  O   UNL     1      10.155  10.374  -1.599  1.00  0.00    -0.452 OA
ENDROOT
BRANCH   1  12
ATOM     12  C   UNL     1      10.750   8.096  -2.119  1.00  0.00     0.025 A 
ATOM     13  C   UNL     1       9.874   7.591  -3.095  1.00  0.00     0.016 A 
ATOM     14  C   UNL     1       9.557   6.231  -3.125  1.00  0.00     0.051 A 
ATOM     15  C   UNL     1      10.099   5.358  -2.173  1.00  0.00     0.157 A 
ATOM     16  C   UNL     1      11.274   7.220  -1.154  1.00  0.00     0.062 A 
ATOM     17  C   UNL     1      10.959   5.857  -1.181  1.00  0.00     0.158 A 
BRANCH  15  18
ATOM     18  O   UNL     1       9.781   4.001  -2.206  1.00  0.00    -0.504 OA
ATOM     19  H   UNL     1      10.132   3.357  -1.507  1.00  0.00     0.293 HD
ENDBRANCH  15  18
BRANCH  17  20
ATOM     20  O   UNL     1      11.509   5.016  -0.214  1.00  0.00    -0.504 OA
ATOM     21  H   UNL     1      11.777   4.061  -0.421  1.00  0.00     0.293 HD
ENDBRANCH  17  20
ENDBRANCH   1  12
BRANCH   2  22
ATOM     22  O   UNL     1      13.357   9.153  -2.813  1.00  0.00    -0.502 OA
ATOM     23  H   UNL     1      14.147   9.447  -3.377  1.00  0.00     0.293 HD
ENDBRANCH   2  22
BRANCH   6  24
ATOM     24  O   UNL     1      12.759  14.426  -2.355  1.00  0.00    -0.507 OA
ATOM     25  H   UNL     1      13.630  14.013  -2.651  1.00  0.00     0.293 HD
ENDBRANCH   6  24
BRANCH   8  26
ATOM     26  O   UNL     1       8.417  14.633  -0.354  1.00  0.00    -0.508 OA
ATOM     27  H   UNL     1       7.576  14.215   0.027  1.00  0.00     0.293 HD
ENDBRANCH   8  26
TORSDOF 6
ENDMDL
MODEL 5
REMARK VINA RESULT:    -3.970      2.163      7.818
REMARK INTER + INTRA:          -4.577
REMARK INTER:                  -4.711
REMARK INTRA:                   0.134
REMARK UNBOUND:                 0.205
REMARK SMILES O=c1c(O)c(-c2ccc(O)c(O)c2)oc2cc(O)cc(O)c12
REMARK SMILES IDX 5 1 3 2 2 3 1 4 22 5 20 6 19 7 17 8 16 9 15 10 14 11 6 12
REMARK SMILES IDX 7 13 8 14 9 15 13 16 11 17 10 18 12 20 4 22 21 24 18 26
REMARK H PARENT 10 19 12 21 4 23 21 25 18 27
REMARK Flexibility Score: inf
ROOT
ATOM      1  C   UNL     1      10.793   9.624  -2.002  1.00  0.00     0.180 A 
ATOM      2  C   UNL     1      12.152   9.532  -2.352  1.00  0.00     0.208 A 
ATOM      3  C   UNL     1      12.685   8.277  -2.685  1.00  0.00     0.238 A 
ATOM      4  O   UNL     1      13.889   8.208  -3.049  1.00  0.00    -0.285 OA
ATOM      5  C   UNL     1      11.858   7.127  -2.650  1.00  0.00     0.111 A 
ATOM      6  C   UNL     1      12.303   5.800  -2.930  1.00  0.00     0.134 A 
ATOM      7  C   UNL     1      11.370   4.759  -2.993  1.00  0.00     0.093 A 
ATOM      8  C   UNL     1      10.021   4.982  -2.723  1.00  0.00     0.123 A 
ATOM      9  C   UNL     1       9.585   6.265  -2.389  1.00  0.00     0.094 A 
ATOM     10  C   UNL     1      10.486   7.333  -2.354  1.00  0.00     0.146 A 
ATOM     11  O   UNL     1      10.028   8.539  -2.043  1.00  0.00    -0.452 OA
ENDROOT
BRANCH   1  12
ATOM     12  C   UNL     1      10.165  10.907  -1.614  1.00  0.00     0.025 A 
ATOM     13  C   UNL     1      10.853  11.854  -0.835  1.00  0.00     0.016 A 
ATOM     14  C   UNL     1      10.231  13.048  -0.460  1.00  0.00     0.051 A 
ATOM     15  C   UNL     1       8.911  13.308  -0.847  1.00  0.00     0.157 A 
ATOM     16  C   UNL     1       8.834  11.164  -1.981  1.00  0.00     0.062 A 
ATOM     17  C   UNL     1       8.208  12.359  -1.609  1.00  0.00     0.158 A 
BRANCH  15  18
ATOM     18  O   UNL     1       8.294  14.501  -0.473  1.00  0.00    -0.504 OA
ATOM     19  H   UNL     1       7.513  14.515   0.174  1.00  0.00     0.293 HD
ENDBRANCH  15  18
BRANCH  17  20
ATOM     20  O   UNL     1       6.889  12.585  -2.003  1.00  0.00    -0.504 OA
ATOM     21  H   UNL     1       6.361  13.386  -1.679  1.00  0.00     0.293 HD
ENDBRANCH  17  20
ENDBRANCH   1  12
BRANCH   2  22
ATOM     22  O   UNL     1      12.944  10.682  -2.400  1.00  0.00    -0.502 OA
ATOM     23  H   UNL     1      12.599  11.566  -2.756  1.00  0.00     0.293 HD
ENDBRANCH   2  22
BRANCH   6  24
ATOM     24  O   UNL     1      13.643   5.451  -3.125  1.00  0.00    -0.507 OA
ATOM     25  H   UNL     1      14.158   5.602  -3.978  1.00  0.00     0.293 HD
ENDBRANCH   6  24
BRANCH   8  26
ATOM     26  O   UNL     1       9.122   3.919  -2.779  1.00  0.00    -0.508 OA
ATOM     27  H   UNL     1       9.433   2.958  -2.701  1.00  0.00     0.293 HD
ENDBRANCH   8  26
TORSDOF 6
ENDMDL
MODEL 6
REMARK VINA RESULT:    -3.931      2.459      4.471
REMARK INTER + INTRA:          -4.530
REMARK INTER:                  -4.478
REMARK INTRA:                  -0.052
REMARK UNBOUND:                 0.205
REMARK SMILES O=c1c(O)c(-c2ccc(O)c(O)c2)oc2cc(O)cc(O)c12
REMARK SMILES IDX 5 1 3 2 2 3 1 4 22 5 20 6 19 7 17 8 16 9 15 10 14 11 6 12
REMARK SMILES IDX 7 13 8 14 9 15 13 16 11 17 10 18 12 20 4 22 21 24 18 26
REMARK H PARENT 10 19 12 21 4 23 21 25 18 27
REMARK Flexibility Score: inf
ROOT
ATOM      1  C   UNL     1      11.197   9.388  -2.188  1.00  0.00     0.180 A 
ATOM      2  C   UNL     1      10.226  10.347  -1.851  1.00  0.00     0.208 A 
ATOM      3  C   UNL     1      10.601  11.698  -1.778  1.00  0.00     0.238 A 
ATOM      4  O   UNL     1       9.715  12.558  -1.529  1.00  0.00    -0.285 OA
ATOM      5  C   UNL     1      11.944  12.072  -2.028  1.00  0.00     0.111 A 
ATOM      6  C   UNL     1      12.443  13.406  -1.943  1.00  0.00     0.134 A 
ATOM      7  C   UNL     1      13.758  13.678  -2.339  1.00  0.00     0.093 A 
ATOM      8  C   UNL     1      14.611  12.657  -2.753  1.00  0.00     0.123 A 
ATOM      9  C   UNL     1      14.151  11.339  -2.783  1.00  0.00     0.094 A 
ATOM     10  C   UNL     1      12.833  11.041  -2.429  1.00  0.00     0.146 A 
ATOM     11  O   UNL     1      12.432   9.777  -2.481  1.00  0.00    -0.452 OA
ENDROOT
BRANCH   1  12
ATOM     12  C   UNL     1      10.885   7.942  -2.259  1.00  0.00     0.025 A 
ATOM     13  C   UNL     1       9.852   7.455  -3.080  1.00  0.00     0.016 A 
ATOM     14  C   UNL     1       9.560   6.090  -3.113  1.00  0.00     0.051 A 
ATOM     15  C   UNL     1      10.285   5.192  -2.319  1.00  0.00     0.157 A 
ATOM     16  C   UNL     1      11.594   7.041  -1.449  1.00  0.00     0.062 A 
ATOM     17  C   UNL     1      11.305   5.672  -1.481  1.00  0.00     0.158 A 
BRANCH  15  18
ATOM     18  O   UNL     1       9.991   3.830  -2.355  1.00  0.00    -0.504 OA
ATOM     19  H   UNL     1       9.154   3.455  -1.923  1.00  0.00     0.293 HD
ENDBRANCH  15  18
BRANCH  17  20
ATOM     20  O   UNL     1      12.040   4.805  -0.671  1.00  0.00    -0.504 OA
ATOM     21  H   UNL     1      11.614   4.288   0.089  1.00  0.00     0.293 HD
ENDBRANCH  17  20
ENDBRANCH   1  12
BRANCH   2  22
ATOM     22  O   UNL     1       8.902   9.958  -1.629  1.00  0.00    -0.502 OA
ATOM     23  H   UNL     1       8.329  10.370  -0.901  1.00  0.00     0.293 HD
ENDBRANCH   2  22
BRANCH   6  24
ATOM     24  O   UNL     1      11.701  14.487  -1.455  1.00  0.00    -0.507 OA
ATOM     25  H   UNL     1      11.292  15.209  -2.028  1.00  0.00     0.293 HD
ENDBRANCH   6  24
BRANCH   8  26
ATOM     26  O   UNL     1      15.919  12.961  -3.125  1.00  0.00    -0.508 OA
ATOM     27  H   UNL     1      16.645  12.255  -3.135  1.00  0.00     0.293 HD
ENDBRANCH   8  26
TORSDOF 6
ENDMDL
MODEL 7
REMARK VINA RESULT:    -3.927      3.785      8.800
REMARK INTER + INTRA:          -4.525
REMARK INTER:                  -4.460
REMARK INTRA:                  -0.065
REMARK UNBOUND:                 0.205
REMARK SMILES O=c1c(O)c(-c2ccc(O)c(O)c2)oc2cc(O)cc(O)c12
REMARK SMILES IDX 5 1 3 2 2 3 1 4 22 5 20 6 19 7 17 8 16 9 15 10 14 11 6 12
REMARK SMILES IDX 7 13 8 14 9 15 13 16 11 17 10 18 12 20 4 22 21 24 18 26
REMARK H PARENT 10 19 12 21 4 23 21 25 18 27
REMARK Flexibility Score: inf
ROOT
ATOM      1  C   UNL     1      11.889  13.243  -1.584  1.00  0.00     0.180 A 
ATOM      2  C   UNL     1      10.509  13.412  -1.375  1.00  0.00     0.208 A 
ATOM      3  C   UNL     1       9.673  12.284  -1.410  1.00  0.00     0.238 A 
ATOM      4  O   UNL     1       8.446  12.434  -1.170  1.00  0.00    -0.285 OA
ATOM      5  C   UNL     1      10.224  11.005  -1.667  1.00  0.00     0.111 A 
ATOM      6  C   UNL     1       9.466   9.800  -1.764  1.00  0.00     0.134 A 
ATOM      7  C   UNL     1      10.130   8.575  -1.891  1.00  0.00     0.093 A 
ATOM      8  C   UNL     1      11.519   8.515  -1.991  1.00  0.00     0.123 A 
ATOM      9  C   UNL     1      12.267   9.692  -1.957  1.00  0.00     0.094 A 
ATOM     10  C   UNL     1      11.636  10.928  -1.794  1.00  0.00     0.146 A 
ATOM     11  O   UNL     1      12.385  12.023  -1.756  1.00  0.00    -0.452 OA
ENDROOT
BRANCH   1  12
ATOM     12  C   UNL     1      12.831  14.386  -1.588  1.00  0.00     0.025 A 
ATOM     13  C   UNL     1      13.662  14.646  -2.691  1.00  0.00     0.016 A 
ATOM     14  C   UNL     1      14.560  15.716  -2.663  1.00  0.00     0.051 A 
ATOM     15  C   UNL     1      14.650  16.534  -1.529  1.00  0.00     0.157 A 
ATOM     16  C   UNL     1      12.940  15.196  -0.446  1.00  0.00     0.062 A 
ATOM     17  C   UNL     1      13.837  16.270  -0.415  1.00  0.00     0.158 A 
BRANCH  15  18
ATOM     18  O   UNL     1      15.546  17.602  -1.505  1.00  0.00    -0.504 OA
ATOM     19  H   UNL     1      16.373  17.614  -2.090  1.00  0.00     0.293 HD
ENDBRANCH  15  18
BRANCH  17  20
ATOM     20  O   UNL     1      13.908  17.060   0.733  1.00  0.00    -0.504 OA
ATOM     21  H   UNL     1      14.787  17.262   1.194  1.00  0.00     0.293 HD
ENDBRANCH  17  20
ENDBRANCH   1  12
BRANCH   2  22
ATOM     22  O   UNL     1       9.990  14.680  -1.103  1.00  0.00    -0.502 OA
ATOM     23  H   UNL     1       9.496  14.892  -0.243  1.00  0.00     0.293 HD
ENDBRANCH   2  22
BRANCH   6  24
ATOM     24  O   UNL     1       8.068   9.756  -1.768  1.00  0.00    -0.507 OA
ATOM     25  H   UNL     1       7.469  10.544  -1.961  1.00  0.00     0.293 HD
ENDBRANCH   6  24
BRANCH   8  26
ATOM     26  O   UNL     1      12.146   7.278  -2.132  1.00  0.00    -0.508 OA
ATOM     27  H   UNL     1      12.120   6.769  -3.007  1.00  0.00     0.293 HD
ENDBRANCH   8  26
TORSDOF 6
ENDMDL
MODEL 8
REMARK VINA RESULT:    -3.873      3.040      5.357
REMARK INTER + INTRA:          -4.460
REMARK INTER:                  -4.790
REMARK INTRA:                   0.330
REMARK UNBOUND:                 0.205
REMARK SMILES O=c1c(O)c(-c2ccc(O)c(O)c2)oc2cc(O)cc(O)c12
REMARK SMILES IDX 5 1 3 2 2 3 1 4 22 5 20 6 19 7 17 8 16 9 15 10 14 11 6 12
REMARK SMILES IDX 7 13 8 14 9 15 13 16 11 17 10 18 12 20 4 22 21 24 18 26
REMARK H PARENT 10 19 12 21 4 23 21 25 18 27
REMARK Flexibility Score: inf
ROOT
ATOM      1  C   UNL     1      10.800  11.039  -1.706  1.00  0.00     0.180 A 
ATOM      2  C   UNL     1       9.407  11.212  -1.625  1.00  0.00     0.208 A 
ATOM      3  C   UNL     1       8.895  12.494  -1.367  1.00  0.00     0.238 A 
ATOM      4  O   UNL     1       7.645  12.652  -1.348  1.00  0.00    -0.285 OA
ATOM      5  C   UNL     1       9.780  13.583  -1.180  1.00  0.00     0.111 A 
ATOM      6  C   UNL     1       9.371  14.916  -0.875  1.00  0.00     0.134 A 
ATOM      7  C   UNL     1      10.326  15.940  -0.841  1.00  0.00     0.093 A 
ATOM      8  C   UNL     1      11.679  15.669  -1.035  1.00  0.00     0.123 A 
ATOM      9  C   UNL     1      12.097  14.360  -1.275  1.00  0.00     0.094 A 
ATOM     10  C   UNL     1      11.164  13.322  -1.351  1.00  0.00     0.146 A 
ATOM     11  O   UNL     1      11.602  12.092  -1.592  1.00  0.00    -0.452 OA
ENDROOT
BRANCH   1  12
ATOM     12  C   UNL     1      11.417   9.715  -1.949  1.00  0.00     0.025 A 
ATOM     13  C   UNL     1      10.730   8.524  -1.660  1.00  0.00     0.016 A 
ATOM     14  C   UNL     1      11.341   7.285  -1.875  1.00  0.00     0.051 A 
ATOM     15  C   UNL     1      12.650   7.220  -2.368  1.00  0.00     0.157 A 
ATOM     16  C   UNL     1      12.737   9.644  -2.423  1.00  0.00     0.062 A 
ATOM     17  C   UNL     1      13.352   8.406  -2.641  1.00  0.00     0.158 A 
BRANCH  15  18
ATOM     18  O   UNL     1      13.257   5.983  -2.582  1.00  0.00    -0.504 OA
ATOM     19  H   UNL     1      12.712   5.152  -2.785  1.00  0.00     0.293 HD
ENDBRANCH  15  18
BRANCH  17  20
ATOM     20  O   UNL     1      14.660   8.375  -3.125  1.00  0.00    -0.504 OA
ATOM     21  H   UNL     1      15.024   7.581  -3.639  1.00  0.00     0.293 HD
ENDBRANCH  17  20
ENDBRANCH   1  12
BRANCH   2  22
ATOM     22  O   UNL     1       8.552  10.128  -1.833  1.00  0.00    -0.502 OA
ATOM     23  H   UNL     1       8.742   9.410  -2.523  1.00  0.00     0.293 HD
ENDBRANCH   2  22
BRANCH   6  24
ATOM     24  O   UNL     1       8.055  15.279  -0.573  1.00  0.00    -0.507 OA
ATOM     25  H   UNL     1       7.553  16.037  -1.011  1.00  0.00     0.293 HD
ENDBRANCH   6  24
BRANCH   8  26
ATOM     26  O   UNL     1      12.604  16.711  -0.978  1.00  0.00    -0.508 OA
ATOM     27  H   UNL     1      12.697  17.292  -0.154  1.00  0.00     0.293 HD
ENDBRANCH   8  26
TORSDOF 6
ENDMDL
