MODEL 1
REMARK VINA RESULT:    -5.568      0.000      0.000
REMARK INTER + INTRA:         -13.314
REMARK INTER:                 -10.776
REMARK INTRA:                  -2.538
REMARK UNBOUND:                -2.538
REMARK SMILES CCCCCCCCCCCCCCCCCC(=O)[O-]
REMARK SMILES IDX 10 1 11 2 12 3 13 4 14 5 15 6 16 7 17 8 18 9 19 10 20 11
REMARK SMILES IDX 9 12 8 13 7 14 6 15 5 16 4 17 3 18 2 19 1 20
REMARK H PARENT
REMARK Flexibility Score: inf
ROOT
ATOM      1  C   UNL     1      15.537  -5.100   9.639  1.00  0.00     0.000 C 
ENDROOT
BRANCH   1   2
ATOM      2  C   UNL     1      14.379  -6.007   9.179  1.00  0.00     0.000 C 
BRANCH   2   3
ATOM      3  C   UNL     1      12.999  -5.638   9.750  1.00  0.00     0.000 C 
BRANCH   3   4
ATOM      4  C   UNL     1      13.031  -4.368  10.615  1.00  0.00     0.000 C 
BRANCH   4   5
ATOM      5  C   UNL     1      12.059  -4.486  11.798  1.00  0.00     0.000 C 
BRANCH   5   6
ATOM      6  C   UNL     1      12.621  -3.873  13.090  1.00  0.00     0.000 C 
BRANCH   6   7
ATOM      7  C   UNL     1      13.786  -2.903  12.828  1.00  0.00     0.006 C 
BRANCH   7   8
ATOM      8  C   UNL     1      13.336  -1.436  12.863  1.00  0.00     0.053 C 
BRANCH   8   9
ATOM      9  C   UNL     1      14.194  -0.568  11.993  1.00  0.00     0.041 C 
ATOM     10  O   UNL     1      15.449  -0.663  12.046  1.00  0.00    -0.550 OA
ATOM     11  O   UNL     1      13.608   0.323  11.103  1.00  0.00    -0.550 OA
ENDBRANCH   8   9
ENDBRANCH   7   8
ENDBRANCH   6   7
ENDBRANCH   5   6
ENDBRANCH   4   5
ENDBRANCH   3   4
ENDBRANCH   2   3
ENDBRANCH   1   2
BRANCH   1  12
ATOM     12  C   UNL     1      16.523  -5.747  10.632  1.00  0.00     0.000 C 
BRANCH  12  13
ATOM     13  C   UNL     1      16.183  -5.534  12.118  1.00  0.00    -0.000 C 
BRANCH  13  14
ATOM     14  C   UNL     1      15.973  -6.852  12.878  1.00  0.00    -0.000 C 
BRANCH  14  15
ATOM     15  C   UNL     1      14.660  -6.823  13.675  1.00  0.00    -0.000 C 
BRANCH  15  16
ATOM     16  C   UNL     1      14.830  -7.332  15.115  1.00  0.00    -0.000 C 
BRANCH  16  17
ATOM     17  C   UNL     1      14.542  -6.248  16.166  1.00  0.00    -0.000 C 
BRANCH  17  18
ATOM     18  C   UNL     1      15.598  -5.134  16.105  1.00  0.00    -0.000 C 
BRANCH  18  19
ATOM     19  C   UNL     1      14.974  -3.729  16.095  1.00  0.00    -0.003 C 
ATOM     20  C   UNL     1      13.529  -3.720  16.592  1.00  0.00     0.004 C 
ENDBRANCH  18  19
ENDBRANCH  17  18
ENDBRANCH  16  17
ENDBRANCH  15  16
ENDBRANCH  14  15
ENDBRANCH  13  14
ENDBRANCH  12  13
ENDBRANCH   1  12
TORSDOF 16
ENDMDL
MODEL 2
REMARK VINA RESULT:    -5.485      2.232      4.634
REMARK INTER + INTRA:         -13.154
REMARK INTER:                 -10.441
REMARK INTRA:                  -2.713
REMARK UNBOUND:                -2.538
REMARK SMILES CCCCCCCCCCCCCCCCCC(=O)[O-]
REMARK SMILES IDX 10 1 11 2 12 3 13 4 14 5 15 6 16 7 17 8 18 9 19 10 20 11
REMARK SMILES IDX 9 12 8 13 7 14 6 15 5 16 4 17 3 18 2 19 1 20
REMARK H PARENT
REMARK Flexibility Score: inf
ROOT
ATOM      1  C   UNL     1      16.358  -5.428  11.794  1.00  0.00     0.000 C 
ENDROOT
BRANCH   1   2
ATOM      2  C   UNL     1      16.434  -6.684  12.683  1.00  0.00     0.000 C 
BRANCH   2   3
ATOM      3  C   UNL     1      15.122  -7.055  13.396  1.00  0.00     0.000 C 
BRANCH   3   4
ATOM      4  C   UNL     1      15.353  -7.721  14.762  1.00  0.00     0.000 C 
BRANCH   4   5
ATOM      5  C   UNL     1      15.349  -6.676  15.888  1.00  0.00     0.000 C 
BRANCH   5   6
ATOM      6  C   UNL     1      16.763  -6.205  16.263  1.00  0.00     0.000 C 
BRANCH   6   7
ATOM      7  C   UNL     1      16.898  -4.673  16.259  1.00  0.00     0.006 C 
BRANCH   7   8
ATOM      8  C   UNL     1      17.760  -4.171  15.093  1.00  0.00     0.053 C 
BRANCH   8   9
ATOM      9  C   UNL     1      18.707  -3.092  15.522  1.00  0.00     0.041 C 
ATOM     10  O   UNL     1      19.224  -2.325  14.666  1.00  0.00    -0.550 OA
ATOM     11  O   UNL     1      18.995  -2.913  16.869  1.00  0.00    -0.550 OA
ENDBRANCH   8   9
ENDBRANCH   7   8
ENDBRANCH   6   7
ENDBRANCH   5   6
ENDBRANCH   4   5
ENDBRANCH   3   4
ENDBRANCH   2   3
ENDBRANCH   1   2
BRANCH   1  12
ATOM     12  C   UNL     1      16.297  -5.700  10.277  1.00  0.00     0.000 C 
BRANCH  12  13
ATOM     13  C   UNL     1      15.012  -5.216   9.582  1.00  0.00    -0.000 C 
BRANCH  13  14
ATOM     14  C   UNL     1      13.740  -5.840  10.176  1.00  0.00    -0.000 C 
BRANCH  14  15
ATOM     15  C   UNL     1      12.736  -4.754  10.587  1.00  0.00    -0.000 C 
BRANCH  15  16
ATOM     16  C   UNL     1      12.620  -4.601  12.112  1.00  0.00    -0.000 C 
BRANCH  16  17
ATOM     17  C   UNL     1      13.365  -3.366  12.644  1.00  0.00    -0.000 C 
BRANCH  17  18
ATOM     18  C   UNL     1      13.997  -3.656  14.013  1.00  0.00    -0.000 C 
BRANCH  18  19
ATOM     19  C   UNL     1      13.279  -2.927  15.161  1.00  0.00    -0.003 C 
ATOM     20  C   UNL     1      13.279  -3.728  16.462  1.00  0.00     0.004 C 
ENDBRANCH  18  19
ENDBRANCH  17  18
ENDBRANCH  16  17
ENDBRANCH  15  16
ENDBRANCH  14  15
ENDBRANCH  13  14
ENDBRANCH  12  13
ENDBRANCH   1  12
TORSDOF 16
ENDMDL
MODEL 3
REMARK VINA RESULT:    -5.464      2.725      5.886
REMARK INTER + INTRA:         -13.114
REMARK INTER:                 -10.335
REMARK INTRA:                  -2.779
REMARK UNBOUND:                -2.538
REMARK SMILES CCCCCCCCCCCCCCCCCC(=O)[O-]
REMARK SMILES IDX 10 1 11 2 12 3 13 4 14 5 15 6 16 7 17 8 18 9 19 10 20 11
REMARK SMILES IDX 9 12 8 13 7 14 6 15 5 16 4 17 3 18 2 19 1 20
REMARK H PARENT
REMARK Flexibility Score: inf
ROOT
ATOM      1  C   UNL     1      14.319  -3.344  15.315  1.00  0.00     0.000 C 
ENDROOT
BRANCH   1   2
ATOM      2  C   UNL     1      14.444  -3.600  16.830  1.00  0.00     0.000 C 
BRANCH   2   3
ATOM      3  C   UNL     1      15.503  -2.744  17.547  1.00  0.00     0.000 C 
BRANCH   3   4
ATOM      4  C   UNL     1      16.920  -2.960  16.991  1.00  0.00     0.000 C 
BRANCH   4   5
ATOM      5  C   UNL     1      17.302  -4.447  17.031  1.00  0.00     0.000 C 
BRANCH   5   6
ATOM      6  C   UNL     1      17.990  -4.916  15.739  1.00  0.00     0.000 C 
BRANCH   6   7
ATOM      7  C   UNL     1      18.074  -3.807  14.676  1.00  0.00     0.006 C 
BRANCH   7   8
ATOM      8  C   UNL     1      17.449  -4.235  13.342  1.00  0.00     0.053 C 
BRANCH   8   9
ATOM      9  C   UNL     1      18.375  -5.100  12.542  1.00  0.00     0.041 C 
ATOM     10  O   UNL     1      17.911  -5.951  11.738  1.00  0.00    -0.550 OA
ATOM     11  O   UNL     1      19.750  -4.945  12.662  1.00  0.00    -0.550 OA
ENDBRANCH   8   9
ENDBRANCH   7   8
ENDBRANCH   6   7
ENDBRANCH   5   6
ENDBRANCH   4   5
ENDBRANCH   3   4
ENDBRANCH   2   3
ENDBRANCH   1   2
BRANCH   1  12
ATOM     12  C   UNL     1      12.876  -3.189  14.792  1.00  0.00     0.000 C 
BRANCH  12  13
ATOM     13  C   UNL     1      12.719  -2.239  13.592  1.00  0.00    -0.000 C 
BRANCH  13  14
ATOM     14  C   UNL     1      12.294  -2.966  12.307  1.00  0.00    -0.000 C 
BRANCH  14  15
ATOM     15  C   UNL     1      12.230  -4.484  12.530  1.00  0.00    -0.000 C 
BRANCH  15  16
ATOM     16  C   UNL     1      13.127  -5.264  11.556  1.00  0.00    -0.000 C 
BRANCH  16  17
ATOM     17  C   UNL     1      14.363  -5.869  12.241  1.00  0.00    -0.000 C 
BRANCH  17  18
ATOM     18  C   UNL     1      13.963  -6.638  13.510  1.00  0.00    -0.000 C 
BRANCH  18  19
ATOM     19  C   UNL     1      15.171  -6.984  14.395  1.00  0.00    -0.003 C 
ATOM     20  C   UNL     1      14.786  -7.210  15.857  1.00  0.00     0.004 C 
ENDBRANCH  18  19
ENDBRANCH  17  18
ENDBRANCH  16  17
ENDBRANCH  15  16
ENDBRANCH  14  15
ENDBRANCH  13  14
ENDBRANCH  12  13
ENDBRANCH   1  12
TORSDOF 16
ENDMDL
MODEL 4
REMARK VINA RESULT:    -5.452      2.332      3.844
REMARK INTER + INTRA:         -13.089
REMARK INTER:                 -10.836
REMARK INTRA:                  -2.253
REMARK UNBOUND:                -2.538
REMARK SMILES CCCCCCCCCCCCCCCCCC(=O)[O-]
REMARK SMILES IDX 10 1 11 2 12 3 13 4 14 5 15 6 16 7 17 8 18 9 19 10 20 11
REMARK SMILES IDX 9 12 8 13 7 14 6 15 5 16 4 17 3 18 2 19 1 20
REMARK H PARENT
REMARK Flexibility Score: inf
ROOT
ATOM      1  C   UNL     1      16.097  -5.217  12.134  1.00  0.00     0.000 C 
ENDROOT
BRANCH   1   2
ATOM      2  C   UNL     1      17.304  -6.079  11.716  1.00  0.00     0.000 C 
BRANCH   2   3
ATOM      3  C   UNL     1      18.673  -5.543  12.173  1.00  0.00     0.000 C 
BRANCH   3   4
ATOM      4  C   UNL     1      18.557  -4.442  13.238  1.00  0.00     0.000 C 
BRANCH   4   5
ATOM      5  C   UNL     1      19.356  -3.196  12.828  1.00  0.00     0.000 C 
BRANCH   5   6
ATOM      6  C   UNL     1      18.661  -1.886  13.232  1.00  0.00     0.000 C 
BRANCH   6   7
ATOM      7  C   UNL     1      17.131  -2.024  13.300  1.00  0.00     0.006 C 
BRANCH   7   8
ATOM      8  C   UNL     1      16.413  -0.759  12.811  1.00  0.00     0.053 C 
BRANCH   8   9
ATOM      9  C   UNL     1      15.024  -1.054  12.332  1.00  0.00     0.041 C 
ATOM     10  O   UNL     1      14.482  -2.158  12.604  1.00  0.00    -0.550 OA
ATOM     11  O   UNL     1      14.318  -0.100  11.611  1.00  0.00    -0.550 OA
ENDBRANCH   8   9
ENDBRANCH   7   8
ENDBRANCH   6   7
ENDBRANCH   5   6
ENDBRANCH   4   5
ENDBRANCH   3   4
ENDBRANCH   2   3
ENDBRANCH   1   2
BRANCH   1  12
ATOM     12  C   UNL     1      15.062  -5.928  13.030  1.00  0.00     0.000 C 
BRANCH  12  13
ATOM     13  C   UNL     1      15.439  -7.361  13.447  1.00  0.00    -0.000 C 
BRANCH  13  14
ATOM     14  C   UNL     1      15.603  -7.516  14.967  1.00  0.00    -0.000 C 
BRANCH  14  15
ATOM     15  C   UNL     1      15.649  -6.145  15.657  1.00  0.00    -0.000 C 
BRANCH  15  16
ATOM     16  C   UNL     1      16.949  -5.922  16.446  1.00  0.00    -0.000 C 
BRANCH  16  17
ATOM     17  C   UNL     1      17.426  -4.461  16.403  1.00  0.00    -0.000 C 
BRANCH  17  18
ATOM     18  C   UNL     1      16.245  -3.495  16.582  1.00  0.00    -0.000 C 
BRANCH  18  19
ATOM     19  C   UNL     1      16.302  -2.733  17.916  1.00  0.00    -0.003 C 
ATOM     20  C   UNL     1      17.590  -2.999  18.693  1.00  0.00     0.004 C 
ENDBRANCH  18  19
ENDBRANCH  17  18
ENDBRANCH  16  17
ENDBRANCH  15  16
ENDBRANCH  14  15
ENDBRANCH  13  14
ENDBRANCH  12  13
ENDBRANCH   1  12
TORSDOF 16
ENDMDL
MODEL 5
REMARK VINA RESULT:    -5.450      2.410      5.696
REMARK INTER + INTRA:         -13.086
REMARK INTER:                 -10.815
REMARK INTRA:                  -2.270
REMARK UNBOUND:                -2.538
REMARK SMILES CCCCCCCCCCCCCCCCCC(=O)[O-]
REMARK SMILES IDX 10 1 11 2 12 3 13 4 14 5 15 6 16 7 17 8 18 9 19 10 20 11
REMARK SMILES IDX 9 12 8 13 7 14 6 15 5 16 4 17 3 18 2 19 1 20
REMARK H PARENT
REMARK Flexibility Score: inf
ROOT
ATOM      1  C   UNL     1      13.260  -2.740  14.440  1.00  0.00     0.000 C 
ENDROOT
BRANCH   1   2
ATOM      2  C   UNL     1      12.707  -3.372  15.732  1.00  0.00     0.000 C 
BRANCH   2   3
ATOM      3  C   UNL     1      13.760  -4.054  16.623  1.00  0.00     0.000 C 
BRANCH   3   4
ATOM      4  C   UNL     1      15.151  -3.412  16.502  1.00  0.00     0.000 C 
BRANCH   4   5
ATOM      5  C   UNL     1      15.526  -2.671  17.794  1.00  0.00     0.000 C 
BRANCH   5   6
ATOM      6  C   UNL     1      17.031  -2.738  18.100  1.00  0.00     0.000 C 
BRANCH   6   7
ATOM      7  C   UNL     1      17.744  -3.858  17.322  1.00  0.00     0.006 C 
BRANCH   7   8
ATOM      8  C   UNL     1      18.883  -3.319  16.446  1.00  0.00     0.053 C 
BRANCH   8   9
ATOM      9  C   UNL     1      18.674  -3.641  14.998  1.00  0.00     0.041 C 
ATOM     10  O   UNL     1      17.871  -2.958  14.307  1.00  0.00    -0.550 OA
ATOM     11  O   UNL     1      19.386  -4.674  14.404  1.00  0.00    -0.550 OA
ENDBRANCH   8   9
ENDBRANCH   7   8
ENDBRANCH   6   7
ENDBRANCH   5   6
ENDBRANCH   4   5
ENDBRANCH   3   4
ENDBRANCH   2   3
ENDBRANCH   1   2
BRANCH   1  12
ATOM     12  C   UNL     1      12.407  -2.974  13.177  1.00  0.00     0.000 C 
BRANCH  12  13
ATOM     13  C   UNL     1      12.114  -4.451  12.856  1.00  0.00    -0.000 C 
BRANCH  13  14
ATOM     14  C   UNL     1      13.280  -5.150  12.142  1.00  0.00    -0.000 C 
BRANCH  14  15
ATOM     15  C   UNL     1      13.559  -6.527  12.762  1.00  0.00    -0.000 C 
BRANCH  15  16
ATOM     16  C   UNL     1      14.391  -6.439  14.051  1.00  0.00    -0.000 C 
BRANCH  16  17
ATOM     17  C   UNL     1      15.813  -5.911  13.803  1.00  0.00    -0.000 C 
BRANCH  17  18
ATOM     18  C   UNL     1      16.481  -6.660  12.640  1.00  0.00    -0.000 C 
BRANCH  18  19
ATOM     19  C   UNL     1      17.097  -5.709  11.601  1.00  0.00    -0.003 C 
ATOM     20  C   UNL     1      16.330  -5.702  10.279  1.00  0.00     0.004 C 
ENDBRANCH  18  19
ENDBRANCH  17  18
ENDBRANCH  16  17
ENDBRANCH  15  16
ENDBRANCH  14  15
ENDBRANCH  13  14
ENDBRANCH  12  13
ENDBRANCH   1  12
TORSDOF 16
ENDMDL
MODEL 6
REMARK VINA RESULT:    -5.402      2.511      4.841
REMARK INTER + INTRA:         -12.994
REMARK INTER:                 -10.273
REMARK INTRA:                  -2.721
REMARK UNBOUND:                -2.538
REMARK SMILES CCCCCCCCCCCCCCCCCC(=O)[O-]
REMARK SMILES IDX 10 1 11 2 12 3 13 4 14 5 15 6 16 7 17 8 18 9 19 10 20 11
REMARK SMILES IDX 9 12 8 13 7 14 6 15 5 16 4 17 3 18 2 19 1 20
REMARK H PARENT
REMARK Flexibility Score: inf
ROOT
ATOM      1  C   UNL     1      16.453  -4.903  12.182  1.00  0.00     0.000 C 
ENDROOT
BRANCH   1   2
ATOM      2  C   UNL     1      16.419  -5.666  13.520  1.00  0.00     0.000 C 
BRANCH   2   3
ATOM      3  C   UNL     1      15.363  -6.783  13.603  1.00  0.00     0.000 C 
BRANCH   3   4
ATOM      4  C   UNL     1      14.513  -6.707  14.881  1.00  0.00     0.000 C 
BRANCH   4   5
ATOM      5  C   UNL     1      15.086  -5.669  15.858  1.00  0.00     0.000 C 
BRANCH   5   6
ATOM      6  C   UNL     1      14.070  -4.573  16.220  1.00  0.00     0.000 C 
BRANCH   6   7
ATOM      7  C   UNL     1      14.717  -3.384  16.952  1.00  0.00     0.006 C 
BRANCH   7   8
ATOM      8  C   UNL     1      16.071  -2.996  16.342  1.00  0.00     0.053 C 
BRANCH   8   9
ATOM      9  C   UNL     1      17.181  -3.084  17.345  1.00  0.00     0.041 C 
ATOM     10  O   UNL     1      17.020  -2.628  18.508  1.00  0.00    -0.550 OA
ATOM     11  O   UNL     1      18.380  -3.696  17.005  1.00  0.00    -0.550 OA
ENDBRANCH   8   9
ENDBRANCH   7   8
ENDBRANCH   6   7
ENDBRANCH   5   6
ENDBRANCH   4   5
ENDBRANCH   3   4
ENDBRANCH   2   3
ENDBRANCH   1   2
BRANCH   1  12
ATOM     12  C   UNL     1      16.233  -5.770  10.925  1.00  0.00     0.000 C 
BRANCH  12  13
ATOM     13  C   UNL     1      15.234  -5.194   9.905  1.00  0.00    -0.000 C 
BRANCH  13  14
ATOM     14  C   UNL     1      13.797  -5.684  10.135  1.00  0.00    -0.000 C 
BRANCH  14  15
ATOM     15  C   UNL     1      12.930  -4.576  10.753  1.00  0.00    -0.000 C 
BRANCH  15  16
ATOM     16  C   UNL     1      12.533  -4.876  12.206  1.00  0.00    -0.000 C 
BRANCH  16  17
ATOM     17  C   UNL     1      12.533  -3.620  13.093  1.00  0.00    -0.000 C 
BRANCH  17  18
ATOM     18  C   UNL     1      13.866  -2.865  12.972  1.00  0.00    -0.000 C 
BRANCH  18  19
ATOM     19  C   UNL     1      13.682  -1.415  12.497  1.00  0.00    -0.003 C 
ATOM     20  C   UNL     1      15.005  -0.736  12.143  1.00  0.00     0.004 C 
ENDBRANCH  18  19
ENDBRANCH  17  18
ENDBRANCH  16  17
ENDBRANCH  15  16
ENDBRANCH  14  15
ENDBRANCH  13  14
ENDBRANCH  12  13
ENDBRANCH   1  12
TORSDOF 16
ENDMDL
MODEL 7
REMARK VINA RESULT:    -5.402      1.907      2.892
REMARK INTER + INTRA:         -12.994
REMARK INTER:                 -10.483
REMARK INTRA:                  -2.511
REMARK UNBOUND:                -2.538
REMARK SMILES CCCCCCCCCCCCCCCCCC(=O)[O-]
REMARK SMILES IDX 10 1 11 2 12 3 13 4 14 5 15 6 16 7 17 8 18 9 19 10 20 11
REMARK SMILES IDX 9 12 8 13 7 14 6 15 5 16 4 17 3 18 2 19 1 20
REMARK H PARENT
REMARK Flexibility Score: inf
ROOT
ATOM      1  C   UNL     1      18.720  -5.274  12.510  1.00  0.00     0.000 C 
ENDROOT
BRANCH   1   2
ATOM      2  C   UNL     1      17.650  -6.134  11.809  1.00  0.00     0.000 C 
BRANCH   2   3
ATOM      3  C   UNL     1      16.229  -5.544  11.827  1.00  0.00     0.000 C 
BRANCH   3   4
ATOM      4  C   UNL     1      15.624  -5.405  10.422  1.00  0.00     0.000 C 
BRANCH   4   5
ATOM      5  C   UNL     1      14.110  -5.155  10.500  1.00  0.00     0.000 C 
BRANCH   5   6
ATOM      6  C   UNL     1      13.538  -5.420  11.902  1.00  0.00     0.000 C 
BRANCH   6   7
ATOM      7  C   UNL     1      12.443  -4.413  12.295  1.00  0.00     0.006 C 
BRANCH   7   8
ATOM      8  C   UNL     1      12.692  -3.023  11.694  1.00  0.00     0.053 C 
BRANCH   8   9
ATOM      9  C   UNL     1      13.106  -2.030  12.738  1.00  0.00     0.041 C 
ATOM     10  O   UNL     1      14.224  -1.455  12.657  1.00  0.00    -0.550 OA
ATOM     11  O   UNL     1      12.245  -1.716  13.781  1.00  0.00    -0.550 OA
ENDBRANCH   8   9
ENDBRANCH   7   8
ENDBRANCH   6   7
ENDBRANCH   5   6
ENDBRANCH   4   5
ENDBRANCH   3   4
ENDBRANCH   2   3
ENDBRANCH   1   2
BRANCH   1  12
ATOM     12  C   UNL     1      18.269  -3.850  12.895  1.00  0.00     0.000 C 
BRANCH  12  13
ATOM     13  C   UNL     1      18.072  -3.617  14.404  1.00  0.00    -0.000 C 
BRANCH  13  14
ATOM     14  C   UNL     1      18.592  -4.781  15.261  1.00  0.00    -0.000 C 
BRANCH  14  15
ATOM     15  C   UNL     1      17.507  -5.281  16.226  1.00  0.00    -0.000 C 
BRANCH  15  16
ATOM     16  C   UNL     1      16.408  -6.087  15.517  1.00  0.00    -0.000 C 
BRANCH  16  17
ATOM     17  C   UNL     1      14.997  -5.731  16.012  1.00  0.00    -0.000 C 
BRANCH  17  18
ATOM     18  C   UNL     1      14.476  -4.466  15.314  1.00  0.00    -0.000 C 
BRANCH  18  19
ATOM     19  C   UNL     1      13.928  -3.427  16.307  1.00  0.00    -0.003 C 
ATOM     20  C   UNL     1      14.952  -3.025  17.367  1.00  0.00     0.004 C 
ENDBRANCH  18  19
ENDBRANCH  17  18
ENDBRANCH  16  17
ENDBRANCH  15  16
ENDBRANCH  14  15
ENDBRANCH  13  14
ENDBRANCH  12  13
ENDBRANCH   1  12
TORSDOF 16
ENDMDL
MODEL 8
REMARK VINA RESULT:    -5.382      2.989      5.059
REMARK INTER + INTRA:         -12.955
REMARK INTER:                 -10.396
REMARK INTRA:                  -2.560
REMARK UNBOUND:                -2.538
REMARK SMILES CCCCCCCCCCCCCCCCCC(=O)[O-]
REMARK SMILES IDX 10 1 11 2 12 3 13 4 14 5 15 6 16 7 17 8 18 9 19 10 20 11
REMARK SMILES IDX 9 12 8 13 7 14 6 15 5 16 4 17 3 18 2 19 1 20
REMARK H PARENT
REMARK Flexibility Score: inf
ROOT
ATOM      1  C   UNL     1      15.736  -1.415  12.797  1.00  0.00     0.000 C 
ENDROOT
BRANCH   1   2
ATOM      2  C   UNL     1      14.514  -2.332  12.598  1.00  0.00     0.000 C 
BRANCH   2   3
ATOM      3  C   UNL     1      13.175  -1.742  13.077  1.00  0.00     0.000 C 
BRANCH   3   4
ATOM      4  C   UNL     1      12.654  -2.410  14.359  1.00  0.00     0.000 C 
BRANCH   4   5
ATOM      5  C   UNL     1      13.606  -3.522  14.823  1.00  0.00     0.000 C 
BRANCH   5   6
ATOM      6  C   UNL     1      13.680  -3.638  16.354  1.00  0.00     0.000 C 
BRANCH   6   7
ATOM      7  C   UNL     1      14.954  -3.000  16.935  1.00  0.00     0.006 C 
BRANCH   7   8
ATOM      8  C   UNL     1      16.180  -3.909  16.778  1.00  0.00     0.053 C 
BRANCH   8   9
ATOM      9  C   UNL     1      17.401  -3.315  17.410  1.00  0.00     0.041 C 
ATOM     10  O   UNL     1      18.409  -3.041  16.706  1.00  0.00    -0.550 OA
ATOM     11  O   UNL     1      17.415  -3.034  18.771  1.00  0.00    -0.550 OA
ENDBRANCH   8   9
ENDBRANCH   7   8
ENDBRANCH   6   7
ENDBRANCH   5   6
ENDBRANCH   4   5
ENDBRANCH   3   4
ENDBRANCH   2   3
ENDBRANCH   1   2
BRANCH   1  12
ATOM     12  C   UNL     1      16.814  -1.957  13.758  1.00  0.00     0.000 C 
BRANCH  12  13
ATOM     13  C   UNL     1      18.266  -1.726  13.303  1.00  0.00    -0.000 C 
BRANCH  13  14
ATOM     14  C   UNL     1      18.986  -3.028  12.922  1.00  0.00    -0.000 C 
BRANCH  14  15
ATOM     15  C   UNL     1      18.115  -4.252  13.243  1.00  0.00    -0.000 C 
BRANCH  15  16
ATOM     16  C   UNL     1      18.200  -5.340  12.161  1.00  0.00    -0.000 C 
BRANCH  16  17
ATOM     17  C   UNL     1      16.818  -5.866  11.739  1.00  0.00    -0.000 C 
BRANCH  17  18
ATOM     18  C   UNL     1      15.809  -5.737  12.890  1.00  0.00    -0.000 C 
BRANCH  18  19
ATOM     19  C   UNL     1      15.792  -6.975  13.802  1.00  0.00    -0.003 C 
ATOM     20  C   UNL     1      14.536  -7.053  14.668  1.00  0.00     0.004 C 
ENDBRANCH  18  19
ENDBRANCH  17  18
ENDBRANCH  16  17
ENDBRANCH  15  16
ENDBRANCH  14  15
ENDBRANCH  13  14
ENDBRANCH  12  13
ENDBRANCH   1  12
TORSDOF 16
ENDMDL
MODEL 9
REMARK VINA RESULT:    -5.381      1.915      4.831
REMARK INTER + INTRA:         -12.952
REMARK INTER:                 -10.082
REMARK INTRA:                  -2.871
REMARK UNBOUND:                -2.538
REMARK SMILES CCCCCCCCCCCCCCCCCC(=O)[O-]
REMARK SMILES IDX 10 1 11 2 12 3 13 4 14 5 15 6 16 7 17 8 18 9 19 10 20 11
REMARK SMILES IDX 9 12 8 13 7 14 6 15 5 16 4 17 3 18 2 19 1 20
REMARK H PARENT
REMARK Flexibility Score: inf
ROOT
ATOM      1  C   UNL     1      17.167  -5.612  15.920  1.00  0.00     0.000 C 
ENDROOT
BRANCH   1   2
ATOM      2  C   UNL     1      17.005  -4.079  15.913  1.00  0.00     0.000 C 
BRANCH   2   3
ATOM      3  C   UNL     1      16.561  -3.468  17.254  1.00  0.00     0.000 C 
BRANCH   3   4
ATOM      4  C   UNL     1      15.098  -3.000  17.240  1.00  0.00     0.000 C 
BRANCH   4   5
ATOM      5  C   UNL     1      14.489  -3.148  15.838  1.00  0.00     0.000 C 
BRANCH   5   6
ATOM      6  C   UNL     1      12.990  -3.490  15.876  1.00  0.00     0.000 C 
BRANCH   6   7
ATOM      7  C   UNL     1      12.228  -2.949  14.654  1.00  0.00     0.006 C 
BRANCH   7   8
ATOM      8  C   UNL     1      13.136  -2.141  13.716  1.00  0.00     0.053 C 
BRANCH   8   9
ATOM      9  C   UNL     1      12.623  -2.137  12.308  1.00  0.00     0.041 C 
ATOM     10  O   UNL     1      12.598  -1.066  11.647  1.00  0.00    -0.550 OA
ATOM     11  O   UNL     1      12.201  -3.321  11.717  1.00  0.00    -0.550 OA
ENDBRANCH   8   9
ENDBRANCH   7   8
ENDBRANCH   6   7
ENDBRANCH   5   6
ENDBRANCH   4   5
ENDBRANCH   3   4
ENDBRANCH   2   3
ENDBRANCH   1   2
BRANCH   1  12
ATOM     12  C   UNL     1      16.042  -6.388  16.633  1.00  0.00     0.000 C 
BRANCH  12  13
ATOM     13  C   UNL     1      14.890  -6.846  15.720  1.00  0.00    -0.000 C 
BRANCH  13  14
ATOM     14  C   UNL     1      15.381  -7.555  14.450  1.00  0.00    -0.000 C 
BRANCH  14  15
ATOM     15  C   UNL     1      14.559  -7.122  13.226  1.00  0.00    -0.000 C 
BRANCH  15  16
ATOM     16  C   UNL     1      14.427  -5.595  13.112  1.00  0.00    -0.000 C 
BRANCH  16  17
ATOM     17  C   UNL     1      15.695  -4.930  12.552  1.00  0.00    -0.000 C 
BRANCH  17  18
ATOM     18  C   UNL     1      16.366  -5.829  11.503  1.00  0.00    -0.000 C 
BRANCH  18  19
ATOM     19  C   UNL     1      17.875  -5.999  11.748  1.00  0.00    -0.003 C 
ATOM     20  C   UNL     1      18.472  -4.856  12.569  1.00  0.00     0.004 C 
ENDBRANCH  18  19
ENDBRANCH  17  18
ENDBRANCH  16  17
ENDBRANCH  15  16
ENDBRANCH  14  15
ENDBRANCH  13  14
ENDBRANCH  12  13
ENDBRANCH   1  12
TORSDOF 16
ENDMDL
