MODEL 1
REMARK VINA RESULT:    -5.292      0.000      0.000
REMARK INTER + INTRA:          -9.586
REMARK INTER:                  -9.004
REMARK INTRA:                  -0.582
REMARK UNBOUND:                -0.582
REMARK SMILES CCCCCCCCCCCCCC(=O)[O-]
REMARK SMILES IDX 8 1 9 2 10 3 11 4 12 5 13 6 14 7 15 8 16 9 7 10 6 11 5 12
REMARK SMILES IDX 4 13 3 14 2 15 1 16
REMARK H PARENT
REMARK Flexibility Score: inf
ROOT
ATOM      1  C   UNL     1      58.148 143.779 -30.115  1.00  0.00     0.000 C 
ENDROOT
BRANCH   1   2
ATOM      2  C   UNL     1      56.646 143.823 -29.796  1.00  0.00     0.000 C 
BRANCH   2   3
ATOM      3  C   UNL     1      56.407 144.199 -28.329  1.00  0.00     0.000 C 
BRANCH   3   4
ATOM      4  C   UNL     1      55.210 143.436 -27.751  1.00  0.00     0.000 C 
BRANCH   4   5
ATOM      5  C   UNL     1      55.544 142.847 -26.375  1.00  0.00     0.006 C 
BRANCH   5   6
ATOM      6  C   UNL     1      55.898 143.953 -25.376  1.00  0.00     0.053 C 
BRANCH   6   7
ATOM      7  C   UNL     1      54.844 144.062 -24.320  1.00  0.00     0.041 C 
ATOM      8  O   UNL     1      54.612 145.170 -23.768  1.00  0.00    -0.550 OA
ATOM      9  O   UNL     1      54.153 142.930 -23.908  1.00  0.00    -0.550 OA
ENDBRANCH   6   7
ENDBRANCH   5   6
ENDBRANCH   4   5
ENDBRANCH   3   4
ENDBRANCH   2   3
ENDBRANCH   1   2
BRANCH   1  10
ATOM     10  C   UNL     1      58.462 144.228 -31.551  1.00  0.00     0.000 C 
BRANCH  10  11
ATOM     11  C   UNL     1      59.646 143.466 -32.164  1.00  0.00    -0.000 C 
BRANCH  11  12
ATOM     12  C   UNL     1      60.185 144.193 -33.402  1.00  0.00    -0.000 C 
BRANCH  12  13
ATOM     13  C   UNL     1      59.292 145.382 -33.775  1.00  0.00    -0.000 C 
BRANCH  13  14
ATOM     14  C   UNL     1      60.015 146.330 -34.743  1.00  0.00    -0.000 C 
BRANCH  14  15
ATOM     15  C   UNL     1      59.978 147.794 -34.275  1.00  0.00    -0.003 C 
ATOM     16  C   UNL     1      60.026 147.929 -32.753  1.00  0.00     0.004 C 
ENDBRANCH  14  15
ENDBRANCH  13  14
ENDBRANCH  12  13
ENDBRANCH  11  12
ENDBRANCH  10  11
ENDBRANCH   1  10
TORSDOF 12
ENDMDL
MODEL 2
REMARK VINA RESULT:    -4.557      4.455      9.108
REMARK INTER + INTRA:          -8.336
REMARK INTER:                  -7.812
REMARK INTRA:                  -0.524
REMARK UNBOUND:                -0.582
REMARK SMILES CCCCCCCCCCCCCC(=O)[O-]
REMARK SMILES IDX 8 1 9 2 10 3 11 4 12 5 13 6 14 7 15 8 16 9 7 10 6 11 5 12
REMARK SMILES IDX 4 13 3 14 2 15 1 16
REMARK H PARENT
REMARK Flexibility Score: inf
ROOT
ATOM      1  C   UNL     1      56.936 144.108 -28.917  1.00  0.00     0.000 C 
ENDROOT
BRANCH   1   2
ATOM      2  C   UNL     1      57.337 143.733 -30.351  1.00  0.00     0.000 C 
BRANCH   2   3
ATOM      3  C   UNL     1      58.827 144.002 -30.593  1.00  0.00     0.000 C 
BRANCH   3   4
ATOM      4  C   UNL     1      59.189 143.818 -32.072  1.00  0.00     0.000 C 
BRANCH   4   5
ATOM      5  C   UNL     1      58.979 145.118 -32.856  1.00  0.00     0.006 C 
BRANCH   5   6
ATOM      6  C   UNL     1      60.087 145.317 -33.894  1.00  0.00     0.053 C 
BRANCH   6   7
ATOM      7  C   UNL     1      60.735 146.654 -33.720  1.00  0.00     0.041 C 
ATOM      8  O   UNL     1      60.535 147.324 -32.672  1.00  0.00    -0.550 OA
ATOM      9  O   UNL     1      61.521 147.182 -34.736  1.00  0.00    -0.550 OA
ENDBRANCH   6   7
ENDBRANCH   5   6
ENDBRANCH   4   5
ENDBRANCH   3   4
ENDBRANCH   2   3
ENDBRANCH   1   2
BRANCH   1  10
ATOM     10  C   UNL     1      55.467 143.779 -28.607  1.00  0.00     0.000 C 
BRANCH  10  11
ATOM     11  C   UNL     1      55.043 144.230 -27.200  1.00  0.00    -0.000 C 
BRANCH  11  12
ATOM     12  C   UNL     1      56.179 144.020 -26.192  1.00  0.00    -0.000 C 
BRANCH  12  13
ATOM     13  C   UNL     1      55.632 143.886 -24.766  1.00  0.00    -0.000 C 
BRANCH  13  14
ATOM     14  C   UNL     1      56.453 142.873 -23.955  1.00  0.00    -0.000 C 
BRANCH  14  15
ATOM     15  C   UNL     1      55.758 141.507 -23.838  1.00  0.00    -0.003 C 
ATOM     16  C   UNL     1      54.233 141.615 -23.881  1.00  0.00     0.004 C 
ENDBRANCH  14  15
ENDBRANCH  13  14
ENDBRANCH  12  13
ENDBRANCH  11  12
ENDBRANCH  10  11
ENDBRANCH   1  10
TORSDOF 12
ENDMDL
MODEL 3
REMARK VINA RESULT:    -4.358      4.691      9.096
REMARK INTER + INTRA:          -7.998
REMARK INTER:                  -7.499
REMARK INTRA:                  -0.498
REMARK UNBOUND:                -0.582
REMARK SMILES CCCCCCCCCCCCCC(=O)[O-]
REMARK SMILES IDX 8 1 9 2 10 3 11 4 12 5 13 6 14 7 15 8 16 9 7 10 6 11 5 12
REMARK SMILES IDX 4 13 3 14 2 15 1 16
REMARK H PARENT
REMARK Flexibility Score: inf
ROOT
ATOM      1  C   UNL     1      55.569 143.793 -28.557  1.00  0.00     0.000 C 
ENDROOT
BRANCH   1   2
ATOM      2  C   UNL     1      57.035 144.117 -28.881  1.00  0.00     0.000 C 
BRANCH   2   3
ATOM      3  C   UNL     1      57.377 143.729 -30.325  1.00  0.00     0.000 C 
BRANCH   3   4
ATOM      4  C   UNL     1      58.822 144.107 -30.671  1.00  0.00     0.000 C 
BRANCH   4   5
ATOM      5  C   UNL     1      59.055 144.063 -32.186  1.00  0.00     0.006 C 
BRANCH   5   6
ATOM      6  C   UNL     1      59.565 145.412 -32.702  1.00  0.00     0.053 C 
BRANCH   6   7
ATOM      7  C   UNL     1      60.657 145.211 -33.704  1.00  0.00     0.041 C 
ATOM      8  O   UNL     1      61.798 145.706 -33.507  1.00  0.00    -0.550 OA
ATOM      9  O   UNL     1      60.400 144.520 -34.881  1.00  0.00    -0.550 OA
ENDBRANCH   6   7
ENDBRANCH   5   6
ENDBRANCH   4   5
ENDBRANCH   3   4
ENDBRANCH   2   3
ENDBRANCH   1   2
BRANCH   1  10
ATOM     10  C   UNL     1      55.147 144.288 -27.165  1.00  0.00     0.000 C 
BRANCH  10  11
ATOM     11  C   UNL     1      55.928 143.606 -26.031  1.00  0.00    -0.000 C 
BRANCH  11  12
ATOM     12  C   UNL     1      55.475 142.152 -25.851  1.00  0.00    -0.000 C 
BRANCH  12  13
ATOM     13  C   UNL     1      55.651 141.696 -24.397  1.00  0.00    -0.000 C 
BRANCH  13  14
ATOM     14  C   UNL     1      56.326 142.790 -23.557  1.00  0.00    -0.000 C 
BRANCH  14  15
ATOM     15  C   UNL     1      57.537 142.266 -22.768  1.00  0.00    -0.003 C 
ATOM     16  C   UNL     1      58.313 143.382 -22.067  1.00  0.00     0.004 C 
ENDBRANCH  14  15
ENDBRANCH  13  14
ENDBRANCH  12  13
ENDBRANCH  11  12
ENDBRANCH  10  11
ENDBRANCH   1  10
TORSDOF 12
ENDMDL
MODEL 4
REMARK VINA RESULT:    -4.221     11.337     12.279
REMARK INTER + INTRA:          -7.765
REMARK INTER:                  -6.886
REMARK INTRA:                  -0.878
REMARK UNBOUND:                -0.582
REMARK SMILES CCCCCCCCCCCCCC(=O)[O-]
REMARK SMILES IDX 8 1 9 2 10 3 11 4 12 5 13 6 14 7 15 8 16 9 7 10 6 11 5 12
REMARK SMILES IDX 4 13 3 14 2 15 1 16
REMARK H PARENT
REMARK Flexibility Score: inf
ROOT
ATOM      1  C   UNL     1      49.191 155.223 -29.474  1.00  0.00     0.000 C 
ENDROOT
BRANCH   1   2
ATOM      2  C   UNL     1      49.495 155.809 -28.088  1.00  0.00     0.000 C 
BRANCH   2   3
ATOM      3  C   UNL     1      50.362 154.851 -27.263  1.00  0.00     0.000 C 
BRANCH   3   4
ATOM      4  C   UNL     1      51.486 155.604 -26.542  1.00  0.00     0.000 C 
BRANCH   4   5
ATOM      5  C   UNL     1      52.289 154.662 -25.637  1.00  0.00     0.006 C 
BRANCH   5   6
ATOM      6  C   UNL     1      51.394 154.041 -24.560  1.00  0.00     0.053 C 
BRANCH   6   7
ATOM      7  C   UNL     1      51.426 152.548 -24.648  1.00  0.00     0.041 C 
ATOM      8  O   UNL     1      50.797 151.850 -23.809  1.00  0.00    -0.550 OA
ATOM      9  O   UNL     1      52.190 151.927 -25.627  1.00  0.00    -0.550 OA
ENDBRANCH   6   7
ENDBRANCH   5   6
ENDBRANCH   4   5
ENDBRANCH   3   4
ENDBRANCH   2   3
ENDBRANCH   1   2
BRANCH   1  10
ATOM     10  C   UNL     1      49.536 153.728 -29.574  1.00  0.00     0.000 C 
BRANCH  10  11
ATOM     11  C   UNL     1      48.947 153.068 -30.830  1.00  0.00    -0.000 C 
BRANCH  11  12
ATOM     12  C   UNL     1      48.615 154.119 -31.897  1.00  0.00    -0.000 C 
BRANCH  12  13
ATOM     13  C   UNL     1      48.628 153.501 -33.301  1.00  0.00    -0.000 C 
BRANCH  13  14
ATOM     14  C   UNL     1      50.022 153.608 -33.935  1.00  0.00    -0.000 C 
BRANCH  14  15
ATOM     15  C   UNL     1      50.856 154.755 -33.340  1.00  0.00    -0.003 C 
ATOM     16  C   UNL     1      52.347 154.426 -33.269  1.00  0.00     0.004 C 
ENDBRANCH  14  15
ENDBRANCH  13  14
ENDBRANCH  12  13
ENDBRANCH  11  12
ENDBRANCH  10  11
ENDBRANCH   1  10
TORSDOF 12
ENDMDL
MODEL 5
REMARK VINA RESULT:    -4.118     11.424     12.590
REMARK INTER + INTRA:          -7.589
REMARK INTER:                  -6.582
REMARK INTRA:                  -1.007
REMARK UNBOUND:                -0.582
REMARK SMILES CCCCCCCCCCCCCC(=O)[O-]
REMARK SMILES IDX 8 1 9 2 10 3 11 4 12 5 13 6 14 7 15 8 16 9 7 10 6 11 5 12
REMARK SMILES IDX 4 13 3 14 2 15 1 16
REMARK H PARENT
REMARK Flexibility Score: inf
ROOT
ATOM      1  C   UNL     1      49.173 155.809 -27.807  1.00  0.00     0.000 C 
ENDROOT
BRANCH   1   2
ATOM      2  C   UNL     1      49.248 155.676 -26.279  1.00  0.00     0.000 C 
BRANCH   2   3
ATOM      3  C   UNL     1      50.536 156.303 -25.735  1.00  0.00     0.000 C 
BRANCH   3   4
ATOM      4  C   UNL     1      51.771 155.736 -26.446  1.00  0.00     0.000 C 
BRANCH   4   5
ATOM      5  C   UNL     1      52.603 154.868 -25.495  1.00  0.00     0.006 C 
BRANCH   5   6
ATOM      6  C   UNL     1      52.227 153.390 -25.629  1.00  0.00     0.053 C 
BRANCH   6   7
ATOM      7  C   UNL     1      51.466 152.931 -24.424  1.00  0.00     0.041 C 
ATOM      8  O   UNL     1      50.899 151.807 -24.423  1.00  0.00    -0.550 OA
ATOM      9  O   UNL     1      51.342 153.767 -23.322  1.00  0.00    -0.550 OA
ENDBRANCH   6   7
ENDBRANCH   5   6
ENDBRANCH   4   5
ENDBRANCH   3   4
ENDBRANCH   2   3
ENDBRANCH   1   2
BRANCH   1  10
ATOM     10  C   UNL     1      48.661 154.531 -28.490  1.00  0.00     0.000 C 
BRANCH  10  11
ATOM     11  C   UNL     1      49.697 153.912 -29.441  1.00  0.00    -0.000 C 
BRANCH  11  12
ATOM     12  C   UNL     1      49.058 152.826 -30.315  1.00  0.00    -0.000 C 
BRANCH  12  13
ATOM     13  C   UNL     1      48.869 153.318 -31.755  1.00  0.00    -0.000 C 
BRANCH  13  14
ATOM     14  C   UNL     1      49.899 154.402 -32.104  1.00  0.00    -0.000 C 
BRANCH  14  15
ATOM     15  C   UNL     1      50.693 154.074 -33.379  1.00  0.00    -0.003 C 
ATOM     16  C   UNL     1      52.185 154.378 -33.240  1.00  0.00     0.004 C 
ENDBRANCH  14  15
ENDBRANCH  13  14
ENDBRANCH  12  13
ENDBRANCH  11  12
ENDBRANCH  10  11
ENDBRANCH   1  10
TORSDOF 12
ENDMDL
MODEL 6
REMARK VINA RESULT:    -4.102      1.649      2.183
REMARK INTER + INTRA:          -7.561
REMARK INTER:                  -7.030
REMARK INTRA:                  -0.531
REMARK UNBOUND:                -0.582
REMARK SMILES CCCCCCCCCCCCCC(=O)[O-]
REMARK SMILES IDX 8 1 9 2 10 3 11 4 12 5 13 6 14 7 15 8 16 9 7 10 6 11 5 12
REMARK SMILES IDX 4 13 3 14 2 15 1 16
REMARK H PARENT
REMARK Flexibility Score: inf
ROOT
ATOM      1  C   UNL     1      56.680 143.912 -30.704  1.00  0.00     0.000 C 
ENDROOT
BRANCH   1   2
ATOM      2  C   UNL     1      55.671 143.976 -29.548  1.00  0.00     0.000 C 
BRANCH   2   3
ATOM      3  C   UNL     1      56.363 143.740 -28.200  1.00  0.00     0.000 C 
BRANCH   3   4
ATOM      4  C   UNL     1      55.512 144.272 -27.041  1.00  0.00     0.000 C 
BRANCH   4   5
ATOM      5  C   UNL     1      55.999 143.712 -25.699  1.00  0.00     0.006 C 
BRANCH   5   6
ATOM      6  C   UNL     1      55.298 142.392 -25.368  1.00  0.00     0.053 C 
BRANCH   6   7
ATOM      7  C   UNL     1      56.259 141.429 -24.747  1.00  0.00     0.041 C 
ATOM      8  O   UNL     1      56.406 140.277 -25.234  1.00  0.00    -0.550 OA
ATOM      9  O   UNL     1      56.956 141.786 -23.600  1.00  0.00    -0.550 OA
ENDBRANCH   6   7
ENDBRANCH   5   6
ENDBRANCH   4   5
ENDBRANCH   3   4
ENDBRANCH   2   3
ENDBRANCH   1   2
BRANCH   1  10
ATOM     10  C   UNL     1      58.130 143.759 -30.218  1.00  0.00     0.000 C 
BRANCH  10  11
ATOM     11  C   UNL     1      59.133 143.642 -31.377  1.00  0.00    -0.000 C 
BRANCH  11  12
ATOM     12  C   UNL     1      59.243 144.967 -32.142  1.00  0.00    -0.000 C 
BRANCH  12  13
ATOM     13  C   UNL     1      59.642 144.728 -33.603  1.00  0.00    -0.000 C 
BRANCH  13  14
ATOM     14  C   UNL     1      61.057 145.256 -33.879  1.00  0.00    -0.000 C 
BRANCH  14  15
ATOM     15  C   UNL     1      61.120 146.154 -35.125  1.00  0.00    -0.003 C 
ATOM     16  C   UNL     1      60.672 147.588 -34.844  1.00  0.00     0.004 C 
ENDBRANCH  14  15
ENDBRANCH  13  14
ENDBRANCH  12  13
ENDBRANCH  11  12
ENDBRANCH  10  11
ENDBRANCH   1  10
TORSDOF 12
ENDMDL
MODEL 7
REMARK VINA RESULT:    -4.026     12.083     13.889
REMARK INTER + INTRA:          -7.432
REMARK INTER:                  -5.606
REMARK INTRA:                  -1.825
REMARK UNBOUND:                -0.582
REMARK SMILES CCCCCCCCCCCCCC(=O)[O-]
REMARK SMILES IDX 8 1 9 2 10 3 11 4 12 5 13 6 14 7 15 8 16 9 7 10 6 11 5 12
REMARK SMILES IDX 4 13 3 14 2 15 1 16
REMARK H PARENT
REMARK Flexibility Score: inf
ROOT
ATOM      1  C   UNL     1      52.594 157.449 -26.396  1.00  0.00     0.000 C 
ENDROOT
BRANCH   1   2
ATOM      2  C   UNL     1      53.811 156.891 -25.644  1.00  0.00     0.000 C 
BRANCH   2   3
ATOM      3  C   UNL     1      53.466 155.573 -24.940  1.00  0.00     0.000 C 
BRANCH   3   4
ATOM      4  C   UNL     1      52.677 154.641 -25.868  1.00  0.00     0.000 C 
BRANCH   4   5
ATOM      5  C   UNL     1      52.095 153.454 -25.091  1.00  0.00     0.006 C 
BRANCH   5   6
ATOM      6  C   UNL     1      51.657 153.879 -23.687  1.00  0.00     0.053 C 
BRANCH   6   7
ATOM      7  C   UNL     1      50.637 152.928 -23.145  1.00  0.00     0.041 C 
ATOM      8  O   UNL     1      50.777 152.437 -21.994  1.00  0.00    -0.550 OA
ATOM      9  O   UNL     1      49.558 152.546 -23.931  1.00  0.00    -0.550 OA
ENDBRANCH   6   7
ENDBRANCH   5   6
ENDBRANCH   4   5
ENDBRANCH   3   4
ENDBRANCH   2   3
ENDBRANCH   1   2
BRANCH   1  10
ATOM     10  C   UNL     1      51.572 158.114 -25.460  1.00  0.00     0.000 C 
BRANCH  10  11
ATOM     11  C   UNL     1      50.120 157.856 -25.889  1.00  0.00    -0.000 C 
BRANCH  11  12
ATOM     12  C   UNL     1      49.502 156.714 -25.073  1.00  0.00    -0.000 C 
BRANCH  12  13
ATOM     13  C   UNL     1      49.162 155.517 -25.968  1.00  0.00    -0.000 C 
BRANCH  13  14
ATOM     14  C   UNL     1      49.414 155.849 -27.447  1.00  0.00    -0.000 C 
BRANCH  14  15
ATOM     15  C   UNL     1      49.691 154.597 -28.294  1.00  0.00    -0.003 C 
ATOM     16  C   UNL     1      48.707 154.438 -29.454  1.00  0.00     0.004 C 
ENDBRANCH  14  15
ENDBRANCH  13  14
ENDBRANCH  12  13
ENDBRANCH  11  12
ENDBRANCH  10  11
ENDBRANCH   1  10
TORSDOF 12
ENDMDL
MODEL 8
REMARK VINA RESULT:    -4.015      6.901     12.511
REMARK INTER + INTRA:          -7.413
REMARK INTER:                  -6.734
REMARK INTRA:                  -0.679
REMARK UNBOUND:                -0.582
REMARK SMILES CCCCCCCCCCCCCC(=O)[O-]
REMARK SMILES IDX 8 1 9 2 10 3 11 4 12 5 13 6 14 7 15 8 16 9 7 10 6 11 5 12
REMARK SMILES IDX 4 13 3 14 2 15 1 16
REMARK H PARENT
REMARK Flexibility Score: inf
ROOT
ATOM      1  C   UNL     1      50.494 139.861 -22.807  1.00  0.00     0.000 C 
ENDROOT
BRANCH   1   2
ATOM      2  C   UNL     1      51.365 140.435 -23.934  1.00  0.00     0.000 C 
BRANCH   2   3
ATOM      3  C   UNL     1      52.596 141.151 -23.367  1.00  0.00     0.000 C 
BRANCH   3   4
ATOM      4  C   UNL     1      53.873 140.717 -24.097  1.00  0.00     0.000 C 
BRANCH   4   5
ATOM      5  C   UNL     1      55.053 141.626 -23.730  1.00  0.00     0.006 C 
BRANCH   5   6
ATOM      6  C   UNL     1      54.650 143.102 -23.796  1.00  0.00     0.053 C 
BRANCH   6   7
ATOM      7  C   UNL     1      55.332 143.780 -24.942  1.00  0.00     0.041 C 
ATOM      8  O   UNL     1      56.583 143.708 -25.069  1.00  0.00    -0.550 OA
ATOM      9  O   UNL     1      54.591 144.535 -25.842  1.00  0.00    -0.550 OA
ENDBRANCH   6   7
ENDBRANCH   5   6
ENDBRANCH   4   5
ENDBRANCH   3   4
ENDBRANCH   2   3
ENDBRANCH   1   2
BRANCH   1  10
ATOM     10  C   UNL     1      50.033 140.934 -21.808  1.00  0.00     0.000 C 
BRANCH  10  11
ATOM     11  C   UNL     1      48.855 140.467 -20.939  1.00  0.00    -0.000 C 
BRANCH  11  12
ATOM     12  C   UNL     1      49.163 140.661 -19.449  1.00  0.00    -0.000 C 
BRANCH  12  13
ATOM     13  C   UNL     1      50.606 141.136 -19.241  1.00  0.00    -0.000 C 
BRANCH  13  14
ATOM     14  C   UNL     1      51.229 140.473 -18.004  1.00  0.00    -0.000 C 
BRANCH  14  15
ATOM     15  C   UNL     1      52.042 141.461 -17.151  1.00  0.00    -0.003 C 
ATOM     16  C   UNL     1      51.296 142.770 -16.891  1.00  0.00     0.004 C 
ENDBRANCH  14  15
ENDBRANCH  13  14
ENDBRANCH  12  13
ENDBRANCH  11  12
ENDBRANCH  10  11
ENDBRANCH   1  10
TORSDOF 12
ENDMDL
MODEL 9
REMARK VINA RESULT:    -3.940     11.812     13.487
REMARK INTER + INTRA:          -7.285
REMARK INTER:                  -6.013
REMARK INTRA:                  -1.272
REMARK UNBOUND:                -0.582
REMARK SMILES CCCCCCCCCCCCCC(=O)[O-]
REMARK SMILES IDX 8 1 9 2 10 3 11 4 12 5 13 6 14 7 15 8 16 9 7 10 6 11 5 12
REMARK SMILES IDX 4 13 3 14 2 15 1 16
REMARK H PARENT
REMARK Flexibility Score: inf
ROOT
ATOM      1  C   UNL     1      48.238 155.814 -26.635  1.00  0.00     0.000 C 
ENDROOT
BRANCH   1   2
ATOM      2  C   UNL     1      49.504 155.512 -27.450  1.00  0.00     0.000 C 
BRANCH   2   3
ATOM      3  C   UNL     1      50.762 155.642 -26.582  1.00  0.00     0.000 C 
BRANCH   3   4
ATOM      4  C   UNL     1      51.489 154.298 -26.458  1.00  0.00     0.000 C 
BRANCH   4   5
ATOM      5  C   UNL     1      51.990 154.074 -25.026  1.00  0.00     0.006 C 
BRANCH   5   6
ATOM      6  C   UNL     1      50.819 153.950 -24.048  1.00  0.00     0.053 C 
BRANCH   6   7
ATOM      7  C   UNL     1      50.728 152.557 -23.512  1.00  0.00     0.041 C 
ATOM      8  O   UNL     1      50.729 151.573 -24.299  1.00  0.00    -0.550 OA
ATOM      9  O   UNL     1      50.591 152.346 -22.146  1.00  0.00    -0.550 OA
ENDBRANCH   6   7
ENDBRANCH   5   6
ENDBRANCH   4   5
ENDBRANCH   3   4
ENDBRANCH   2   3
ENDBRANCH   1   2
BRANCH   1  10
ATOM     10  C   UNL     1      47.190 154.695 -26.731  1.00  0.00     0.000 C 
BRANCH  10  11
ATOM     11  C   UNL     1      46.545 154.605 -28.122  1.00  0.00    -0.000 C 
BRANCH  11  12
ATOM     12  C   UNL     1      46.115 153.167 -28.436  1.00  0.00    -0.000 C 
BRANCH  12  13
ATOM     13  C   UNL     1      46.553 152.756 -29.847  1.00  0.00    -0.000 C 
BRANCH  13  14
ATOM     14  C   UNL     1      47.454 153.829 -30.476  1.00  0.00    -0.000 C 
BRANCH  14  15
ATOM     15  C   UNL     1      48.782 153.255 -30.995  1.00  0.00    -0.003 C 
ATOM     16  C   UNL     1      49.771 152.946 -29.872  1.00  0.00     0.004 C 
ENDBRANCH  14  15
ENDBRANCH  13  14
ENDBRANCH  12  13
ENDBRANCH  11  12
ENDBRANCH  10  11
ENDBRANCH   1  10
TORSDOF 12
ENDMDL
