MODEL 1
REMARK VINA RESULT:    -4.297      0.000      0.000
REMARK INTER + INTRA:         -15.799
REMARK INTER:                 -11.331
REMARK INTRA:                  -4.468
REMARK UNBOUND:                -4.468
REMARK SMILES CCCCCCCCCCCCCCCCCCCCCCCCCCCCCC(=O)[O-]
REMARK SMILES IDX 16 1 17 2 18 3 19 4 20 5 21 6 22 7 23 8 24 9 25 10 26 11
REMARK SMILES IDX 27 12 28 13 29 14 30 15 31 16 32 17 15 18 14 19 13 20 12 21
REMARK SMILES IDX 11 22 10 23 9 24 8 25 7 26 6 27 5 28 4 29 3 30 2 31 1 32
REMARK H PARENT
REMARK Flexibility Score: inf
ROOT
ATOM      1  C   UNL     1     166.236 163.575 181.849  1.00  0.00     0.000 C 
ENDROOT
BRANCH   1   2
ATOM      2  C   UNL     1     166.576 164.003 183.285  1.00  0.00     0.000 C 
BRANCH   2   3
ATOM      3  C   UNL     1     167.770 163.223 183.862  1.00  0.00     0.000 C 
BRANCH   3   4
ATOM      4  C   UNL     1     167.324 162.108 184.822  1.00  0.00     0.000 C 
BRANCH   4   5
ATOM      5  C   UNL     1     167.006 160.790 184.099  1.00  0.00     0.000 C 
BRANCH   5   6
ATOM      6  C   UNL     1     168.200 160.253 183.290  1.00  0.00     0.000 C 
BRANCH   6   7
ATOM      7  C   UNL     1     167.943 160.282 181.772  1.00  0.00     0.000 C 
BRANCH   7   8
ATOM      8  C   UNL     1     169.222 160.321 180.917  1.00  0.00     0.000 C 
BRANCH   8   9
ATOM      9  C   UNL     1     170.502 160.281 181.770  1.00  0.00     0.000 C 
BRANCH   9  10
ATOM     10  C   UNL     1     171.416 161.500 181.544  1.00  0.00     0.000 C 
BRANCH  10  11
ATOM     11  C   UNL     1     172.593 161.625 182.533  1.00  0.00     0.000 C 
BRANCH  11  12
ATOM     12  C   UNL     1     173.065 160.266 183.079  1.00  0.00     0.000 C 
BRANCH  12  13
ATOM     13  C   UNL     1     174.503 159.925 182.661  1.00  0.00     0.006 C 
BRANCH  13  14
ATOM     14  C   UNL     1     175.046 160.873 181.581  1.00  0.00     0.053 C 
BRANCH  14  15
ATOM     15  C   UNL     1     176.327 161.505 182.026  1.00  0.00     0.041 C 
ATOM     16  O   UNL     1     177.044 162.135 181.202  1.00  0.00    -0.550 OA
ATOM     17  O   UNL     1     176.744 161.379 183.345  1.00  0.00    -0.550 OA
ENDBRANCH  14  15
ENDBRANCH  13  14
ENDBRANCH  12  13
ENDBRANCH  11  12
ENDBRANCH  10  11
ENDBRANCH   9  10
ENDBRANCH   8   9
ENDBRANCH   7   8
ENDBRANCH   6   7
ENDBRANCH   5   6
ENDBRANCH   4   5
ENDBRANCH   3   4
ENDBRANCH   2   3
ENDBRANCH   1   2
BRANCH   1  18
ATOM     18  C   UNL     1     164.887 162.850 181.803  1.00  0.00     0.000 C 
BRANCH  18  19
ATOM     19  C   UNL     1     164.106 163.045 183.111  1.00  0.00     0.000 C 
BRANCH  19  20
ATOM     20  C   UNL     1     162.904 162.084 183.225  1.00  0.00     0.000 C 
BRANCH  20  21
ATOM     21  C   UNL     1     161.553 162.789 183.464  1.00  0.00     0.000 C 
BRANCH  21  22
ATOM     22  C   UNL     1     160.306 161.929 183.200  1.00  0.00     0.000 C 
BRANCH  22  23
ATOM     23  C   UNL     1     160.581 160.596 182.474  1.00  0.00     0.000 C 
BRANCH  23  24
ATOM     24  C   UNL     1     160.221 160.616 180.972  1.00  0.00    -0.000 C 
BRANCH  24  25
ATOM     25  C   UNL     1     161.445 160.742 180.040  1.00  0.00    -0.000 C 
BRANCH  25  26
ATOM     26  C   UNL     1     161.854 162.194 179.736  1.00  0.00    -0.000 C 
BRANCH  26  27
ATOM     27  C   UNL     1     160.650 163.099 179.426  1.00  0.00    -0.000 C 
BRANCH  27  28
ATOM     28  C   UNL     1     160.725 164.469 180.121  1.00  0.00    -0.000 C 
BRANCH  28  29
ATOM     29  C   UNL     1     162.166 164.897 180.448  1.00  0.00    -0.000 C 
BRANCH  29  30
ATOM     30  C   UNL     1     162.193 165.898 181.614  1.00  0.00    -0.000 C 
BRANCH  30  31
ATOM     31  C   UNL     1     160.792 166.179 182.181  1.00  0.00    -0.003 C 
ATOM     32  C   UNL     1     160.635 167.614 182.688  1.00  0.00     0.004 C 
ENDBRANCH  30  31
ENDBRANCH  29  30
ENDBRANCH  28  29
ENDBRANCH  27  28
ENDBRANCH  26  27
ENDBRANCH  25  26
ENDBRANCH  24  25
ENDBRANCH  23  24
ENDBRANCH  22  23
ENDBRANCH  21  22
ENDBRANCH  20  21
ENDBRANCH  19  20
ENDBRANCH  18  19
ENDBRANCH   1  18
TORSDOF 28
ENDMDL
MODEL 2
REMARK VINA RESULT:    -4.248      4.084      7.927
REMARK INTER + INTRA:         -15.669
REMARK INTER:                  -9.504
REMARK INTRA:                  -6.165
REMARK UNBOUND:                -4.468
REMARK SMILES CCCCCCCCCCCCCCCCCCCCCCCCCCCCCC(=O)[O-]
REMARK SMILES IDX 16 1 17 2 18 3 19 4 20 5 21 6 22 7 23 8 24 9 25 10 26 11
REMARK SMILES IDX 27 12 28 13 29 14 30 15 31 16 32 17 15 18 14 19 13 20 12 21
REMARK SMILES IDX 11 22 10 23 9 24 8 25 7 26 6 27 5 28 4 29 3 30 2 31 1 32
REMARK H PARENT
REMARK Flexibility Score: inf
ROOT
ATOM      1  C   UNL     1     164.196 161.663 180.965  1.00  0.00     0.000 C 
ENDROOT
BRANCH   1   2
ATOM      2  C   UNL     1     163.746 160.443 181.783  1.00  0.00     0.000 C 
BRANCH   2   3
ATOM      3  C   UNL     1     163.299 160.822 183.204  1.00  0.00     0.000 C 
BRANCH   3   4
ATOM      4  C   UNL     1     162.520 162.148 183.233  1.00  0.00     0.000 C 
BRANCH   4   5
ATOM      5  C   UNL     1     161.041 161.963 183.603  1.00  0.00     0.000 C 
BRANCH   5   6
ATOM      6  C   UNL     1     160.120 161.931 182.371  1.00  0.00     0.000 C 
BRANCH   6   7
ATOM      7  C   UNL     1     159.943 160.510 181.804  1.00  0.00     0.000 C 
BRANCH   7   8
ATOM      8  C   UNL     1     160.291 160.379 180.311  1.00  0.00     0.000 C 
BRANCH   8   9
ATOM      9  C   UNL     1     160.689 161.724 179.679  1.00  0.00     0.000 C 
BRANCH   9  10
ATOM     10  C   UNL     1     160.582 161.724 178.142  1.00  0.00     0.000 C 
BRANCH  10  11
ATOM     11  C   UNL     1     161.887 162.070 177.398  1.00  0.00     0.000 C 
BRANCH  11  12
ATOM     12  C   UNL     1     162.404 163.484 177.718  1.00  0.00     0.000 C 
BRANCH  12  13
ATOM     13  C   UNL     1     163.539 163.929 176.783  1.00  0.00     0.006 C 
BRANCH  13  14
ATOM     14  C   UNL     1     164.914 163.420 177.240  1.00  0.00     0.053 C 
BRANCH  14  15
ATOM     15  C   UNL     1     165.381 162.298 176.368  1.00  0.00     0.041 C 
ATOM     16  O   UNL     1     166.248 161.484 176.788  1.00  0.00    -0.550 OA
ATOM     17  O   UNL     1     164.877 162.162 175.080  1.00  0.00    -0.550 OA
ENDBRANCH  14  15
ENDBRANCH  13  14
ENDBRANCH  12  13
ENDBRANCH  11  12
ENDBRANCH  10  11
ENDBRANCH   9  10
ENDBRANCH   8   9
ENDBRANCH   7   8
ENDBRANCH   6   7
ENDBRANCH   5   6
ENDBRANCH   4   5
ENDBRANCH   3   4
ENDBRANCH   2   3
ENDBRANCH   1   2
BRANCH   1  18
ATOM     18  C   UNL     1     165.542 161.394 180.283  1.00  0.00     0.000 C 
BRANCH  18  19
ATOM     19  C   UNL     1     166.292 160.243 180.969  1.00  0.00     0.000 C 
BRANCH  19  20
ATOM     20  C   UNL     1     167.780 160.576 181.212  1.00  0.00     0.000 C 
BRANCH  20  21
ATOM     21  C   UNL     1     168.207 160.510 182.693  1.00  0.00     0.000 C 
BRANCH  21  22
ATOM     22  C   UNL     1     167.095 160.809 183.713  1.00  0.00     0.000 C 
BRANCH  22  23
ATOM     23  C   UNL     1     167.157 162.214 184.344  1.00  0.00     0.000 C 
BRANCH  23  24
ATOM     24  C   UNL     1     165.934 163.101 184.018  1.00  0.00    -0.000 C 
BRANCH  24  25
ATOM     25  C   UNL     1     166.163 164.063 182.832  1.00  0.00    -0.000 C 
BRANCH  25  26
ATOM     26  C   UNL     1     164.945 164.943 182.497  1.00  0.00    -0.000 C 
BRANCH  26  27
ATOM     27  C   UNL     1     164.947 165.430 181.039  1.00  0.00    -0.000 C 
BRANCH  27  28
ATOM     28  C   UNL     1     163.561 165.365 180.375  1.00  0.00    -0.000 C 
BRANCH  28  29
ATOM     29  C   UNL     1     162.459 164.883 181.334  1.00  0.00    -0.000 C 
BRANCH  29  30
ATOM     30  C   UNL     1     161.064 165.251 180.803  1.00  0.00    -0.000 C 
BRANCH  30  31
ATOM     31  C   UNL     1     160.788 166.762 180.873  1.00  0.00    -0.003 C 
ATOM     32  C   UNL     1     160.618 167.267 182.307  1.00  0.00     0.004 C 
ENDBRANCH  30  31
ENDBRANCH  29  30
ENDBRANCH  28  29
ENDBRANCH  27  28
ENDBRANCH  26  27
ENDBRANCH  25  26
ENDBRANCH  24  25
ENDBRANCH  23  24
ENDBRANCH  22  23
ENDBRANCH  21  22
ENDBRANCH  20  21
ENDBRANCH  19  20
ENDBRANCH  18  19
ENDBRANCH   1  18
TORSDOF 28
ENDMDL
MODEL 3
REMARK VINA RESULT:    -4.219      4.042      7.857
REMARK INTER + INTRA:         -15.592
REMARK INTER:                 -10.023
REMARK INTRA:                  -5.570
REMARK UNBOUND:                -4.468
REMARK SMILES CCCCCCCCCCCCCCCCCCCCCCCCCCCCCC(=O)[O-]
REMARK SMILES IDX 16 1 17 2 18 3 19 4 20 5 21 6 22 7 23 8 24 9 25 10 26 11
REMARK SMILES IDX 27 12 28 13 29 14 30 15 31 16 32 17 15 18 14 19 13 20 12 21
REMARK SMILES IDX 11 22 10 23 9 24 8 25 7 26 6 27 5 28 4 29 3 30 2 31 1 32
REMARK H PARENT
REMARK Flexibility Score: inf
ROOT
ATOM      1  C   UNL     1     162.017 161.486 179.547  1.00  0.00     0.000 C 
ENDROOT
BRANCH   1   2
ATOM      2  C   UNL     1     161.331 161.913 178.241  1.00  0.00     0.000 C 
BRANCH   2   3
ATOM      3  C   UNL     1     162.173 162.918 177.437  1.00  0.00     0.000 C 
BRANCH   3   4
ATOM      4  C   UNL     1     162.293 162.520 175.956  1.00  0.00     0.000 C 
BRANCH   4   5
ATOM      5  C   UNL     1     163.000 161.171 175.756  1.00  0.00     0.000 C 
BRANCH   5   6
ATOM      6  C   UNL     1     164.528 161.312 175.646  1.00  0.00     0.000 C 
BRANCH   6   7
ATOM      7  C   UNL     1     165.278 160.195 176.397  1.00  0.00     0.000 C 
BRANCH   7   8
ATOM      8  C   UNL     1     164.761 159.937 177.823  1.00  0.00     0.000 C 
BRANCH   8   9
ATOM      9  C   UNL     1     165.779 160.349 178.902  1.00  0.00     0.000 C 
BRANCH   9  10
ATOM     10  C   UNL     1     166.127 161.849 178.862  1.00  0.00     0.000 C 
BRANCH  10  11
ATOM     11  C   UNL     1     166.332 162.508 180.241  1.00  0.00     0.000 C 
BRANCH  11  12
ATOM     12  C   UNL     1     166.024 164.015 180.238  1.00  0.00     0.000 C 
BRANCH  12  13
ATOM     13  C   UNL     1     164.646 164.339 179.642  1.00  0.00     0.006 C 
BRANCH  13  14
ATOM     14  C   UNL     1     163.817 165.269 180.540  1.00  0.00     0.053 C 
BRANCH  14  15
ATOM     15  C   UNL     1     164.694 165.972 181.528  1.00  0.00     0.041 C 
ATOM     16  O   UNL     1     165.388 166.963 181.171  1.00  0.00    -0.550 OA
ATOM     17  O   UNL     1     164.766 165.519 182.840  1.00  0.00    -0.550 OA
ENDBRANCH  14  15
ENDBRANCH  13  14
ENDBRANCH  12  13
ENDBRANCH  11  12
ENDBRANCH  10  11
ENDBRANCH   9  10
ENDBRANCH   8   9
ENDBRANCH   7   8
ENDBRANCH   6   7
ENDBRANCH   5   6
ENDBRANCH   4   5
ENDBRANCH   3   4
ENDBRANCH   2   3
ENDBRANCH   1   2
BRANCH   1  18
ATOM     18  C   UNL     1     161.304 160.279 180.167  1.00  0.00     0.000 C 
BRANCH  18  19
ATOM     19  C   UNL     1     160.003 160.702 180.866  1.00  0.00     0.000 C 
BRANCH  19  20
ATOM     20  C   UNL     1     159.959 160.252 182.342  1.00  0.00     0.000 C 
BRANCH  20  21
ATOM     21  C   UNL     1     160.275 161.374 183.353  1.00  0.00     0.000 C 
BRANCH  21  22
ATOM     22  C   UNL     1     160.252 162.801 182.780  1.00  0.00     0.000 C 
BRANCH  22  23
ATOM     23  C   UNL     1     161.626 163.498 182.721  1.00  0.00     0.000 C 
BRANCH  23  24
ATOM     24  C   UNL     1     162.745 162.738 183.469  1.00  0.00    -0.000 C 
BRANCH  24  25
ATOM     25  C   UNL     1     163.780 162.077 182.535  1.00  0.00    -0.000 C 
BRANCH  25  26
ATOM     26  C   UNL     1     163.963 160.568 182.771  1.00  0.00    -0.000 C 
BRANCH  26  27
ATOM     27  C   UNL     1     165.411 160.192 183.127  1.00  0.00    -0.000 C 
BRANCH  27  28
ATOM     28  C   UNL     1     166.221 161.369 183.697  1.00  0.00    -0.000 C 
BRANCH  28  29
ATOM     29  C   UNL     1     167.726 161.067 183.798  1.00  0.00    -0.000 C 
BRANCH  29  30
ATOM     30  C   UNL     1     168.231 160.346 182.538  1.00  0.00    -0.000 C 
BRANCH  30  31
ATOM     31  C   UNL     1     169.546 160.939 182.008  1.00  0.00    -0.003 C 
ATOM     32  C   UNL     1     169.686 162.433 182.310  1.00  0.00     0.004 C 
ENDBRANCH  30  31
ENDBRANCH  29  30
ENDBRANCH  28  29
ENDBRANCH  27  28
ENDBRANCH  26  27
ENDBRANCH  25  26
ENDBRANCH  24  25
ENDBRANCH  23  24
ENDBRANCH  22  23
ENDBRANCH  21  22
ENDBRANCH  20  21
ENDBRANCH  19  20
ENDBRANCH  18  19
ENDBRANCH   1  18
TORSDOF 28
ENDMDL
MODEL 4
REMARK VINA RESULT:    -4.213      5.386      9.055
REMARK INTER + INTRA:         -15.578
REMARK INTER:                  -9.326
REMARK INTRA:                  -6.252
REMARK UNBOUND:                -4.468
REMARK SMILES CCCCCCCCCCCCCCCCCCCCCCCCCCCCCC(=O)[O-]
REMARK SMILES IDX 16 1 17 2 18 3 19 4 20 5 21 6 22 7 23 8 24 9 25 10 26 11
REMARK SMILES IDX 27 12 28 13 29 14 30 15 31 16 32 17 15 18 14 19 13 20 12 21
REMARK SMILES IDX 11 22 10 23 9 24 8 25 7 26 6 27 5 28 4 29 3 30 2 31 1 32
REMARK H PARENT
REMARK Flexibility Score: inf
ROOT
ATOM      1  C   UNL     1     163.315 164.082 182.524  1.00  0.00     0.000 C 
ENDROOT
BRANCH   1   2
ATOM      2  C   UNL     1     163.088 162.757 183.267  1.00  0.00     0.000 C 
BRANCH   2   3
ATOM      3  C   UNL     1     161.604 162.511 183.587  1.00  0.00     0.000 C 
BRANCH   3   4
ATOM      4  C   UNL     1     160.672 163.351 182.699  1.00  0.00     0.000 C 
BRANCH   4   5
ATOM      5  C   UNL     1     159.895 162.503 181.679  1.00  0.00     0.000 C 
BRANCH   5   6
ATOM      6  C   UNL     1     160.147 160.995 181.847  1.00  0.00     0.000 C 
BRANCH   6   7
ATOM      7  C   UNL     1     160.583 160.321 180.532  1.00  0.00     0.000 C 
BRANCH   7   8
ATOM      8  C   UNL     1     162.019 160.659 180.096  1.00  0.00     0.000 C 
BRANCH   8   9
ATOM      9  C   UNL     1     162.060 161.673 178.939  1.00  0.00     0.000 C 
BRANCH   9  10
ATOM     10  C   UNL     1     163.039 162.835 179.190  1.00  0.00     0.000 C 
BRANCH  10  11
ATOM     11  C   UNL     1     162.866 164.048 178.253  1.00  0.00     0.000 C 
BRANCH  11  12
ATOM     12  C   UNL     1     163.173 165.388 178.944  1.00  0.00     0.000 C 
BRANCH  12  13
ATOM     13  C   UNL     1     161.938 166.294 179.060  1.00  0.00     0.006 C 
BRANCH  13  14
ATOM     14  C   UNL     1     160.961 165.823 180.147  1.00  0.00     0.053 C 
BRANCH  14  15
ATOM     15  C   UNL     1     160.515 166.974 180.993  1.00  0.00     0.041 C 
ATOM     16  O   UNL     1     160.092 166.775 182.165  1.00  0.00    -0.550 OA
ATOM     17  O   UNL     1     160.543 168.266 180.483  1.00  0.00    -0.550 OA
ENDBRANCH  14  15
ENDBRANCH  13  14
ENDBRANCH  12  13
ENDBRANCH  11  12
ENDBRANCH  10  11
ENDBRANCH   9  10
ENDBRANCH   8   9
ENDBRANCH   7   8
ENDBRANCH   6   7
ENDBRANCH   5   6
ENDBRANCH   4   5
ENDBRANCH   3   4
ENDBRANCH   2   3
ENDBRANCH   1   2
BRANCH   1  18
ATOM     18  C   UNL     1     164.795 164.259 182.167  1.00  0.00     0.000 C 
BRANCH  18  19
ATOM     19  C   UNL     1     165.703 163.656 183.250  1.00  0.00     0.000 C 
BRANCH  19  20
ATOM     20  C   UNL     1     167.126 163.367 182.726  1.00  0.00     0.000 C 
BRANCH  20  21
ATOM     21  C   UNL     1     167.991 162.522 183.683  1.00  0.00     0.000 C 
BRANCH  21  22
ATOM     22  C   UNL     1     167.212 161.575 184.611  1.00  0.00     0.000 C 
BRANCH  22  23
ATOM     23  C   UNL     1     166.949 160.171 184.032  1.00  0.00     0.000 C 
BRANCH  23  24
ATOM     24  C   UNL     1     165.461 159.888 183.727  1.00  0.00    -0.000 C 
BRANCH  24  25
ATOM     25  C   UNL     1     165.099 160.010 182.231  1.00  0.00    -0.000 C 
BRANCH  25  26
ATOM     26  C   UNL     1     166.317 160.017 181.291  1.00  0.00    -0.000 C 
BRANCH  26  27
ATOM     27  C   UNL     1     165.998 160.610 179.909  1.00  0.00    -0.000 C 
BRANCH  27  28
ATOM     28  C   UNL     1     167.086 161.568 179.393  1.00  0.00    -0.000 C 
BRANCH  28  29
ATOM     29  C   UNL     1     166.547 162.973 179.076  1.00  0.00    -0.000 C 
BRANCH  29  30
ATOM     30  C   UNL     1     166.499 163.217 177.559  1.00  0.00    -0.000 C 
BRANCH  30  31
ATOM     31  C   UNL     1     166.444 164.712 177.206  1.00  0.00    -0.003 C 
ATOM     32  C   UNL     1     166.886 165.610 178.363  1.00  0.00     0.004 C 
ENDBRANCH  30  31
ENDBRANCH  29  30
ENDBRANCH  28  29
ENDBRANCH  27  28
ENDBRANCH  26  27
ENDBRANCH  25  26
ENDBRANCH  24  25
ENDBRANCH  23  24
ENDBRANCH  22  23
ENDBRANCH  21  22
ENDBRANCH  20  21
ENDBRANCH  19  20
ENDBRANCH  18  19
ENDBRANCH   1  18
TORSDOF 28
ENDMDL
MODEL 5
REMARK VINA RESULT:    -4.117      4.869      9.135
REMARK INTER + INTRA:         -15.324
REMARK INTER:                  -9.367
REMARK INTRA:                  -5.957
REMARK UNBOUND:                -4.468
REMARK SMILES CCCCCCCCCCCCCCCCCCCCCCCCCCCCCC(=O)[O-]
REMARK SMILES IDX 16 1 17 2 18 3 19 4 20 5 21 6 22 7 23 8 24 9 25 10 26 11
REMARK SMILES IDX 27 12 28 13 29 14 30 15 31 16 32 17 15 18 14 19 13 20 12 21
REMARK SMILES IDX 11 22 10 23 9 24 8 25 7 26 6 27 5 28 4 29 3 30 2 31 1 32
REMARK H PARENT
REMARK Flexibility Score: inf
ROOT
ATOM      1  C   UNL     1     162.898 165.026 179.382  1.00  0.00     0.000 C 
ENDROOT
BRANCH   1   2
ATOM      2  C   UNL     1     161.448 164.777 179.826  1.00  0.00     0.000 C 
BRANCH   2   3
ATOM      3  C   UNL     1     160.930 165.869 180.776  1.00  0.00     0.000 C 
BRANCH   3   4
ATOM      4  C   UNL     1     160.270 165.279 182.033  1.00  0.00     0.000 C 
BRANCH   4   5
ATOM      5  C   UNL     1     160.060 163.760 181.940  1.00  0.00     0.000 C 
BRANCH   5   6
ATOM      6  C   UNL     1     160.559 163.013 183.189  1.00  0.00     0.000 C 
BRANCH   6   7
ATOM      7  C   UNL     1     160.134 161.533 183.200  1.00  0.00     0.000 C 
BRANCH   7   8
ATOM      8  C   UNL     1     160.884 160.654 182.184  1.00  0.00     0.000 C 
BRANCH   8   9
ATOM      9  C   UNL     1     160.069 160.408 180.903  1.00  0.00     0.000 C 
BRANCH   9  10
ATOM     10  C   UNL     1     160.754 160.956 179.636  1.00  0.00     0.000 C 
BRANCH  10  11
ATOM     11  C   UNL     1     162.295 160.898 179.652  1.00  0.00     0.000 C 
BRANCH  11  12
ATOM     12  C   UNL     1     162.923 161.268 178.297  1.00  0.00     0.000 C 
BRANCH  12  13
ATOM     13  C   UNL     1     161.950 162.019 177.375  1.00  0.00     0.006 C 
BRANCH  13  14
ATOM     14  C   UNL     1     162.672 162.913 176.357  1.00  0.00     0.053 C 
BRANCH  14  15
ATOM     15  C   UNL     1     162.451 162.416 174.964  1.00  0.00     0.041 C 
ATOM     16  O   UNL     1     161.705 161.420 174.755  1.00  0.00    -0.550 OA
ATOM     17  O   UNL     1     163.087 163.035 173.895  1.00  0.00    -0.550 OA
ENDBRANCH  14  15
ENDBRANCH  13  14
ENDBRANCH  12  13
ENDBRANCH  11  12
ENDBRANCH  10  11
ENDBRANCH   9  10
ENDBRANCH   8   9
ENDBRANCH   7   8
ENDBRANCH   6   7
ENDBRANCH   5   6
ENDBRANCH   4   5
ENDBRANCH   3   4
ENDBRANCH   2   3
ENDBRANCH   1   2
BRANCH   1  18
ATOM     18  C   UNL     1     163.857 164.917 180.572  1.00  0.00     0.000 C 
BRANCH  18  19
ATOM     19  C   UNL     1     163.790 163.523 181.214  1.00  0.00     0.000 C 
BRANCH  19  20
ATOM     20  C   UNL     1     164.272 163.531 182.681  1.00  0.00     0.000 C 
BRANCH  20  21
ATOM     21  C   UNL     1     164.107 162.179 183.406  1.00  0.00     0.000 C 
BRANCH  21  22
ATOM     22  C   UNL     1     164.550 160.944 182.603  1.00  0.00     0.000 C 
BRANCH  22  23
ATOM     23  C   UNL     1     165.681 160.122 183.251  1.00  0.00     0.000 C 
BRANCH  23  24
ATOM     24  C   UNL     1     166.652 160.962 184.111  1.00  0.00    -0.000 C 
BRANCH  24  25
ATOM     25  C   UNL     1     167.903 161.445 183.346  1.00  0.00    -0.000 C 
BRANCH  25  26
ATOM     26  C   UNL     1     168.509 160.386 182.408  1.00  0.00    -0.000 C 
BRANCH  26  27
ATOM     27  C   UNL     1     168.644 160.882 180.959  1.00  0.00    -0.000 C 
BRANCH  27  28
ATOM     28  C   UNL     1     167.409 160.574 180.094  1.00  0.00    -0.000 C 
BRANCH  28  29
ATOM     29  C   UNL     1     166.587 161.829 179.754  1.00  0.00    -0.000 C 
BRANCH  29  30
ATOM     30  C   UNL     1     167.336 163.108 180.164  1.00  0.00    -0.000 C 
BRANCH  30  31
ATOM     31  C   UNL     1     167.326 164.175 179.058  1.00  0.00    -0.003 C 
ATOM     32  C   UNL     1     168.653 164.257 178.302  1.00  0.00     0.004 C 
ENDBRANCH  30  31
ENDBRANCH  29  30
ENDBRANCH  28  29
ENDBRANCH  27  28
ENDBRANCH  26  27
ENDBRANCH  25  26
ENDBRANCH  24  25
ENDBRANCH  23  24
ENDBRANCH  22  23
ENDBRANCH  21  22
ENDBRANCH  20  21
ENDBRANCH  19  20
ENDBRANCH  18  19
ENDBRANCH   1  18
TORSDOF 28
ENDMDL
MODEL 6
REMARK VINA RESULT:    -4.086      5.229      9.135
REMARK INTER + INTRA:         -15.243
REMARK INTER:                  -8.905
REMARK INTRA:                  -6.338
REMARK UNBOUND:                -4.468
REMARK SMILES CCCCCCCCCCCCCCCCCCCCCCCCCCCCCC(=O)[O-]
REMARK SMILES IDX 16 1 17 2 18 3 19 4 20 5 21 6 22 7 23 8 24 9 25 10 26 11
REMARK SMILES IDX 27 12 28 13 29 14 30 15 31 16 32 17 15 18 14 19 13 20 12 21
REMARK SMILES IDX 11 22 10 23 9 24 8 25 7 26 6 27 5 28 4 29 3 30 2 31 1 32
REMARK H PARENT
REMARK Flexibility Score: inf
ROOT
ATOM      1  C   UNL     1     164.554 162.225 183.250  1.00  0.00     0.000 C 
ENDROOT
BRANCH   1   2
ATOM      2  C   UNL     1     163.289 163.096 183.219  1.00  0.00     0.000 C 
BRANCH   2   3
ATOM      3  C   UNL     1     162.008 162.279 183.455  1.00  0.00     0.000 C 
BRANCH   3   4
ATOM      4  C   UNL     1     160.761 162.977 182.888  1.00  0.00     0.000 C 
BRANCH   4   5
ATOM      5  C   UNL     1     160.054 162.149 181.804  1.00  0.00     0.000 C 
BRANCH   5   6
ATOM      6  C   UNL     1     160.636 160.731 181.667  1.00  0.00     0.000 C 
BRANCH   6   7
ATOM      7  C   UNL     1     161.011 160.387 180.214  1.00  0.00     0.000 C 
BRANCH   7   8
ATOM      8  C   UNL     1     162.372 160.945 179.764  1.00  0.00     0.000 C 
BRANCH   8   9
ATOM      9  C   UNL     1     162.235 162.236 178.937  1.00  0.00     0.000 C 
BRANCH   9  10
ATOM     10  C   UNL     1     162.988 163.430 179.552  1.00  0.00     0.000 C 
BRANCH  10  11
ATOM     11  C   UNL     1     162.120 164.673 179.835  1.00  0.00     0.000 C 
BRANCH  11  12
ATOM     12  C   UNL     1     162.890 165.791 180.559  1.00  0.00     0.000 C 
BRANCH  12  13
ATOM     13  C   UNL     1     162.203 166.244 181.855  1.00  0.00     0.006 C 
BRANCH  13  14
ATOM     14  C   UNL     1     160.693 166.462 181.678  1.00  0.00     0.053 C 
BRANCH  14  15
ATOM     15  C   UNL     1     160.375 167.922 181.592  1.00  0.00     0.041 C 
ATOM     16  O   UNL     1     160.192 168.468 180.469  1.00  0.00    -0.550 OA
ATOM     17  O   UNL     1     160.303 168.688 182.749  1.00  0.00    -0.550 OA
ENDBRANCH  14  15
ENDBRANCH  13  14
ENDBRANCH  12  13
ENDBRANCH  11  12
ENDBRANCH  10  11
ENDBRANCH   9  10
ENDBRANCH   8   9
ENDBRANCH   7   8
ENDBRANCH   6   7
ENDBRANCH   5   6
ENDBRANCH   4   5
ENDBRANCH   3   4
ENDBRANCH   2   3
ENDBRANCH   1   2
BRANCH   1  18
ATOM     18  C   UNL     1     164.238 160.790 182.816  1.00  0.00     0.000 C 
BRANCH  18  19
ATOM     19  C   UNL     1     165.515 159.940 182.735  1.00  0.00     0.000 C 
BRANCH  19  20
ATOM     20  C   UNL     1     166.452 160.175 183.939  1.00  0.00     0.000 C 
BRANCH  20  21
ATOM     21  C   UNL     1     167.830 160.758 183.562  1.00  0.00     0.000 C 
BRANCH  21  22
ATOM     22  C   UNL     1     168.377 160.320 182.193  1.00  0.00     0.000 C 
BRANCH  22  23
ATOM     23  C   UNL     1     168.496 161.450 181.152  1.00  0.00     0.000 C 
BRANCH  23  24
ATOM     24  C   UNL     1     167.659 161.215 179.874  1.00  0.00    -0.000 C 
BRANCH  24  25
ATOM     25  C   UNL     1     166.417 162.125 179.767  1.00  0.00    -0.000 C 
BRANCH  25  26
ATOM     26  C   UNL     1     166.482 163.380 180.656  1.00  0.00    -0.000 C 
BRANCH  26  27
ATOM     27  C   UNL     1     166.470 164.685 179.845  1.00  0.00    -0.000 C 
BRANCH  27  28
ATOM     28  C   UNL     1     166.549 165.947 180.722  1.00  0.00    -0.000 C 
BRANCH  28  29
ATOM     29  C   UNL     1     166.243 165.667 182.203  1.00  0.00    -0.000 C 
BRANCH  29  30
ATOM     30  C   UNL     1     167.067 166.585 183.120  1.00  0.00    -0.000 C 
BRANCH  30  31
ATOM     31  C   UNL     1     167.869 165.801 184.171  1.00  0.00    -0.003 C 
ATOM     32  C   UNL     1     167.766 164.286 183.984  1.00  0.00     0.004 C 
ENDBRANCH  30  31
ENDBRANCH  29  30
ENDBRANCH  28  29
ENDBRANCH  27  28
ENDBRANCH  26  27
ENDBRANCH  25  26
ENDBRANCH  24  25
ENDBRANCH  23  24
ENDBRANCH  22  23
ENDBRANCH  21  22
ENDBRANCH  20  21
ENDBRANCH  19  20
ENDBRANCH  18  19
ENDBRANCH   1  18
TORSDOF 28
ENDMDL
MODEL 7
REMARK VINA RESULT:    -4.076      4.816      9.477
REMARK INTER + INTRA:         -15.215
REMARK INTER:                  -9.519
REMARK INTRA:                  -5.696
REMARK UNBOUND:                -4.468
REMARK SMILES CCCCCCCCCCCCCCCCCCCCCCCCCCCCCC(=O)[O-]
REMARK SMILES IDX 16 1 17 2 18 3 19 4 20 5 21 6 22 7 23 8 24 9 25 10 26 11
REMARK SMILES IDX 27 12 28 13 29 14 30 15 31 16 32 17 15 18 14 19 13 20 12 21
REMARK SMILES IDX 11 22 10 23 9 24 8 25 7 26 6 27 5 28 4 29 3 30 2 31 1 32
REMARK H PARENT
REMARK Flexibility Score: inf
ROOT
ATOM      1  C   UNL     1     164.698 162.111 181.023  1.00  0.00     0.000 C 
ENDROOT
BRANCH   1   2
ATOM      2  C   UNL     1     164.689 160.719 180.374  1.00  0.00     0.000 C 
BRANCH   2   3
ATOM      3  C   UNL     1     163.799 160.662 179.122  1.00  0.00     0.000 C 
BRANCH   3   4
ATOM      4  C   UNL     1     163.122 162.011 178.828  1.00  0.00     0.000 C 
BRANCH   4   5
ATOM      5  C   UNL     1     162.124 161.937 177.662  1.00  0.00     0.000 C 
BRANCH   5   6
ATOM      6  C   UNL     1     160.659 161.959 178.131  1.00  0.00     0.000 C 
BRANCH   6   7
ATOM      7  C   UNL     1     160.532 161.936 179.666  1.00  0.00     0.000 C 
BRANCH   7   8
ATOM      8  C   UNL     1     160.060 160.588 180.240  1.00  0.00     0.000 C 
BRANCH   8   9
ATOM      9  C   UNL     1     160.096 160.559 181.778  1.00  0.00     0.000 C 
BRANCH   9  10
ATOM     10  C   UNL     1     161.503 160.807 182.355  1.00  0.00     0.000 C 
BRANCH  10  11
ATOM     11  C   UNL     1     161.633 162.063 183.239  1.00  0.00     0.000 C 
BRANCH  11  12
ATOM     12  C   UNL     1     160.371 162.943 183.222  1.00  0.00     0.000 C 
BRANCH  12  13
ATOM     13  C   UNL     1     160.540 164.207 182.365  1.00  0.00     0.006 C 
BRANCH  13  14
ATOM     14  C   UNL     1     162.004 164.472 181.984  1.00  0.00     0.053 C 
BRANCH  14  15
ATOM     15  C   UNL     1     162.093 165.135 180.646  1.00  0.00     0.041 C 
ATOM     16  O   UNL     1     161.046 165.524 180.059  1.00  0.00    -0.550 OA
ATOM     17  O   UNL     1     163.328 165.304 180.034  1.00  0.00    -0.550 OA
ENDBRANCH  14  15
ENDBRANCH  13  14
ENDBRANCH  12  13
ENDBRANCH  11  12
ENDBRANCH  10  11
ENDBRANCH   9  10
ENDBRANCH   8   9
ENDBRANCH   7   8
ENDBRANCH   6   7
ENDBRANCH   5   6
ENDBRANCH   4   5
ENDBRANCH   3   4
ENDBRANCH   2   3
ENDBRANCH   1   2
BRANCH   1  18
ATOM     18  C   UNL     1     165.228 162.038 182.460  1.00  0.00     0.000 C 
BRANCH  18  19
ATOM     19  C   UNL     1     165.192 160.598 182.992  1.00  0.00     0.000 C 
BRANCH  19  20
ATOM     20  C   UNL     1     166.453 160.244 183.809  1.00  0.00     0.000 C 
BRANCH  20  21
ATOM     21  C   UNL     1     167.635 161.212 183.594  1.00  0.00     0.000 C 
BRANCH  21  22
ATOM     22  C   UNL     1     168.852 160.614 182.869  1.00  0.00     0.000 C 
BRANCH  22  23
ATOM     23  C   UNL     1     169.256 161.341 181.571  1.00  0.00     0.000 C 
BRANCH  23  24
ATOM     24  C   UNL     1     168.569 160.785 180.303  1.00  0.00    -0.000 C 
BRANCH  24  25
ATOM     25  C   UNL     1     168.258 161.862 179.242  1.00  0.00    -0.000 C 
BRANCH  25  26
ATOM     26  C   UNL     1     167.346 161.372 178.102  1.00  0.00    -0.000 C 
BRANCH  26  27
ATOM     27  C   UNL     1     166.469 162.492 177.519  1.00  0.00    -0.000 C 
BRANCH  27  28
ATOM     28  C   UNL     1     165.858 162.135 176.153  1.00  0.00    -0.000 C 
BRANCH  28  29
ATOM     29  C   UNL     1     165.939 160.632 175.835  1.00  0.00    -0.000 C 
BRANCH  29  30
ATOM     30  C   UNL     1     164.536 160.022 175.688  1.00  0.00    -0.000 C 
BRANCH  30  31
ATOM     31  C   UNL     1     164.010 160.095 174.245  1.00  0.00    -0.003 C 
ATOM     32  C   UNL     1     165.110 159.878 173.203  1.00  0.00     0.004 C 
ENDBRANCH  30  31
ENDBRANCH  29  30
ENDBRANCH  28  29
ENDBRANCH  27  28
ENDBRANCH  26  27
ENDBRANCH  25  26
ENDBRANCH  24  25
ENDBRANCH  23  24
ENDBRANCH  22  23
ENDBRANCH  21  22
ENDBRANCH  20  21
ENDBRANCH  19  20
ENDBRANCH  18  19
ENDBRANCH   1  18
TORSDOF 28
ENDMDL
MODEL 8
REMARK VINA RESULT:    -4.057      4.279      6.860
REMARK INTER + INTRA:         -15.166
REMARK INTER:                  -9.849
REMARK INTRA:                  -5.316
REMARK UNBOUND:                -4.468
REMARK SMILES CCCCCCCCCCCCCCCCCCCCCCCCCCCCCC(=O)[O-]
REMARK SMILES IDX 16 1 17 2 18 3 19 4 20 5 21 6 22 7 23 8 24 9 25 10 26 11
REMARK SMILES IDX 27 12 28 13 29 14 30 15 31 16 32 17 15 18 14 19 13 20 12 21
REMARK SMILES IDX 11 22 10 23 9 24 8 25 7 26 6 27 5 28 4 29 3 30 2 31 1 32
REMARK H PARENT
REMARK Flexibility Score: inf
ROOT
ATOM      1  C   UNL     1     163.400 160.670 183.113  1.00  0.00     0.000 C 
ENDROOT
BRANCH   1   2
ATOM      2  C   UNL     1     164.906 160.703 182.815  1.00  0.00     0.000 C 
BRANCH   2   3
ATOM      3  C   UNL     1     165.570 162.007 183.289  1.00  0.00     0.000 C 
BRANCH   3   4
ATOM      4  C   UNL     1     166.887 161.749 184.040  1.00  0.00     0.000 C 
BRANCH   4   5
ATOM      5  C   UNL     1     167.605 160.476 183.564  1.00  0.00     0.000 C 
BRANCH   5   6
ATOM      6  C   UNL     1     168.732 160.771 182.559  1.00  0.00     0.000 C 
BRANCH   6   7
ATOM      7  C   UNL     1     168.385 160.307 181.132  1.00  0.00     0.000 C 
BRANCH   7   8
ATOM      8  C   UNL     1     168.309 161.446 180.100  1.00  0.00     0.000 C 
BRANCH   8   9
ATOM      9  C   UNL     1     166.882 161.998 179.937  1.00  0.00     0.000 C 
BRANCH   9  10
ATOM     10  C   UNL     1     166.796 163.521 180.152  1.00  0.00     0.000 C 
BRANCH  10  11
ATOM     11  C   UNL     1     166.160 164.309 178.989  1.00  0.00     0.000 C 
BRANCH  11  12
ATOM     12  C   UNL     1     164.872 165.047 179.398  1.00  0.00     0.000 C 
BRANCH  12  13
ATOM     13  C   UNL     1     164.040 164.265 180.426  1.00  0.00     0.006 C 
BRANCH  13  14
ATOM     14  C   UNL     1     163.340 165.183 181.439  1.00  0.00     0.053 C 
BRANCH  14  15
ATOM     15  C   UNL     1     164.336 166.046 182.148  1.00  0.00     0.041 C 
ATOM     16  O   UNL     1     165.286 165.524 182.793  1.00  0.00    -0.550 OA
ATOM     17  O   UNL     1     164.203 167.429 182.117  1.00  0.00    -0.550 OA
ENDBRANCH  14  15
ENDBRANCH  13  14
ENDBRANCH  12  13
ENDBRANCH  11  12
ENDBRANCH  10  11
ENDBRANCH   9  10
ENDBRANCH   8   9
ENDBRANCH   7   8
ENDBRANCH   6   7
ENDBRANCH   5   6
ENDBRANCH   4   5
ENDBRANCH   3   4
ENDBRANCH   2   3
ENDBRANCH   1   2
BRANCH   1  18
ATOM     18  C   UNL     1     162.839 162.090 183.241  1.00  0.00     0.000 C 
BRANCH  18  19
ATOM     19  C   UNL     1     161.339 162.067 183.572  1.00  0.00     0.000 C 
BRANCH  19  20
ATOM     20  C   UNL     1     160.532 163.049 182.696  1.00  0.00     0.000 C 
BRANCH  20  21
ATOM     21  C   UNL     1     160.219 162.520 181.281  1.00  0.00     0.000 C 
BRANCH  21  22
ATOM     22  C   UNL     1     160.119 160.991 181.157  1.00  0.00     0.000 C 
BRANCH  22  23
ATOM     23  C   UNL     1     161.151 160.349 180.209  1.00  0.00     0.000 C 
BRANCH  23  24
ATOM     24  C   UNL     1     162.060 161.371 179.489  1.00  0.00    -0.000 C 
BRANCH  24  25
ATOM     25  C   UNL     1     163.505 160.874 179.271  1.00  0.00    -0.000 C 
BRANCH  25  26
ATOM     26  C   UNL     1     163.894 160.709 177.792  1.00  0.00    -0.000 C 
BRANCH  26  27
ATOM     27  C   UNL     1     164.061 162.055 177.067  1.00  0.00    -0.000 C 
BRANCH  27  28
ATOM     28  C   UNL     1     163.934 161.942 175.538  1.00  0.00    -0.000 C 
BRANCH  28  29
ATOM     29  C   UNL     1     162.620 162.534 175.001  1.00  0.00    -0.000 C 
BRANCH  29  30
ATOM     30  C   UNL     1     161.496 161.484 175.010  1.00  0.00    -0.000 C 
BRANCH  30  31
ATOM     31  C   UNL     1     160.949 161.197 173.602  1.00  0.00    -0.003 C 
ATOM     32  C   UNL     1     161.548 162.115 172.535  1.00  0.00     0.004 C 
ENDBRANCH  30  31
ENDBRANCH  29  30
ENDBRANCH  28  29
ENDBRANCH  27  28
ENDBRANCH  26  27
ENDBRANCH  25  26
ENDBRANCH  24  25
ENDBRANCH  23  24
ENDBRANCH  22  23
ENDBRANCH  21  22
ENDBRANCH  20  21
ENDBRANCH  19  20
ENDBRANCH  18  19
ENDBRANCH   1  18
TORSDOF 28
ENDMDL
MODEL 9
REMARK VINA RESULT:    -3.993      4.788      6.766
REMARK INTER + INTRA:         -14.996
REMARK INTER:                  -8.879
REMARK INTRA:                  -6.117
REMARK UNBOUND:                -4.468
REMARK SMILES CCCCCCCCCCCCCCCCCCCCCCCCCCCCCC(=O)[O-]
REMARK SMILES IDX 16 1 17 2 18 3 19 4 20 5 21 6 22 7 23 8 24 9 25 10 26 11
REMARK SMILES IDX 27 12 28 13 29 14 30 15 31 16 32 17 15 18 14 19 13 20 12 21
REMARK SMILES IDX 11 22 10 23 9 24 8 25 7 26 6 27 5 28 4 29 3 30 2 31 1 32
REMARK H PARENT
REMARK Flexibility Score: inf
ROOT
ATOM      1  C   UNL     1     165.743 163.275 183.401  1.00  0.00     0.000 C 
ENDROOT
BRANCH   1   2
ATOM      2  C   UNL     1     166.482 163.106 184.737  1.00  0.00     0.000 C 
BRANCH   2   3
ATOM      3  C   UNL     1     167.390 161.865 184.752  1.00  0.00     0.000 C 
BRANCH   3   4
ATOM      4  C   UNL     1     167.030 160.869 183.636  1.00  0.00     0.000 C 
BRANCH   4   5
ATOM      5  C   UNL     1     168.188 160.628 182.656  1.00  0.00     0.000 C 
BRANCH   5   6
ATOM      6  C   UNL     1     167.703 160.301 181.232  1.00  0.00     0.000 C 
BRANCH   6   7
ATOM      7  C   UNL     1     166.168 160.230 181.136  1.00  0.00     0.000 C 
BRANCH   7   8
ATOM      8  C   UNL     1     165.603 160.622 179.759  1.00  0.00     0.000 C 
BRANCH   8   9
ATOM      9  C   UNL     1     166.417 161.743 179.087  1.00  0.00     0.000 C 
BRANCH   9  10
ATOM     10  C   UNL     1     165.689 163.100 179.087  1.00  0.00     0.000 C 
BRANCH  10  11
ATOM     11  C   UNL     1     164.996 163.468 177.760  1.00  0.00     0.000 C 
BRANCH  11  12
ATOM     12  C   UNL     1     165.184 164.946 177.375  1.00  0.00     0.000 C 
BRANCH  12  13
ATOM     13  C   UNL     1     163.875 165.747 177.433  1.00  0.00     0.006 C 
BRANCH  13  14
ATOM     14  C   UNL     1     164.112 167.264 177.476  1.00  0.00     0.053 C 
BRANCH  14  15
ATOM     15  C   UNL     1     163.022 167.950 178.237  1.00  0.00     0.041 C 
ATOM     16  O   UNL     1     163.300 168.680 179.228  1.00  0.00    -0.550 OA
ATOM     17  O   UNL     1     161.695 167.766 177.870  1.00  0.00    -0.550 OA
ENDBRANCH  14  15
ENDBRANCH  13  14
ENDBRANCH  12  13
ENDBRANCH  11  12
ENDBRANCH  10  11
ENDBRANCH   9  10
ENDBRANCH   8   9
ENDBRANCH   7   8
ENDBRANCH   6   7
ENDBRANCH   5   6
ENDBRANCH   4   5
ENDBRANCH   3   4
ENDBRANCH   2   3
ENDBRANCH   1   2
BRANCH   1  18
ATOM     18  C   UNL     1     164.230 163.130 183.594  1.00  0.00     0.000 C 
BRANCH  18  19
ATOM     19  C   UNL     1     163.632 162.143 182.580  1.00  0.00     0.000 C 
BRANCH  19  20
ATOM     20  C   UNL     1     162.518 161.272 183.198  1.00  0.00     0.000 C 
BRANCH  20  21
ATOM     21  C   UNL     1     161.217 162.040 183.511  1.00  0.00     0.000 C 
BRANCH  21  22
ATOM     22  C   UNL     1     160.002 161.653 182.651  1.00  0.00     0.000 C 
BRANCH  22  23
ATOM     23  C   UNL     1     160.221 160.434 181.733  1.00  0.00     0.000 C 
BRANCH  23  24
ATOM     24  C   UNL     1     160.256 160.783 180.228  1.00  0.00    -0.000 C 
BRANCH  24  25
ATOM     25  C   UNL     1     161.678 161.032 179.680  1.00  0.00    -0.000 C 
BRANCH  25  26
ATOM     26  C   UNL     1     161.979 162.509 179.367  1.00  0.00    -0.000 C 
BRANCH  26  27
ATOM     27  C   UNL     1     160.732 163.403 179.463  1.00  0.00    -0.000 C 
BRANCH  27  28
ATOM     28  C   UNL     1     161.049 164.841 179.907  1.00  0.00    -0.000 C 
BRANCH  28  29
ATOM     29  C   UNL     1     161.142 164.990 181.435  1.00  0.00    -0.000 C 
BRANCH  29  30
ATOM     30  C   UNL     1     162.377 165.812 181.837  1.00  0.00    -0.000 C 
BRANCH  30  31
ATOM     31  C   UNL     1     163.600 165.505 180.956  1.00  0.00    -0.003 C 
ATOM     32  C   UNL     1     164.853 166.263 181.398  1.00  0.00     0.004 C 
ENDBRANCH  30  31
ENDBRANCH  29  30
ENDBRANCH  28  29
ENDBRANCH  27  28
ENDBRANCH  26  27
ENDBRANCH  25  26
ENDBRANCH  24  25
ENDBRANCH  23  24
ENDBRANCH  22  23
ENDBRANCH  21  22
ENDBRANCH  20  21
ENDBRANCH  19  20
ENDBRANCH  18  19
ENDBRANCH   1  18
TORSDOF 28
ENDMDL
