MODEL 1
REMARK VINA RESULT:    21.174      0.000      0.000
REMARK INTER + INTRA:          51.980
REMARK INTER:                  53.357
REMARK INTRA:                  -1.377
REMARK UNBOUND:                -1.377
REMARK SMILES CCCCCCCCCCCCCCCCCCCCCCCCCCCC(=O)[O-]
REMARK SMILES IDX 15 1 16 2 17 3 18 4 19 5 20 6 21 7 22 8 23 9 24 10 25 11
REMARK SMILES IDX 26 12 27 13 28 14 29 15 30 16 14 17 13 18 12 19 11 20 10 21
REMARK SMILES IDX 9 22 8 23 7 24 6 25 5 26 4 27 3 28 2 29 1 30
REMARK H PARENT
REMARK Flexibility Score: inf
ROOT
ATOM      1  C   UNL     1       7.582  17.122  27.263  1.00  0.00     0.000 C 
ENDROOT
BRANCH   1   2
ATOM      2  C   UNL     1       8.678  17.798  28.096  1.00  0.00     0.000 C 
BRANCH   2   3
ATOM      3  C   UNL     1      10.018  17.066  27.934  1.00  0.00     0.000 C 
BRANCH   3   4
ATOM      4  C   UNL     1      10.003  16.078  26.747  1.00  0.00     0.000 C 
BRANCH   4   5
ATOM      5  C   UNL     1      10.006  14.603  27.180  1.00  0.00     0.000 C 
BRANCH   5   6
ATOM      6  C   UNL     1      10.863  13.719  26.259  1.00  0.00     0.000 C 
BRANCH   6   7
ATOM      7  C   UNL     1      11.796  12.778  27.037  1.00  0.00     0.000 C 
BRANCH   7   8
ATOM      8  C   UNL     1      11.047  11.625  27.723  1.00  0.00     0.000 C 
BRANCH   8   9
ATOM      9  C   UNL     1       9.982  11.030  26.790  1.00  0.00     0.000 C 
BRANCH   9  10
ATOM     10  C   UNL     1       9.584   9.594  27.176  1.00  0.00     0.000 C 
BRANCH  10  11
ATOM     11  C   UNL     1       8.121   9.219  26.869  1.00  0.00     0.000 C 
BRANCH  11  12
ATOM     12  C   UNL     1       7.146   9.380  28.053  1.00  0.00     0.006 C 
BRANCH  12  13
ATOM     13  C   UNL     1       5.676   9.563  27.642  1.00  0.00     0.053 C 
BRANCH  13  14
ATOM     14  C   UNL     1       5.431  10.891  26.994  1.00  0.00     0.041 C 
ATOM     15  O   UNL     1       4.928  11.838  27.656  1.00  0.00    -0.550 OA
ATOM     16  O   UNL     1       5.795  11.095  25.668  1.00  0.00    -0.550 OA
ENDBRANCH  13  14
ENDBRANCH  12  13
ENDBRANCH  11  12
ENDBRANCH  10  11
ENDBRANCH   9  10
ENDBRANCH   8   9
ENDBRANCH   7   8
ENDBRANCH   6   7
ENDBRANCH   5   6
ENDBRANCH   4   5
ENDBRANCH   3   4
ENDBRANCH   2   3
ENDBRANCH   1   2
BRANCH   1  17
ATOM     17  C   UNL     1       7.111  18.036  26.121  1.00  0.00     0.000 C 
BRANCH  17  18
ATOM     18  C   UNL     1       5.690  18.577  26.348  1.00  0.00     0.000 C 
BRANCH  18  19
ATOM     19  C   UNL     1       4.810  17.606  27.155  1.00  0.00     0.000 C 
BRANCH  19  20
ATOM     20  C   UNL     1       3.350  18.081  27.250  1.00  0.00     0.000 C 
BRANCH  20  21
ATOM     21  C   UNL     1       2.577  18.001  25.915  1.00  0.00     0.000 C 
BRANCH  21  22
ATOM     22  C   UNL     1       1.240  17.241  26.018  1.00  0.00    -0.000 C 
BRANCH  22  23
ATOM     23  C   UNL     1       0.574  16.919  24.666  1.00  0.00    -0.000 C 
BRANCH  23  24
ATOM     24  C   UNL     1       0.191  18.148  23.821  1.00  0.00    -0.000 C 
BRANCH  24  25
ATOM     25  C   UNL     1       0.256  19.463  24.612  1.00  0.00    -0.000 C 
BRANCH  25  26
ATOM     26  C   UNL     1       0.740  20.616  23.725  1.00  0.00    -0.000 C 
BRANCH  26  27
ATOM     27  C   UNL     1       1.921  20.175  22.848  1.00  0.00    -0.000 C 
BRANCH  27  28
ATOM     28  C   UNL     1       2.861  21.336  22.478  1.00  0.00    -0.000 C 
BRANCH  28  29
ATOM     29  C   UNL     1       4.348  20.952  22.361  1.00  0.00    -0.003 C 
ATOM     30  C   UNL     1       4.693  19.666  23.113  1.00  0.00     0.004 C 
ENDBRANCH  28  29
ENDBRANCH  27  28
ENDBRANCH  26  27
ENDBRANCH  25  26
ENDBRANCH  24  25
ENDBRANCH  23  24
ENDBRANCH  22  23
ENDBRANCH  21  22
ENDBRANCH  20  21
ENDBRANCH  19  20
ENDBRANCH  18  19
ENDBRANCH  17  18
ENDBRANCH   1  17
TORSDOF 26
ENDMDL
MODEL 2
REMARK VINA RESULT:    21.257      0.716      1.350
REMARK INTER + INTRA:          52.189
REMARK INTER:                  53.802
REMARK INTRA:                  -1.613
REMARK UNBOUND:                -1.377
REMARK SMILES CCCCCCCCCCCCCCCCCCCCCCCCCCCC(=O)[O-]
REMARK SMILES IDX 15 1 16 2 17 3 18 4 19 5 20 6 21 7 22 8 23 9 24 10 25 11
REMARK SMILES IDX 26 12 27 13 28 14 29 15 30 16 14 17 13 18 12 19 11 20 10 21
REMARK SMILES IDX 9 22 8 23 7 24 6 25 5 26 4 27 3 28 2 29 1 30
REMARK H PARENT
REMARK Flexibility Score: inf
ROOT
ATOM      1  C   UNL     1       7.020  18.340  26.127  1.00  0.00     0.000 C 
ENDROOT
BRANCH   1   2
ATOM      2  C   UNL     1       7.542  17.102  26.865  1.00  0.00     0.000 C 
BRANCH   2   3
ATOM      3  C   UNL     1       8.654  17.483  27.855  1.00  0.00     0.000 C 
BRANCH   3   4
ATOM      4  C   UNL     1       9.895  16.575  27.714  1.00  0.00     0.000 C 
BRANCH   4   5
ATOM      5  C   UNL     1       9.657  15.349  26.816  1.00  0.00     0.000 C 
BRANCH   5   6
ATOM      6  C   UNL     1      10.943  14.547  26.558  1.00  0.00     0.000 C 
BRANCH   6   7
ATOM      7  C   UNL     1      10.688  13.036  26.439  1.00  0.00     0.000 C 
BRANCH   7   8
ATOM      8  C   UNL     1      11.523  12.208  27.428  1.00  0.00     0.000 C 
BRANCH   8   9
ATOM      9  C   UNL     1      10.706  11.035  27.990  1.00  0.00     0.000 C 
BRANCH   9  10
ATOM     10  C   UNL     1      10.118  10.135  26.888  1.00  0.00     0.000 C 
BRANCH  10  11
ATOM     11  C   UNL     1       9.027   9.155  27.362  1.00  0.00     0.000 C 
BRANCH  11  12
ATOM     12  C   UNL     1       7.625   9.406  26.773  1.00  0.00     0.006 C 
BRANCH  12  13
ATOM     13  C   UNL     1       6.549   9.745  27.816  1.00  0.00     0.053 C 
BRANCH  13  14
ATOM     14  C   UNL     1       5.467  10.614  27.252  1.00  0.00     0.041 C 
ATOM     15  O   UNL     1       5.706  11.373  26.275  1.00  0.00    -0.550 OA
ATOM     16  O   UNL     1       4.182  10.555  27.781  1.00  0.00    -0.550 OA
ENDBRANCH  13  14
ENDBRANCH  12  13
ENDBRANCH  11  12
ENDBRANCH  10  11
ENDBRANCH   9  10
ENDBRANCH   8   9
ENDBRANCH   7   8
ENDBRANCH   6   7
ENDBRANCH   5   6
ENDBRANCH   4   5
ENDBRANCH   3   4
ENDBRANCH   2   3
ENDBRANCH   1   2
BRANCH   1  17
ATOM     17  C   UNL     1       5.486  18.408  26.176  1.00  0.00     0.000 C 
BRANCH  17  18
ATOM     18  C   UNL     1       4.914  17.860  27.494  1.00  0.00     0.000 C 
BRANCH  18  19
ATOM     19  C   UNL     1       3.380  17.734  27.464  1.00  0.00     0.000 C 
BRANCH  19  20
ATOM     20  C   UNL     1       2.807  17.901  26.046  1.00  0.00     0.000 C 
BRANCH  20  21
ATOM     21  C   UNL     1       1.278  17.692  25.960  1.00  0.00     0.000 C 
BRANCH  21  22
ATOM     22  C   UNL     1       0.851  16.685  24.875  1.00  0.00    -0.000 C 
BRANCH  22  23
ATOM     23  C   UNL     1       0.022  17.289  23.724  1.00  0.00    -0.000 C 
BRANCH  23  24
ATOM     24  C   UNL     1      -0.013  18.829  23.687  1.00  0.00    -0.000 C 
BRANCH  24  25
ATOM     25  C   UNL     1       1.202  19.439  22.973  1.00  0.00    -0.000 C 
BRANCH  25  26
ATOM     26  C   UNL     1       1.531  20.827  23.535  1.00  0.00    -0.000 C 
BRANCH  26  27
ATOM     27  C   UNL     1       2.487  21.585  22.602  1.00  0.00    -0.000 C 
BRANCH  27  28
ATOM     28  C   UNL     1       3.705  20.744  22.179  1.00  0.00    -0.000 C 
BRANCH  28  29
ATOM     29  C   UNL     1       4.644  20.342  23.331  1.00  0.00    -0.003 C 
ATOM     30  C   UNL     1       5.132  18.896  23.227  1.00  0.00     0.004 C 
ENDBRANCH  28  29
ENDBRANCH  27  28
ENDBRANCH  26  27
ENDBRANCH  25  26
ENDBRANCH  24  25
ENDBRANCH  23  24
ENDBRANCH  22  23
ENDBRANCH  21  22
ENDBRANCH  20  21
ENDBRANCH  19  20
ENDBRANCH  18  19
ENDBRANCH  17  18
ENDBRANCH   1  17
TORSDOF 26
ENDMDL
MODEL 3
REMARK VINA RESULT:    21.459      0.785      2.728
REMARK INTER + INTRA:          52.699
REMARK INTER:                  54.675
REMARK INTRA:                  -1.976
REMARK UNBOUND:                -1.377
REMARK SMILES CCCCCCCCCCCCCCCCCCCCCCCCCCCC(=O)[O-]
REMARK SMILES IDX 15 1 16 2 17 3 18 4 19 5 20 6 21 7 22 8 23 9 24 10 25 11
REMARK SMILES IDX 26 12 27 13 28 14 29 15 30 16 14 17 13 18 12 19 11 20 10 21
REMARK SMILES IDX 9 22 8 23 7 24 6 25 5 26 4 27 3 28 2 29 1 30
REMARK H PARENT
REMARK Flexibility Score: inf
ROOT
ATOM      1  C   UNL     1       7.352  17.150  26.886  1.00  0.00     0.000 C 
ENDROOT
BRANCH   1   2
ATOM      2  C   UNL     1       8.238  17.452  28.101  1.00  0.00     0.000 C 
BRANCH   2   3
ATOM      3  C   UNL     1       9.630  16.827  27.932  1.00  0.00     0.000 C 
BRANCH   3   4
ATOM      4  C   UNL     1       9.652  15.741  26.833  1.00  0.00     0.000 C 
BRANCH   4   5
ATOM      5  C   UNL     1      10.921  14.873  26.857  1.00  0.00     0.000 C 
BRANCH   5   6
ATOM      6  C   UNL     1      10.634  13.399  26.526  1.00  0.00     0.000 C 
BRANCH   6   7
ATOM      7  C   UNL     1      11.470  12.426  27.373  1.00  0.00     0.000 C 
BRANCH   7   8
ATOM      8  C   UNL     1      10.716  11.134  27.719  1.00  0.00     0.000 C 
BRANCH   8   9
ATOM      9  C   UNL     1      10.170  10.459  26.452  1.00  0.00     0.000 C 
BRANCH   9  10
ATOM     10  C   UNL     1       9.413   9.153  26.748  1.00  0.00     0.000 C 
BRANCH  10  11
ATOM     11  C   UNL     1       8.698   9.110  28.113  1.00  0.00     0.000 C 
BRANCH  11  12
ATOM     12  C   UNL     1       7.159   9.171  28.045  1.00  0.00     0.006 C 
BRANCH  12  13
ATOM     13  C   UNL     1       6.601   9.634  26.690  1.00  0.00     0.053 C 
BRANCH  13  14
ATOM     14  C   UNL     1       5.614  10.751  26.837  1.00  0.00     0.041 C 
ATOM     15  O   UNL     1       4.798  10.756  27.797  1.00  0.00    -0.550 OA
ATOM     16  O   UNL     1       5.622  11.808  25.934  1.00  0.00    -0.550 OA
ENDBRANCH  13  14
ENDBRANCH  12  13
ENDBRANCH  11  12
ENDBRANCH  10  11
ENDBRANCH   9  10
ENDBRANCH   8   9
ENDBRANCH   7   8
ENDBRANCH   6   7
ENDBRANCH   5   6
ENDBRANCH   4   5
ENDBRANCH   3   4
ENDBRANCH   2   3
ENDBRANCH   1   2
BRANCH   1  17
ATOM     17  C   UNL     1       7.409  18.294  25.861  1.00  0.00     0.000 C 
BRANCH  17  18
ATOM     18  C   UNL     1       6.018  18.858  25.530  1.00  0.00     0.000 C 
BRANCH  18  19
ATOM     19  C   UNL     1       5.608  18.599  24.069  1.00  0.00     0.000 C 
BRANCH  19  20
ATOM     20  C   UNL     1       4.356  19.396  23.662  1.00  0.00     0.000 C 
BRANCH  20  21
ATOM     21  C   UNL     1       4.632  20.512  22.630  1.00  0.00     0.000 C 
BRANCH  21  22
ATOM     22  C   UNL     1       3.377  21.314  22.235  1.00  0.00    -0.000 C 
BRANCH  22  23
ATOM     23  C   UNL     1       2.041  20.593  22.496  1.00  0.00    -0.000 C 
BRANCH  23  24
ATOM     24  C   UNL     1       1.229  21.139  23.686  1.00  0.00    -0.000 C 
BRANCH  24  25
ATOM     25  C   UNL     1       0.390  20.060  24.385  1.00  0.00    -0.000 C 
BRANCH  25  26
ATOM     26  C   UNL     1       0.557  18.700  23.696  1.00  0.00    -0.000 C 
BRANCH  26  27
ATOM     27  C   UNL     1       0.683  17.572  24.731  1.00  0.00    -0.000 C 
BRANCH  27  28
ATOM     28  C   UNL     1       1.281  18.048  26.067  1.00  0.00    -0.000 C 
BRANCH  28  29
ATOM     29  C   UNL     1       2.445  17.189  26.597  1.00  0.00    -0.003 C 
ATOM     30  C   UNL     1       3.558  18.021  27.235  1.00  0.00     0.004 C 
ENDBRANCH  28  29
ENDBRANCH  27  28
ENDBRANCH  26  27
ENDBRANCH  25  26
ENDBRANCH  24  25
ENDBRANCH  23  24
ENDBRANCH  22  23
ENDBRANCH  21  22
ENDBRANCH  20  21
ENDBRANCH  19  20
ENDBRANCH  18  19
ENDBRANCH  17  18
ENDBRANCH   1  17
TORSDOF 26
ENDMDL
MODEL 4
REMARK VINA RESULT:    21.476      0.922      2.794
REMARK INTER + INTRA:          52.741
REMARK INTER:                  54.236
REMARK INTRA:                  -1.495
REMARK UNBOUND:                -1.377
REMARK SMILES CCCCCCCCCCCCCCCCCCCCCCCCCCCC(=O)[O-]
REMARK SMILES IDX 15 1 16 2 17 3 18 4 19 5 20 6 21 7 22 8 23 9 24 10 25 11
REMARK SMILES IDX 26 12 27 13 28 14 29 15 30 16 14 17 13 18 12 19 11 20 10 21
REMARK SMILES IDX 9 22 8 23 7 24 6 25 5 26 4 27 3 28 2 29 1 30
REMARK H PARENT
REMARK Flexibility Score: inf
ROOT
ATOM      1  C   UNL     1       7.473  17.181  27.355  1.00  0.00     0.000 C 
ENDROOT
BRANCH   1   2
ATOM      2  C   UNL     1       8.658  17.591  28.237  1.00  0.00     0.000 C 
BRANCH   2   3
ATOM      3  C   UNL     1       9.931  16.835  27.829  1.00  0.00     0.000 C 
BRANCH   3   4
ATOM      4  C   UNL     1       9.614  15.479  27.160  1.00  0.00     0.000 C 
BRANCH   4   5
ATOM      5  C   UNL     1      10.752  14.958  26.267  1.00  0.00     0.000 C 
BRANCH   5   6
ATOM      6  C   UNL     1      10.797  13.422  26.205  1.00  0.00     0.000 C 
BRANCH   6   7
ATOM      7  C   UNL     1      11.664  12.807  27.316  1.00  0.00     0.000 C 
BRANCH   7   8
ATOM      8  C   UNL     1      11.074  11.508  27.886  1.00  0.00     0.000 C 
BRANCH   8   9
ATOM      9  C   UNL     1      10.096  10.866  26.891  1.00  0.00     0.000 C 
BRANCH   9  10
ATOM     10  C   UNL     1       9.920   9.354  27.117  1.00  0.00     0.000 C 
BRANCH  10  11
ATOM     11  C   UNL     1       8.591   8.946  27.782  1.00  0.00     0.000 C 
BRANCH  11  12
ATOM     12  C   UNL     1       7.324   9.293  26.975  1.00  0.00     0.006 C 
BRANCH  12  13
ATOM     13  C   UNL     1       6.113   9.688  27.834  1.00  0.00     0.053 C 
BRANCH  13  14
ATOM     14  C   UNL     1       5.353  10.838  27.247  1.00  0.00     0.041 C 
ATOM     15  O   UNL     1       4.380  11.341  27.870  1.00  0.00    -0.550 OA
ATOM     16  O   UNL     1       5.745  11.380  26.028  1.00  0.00    -0.550 OA
ENDBRANCH  13  14
ENDBRANCH  12  13
ENDBRANCH  11  12
ENDBRANCH  10  11
ENDBRANCH   9  10
ENDBRANCH   8   9
ENDBRANCH   7   8
ENDBRANCH   6   7
ENDBRANCH   5   6
ENDBRANCH   4   5
ENDBRANCH   3   4
ENDBRANCH   2   3
ENDBRANCH   1   2
BRANCH   1  17
ATOM     17  C   UNL     1       7.450  17.989  26.048  1.00  0.00     0.000 C 
BRANCH  17  18
ATOM     18  C   UNL     1       6.044  18.501  25.696  1.00  0.00     0.000 C 
BRANCH  18  19
ATOM     19  C   UNL     1       5.787  18.525  24.179  1.00  0.00     0.000 C 
BRANCH  19  20
ATOM     20  C   UNL     1       4.576  19.398  23.804  1.00  0.00     0.000 C 
BRANCH  20  21
ATOM     21  C   UNL     1       4.764  20.202  22.498  1.00  0.00     0.000 C 
BRANCH  21  22
ATOM     22  C   UNL     1       4.013  21.547  22.486  1.00  0.00    -0.000 C 
BRANCH  22  23
ATOM     23  C   UNL     1       2.479  21.431  22.580  1.00  0.00    -0.000 C 
BRANCH  23  24
ATOM     24  C   UNL     1       1.882  20.169  21.929  1.00  0.00    -0.000 C 
BRANCH  24  25
ATOM     25  C   UNL     1       0.840  19.472  22.816  1.00  0.00    -0.000 C 
BRANCH  25  26
ATOM     26  C   UNL     1       0.724  20.167  24.178  1.00  0.00    -0.000 C 
BRANCH  26  27
ATOM     27  C   UNL     1       0.270  19.178  25.262  1.00  0.00    -0.000 C 
BRANCH  27  28
ATOM     28  C   UNL     1       1.350  18.141  25.619  1.00  0.00    -0.000 C 
BRANCH  28  29
ATOM     29  C   UNL     1       1.217  16.792  24.888  1.00  0.00    -0.003 C 
ATOM     30  C   UNL     1      -0.112  16.643  24.147  1.00  0.00     0.004 C 
ENDBRANCH  28  29
ENDBRANCH  27  28
ENDBRANCH  26  27
ENDBRANCH  25  26
ENDBRANCH  24  25
ENDBRANCH  23  24
ENDBRANCH  22  23
ENDBRANCH  21  22
ENDBRANCH  20  21
ENDBRANCH  19  20
ENDBRANCH  18  19
ENDBRANCH  17  18
ENDBRANCH   1  17
TORSDOF 26
ENDMDL
MODEL 5
REMARK VINA RESULT:    21.512      2.373     10.115
REMARK INTER + INTRA:          52.832
REMARK INTER:                  54.461
REMARK INTRA:                  -1.628
REMARK UNBOUND:                -1.377
REMARK SMILES CCCCCCCCCCCCCCCCCCCCCCCCCCCC(=O)[O-]
REMARK SMILES IDX 15 1 16 2 17 3 18 4 19 5 20 6 21 7 22 8 23 9 24 10 25 11
REMARK SMILES IDX 26 12 27 13 28 14 29 15 30 16 14 17 13 18 12 19 11 20 10 21
REMARK SMILES IDX 9 22 8 23 7 24 6 25 5 26 4 27 3 28 2 29 1 30
REMARK H PARENT
REMARK Flexibility Score: inf
ROOT
ATOM      1  C   UNL     1       8.840  17.517  28.303  1.00  0.00     0.000 C 
ENDROOT
BRANCH   1   2
ATOM      2  C   UNL     1       8.108  17.981  27.038  1.00  0.00     0.000 C 
BRANCH   2   3
ATOM      3  C   UNL     1       6.777  17.232  26.870  1.00  0.00     0.000 C 
BRANCH   3   4
ATOM      4  C   UNL     1       5.592  18.195  26.643  1.00  0.00     0.000 C 
BRANCH   4   5
ATOM      5  C   UNL     1       5.844  19.219  25.523  1.00  0.00     0.000 C 
BRANCH   5   6
ATOM      6  C   UNL     1       5.642  18.621  24.120  1.00  0.00     0.000 C 
BRANCH   6   7
ATOM      7  C   UNL     1       4.430  19.218  23.388  1.00  0.00     0.000 C 
BRANCH   7   8
ATOM      8  C   UNL     1       4.740  20.565  22.717  1.00  0.00     0.000 C 
BRANCH   8   9
ATOM      9  C   UNL     1       3.446  21.289  22.315  1.00  0.00     0.000 C 
BRANCH   9  10
ATOM     10  C   UNL     1       2.191  20.416  22.496  1.00  0.00     0.000 C 
BRANCH  10  11
ATOM     11  C   UNL     1       1.229  20.883  23.606  1.00  0.00     0.000 C 
BRANCH  11  12
ATOM     12  C   UNL     1       0.760  19.774  24.570  1.00  0.00     0.006 C 
BRANCH  12  13
ATOM     13  C   UNL     1      -0.452  18.971  24.072  1.00  0.00     0.053 C 
BRANCH  13  14
ATOM     14  C   UNL     1      -0.046  17.713  23.367  1.00  0.00     0.041 C 
ATOM     15  O   UNL     1       0.244  16.680  24.027  1.00  0.00    -0.550 OA
ATOM     16  O   UNL     1      -0.027  17.671  21.977  1.00  0.00    -0.550 OA
ENDBRANCH  13  14
ENDBRANCH  12  13
ENDBRANCH  11  12
ENDBRANCH  10  11
ENDBRANCH   9  10
ENDBRANCH   8   9
ENDBRANCH   7   8
ENDBRANCH   6   7
ENDBRANCH   5   6
ENDBRANCH   4   5
ENDBRANCH   3   4
ENDBRANCH   2   3
ENDBRANCH   1   2
BRANCH   1  17
ATOM     17  C   UNL     1      10.039  16.623  27.953  1.00  0.00     0.000 C 
BRANCH  17  18
ATOM     18  C   UNL     1       9.694  15.561  26.895  1.00  0.00     0.000 C 
BRANCH  18  19
ATOM     19  C   UNL     1      10.947  14.923  26.269  1.00  0.00     0.000 C 
BRANCH  19  20
ATOM     20  C   UNL     1      10.877  13.385  26.261  1.00  0.00     0.000 C 
BRANCH  20  21
ATOM     21  C   UNL     1      11.692  12.716  27.391  1.00  0.00     0.000 C 
BRANCH  21  22
ATOM     22  C   UNL     1      11.113  11.365  27.854  1.00  0.00    -0.000 C 
BRANCH  22  23
ATOM     23  C   UNL     1      10.003  10.794  26.951  1.00  0.00    -0.000 C 
BRANCH  23  24
ATOM     24  C   UNL     1       9.778   9.276  27.078  1.00  0.00    -0.000 C 
BRANCH  24  25
ATOM     25  C   UNL     1       8.518   8.922  27.883  1.00  0.00    -0.000 C 
BRANCH  25  26
ATOM     26  C   UNL     1       7.248   9.266  27.097  1.00  0.00    -0.000 C 
BRANCH  26  27
ATOM     27  C   UNL     1       6.040   9.397  28.036  1.00  0.00    -0.000 C 
BRANCH  27  28
ATOM     28  C   UNL     1       5.150  10.609  27.705  1.00  0.00    -0.000 C 
BRANCH  28  29
ATOM     29  C   UNL     1       5.800  11.654  26.780  1.00  0.00    -0.003 C 
ATOM     30  C   UNL     1       5.197  11.666  25.375  1.00  0.00     0.004 C 
ENDBRANCH  28  29
ENDBRANCH  27  28
ENDBRANCH  26  27
ENDBRANCH  25  26
ENDBRANCH  24  25
ENDBRANCH  23  24
ENDBRANCH  22  23
ENDBRANCH  21  22
ENDBRANCH  20  21
ENDBRANCH  19  20
ENDBRANCH  18  19
ENDBRANCH  17  18
ENDBRANCH   1  17
TORSDOF 26
ENDMDL
MODEL 6
REMARK VINA RESULT:    21.614      2.761     10.456
REMARK INTER + INTRA:          53.090
REMARK INTER:                  54.302
REMARK INTRA:                  -1.212
REMARK UNBOUND:                -1.377
REMARK SMILES CCCCCCCCCCCCCCCCCCCCCCCCCCCC(=O)[O-]
REMARK SMILES IDX 15 1 16 2 17 3 18 4 19 5 20 6 21 7 22 8 23 9 24 10 25 11
REMARK SMILES IDX 26 12 27 13 28 14 29 15 30 16 14 17 13 18 12 19 11 20 10 21
REMARK SMILES IDX 9 22 8 23 7 24 6 25 5 26 4 27 3 28 2 29 1 30
REMARK H PARENT
REMARK Flexibility Score: inf
ROOT
ATOM      1  C   UNL     1       7.418  17.002  27.382  1.00  0.00     0.000 C 
ENDROOT
BRANCH   1   2
ATOM      2  C   UNL     1       7.067  17.881  26.176  1.00  0.00     0.000 C 
BRANCH   2   3
ATOM      3  C   UNL     1       5.663  18.485  26.329  1.00  0.00     0.000 C 
BRANCH   3   4
ATOM      4  C   UNL     1       4.860  17.812  27.464  1.00  0.00     0.000 C 
BRANCH   4   5
ATOM      5  C   UNL     1       3.338  17.968  27.311  1.00  0.00     0.000 C 
BRANCH   5   6
ATOM      6  C   UNL     1       2.816  17.395  25.983  1.00  0.00     0.000 C 
BRANCH   6   7
ATOM      7  C   UNL     1       1.320  17.671  25.763  1.00  0.00     0.000 C 
BRANCH   7   8
ATOM      8  C   UNL     1       0.709  16.810  24.647  1.00  0.00     0.000 C 
BRANCH   8   9
ATOM      9  C   UNL     1       0.049  17.688  23.574  1.00  0.00     0.000 C 
BRANCH   9  10
ATOM     10  C   UNL     1      -0.072  19.162  23.999  1.00  0.00     0.000 C 
BRANCH  10  11
ATOM     11  C   UNL     1       1.168  20.028  23.704  1.00  0.00     0.000 C 
BRANCH  11  12
ATOM     12  C   UNL     1       1.649  20.000  22.239  1.00  0.00     0.006 C 
BRANCH  12  13
ATOM     13  C   UNL     1       2.624  21.128  21.869  1.00  0.00     0.053 C 
BRANCH  13  14
ATOM     14  C   UNL     1       3.863  21.103  22.712  1.00  0.00     0.041 C 
ATOM     15  O   UNL     1       4.385  20.005  23.041  1.00  0.00    -0.550 OA
ATOM     16  O   UNL     1       4.464  22.296  23.100  1.00  0.00    -0.550 OA
ENDBRANCH  13  14
ENDBRANCH  12  13
ENDBRANCH  11  12
ENDBRANCH  10  11
ENDBRANCH   9  10
ENDBRANCH   8   9
ENDBRANCH   7   8
ENDBRANCH   6   7
ENDBRANCH   5   6
ENDBRANCH   4   5
ENDBRANCH   3   4
ENDBRANCH   2   3
ENDBRANCH   1   2
BRANCH   1  17
ATOM     17  C   UNL     1       8.472  17.678  28.272  1.00  0.00     0.000 C 
BRANCH  17  18
ATOM     18  C   UNL     1       9.886  17.600  27.674  1.00  0.00     0.000 C 
BRANCH  18  19
ATOM     19  C   UNL     1      10.043  16.436  26.679  1.00  0.00     0.000 C 
BRANCH  19  20
ATOM     20  C   UNL     1      10.413  15.116  27.377  1.00  0.00     0.000 C 
BRANCH  20  21
ATOM     21  C   UNL     1      10.592  13.924  26.410  1.00  0.00     0.000 C 
BRANCH  21  22
ATOM     22  C   UNL     1      11.686  12.930  26.848  1.00  0.00    -0.000 C 
BRANCH  22  23
ATOM     23  C   UNL     1      11.162  11.664  27.554  1.00  0.00    -0.000 C 
BRANCH  23  24
ATOM     24  C   UNL     1       9.904  11.041  26.921  1.00  0.00    -0.000 C 
BRANCH  24  25
ATOM     25  C   UNL     1       9.888   9.507  27.005  1.00  0.00    -0.000 C 
BRANCH  25  26
ATOM     26  C   UNL     1       8.781   9.020  27.948  1.00  0.00    -0.000 C 
BRANCH  26  27
ATOM     27  C   UNL     1       7.446   8.882  27.202  1.00  0.00    -0.000 C 
BRANCH  27  28
ATOM     28  C   UNL     1       6.411   9.942  27.622  1.00  0.00    -0.000 C 
BRANCH  28  29
ATOM     29  C   UNL     1       5.624  10.574  26.459  1.00  0.00    -0.003 C 
ATOM     30  C   UNL     1       5.452  12.086  26.606  1.00  0.00     0.004 C 
ENDBRANCH  28  29
ENDBRANCH  27  28
ENDBRANCH  26  27
ENDBRANCH  25  26
ENDBRANCH  24  25
ENDBRANCH  23  24
ENDBRANCH  22  23
ENDBRANCH  21  22
ENDBRANCH  20  21
ENDBRANCH  19  20
ENDBRANCH  18  19
ENDBRANCH  17  18
ENDBRANCH   1  17
TORSDOF 26
ENDMDL
MODEL 7
REMARK VINA RESULT:    21.699      0.836      2.874
REMARK INTER + INTRA:          53.305
REMARK INTER:                  53.797
REMARK INTRA:                  -0.492
REMARK UNBOUND:                -1.377
REMARK SMILES CCCCCCCCCCCCCCCCCCCCCCCCCCCC(=O)[O-]
REMARK SMILES IDX 15 1 16 2 17 3 18 4 19 5 20 6 21 7 22 8 23 9 24 10 25 11
REMARK SMILES IDX 26 12 27 13 28 14 29 15 30 16 14 17 13 18 12 19 11 20 10 21
REMARK SMILES IDX 9 22 8 23 7 24 6 25 5 26 4 27 3 28 2 29 1 30
REMARK H PARENT
REMARK Flexibility Score: inf
ROOT
ATOM      1  C   UNL     1       7.024  17.148  27.122  1.00  0.00     0.000 C 
ENDROOT
BRANCH   1   2
ATOM      2  C   UNL     1       8.279  17.879  26.629  1.00  0.00     0.000 C 
BRANCH   2   3
ATOM      3  C   UNL     1       9.321  17.993  27.752  1.00  0.00     0.000 C 
BRANCH   3   4
ATOM      4  C   UNL     1      10.010  16.643  28.046  1.00  0.00     0.000 C 
BRANCH   4   5
ATOM      5  C   UNL     1       9.586  15.519  27.087  1.00  0.00     0.000 C 
BRANCH   5   6
ATOM      6  C   UNL     1      10.783  14.875  26.365  1.00  0.00     0.000 C 
BRANCH   6   7
ATOM      7  C   UNL     1      10.709  13.340  26.344  1.00  0.00     0.000 C 
BRANCH   7   8
ATOM      8  C   UNL     1      11.504  12.687  27.484  1.00  0.00     0.000 C 
BRANCH   8   9
ATOM      9  C   UNL     1      11.114  11.211  27.651  1.00  0.00     0.000 C 
BRANCH   9  10
ATOM     10  C   UNL     1       9.846  10.835  26.862  1.00  0.00     0.000 C 
BRANCH  10  11
ATOM     11  C   UNL     1       9.173   9.520  27.301  1.00  0.00     0.000 C 
BRANCH  11  12
ATOM     12  C   UNL     1       7.809   9.234  26.640  1.00  0.00     0.006 C 
BRANCH  12  13
ATOM     13  C   UNL     1       6.609   9.334  27.593  1.00  0.00     0.053 C 
BRANCH  13  14
ATOM     14  C   UNL     1       5.669  10.435  27.206  1.00  0.00     0.041 C 
ATOM     15  O   UNL     1       4.730  10.770  27.976  1.00  0.00    -0.550 OA
ATOM     16  O   UNL     1       5.856  11.120  26.010  1.00  0.00    -0.550 OA
ENDBRANCH  13  14
ENDBRANCH  12  13
ENDBRANCH  11  12
ENDBRANCH  10  11
ENDBRANCH   9  10
ENDBRANCH   8   9
ENDBRANCH   7   8
ENDBRANCH   6   7
ENDBRANCH   5   6
ENDBRANCH   4   5
ENDBRANCH   3   4
ENDBRANCH   2   3
ENDBRANCH   1   2
BRANCH   1  17
ATOM     17  C   UNL     1       5.765  18.001  26.903  1.00  0.00     0.000 C 
BRANCH  17  18
ATOM     18  C   UNL     1       5.848  18.858  25.628  1.00  0.00     0.000 C 
BRANCH  18  19
ATOM     19  C   UNL     1       5.700  18.021  24.344  1.00  0.00     0.000 C 
BRANCH  19  20
ATOM     20  C   UNL     1       5.396  18.891  23.112  1.00  0.00     0.000 C 
BRANCH  20  21
ATOM     21  C   UNL     1       4.540  20.140  23.422  1.00  0.00     0.000 C 
BRANCH  21  22
ATOM     22  C   UNL     1       4.078  20.901  22.165  1.00  0.00    -0.000 C 
BRANCH  22  23
ATOM     23  C   UNL     1       2.570  21.216  22.119  1.00  0.00    -0.000 C 
BRANCH  23  24
ATOM     24  C   UNL     1       1.672  20.202  22.853  1.00  0.00    -0.000 C 
BRANCH  24  25
ATOM     25  C   UNL     1       1.040  20.775  24.130  1.00  0.00    -0.000 C 
BRANCH  25  26
ATOM     26  C   UNL     1      -0.054  19.845  24.668  1.00  0.00    -0.000 C 
BRANCH  26  27
ATOM     27  C   UNL     1       0.467  19.006  25.844  1.00  0.00    -0.000 C 
BRANCH  27  28
ATOM     28  C   UNL     1       1.412  17.874  25.402  1.00  0.00    -0.000 C 
BRANCH  28  29
ATOM     29  C   UNL     1       0.748  16.773  24.554  1.00  0.00    -0.003 C 
ATOM     30  C   UNL     1      -0.203  17.328  23.494  1.00  0.00     0.004 C 
ENDBRANCH  28  29
ENDBRANCH  27  28
ENDBRANCH  26  27
ENDBRANCH  25  26
ENDBRANCH  24  25
ENDBRANCH  23  24
ENDBRANCH  22  23
ENDBRANCH  21  22
ENDBRANCH  20  21
ENDBRANCH  19  20
ENDBRANCH  18  19
ENDBRANCH  17  18
ENDBRANCH   1  17
TORSDOF 26
ENDMDL
MODEL 8
REMARK VINA RESULT:    22.460      2.708     10.553
REMARK INTER + INTRA:          55.221
REMARK INTER:                  55.705
REMARK INTRA:                  -0.484
REMARK UNBOUND:                -1.377
REMARK SMILES CCCCCCCCCCCCCCCCCCCCCCCCCCCC(=O)[O-]
REMARK SMILES IDX 15 1 16 2 17 3 18 4 19 5 20 6 21 7 22 8 23 9 24 10 25 11
REMARK SMILES IDX 26 12 27 13 28 14 29 15 30 16 14 17 13 18 12 19 11 20 10 21
REMARK SMILES IDX 9 22 8 23 7 24 6 25 5 26 4 27 3 28 2 29 1 30
REMARK H PARENT
REMARK Flexibility Score: inf
ROOT
ATOM      1  C   UNL     1       7.183  17.129  26.726  1.00  0.00     0.000 C 
ENDROOT
BRANCH   1   2
ATOM      2  C   UNL     1       5.884  17.871  26.391  1.00  0.00     0.000 C 
BRANCH   2   3
ATOM      3  C   UNL     1       5.098  18.202  27.670  1.00  0.00     0.000 C 
BRANCH   3   4
ATOM      4  C   UNL     1       3.594  17.882  27.528  1.00  0.00     0.000 C 
BRANCH   4   5
ATOM      5  C   UNL     1       3.197  17.428  26.113  1.00  0.00     0.000 C 
BRANCH   5   6
ATOM      6  C   UNL     1       1.683  17.535  25.863  1.00  0.00     0.000 C 
BRANCH   6   7
ATOM      7  C   UNL     1       1.236  16.786  24.597  1.00  0.00     0.000 C 
BRANCH   7   8
ATOM      8  C   UNL     1      -0.066  17.342  24.001  1.00  0.00     0.000 C 
BRANCH   8   9
ATOM      9  C   UNL     1       0.140  18.766  23.463  1.00  0.00     0.000 C 
BRANCH   9  10
ATOM     10  C   UNL     1       0.609  19.753  24.546  1.00  0.00     0.000 C 
BRANCH  10  11
ATOM     11  C   UNL     1       0.587  21.236  24.130  1.00  0.00     0.000 C 
BRANCH  11  12
ATOM     12  C   UNL     1       1.718  21.661  23.171  1.00  0.00     0.006 C 
BRANCH  12  13
ATOM     13  C   UNL     1       2.422  20.493  22.464  1.00  0.00     0.053 C 
BRANCH  13  14
ATOM     14  C   UNL     1       3.914  20.589  22.561  1.00  0.00     0.041 C 
ATOM     15  O   UNL     1       4.522  21.566  22.051  1.00  0.00    -0.550 OA
ATOM     16  O   UNL     1       4.629  19.617  23.252  1.00  0.00    -0.550 OA
ENDBRANCH  13  14
ENDBRANCH  12  13
ENDBRANCH  11  12
ENDBRANCH  10  11
ENDBRANCH   9  10
ENDBRANCH   8   9
ENDBRANCH   7   8
ENDBRANCH   6   7
ENDBRANCH   5   6
ENDBRANCH   4   5
ENDBRANCH   3   4
ENDBRANCH   2   3
ENDBRANCH   1   2
BRANCH   1  17
ATOM     17  C   UNL     1       8.382  18.090  26.737  1.00  0.00     0.000 C 
BRANCH  17  18
ATOM     18  C   UNL     1       9.326  17.840  27.925  1.00  0.00     0.000 C 
BRANCH  18  19
ATOM     19  C   UNL     1       9.733  16.361  28.055  1.00  0.00     0.000 C 
BRANCH  19  20
ATOM     20  C   UNL     1      10.272  15.785  26.734  1.00  0.00     0.000 C 
BRANCH  20  21
ATOM     21  C   UNL     1       9.959  14.286  26.531  1.00  0.00     0.000 C 
BRANCH  21  22
ATOM     22  C   UNL     1      11.202  13.379  26.600  1.00  0.00    -0.000 C 
BRANCH  22  23
ATOM     23  C   UNL     1      11.007  12.075  27.399  1.00  0.00    -0.000 C 
BRANCH  23  24
ATOM     24  C   UNL     1       9.898  11.147  26.867  1.00  0.00    -0.000 C 
BRANCH  24  25
ATOM     25  C   UNL     1      10.199   9.659  27.101  1.00  0.00    -0.000 C 
BRANCH  25  26
ATOM     26  C   UNL     1       8.956   8.921  27.613  1.00  0.00    -0.000 C 
BRANCH  26  27
ATOM     27  C   UNL     1       7.692   9.406  26.889  1.00  0.00    -0.000 C 
BRANCH  27  28
ATOM     28  C   UNL     1       6.524   9.695  27.849  1.00  0.00    -0.000 C 
BRANCH  28  29
ATOM     29  C   UNL     1       5.288  10.334  27.189  1.00  0.00    -0.003 C 
ATOM     30  C   UNL     1       5.601  11.658  26.491  1.00  0.00     0.004 C 
ENDBRANCH  28  29
ENDBRANCH  27  28
ENDBRANCH  26  27
ENDBRANCH  25  26
ENDBRANCH  24  25
ENDBRANCH  23  24
ENDBRANCH  22  23
ENDBRANCH  21  22
ENDBRANCH  20  21
ENDBRANCH  19  20
ENDBRANCH  18  19
ENDBRANCH  17  18
ENDBRANCH   1  17
TORSDOF 26
ENDMDL
MODEL 9
REMARK VINA RESULT:    22.805      2.216     10.080
REMARK INTER + INTRA:          56.092
REMARK INTER:                  57.425
REMARK INTRA:                  -1.333
REMARK UNBOUND:                -1.377
REMARK SMILES CCCCCCCCCCCCCCCCCCCCCCCCCCCC(=O)[O-]
REMARK SMILES IDX 15 1 16 2 17 3 18 4 19 5 20 6 21 7 22 8 23 9 24 10 25 11
REMARK SMILES IDX 26 12 27 13 28 14 29 15 30 16 14 17 13 18 12 19 11 20 10 21
REMARK SMILES IDX 9 22 8 23 7 24 6 25 5 26 4 27 3 28 2 29 1 30
REMARK H PARENT
REMARK Flexibility Score: inf
ROOT
ATOM      1  C   UNL     1       7.712  17.114  26.918  1.00  0.00     0.000 C 
ENDROOT
BRANCH   1   2
ATOM      2  C   UNL     1       6.270  17.616  27.062  1.00  0.00     0.000 C 
BRANCH   2   3
ATOM      3  C   UNL     1       6.013  18.815  26.137  1.00  0.00     0.000 C 
BRANCH   3   4
ATOM      4  C   UNL     1       6.220  18.457  24.649  1.00  0.00     0.000 C 
BRANCH   4   5
ATOM      5  C   UNL     1       4.996  18.765  23.770  1.00  0.00     0.000 C 
BRANCH   5   6
ATOM      6  C   UNL     1       4.713  20.273  23.660  1.00  0.00     0.000 C 
BRANCH   6   7
ATOM      7  C   UNL     1       4.091  20.664  22.310  1.00  0.00     0.000 C 
BRANCH   7   8
ATOM      8  C   UNL     1       2.673  21.239  22.448  1.00  0.00     0.000 C 
BRANCH   8   9
ATOM      9  C   UNL     1       1.649  20.356  21.721  1.00  0.00     0.000 C 
BRANCH   9  10
ATOM     10  C   UNL     1       1.611  18.915  22.261  1.00  0.00     0.000 C 
BRANCH  10  11
ATOM     11  C   UNL     1       0.250  18.204  22.124  1.00  0.00     0.000 C 
BRANCH  11  12
ATOM     12  C   UNL     1      -0.323  17.635  23.438  1.00  0.00     0.006 C 
BRANCH  12  13
ATOM     13  C   UNL     1       0.735  17.086  24.406  1.00  0.00     0.053 C 
BRANCH  13  14
ATOM     14  C   UNL     1       1.081  18.069  25.483  1.00  0.00     0.041 C 
ATOM     15  O   UNL     1       1.832  17.729  26.436  1.00  0.00    -0.550 OA
ATOM     16  O   UNL     1       0.606  19.373  25.412  1.00  0.00    -0.550 OA
ENDBRANCH  13  14
ENDBRANCH  12  13
ENDBRANCH  11  12
ENDBRANCH  10  11
ENDBRANCH   9  10
ENDBRANCH   8   9
ENDBRANCH   7   8
ENDBRANCH   6   7
ENDBRANCH   5   6
ENDBRANCH   4   5
ENDBRANCH   3   4
ENDBRANCH   2   3
ENDBRANCH   1   2
BRANCH   1  17
ATOM     17  C   UNL     1       8.571  17.547  28.116  1.00  0.00     0.000 C 
BRANCH  17  18
ATOM     18  C   UNL     1       9.984  16.944  28.077  1.00  0.00     0.000 C 
BRANCH  18  19
ATOM     19  C   UNL     1      10.237  16.115  26.804  1.00  0.00     0.000 C 
BRANCH  19  20
ATOM     20  C   UNL     1       9.949  14.618  27.014  1.00  0.00     0.000 C 
BRANCH  20  21
ATOM     21  C   UNL     1      10.833  13.685  26.156  1.00  0.00     0.000 C 
BRANCH  21  22
ATOM     22  C   UNL     1      11.726  12.743  26.987  1.00  0.00    -0.000 C 
BRANCH  22  23
ATOM     23  C   UNL     1      10.968  11.640  27.750  1.00  0.00    -0.000 C 
BRANCH  23  24
ATOM     24  C   UNL     1      10.320  10.563  26.860  1.00  0.00    -0.000 C 
BRANCH  24  25
ATOM     25  C   UNL     1       9.380   9.629  27.637  1.00  0.00    -0.000 C 
BRANCH  25  26
ATOM     26  C   UNL     1       8.259   9.100  26.734  1.00  0.00    -0.000 C 
BRANCH  26  27
ATOM     27  C   UNL     1       6.888   9.604  27.210  1.00  0.00    -0.000 C 
BRANCH  27  28
ATOM     28  C   UNL     1       6.167  10.466  26.158  1.00  0.00    -0.000 C 
BRANCH  28  29
ATOM     29  C   UNL     1       5.079  11.399  26.722  1.00  0.00    -0.003 C 
ATOM     30  C   UNL     1       4.721  11.087  28.176  1.00  0.00     0.004 C 
ENDBRANCH  28  29
ENDBRANCH  27  28
ENDBRANCH  26  27
ENDBRANCH  25  26
ENDBRANCH  24  25
ENDBRANCH  23  24
ENDBRANCH  22  23
ENDBRANCH  21  22
ENDBRANCH  20  21
ENDBRANCH  19  20
ENDBRANCH  18  19
ENDBRANCH  17  18
ENDBRANCH   1  17
TORSDOF 26
ENDMDL
