MODEL 1
REMARK VINA RESULT:    -3.556      0.000      0.000
REMARK INTER + INTRA:          -6.559
REMARK INTER:                  -5.636
REMARK INTRA:                  -0.923
REMARK UNBOUND:                -0.923
REMARK SMILES CCCCCCCCCCCC(=O)[O-]
REMARK SMILES IDX 7 1 8 2 9 3 10 4 11 5 12 6 13 7 14 8 6 9 5 10 4 11 3 12 2 13
REMARK SMILES IDX 1 14
REMARK H PARENT
REMARK Flexibility Score: inf
ROOT
ATOM      1  C   UNL     1      -2.513  59.299  -3.753  1.00  0.00     0.000 C 
ENDROOT
BRANCH   1   2
ATOM      2  C   UNL     1      -1.409  60.341  -4.007  1.00  0.00     0.000 C 
BRANCH   2   3
ATOM      3  C   UNL     1      -0.327  59.915  -5.021  1.00  0.00     0.000 C 
BRANCH   3   4
ATOM      4  C   UNL     1       1.110  60.341  -4.662  1.00  0.00     0.006 C 
BRANCH   4   5
ATOM      5  C   UNL     1       2.204  59.628  -5.472  1.00  0.00     0.053 C 
BRANCH   5   6
ATOM      6  C   UNL     1       2.109  59.942  -6.933  1.00  0.00     0.041 C 
ATOM      7  O   UNL     1       1.474  59.176  -7.706  1.00  0.00    -0.550 OA
ATOM      8  O   UNL     1       2.748  61.063  -7.447  1.00  0.00    -0.550 OA
ENDBRANCH   5   6
ENDBRANCH   4   5
ENDBRANCH   3   4
ENDBRANCH   2   3
ENDBRANCH   1   2
BRANCH   1   9
ATOM      9  C   UNL     1      -3.923  59.848  -4.011  1.00  0.00     0.000 C 
BRANCH   9  10
ATOM     10  C   UNL     1      -3.868  61.123  -4.866  1.00  0.00    -0.000 C 
BRANCH  10  11
ATOM     11  C   UNL     1      -4.530  60.942  -6.241  1.00  0.00    -0.000 C 
BRANCH  11  12
ATOM     12  C   UNL     1      -4.973  59.492  -6.498  1.00  0.00    -0.000 C 
BRANCH  12  13
ATOM     13  C   UNL     1      -4.286  58.875  -7.727  1.00  0.00    -0.003 C 
ATOM     14  C   UNL     1      -2.763  58.996  -7.672  1.00  0.00     0.004 C 
ENDBRANCH  12  13
ENDBRANCH  11  12
ENDBRANCH  10  11
ENDBRANCH   9  10
ENDBRANCH   1   9
TORSDOF 10
ENDMDL
MODEL 2
REMARK VINA RESULT:    -3.317      1.239      2.335
REMARK INTER + INTRA:          -6.180
REMARK INTER:                  -5.746
REMARK INTRA:                  -0.434
REMARK UNBOUND:                -0.923
REMARK SMILES CCCCCCCCCCCC(=O)[O-]
REMARK SMILES IDX 7 1 8 2 9 3 10 4 11 5 12 6 13 7 14 8 6 9 5 10 4 11 3 12 2 13
REMARK SMILES IDX 1 14
REMARK H PARENT
REMARK Flexibility Score: inf
ROOT
ATOM      1  C   UNL     1      -0.673  59.950  -4.759  1.00  0.00     0.000 C 
ENDROOT
BRANCH   1   2
ATOM      2  C   UNL     1       0.755  60.451  -4.478  1.00  0.00     0.000 C 
BRANCH   2   3
ATOM      3  C   UNL     1       1.843  59.887  -5.414  1.00  0.00     0.000 C 
BRANCH   3   4
ATOM      4  C   UNL     1       1.328  58.958  -6.532  1.00  0.00     0.006 C 
BRANCH   4   5
ATOM      5  C   UNL     1       1.682  59.421  -7.953  1.00  0.00     0.053 C 
BRANCH   5   6
ATOM      6  C   UNL     1       2.912  60.274  -7.972  1.00  0.00     0.041 C 
ATOM      7  O   UNL     1       2.817  61.521  -8.124  1.00  0.00    -0.550 OA
ATOM      8  O   UNL     1       4.166  59.690  -7.854  1.00  0.00    -0.550 OA
ENDBRANCH   5   6
ENDBRANCH   4   5
ENDBRANCH   3   4
ENDBRANCH   2   3
ENDBRANCH   1   2
BRANCH   1   9
ATOM      9  C   UNL     1      -1.678  60.373  -3.679  1.00  0.00     0.000 C 
BRANCH   9  10
ATOM     10  C   UNL     1      -2.826  59.358  -3.569  1.00  0.00    -0.000 C 
BRANCH  10  11
ATOM     11  C   UNL     1      -4.140  59.884  -4.168  1.00  0.00    -0.000 C 
BRANCH  11  12
ATOM     12  C   UNL     1      -3.926  61.100  -5.086  1.00  0.00    -0.000 C 
BRANCH  12  13
ATOM     13  C   UNL     1      -4.032  60.737  -6.576  1.00  0.00    -0.003 C 
ATOM     14  C   UNL     1      -5.416  60.212  -6.957  1.00  0.00     0.004 C 
ENDBRANCH  12  13
ENDBRANCH  11  12
ENDBRANCH  10  11
ENDBRANCH   9  10
ENDBRANCH   1   9
TORSDOF 10
ENDMDL
MODEL 3
REMARK VINA RESULT:    -3.317      2.801      6.150
REMARK INTER + INTRA:          -6.180
REMARK INTER:                  -5.701
REMARK INTRA:                  -0.479
REMARK UNBOUND:                -0.923
REMARK SMILES CCCCCCCCCCCC(=O)[O-]
REMARK SMILES IDX 7 1 8 2 9 3 10 4 11 5 12 6 13 7 14 8 6 9 5 10 4 11 3 12 2 13
REMARK SMILES IDX 1 14
REMARK H PARENT
REMARK Flexibility Score: inf
ROOT
ATOM      1  C   UNL     1      -0.660  59.973  -4.812  1.00  0.00     0.000 C 
ENDROOT
BRANCH   1   2
ATOM      2  C   UNL     1      -1.737  60.367  -3.786  1.00  0.00     0.000 C 
BRANCH   2   3
ATOM      3  C   UNL     1      -2.750  59.255  -3.441  1.00  0.00     0.000 C 
BRANCH   3   4
ATOM      4  C   UNL     1      -4.199  59.527  -3.891  1.00  0.00     0.006 C 
BRANCH   4   5
ATOM      5  C   UNL     1      -4.580  58.875  -5.229  1.00  0.00     0.053 C 
BRANCH   5   6
ATOM      6  C   UNL     1      -4.884  59.897  -6.280  1.00  0.00     0.041 C 
ATOM      7  O   UNL     1      -5.725  59.645  -7.185  1.00  0.00    -0.550 OA
ATOM      8  O   UNL     1      -4.218  61.116  -6.280  1.00  0.00    -0.550 OA
ENDBRANCH   5   6
ENDBRANCH   4   5
ENDBRANCH   3   4
ENDBRANCH   2   3
ENDBRANCH   1   2
BRANCH   1   9
ATOM      9  C   UNL     1       0.755  60.382  -4.378  1.00  0.00     0.000 C 
BRANCH   9  10
ATOM     10  C   UNL     1       1.813  59.766  -5.306  1.00  0.00    -0.000 C 
BRANCH  10  11
ATOM     11  C   UNL     1       2.509  60.816  -6.188  1.00  0.00    -0.000 C 
BRANCH  11  12
ATOM     12  C   UNL     1       2.449  60.465  -7.684  1.00  0.00    -0.000 C 
BRANCH  12  13
ATOM     13  C   UNL     1       3.607  59.556  -8.123  1.00  0.00    -0.003 C 
ATOM     14  C   UNL     1       4.954  60.278  -8.125  1.00  0.00     0.004 C 
ENDBRANCH  12  13
ENDBRANCH  11  12
ENDBRANCH  10  11
ENDBRANCH   9  10
ENDBRANCH   1   9
TORSDOF 10
ENDMDL
MODEL 4
REMARK VINA RESULT:    -2.652      2.642      5.737
REMARK INTER + INTRA:          -5.125
REMARK INTER:                  -4.544
REMARK INTRA:                  -0.581
REMARK UNBOUND:                -0.923
REMARK SMILES CCCCCCCCCCCC(=O)[O-]
REMARK SMILES IDX 7 1 8 2 9 3 10 4 11 5 12 6 13 7 14 8 6 9 5 10 4 11 3 12 2 13
REMARK SMILES IDX 1 14
REMARK H PARENT
REMARK Flexibility Score: inf
ROOT
ATOM      1  C   UNL     1      -0.742  60.063  -4.496  1.00  0.00     0.000 C 
ENDROOT
BRANCH   1   2
ATOM      2  C   UNL     1      -2.113  60.535  -3.982  1.00  0.00     0.000 C 
BRANCH   2   3
ATOM      3  C   UNL     1      -3.197  59.440  -3.908  1.00  0.00     0.000 C 
BRANCH   3   4
ATOM      4  C   UNL     1      -4.281  59.517  -5.001  1.00  0.00     0.006 C 
BRANCH   4   5
ATOM      5  C   UNL     1      -4.341  60.863  -5.740  1.00  0.00     0.053 C 
BRANCH   5   6
ATOM      6  C   UNL     1      -4.501  60.681  -7.218  1.00  0.00     0.041 C 
ATOM      7  O   UNL     1      -3.635  60.044  -7.875  1.00  0.00    -0.550 OA
ATOM      8  O   UNL     1      -5.589  61.241  -7.875  1.00  0.00    -0.550 OA
ENDBRANCH   5   6
ENDBRANCH   4   5
ENDBRANCH   3   4
ENDBRANCH   2   3
ENDBRANCH   1   2
BRANCH   1   9
ATOM      9  C   UNL     1      -0.850  58.990  -5.589  1.00  0.00     0.000 C 
BRANCH   9  10
ATOM     10  C   UNL     1       0.054  59.329  -6.784  1.00  0.00    -0.000 C 
BRANCH  10  11
ATOM     11  C   UNL     1       1.507  58.875  -6.572  1.00  0.00    -0.000 C 
BRANCH  11  12
ATOM     12  C   UNL     1       2.371  59.954  -5.896  1.00  0.00    -0.000 C 
BRANCH  12  13
ATOM     13  C   UNL     1       2.930  60.975  -6.898  1.00  0.00    -0.003 C 
ATOM     14  C   UNL     1       3.700  60.316  -8.043  1.00  0.00     0.004 C 
ENDBRANCH  12  13
ENDBRANCH  11  12
ENDBRANCH  10  11
ENDBRANCH   9  10
ENDBRANCH   1   9
TORSDOF 10
ENDMDL
MODEL 5
REMARK VINA RESULT:    -1.584     12.476     13.832
REMARK INTER + INTRA:          -3.434
REMARK INTER:                  -2.969
REMARK INTRA:                  -0.465
REMARK UNBOUND:                -0.923
REMARK SMILES CCCCCCCCCCCC(=O)[O-]
REMARK SMILES IDX 7 1 8 2 9 3 10 4 11 5 12 6 13 7 14 8 6 9 5 10 4 11 3 12 2 13
REMARK SMILES IDX 1 14
REMARK H PARENT
REMARK Flexibility Score: inf
ROOT
ATOM      1  C   UNL     1      -4.581  73.126  -6.024  1.00  0.00     0.000 C 
ENDROOT
BRANCH   1   2
ATOM      2  C   UNL     1      -4.729  71.938  -6.991  1.00  0.00     0.000 C 
BRANCH   2   3
ATOM      3  C   UNL     1      -4.732  70.547  -6.323  1.00  0.00     0.000 C 
BRANCH   3   4
ATOM      4  C   UNL     1      -3.470  69.698  -6.576  1.00  0.00     0.006 C 
BRANCH   4   5
ATOM      5  C   UNL     1      -2.800  69.164  -5.301  1.00  0.00     0.053 C 
BRANCH   5   6
ATOM      6  C   UNL     1      -1.435  69.746  -5.103  1.00  0.00     0.041 C 
ATOM      7  O   UNL     1      -1.242  70.625  -4.220  1.00  0.00    -0.550 OA
ATOM      8  O   UNL     1      -0.381  69.342  -5.912  1.00  0.00    -0.550 OA
ENDBRANCH   5   6
ENDBRANCH   4   5
ENDBRANCH   3   4
ENDBRANCH   2   3
ENDBRANCH   1   2
BRANCH   1   9
ATOM      9  C   UNL     1      -5.707  74.159  -6.170  1.00  0.00     0.000 C 
BRANCH   9  10
ATOM     10  C   UNL     1      -5.998  74.449  -7.651  1.00  0.00    -0.000 C 
BRANCH  10  11
ATOM     11  C   UNL     1      -5.632  75.886  -8.055  1.00  0.00    -0.000 C 
BRANCH  11  12
ATOM     12  C   UNL     1      -4.112  76.121  -8.093  1.00  0.00    -0.000 C 
BRANCH  12  13
ATOM     13  C   UNL     1      -3.747  77.613  -8.125  1.00  0.00    -0.003 C 
ATOM     14  C   UNL     1      -2.237  77.851  -8.117  1.00  0.00     0.004 C 
ENDBRANCH  12  13
ENDBRANCH  11  12
ENDBRANCH  10  11
ENDBRANCH   9  10
ENDBRANCH   1   9
TORSDOF 10
ENDMDL
MODEL 6
REMARK VINA RESULT:    -1.409     11.070     12.288
REMARK INTER + INTRA:          -3.157
REMARK INTER:                  -3.624
REMARK INTRA:                   0.467
REMARK UNBOUND:                -0.923
REMARK SMILES CCCCCCCCCCCC(=O)[O-]
REMARK SMILES IDX 7 1 8 2 9 3 10 4 11 5 12 6 13 7 14 8 6 9 5 10 4 11 3 12 2 13
REMARK SMILES IDX 1 14
REMARK H PARENT
REMARK Flexibility Score: inf
ROOT
ATOM      1  C   UNL     1      -4.921  70.518  -5.771  1.00  0.00     0.000 C 
ENDROOT
BRANCH   1   2
ATOM      2  C   UNL     1      -3.471  70.419  -6.279  1.00  0.00     0.000 C 
BRANCH   2   3
ATOM      3  C   UNL     1      -2.840  69.015  -6.189  1.00  0.00     0.000 C 
BRANCH   3   4
ATOM      4  C   UNL     1      -1.299  68.988  -6.203  1.00  0.00     0.006 C 
BRANCH   4   5
ATOM      5  C   UNL     1      -0.653  68.971  -4.809  1.00  0.00     0.053 C 
BRANCH   5   6
ATOM      6  C   UNL     1      -1.181  70.068  -3.937  1.00  0.00     0.041 C 
ATOM      7  O   UNL     1      -1.535  71.166  -4.443  1.00  0.00    -0.550 OA
ATOM      8  O   UNL     1      -1.254  69.889  -2.561  1.00  0.00    -0.550 OA
ENDBRANCH   5   6
ENDBRANCH   4   5
ENDBRANCH   3   4
ENDBRANCH   2   3
ENDBRANCH   1   2
BRANCH   1   9
ATOM      9  C   UNL     1      -5.935  70.748  -6.901  1.00  0.00     0.000 C 
BRANCH   9  10
ATOM     10  C   UNL     1      -5.350  71.665  -7.985  1.00  0.00    -0.000 C 
BRANCH  10  11
ATOM     11  C   UNL     1      -6.125  72.986  -8.124  1.00  0.00    -0.000 C 
BRANCH  11  12
ATOM     12  C   UNL     1      -5.518  74.119  -7.279  1.00  0.00    -0.000 C 
BRANCH  12  13
ATOM     13  C   UNL     1      -5.528  75.470  -8.012  1.00  0.00    -0.003 C 
ATOM     14  C   UNL     1      -4.169  76.168  -7.979  1.00  0.00     0.004 C 
ENDBRANCH  12  13
ENDBRANCH  11  12
ENDBRANCH  10  11
ENDBRANCH   9  10
ENDBRANCH   1   9
TORSDOF 10
ENDMDL
MODEL 7
REMARK VINA RESULT:    -1.409     12.202     13.818
REMARK INTER + INTRA:          -3.156
REMARK INTER:                  -2.717
REMARK INTRA:                  -0.439
REMARK UNBOUND:                -0.923
REMARK SMILES CCCCCCCCCCCC(=O)[O-]
REMARK SMILES IDX 7 1 8 2 9 3 10 4 11 5 12 6 13 7 14 8 6 9 5 10 4 11 3 12 2 13
REMARK SMILES IDX 1 14
REMARK H PARENT
REMARK Flexibility Score: inf
ROOT
ATOM      1  C   UNL     1      -5.258  71.297  -5.319  1.00  0.00     0.000 C 
ENDROOT
BRANCH   1   2
ATOM      2  C   UNL     1      -6.082  72.440  -5.937  1.00  0.00     0.000 C 
BRANCH   2   3
ATOM      3  C   UNL     1      -6.124  72.460  -7.478  1.00  0.00     0.000 C 
BRANCH   3   4
ATOM      4  C   UNL     1      -5.999  73.856  -8.119  1.00  0.00     0.006 C 
BRANCH   4   5
ATOM      5  C   UNL     1      -4.793  74.673  -7.631  1.00  0.00     0.053 C 
BRANCH   5   6
ATOM      6  C   UNL     1      -4.946  76.131  -7.936  1.00  0.00     0.041 C 
ATOM      7  O   UNL     1      -6.093  76.635  -8.062  1.00  0.00    -0.550 OA
ATOM      8  O   UNL     1      -3.821  76.926  -8.113  1.00  0.00    -0.550 OA
ENDBRANCH   5   6
ENDBRANCH   4   5
ENDBRANCH   3   4
ENDBRANCH   2   3
ENDBRANCH   1   2
BRANCH   1   9
ATOM      9  C   UNL     1      -4.980  70.158  -6.311  1.00  0.00     0.000 C 
BRANCH   9  10
ATOM     10  C   UNL     1      -3.470  69.950  -6.500  1.00  0.00    -0.000 C 
BRANCH  10  11
ATOM     11  C   UNL     1      -2.631  70.788  -5.521  1.00  0.00    -0.000 C 
BRANCH  11  12
ATOM     12  C   UNL     1      -2.058  69.950  -4.365  1.00  0.00    -0.000 C 
BRANCH  12  13
ATOM     13  C   UNL     1      -0.987  68.953  -4.835  1.00  0.00    -0.003 C 
ATOM     14  C   UNL     1      -0.279  69.408  -6.111  1.00  0.00     0.004 C 
ENDBRANCH  12  13
ENDBRANCH  11  12
ENDBRANCH  10  11
ENDBRANCH   9  10
ENDBRANCH   1   9
TORSDOF 10
ENDMDL
MODEL 8
REMARK VINA RESULT:    -1.071      3.252      7.028
REMARK INTER + INTRA:          -2.621
REMARK INTER:                  -2.252
REMARK INTRA:                  -0.369
REMARK UNBOUND:                -0.923
REMARK SMILES CCCCCCCCCCCC(=O)[O-]
REMARK SMILES IDX 7 1 8 2 9 3 10 4 11 5 12 6 13 7 14 8 6 9 5 10 4 11 3 12 2 13
REMARK SMILES IDX 1 14
REMARK H PARENT
REMARK Flexibility Score: inf
ROOT
ATOM      1  C   UNL     1       2.336  60.426  -5.147  1.00  0.00     0.000 C 
ENDROOT
BRANCH   1   2
ATOM      2  C   UNL     1       0.919  60.905  -4.784  1.00  0.00     0.000 C 
BRANCH   2   3
ATOM      3  C   UNL     1      -0.081  59.785  -4.433  1.00  0.00     0.000 C 
BRANCH   3   4
ATOM      4  C   UNL     1      -1.133  59.483  -5.519  1.00  0.00     0.006 C 
BRANCH   4   5
ATOM      5  C   UNL     1      -2.575  59.387  -4.997  1.00  0.00     0.053 C 
BRANCH   5   6
ATOM      6  C   UNL     1      -3.520  60.212  -5.815  1.00  0.00     0.041 C 
ATOM      7  O   UNL     1      -4.255  61.071  -5.259  1.00  0.00    -0.550 OA
ATOM      8  O   UNL     1      -3.611  60.012  -7.186  1.00  0.00    -0.550 OA
ENDBRANCH   5   6
ENDBRANCH   4   5
ENDBRANCH   3   4
ENDBRANCH   2   3
ENDBRANCH   1   2
BRANCH   1   9
ATOM      9  C   UNL     1       2.335  59.281  -6.169  1.00  0.00     0.000 C 
BRANCH   9  10
ATOM     10  C   UNL     1       2.739  59.788  -7.562  1.00  0.00    -0.000 C 
BRANCH  10  11
ATOM     11  C   UNL     1       3.967  59.055  -8.125  1.00  0.00    -0.000 C 
BRANCH  11  12
ATOM     12  C   UNL     1       5.279  59.497  -7.454  1.00  0.00    -0.000 C 
BRANCH  12  13
ATOM     13  C   UNL     1       6.518  58.883  -8.123  1.00  0.00    -0.003 C 
ATOM     14  C   UNL     1       7.826  59.467  -7.590  1.00  0.00     0.004 C 
ENDBRANCH  12  13
ENDBRANCH  11  12
ENDBRANCH  10  11
ENDBRANCH   9  10
ENDBRANCH   1   9
TORSDOF 10
ENDMDL
