MODEL 1
REMARK VINA RESULT:    -4.876      0.000      0.000
REMARK INTER + INTRA:          -9.794
REMARK INTER:                  -8.296
REMARK INTRA:                  -1.498
REMARK UNBOUND:                -1.498
REMARK SMILES CCCCCCCCCCCCCC(=O)[O-]
REMARK SMILES IDX 8 1 9 2 10 3 11 4 12 5 13 6 14 7 15 8 16 9 7 10 6 11 5 12
REMARK SMILES IDX 4 13 3 14 2 15 1 16
REMARK H PARENT
REMARK Flexibility Score: inf
ROOT
ATOM      1  C   UNL     1      23.175  35.636 147.123  1.00  0.00     0.000 C 
ENDROOT
BRANCH   1   2
ATOM      2  C   UNL     1      23.669  36.857 147.926  1.00  0.00     0.000 C 
BRANCH   2   3
ATOM      3  C   UNL     1      25.110  37.306 147.613  1.00  0.00     0.000 C 
BRANCH   3   4
ATOM      4  C   UNL     1      25.308  38.829 147.503  1.00  0.00     0.000 C 
BRANCH   4   5
ATOM      5  C   UNL     1      24.015  39.618 147.754  1.00  0.00     0.006 C 
BRANCH   5   6
ATOM      6  C   UNL     1      24.242  40.730 148.783  1.00  0.00     0.053 C 
BRANCH   6   7
ATOM      7  C   UNL     1      24.782  40.163 150.057  1.00  0.00     0.041 C 
ATOM      8  O   UNL     1      24.101  39.339 150.723  1.00  0.00    -0.550 OA
ATOM      9  O   UNL     1      26.017  40.582 150.537  1.00  0.00    -0.550 OA
ENDBRANCH   6   7
ENDBRANCH   5   6
ENDBRANCH   4   5
ENDBRANCH   3   4
ENDBRANCH   2   3
ENDBRANCH   1   2
BRANCH   1  10
ATOM     10  C   UNL     1      24.200  34.498 146.972  1.00  0.00     0.000 C 
BRANCH  10  11
ATOM     11  C   UNL     1      23.886  33.228 147.787  1.00  0.00    -0.000 C 
BRANCH  11  12
ATOM     12  C   UNL     1      24.944  32.901 148.862  1.00  0.00    -0.000 C 
BRANCH  12  13
ATOM     13  C   UNL     1      25.348  34.135 149.687  1.00  0.00    -0.000 C 
BRANCH  13  14
ATOM     14  C   UNL     1      26.864  34.407 149.657  1.00  0.00    -0.000 C 
BRANCH  14  15
ATOM     15  C   UNL     1      27.514  34.288 148.267  1.00  0.00    -0.003 C 
ATOM     16  C   UNL     1      28.250  35.557 147.839  1.00  0.00     0.004 C 
ENDBRANCH  14  15
ENDBRANCH  13  14
ENDBRANCH  12  13
ENDBRANCH  11  12
ENDBRANCH  10  11
ENDBRANCH   1  10
TORSDOF 12
ENDMDL
MODEL 2
REMARK VINA RESULT:    -4.870      1.814      5.148
REMARK INTER + INTRA:          -9.785
REMARK INTER:                  -8.587
REMARK INTRA:                  -1.197
REMARK UNBOUND:                -1.498
REMARK SMILES CCCCCCCCCCCCCC(=O)[O-]
REMARK SMILES IDX 8 1 9 2 10 3 11 4 12 5 13 6 14 7 15 8 16 9 7 10 6 11 5 12
REMARK SMILES IDX 4 13 3 14 2 15 1 16
REMARK H PARENT
REMARK Flexibility Score: inf
ROOT
ATOM      1  C   UNL     1      24.313  34.845 147.364  1.00  0.00     0.000 C 
ENDROOT
BRANCH   1   2
ATOM      2  C   UNL     1      24.073  33.989 148.624  1.00  0.00     0.000 C 
BRANCH   2   3
ATOM      3  C   UNL     1      25.347  33.584 149.393  1.00  0.00     0.000 C 
BRANCH   3   4
ATOM      4  C   UNL     1      26.611  33.437 148.527  1.00  0.00     0.000 C 
BRANCH   4   5
ATOM      5  C   UNL     1      27.769  34.321 149.007  1.00  0.00     0.006 C 
BRANCH   5   6
ATOM      6  C   UNL     1      27.296  35.313 150.074  1.00  0.00     0.053 C 
BRANCH   6   7
ATOM      7  C   UNL     1      27.295  36.707 149.532  1.00  0.00     0.041 C 
ATOM      8  O   UNL     1      27.287  37.692 150.315  1.00  0.00    -0.550 OA
ATOM      9  O   UNL     1      27.251  36.919 148.159  1.00  0.00    -0.550 OA
ENDBRANCH   6   7
ENDBRANCH   5   6
ENDBRANCH   4   5
ENDBRANCH   3   4
ENDBRANCH   2   3
ENDBRANCH   1   2
BRANCH   1  10
ATOM     10  C   UNL     1      23.675  36.246 147.397  1.00  0.00     0.000 C 
BRANCH  10  11
ATOM     11  C   UNL     1      23.739  36.956 148.763  1.00  0.00    -0.000 C 
BRANCH  11  12
ATOM     12  C   UNL     1      23.015  38.320 148.790  1.00  0.00    -0.000 C 
BRANCH  12  13
ATOM     13  C   UNL     1      23.427  39.229 147.619  1.00  0.00    -0.000 C 
BRANCH  13  14
ATOM     14  C   UNL     1      24.940  39.518 147.587  1.00  0.00    -0.000 C 
BRANCH  14  15
ATOM     15  C   UNL     1      25.312  41.011 147.562  1.00  0.00    -0.003 C 
ATOM     16  C   UNL     1      24.092  41.932 147.536  1.00  0.00     0.004 C 
ENDBRANCH  14  15
ENDBRANCH  13  14
ENDBRANCH  12  13
ENDBRANCH  11  12
ENDBRANCH  10  11
ENDBRANCH   1  10
TORSDOF 12
ENDMDL
MODEL 3
REMARK VINA RESULT:    -4.855      1.314      3.020
REMARK INTER + INTRA:          -9.758
REMARK INTER:                  -8.219
REMARK INTRA:                  -1.539
REMARK UNBOUND:                -1.498
REMARK SMILES CCCCCCCCCCCCCC(=O)[O-]
REMARK SMILES IDX 8 1 9 2 10 3 11 4 12 5 13 6 14 7 15 8 16 9 7 10 6 11 5 12
REMARK SMILES IDX 4 13 3 14 2 15 1 16
REMARK H PARENT
REMARK Flexibility Score: inf
ROOT
ATOM      1  C   UNL     1      26.369  37.657 147.552  1.00  0.00     0.000 C 
ENDROOT
BRANCH   1   2
ATOM      2  C   UNL     1      25.074  36.839 147.371  1.00  0.00     0.000 C 
BRANCH   2   3
ATOM      3  C   UNL     1      23.776  37.574 147.760  1.00  0.00     0.000 C 
BRANCH   3   4
ATOM      4  C   UNL     1      23.362  37.426 149.235  1.00  0.00     0.000 C 
BRANCH   4   5
ATOM      5  C   UNL     1      23.364  38.762 149.992  1.00  0.00     0.006 C 
BRANCH   5   6
ATOM      6  C   UNL     1      24.016  39.866 149.153  1.00  0.00     0.053 C 
BRANCH   6   7
ATOM      7  C   UNL     1      24.588  40.927 150.038  1.00  0.00     0.041 C 
ATOM      8  O   UNL     1      25.542  40.660 150.814  1.00  0.00    -0.550 OA
ATOM      9  O   UNL     1      24.033  42.202 150.043  1.00  0.00    -0.550 OA
ENDBRANCH   6   7
ENDBRANCH   5   6
ENDBRANCH   4   5
ENDBRANCH   3   4
ENDBRANCH   2   3
ENDBRANCH   1   2
BRANCH   1  10
ATOM     10  C   UNL     1      27.498  36.931 148.307  1.00  0.00     0.000 C 
BRANCH  10  11
ATOM     11  C   UNL     1      27.231  36.700 149.807  1.00  0.00    -0.000 C 
BRANCH  11  12
ATOM     12  C   UNL     1      27.388  35.229 150.248  1.00  0.00    -0.000 C 
BRANCH  12  13
ATOM     13  C   UNL     1      26.543  34.264 149.396  1.00  0.00    -0.000 C 
BRANCH  13  14
ATOM     14  C   UNL     1      25.094  34.132 149.901  1.00  0.00    -0.000 C 
BRANCH  14  15
ATOM     15  C   UNL     1      24.271  33.026 149.217  1.00  0.00    -0.003 C 
ATOM     16  C   UNL     1      23.993  33.312 147.741  1.00  0.00     0.004 C 
ENDBRANCH  14  15
ENDBRANCH  13  14
ENDBRANCH  12  13
ENDBRANCH  11  12
ENDBRANCH  10  11
ENDBRANCH   1  10
TORSDOF 12
ENDMDL
MODEL 4
REMARK VINA RESULT:    -4.833      2.695      4.867
REMARK INTER + INTRA:          -9.721
REMARK INTER:                  -7.959
REMARK INTRA:                  -1.761
REMARK UNBOUND:                -1.498
REMARK SMILES CCCCCCCCCCCCCC(=O)[O-]
REMARK SMILES IDX 8 1 9 2 10 3 11 4 12 5 13 6 14 7 15 8 16 9 7 10 6 11 5 12
REMARK SMILES IDX 4 13 3 14 2 15 1 16
REMARK H PARENT
REMARK Flexibility Score: inf
ROOT
ATOM      1  C   UNL     1      24.398  39.394 150.139  1.00  0.00     0.000 C 
ENDROOT
BRANCH   1   2
ATOM      2  C   UNL     1      24.297  39.898 148.685  1.00  0.00     0.000 C 
BRANCH   2   3
ATOM      3  C   UNL     1      23.669  38.903 147.689  1.00  0.00     0.000 C 
BRANCH   3   4
ATOM      4  C   UNL     1      24.493  37.628 147.436  1.00  0.00     0.000 C 
BRANCH   4   5
ATOM      5  C   UNL     1      23.690  36.341 147.670  1.00  0.00     0.006 C 
BRANCH   5   6
ATOM      6  C   UNL     1      24.242  35.560 148.866  1.00  0.00     0.053 C 
BRANCH   6   7
ATOM      7  C   UNL     1      24.209  34.090 148.592  1.00  0.00     0.041 C 
ATOM      8  O   UNL     1      24.253  33.664 147.408  1.00  0.00    -0.550 OA
ATOM      9  O   UNL     1      24.078  33.189 149.643  1.00  0.00    -0.550 OA
ENDBRANCH   6   7
ENDBRANCH   5   6
ENDBRANCH   4   5
ENDBRANCH   3   4
ENDBRANCH   2   3
ENDBRANCH   1   2
BRANCH   1  10
ATOM     10  C   UNL     1      25.832  39.202 150.664  1.00  0.00     0.000 C 
BRANCH  10  11
ATOM     11  C   UNL     1      26.942  39.687 149.711  1.00  0.00    -0.000 C 
BRANCH  11  12
ATOM     12  C   UNL     1      27.861  38.557 149.199  1.00  0.00    -0.000 C 
BRANCH  12  13
ATOM     13  C   UNL     1      27.419  37.168 149.694  1.00  0.00    -0.000 C 
BRANCH  13  14
ATOM     14  C   UNL     1      27.852  36.030 148.752  1.00  0.00    -0.000 C 
BRANCH  14  15
ATOM     15  C   UNL     1      27.886  34.634 149.399  1.00  0.00    -0.003 C 
ATOM     16  C   UNL     1      27.789  33.498 148.380  1.00  0.00     0.004 C 
ENDBRANCH  14  15
ENDBRANCH  13  14
ENDBRANCH  12  13
ENDBRANCH  11  12
ENDBRANCH  10  11
ENDBRANCH   1  10
TORSDOF 12
ENDMDL
MODEL 5
REMARK VINA RESULT:    -4.810      1.654      1.918
REMARK INTER + INTRA:          -9.682
REMARK INTER:                  -7.940
REMARK INTRA:                  -1.742
REMARK UNBOUND:                -1.498
REMARK SMILES CCCCCCCCCCCCCC(=O)[O-]
REMARK SMILES IDX 8 1 9 2 10 3 11 4 12 5 13 6 14 7 15 8 16 9 7 10 6 11 5 12
REMARK SMILES IDX 4 13 3 14 2 15 1 16
REMARK H PARENT
REMARK Flexibility Score: inf
ROOT
ATOM      1  C   UNL     1      23.763  36.306 147.432  1.00  0.00     0.000 C 
ENDROOT
BRANCH   1   2
ATOM      2  C   UNL     1      23.592  36.873 148.856  1.00  0.00     0.000 C 
BRANCH   2   3
ATOM      3  C   UNL     1      23.633  38.411 148.958  1.00  0.00     0.000 C 
BRANCH   3   4
ATOM      4  C   UNL     1      23.709  39.150 147.610  1.00  0.00     0.000 C 
BRANCH   4   5
ATOM      5  C   UNL     1      24.940  40.061 147.498  1.00  0.00     0.006 C 
BRANCH   5   6
ATOM      6  C   UNL     1      25.228  40.760 148.830  1.00  0.00     0.053 C 
BRANCH   6   7
ATOM      7  C   UNL     1      24.408  42.004 148.958  1.00  0.00     0.041 C 
ATOM      8  O   UNL     1      24.012  42.388 150.090  1.00  0.00    -0.550 OA
ATOM      9  O   UNL     1      24.038  42.713 147.822  1.00  0.00    -0.550 OA
ENDBRANCH   6   7
ENDBRANCH   5   6
ENDBRANCH   4   5
ENDBRANCH   3   4
ENDBRANCH   2   3
ENDBRANCH   1   2
BRANCH   1  10
ATOM     10  C   UNL     1      24.016  34.789 147.361  1.00  0.00     0.000 C 
BRANCH  10  11
ATOM     11  C   UNL     1      24.189  34.096 148.727  1.00  0.00    -0.000 C 
BRANCH  11  12
ATOM     12  C   UNL     1      25.536  33.357 148.883  1.00  0.00    -0.000 C 
BRANCH  12  13
ATOM     13  C   UNL     1      26.744  34.267 148.601  1.00  0.00    -0.000 C 
BRANCH  13  14
ATOM     14  C   UNL     1      27.201  35.060 149.839  1.00  0.00    -0.000 C 
BRANCH  14  15
ATOM     15  C   UNL     1      27.164  36.590 149.677  1.00  0.00    -0.003 C 
ATOM     16  C   UNL     1      27.351  37.043 148.229  1.00  0.00     0.004 C 
ENDBRANCH  14  15
ENDBRANCH  13  14
ENDBRANCH  12  13
ENDBRANCH  11  12
ENDBRANCH  10  11
ENDBRANCH   1  10
TORSDOF 12
ENDMDL
MODEL 6
REMARK VINA RESULT:    -4.726      2.735      5.767
REMARK INTER + INTRA:          -9.540
REMARK INTER:                  -7.983
REMARK INTRA:                  -1.556
REMARK UNBOUND:                -1.498
REMARK SMILES CCCCCCCCCCCCCC(=O)[O-]
REMARK SMILES IDX 8 1 9 2 10 3 11 4 12 5 13 6 14 7 15 8 16 9 7 10 6 11 5 12
REMARK SMILES IDX 4 13 3 14 2 15 1 16
REMARK H PARENT
REMARK Flexibility Score: inf
ROOT
ATOM      1  C   UNL     1      27.135  36.942 147.202  1.00  0.00     0.000 C 
ENDROOT
BRANCH   1   2
ATOM      2  C   UNL     1      28.086  36.741 148.400  1.00  0.00     0.000 C 
BRANCH   2   3
ATOM      3  C   UNL     1      27.391  36.546 149.762  1.00  0.00     0.000 C 
BRANCH   3   4
ATOM      4  C   UNL     1      27.400  35.103 150.297  1.00  0.00     0.000 C 
BRANCH   4   5
ATOM      5  C   UNL     1      26.712  34.111 149.349  1.00  0.00     0.006 C 
BRANCH   5   6
ATOM      6  C   UNL     1      25.195  34.324 149.339  1.00  0.00     0.053 C 
BRANCH   6   7
ATOM      7  C   UNL     1      24.556  33.491 148.274  1.00  0.00     0.041 C 
ATOM      8  O   UNL     1      24.234  32.297 148.510  1.00  0.00    -0.550 OA
ATOM      9  O   UNL     1      24.361  34.017 147.002  1.00  0.00    -0.550 OA
ENDBRANCH   6   7
ENDBRANCH   5   6
ENDBRANCH   4   5
ENDBRANCH   3   4
ENDBRANCH   2   3
ENDBRANCH   1   2
BRANCH   1  10
ATOM     10  C   UNL     1      26.068  38.036 147.395  1.00  0.00     0.000 C 
BRANCH  10  11
ATOM     11  C   UNL     1      24.615  37.526 147.432  1.00  0.00    -0.000 C 
BRANCH  11  12
ATOM     12  C   UNL     1      23.584  38.611 147.812  1.00  0.00    -0.000 C 
BRANCH  12  13
ATOM     13  C   UNL     1      24.247  39.900 148.328  1.00  0.00    -0.000 C 
BRANCH  13  14
ATOM     14  C   UNL     1      24.140  40.059 149.856  1.00  0.00    -0.000 C 
BRANCH  14  15
ATOM     15  C   UNL     1      25.373  39.579 150.644  1.00  0.00    -0.003 C 
ATOM     16  C   UNL     1      26.659  40.299 150.240  1.00  0.00     0.004 C 
ENDBRANCH  14  15
ENDBRANCH  13  14
ENDBRANCH  12  13
ENDBRANCH  11  12
ENDBRANCH  10  11
ENDBRANCH   1  10
TORSDOF 12
ENDMDL
MODEL 7
REMARK VINA RESULT:    -4.717      2.680      5.233
REMARK INTER + INTRA:          -9.525
REMARK INTER:                  -7.638
REMARK INTRA:                  -1.886
REMARK UNBOUND:                -1.498
REMARK SMILES CCCCCCCCCCCCCC(=O)[O-]
REMARK SMILES IDX 8 1 9 2 10 3 11 4 12 5 13 6 14 7 15 8 16 9 7 10 6 11 5 12
REMARK SMILES IDX 4 13 3 14 2 15 1 16
REMARK H PARENT
REMARK Flexibility Score: inf
ROOT
ATOM      1  C   UNL     1      23.630  39.596 147.782  1.00  0.00     0.000 C 
ENDROOT
BRANCH   1   2
ATOM      2  C   UNL     1      24.192  38.214 147.390  1.00  0.00     0.000 C 
BRANCH   2   3
ATOM      3  C   UNL     1      23.730  37.043 148.280  1.00  0.00     0.000 C 
BRANCH   3   4
ATOM      4  C   UNL     1      24.102  35.643 147.759  1.00  0.00     0.000 C 
BRANCH   4   5
ATOM      5  C   UNL     1      25.586  35.307 147.958  1.00  0.00     0.006 C 
BRANCH   5   6
ATOM      6  C   UNL     1      25.821  34.644 149.318  1.00  0.00     0.053 C 
BRANCH   6   7
ATOM      7  C   UNL     1      27.274  34.672 149.672  1.00  0.00     0.041 C 
ATOM      8  O   UNL     1      27.637  34.973 150.839  1.00  0.00    -0.550 OA
ATOM      9  O   UNL     1      28.232  34.414 148.698  1.00  0.00    -0.550 OA
ENDBRANCH   6   7
ENDBRANCH   5   6
ENDBRANCH   4   5
ENDBRANCH   3   4
ENDBRANCH   2   3
ENDBRANCH   1   2
BRANCH   1  10
ATOM     10  C   UNL     1      24.693  40.669 148.082  1.00  0.00     0.000 C 
BRANCH  10  11
ATOM     11  C   UNL     1      24.781  41.100 149.559  1.00  0.00    -0.000 C 
BRANCH  11  12
ATOM     12  C   UNL     1      24.842  39.918 150.550  1.00  0.00    -0.000 C 
BRANCH  12  13
ATOM     13  C   UNL     1      26.286  39.504 150.885  1.00  0.00    -0.000 C 
BRANCH  13  14
ATOM     14  C   UNL     1      26.765  38.288 150.072  1.00  0.00    -0.000 C 
BRANCH  14  15
ATOM     15  C   UNL     1      28.037  38.528 149.239  1.00  0.00    -0.003 C 
ATOM     16  C   UNL     1      27.867  38.157 147.766  1.00  0.00     0.004 C 
ENDBRANCH  14  15
ENDBRANCH  13  14
ENDBRANCH  12  13
ENDBRANCH  11  12
ENDBRANCH  10  11
ENDBRANCH   1  10
TORSDOF 12
ENDMDL
MODEL 8
REMARK VINA RESULT:    -4.717      2.576      4.512
REMARK INTER + INTRA:          -9.523
REMARK INTER:                  -7.944
REMARK INTRA:                  -1.579
REMARK UNBOUND:                -1.498
REMARK SMILES CCCCCCCCCCCCCC(=O)[O-]
REMARK SMILES IDX 8 1 9 2 10 3 11 4 12 5 13 6 14 7 15 8 16 9 7 10 6 11 5 12
REMARK SMILES IDX 4 13 3 14 2 15 1 16
REMARK H PARENT
REMARK Flexibility Score: inf
ROOT
ATOM      1  C   UNL     1      24.189  40.038 148.617  1.00  0.00     0.000 C 
ENDROOT
BRANCH   1   2
ATOM      2  C   UNL     1      24.425  39.570 150.068  1.00  0.00     0.000 C 
BRANCH   2   3
ATOM      3  C   UNL     1      25.880  39.184 150.402  1.00  0.00     0.000 C 
BRANCH   3   4
ATOM      4  C   UNL     1      26.816  39.058 149.186  1.00  0.00     0.000 C 
BRANCH   4   5
ATOM      5  C   UNL     1      27.794  37.881 149.306  1.00  0.00     0.006 C 
BRANCH   5   6
ATOM      6  C   UNL     1      27.047  36.573 149.581  1.00  0.00     0.053 C 
BRANCH   6   7
ATOM      7  C   UNL     1      27.563  35.478 148.703  1.00  0.00     0.041 C 
ATOM      8  O   UNL     1      27.594  35.630 147.453  1.00  0.00    -0.550 OA
ATOM      9  O   UNL     1      27.965  34.270 149.260  1.00  0.00    -0.550 OA
ENDBRANCH   6   7
ENDBRANCH   5   6
ENDBRANCH   4   5
ENDBRANCH   3   4
ENDBRANCH   2   3
ENDBRANCH   1   2
BRANCH   1  10
ATOM     10  C   UNL     1      23.398  39.053 147.736  1.00  0.00     0.000 C 
BRANCH  10  11
ATOM     11  C   UNL     1      23.356  37.604 148.259  1.00  0.00    -0.000 C 
BRANCH  11  12
ATOM     12  C   UNL     1      24.114  36.598 147.367  1.00  0.00    -0.000 C 
BRANCH  12  13
ATOM     13  C   UNL     1      23.440  35.215 147.334  1.00  0.00    -0.000 C 
BRANCH  13  14
ATOM     14  C   UNL     1      24.432  34.071 147.055  1.00  0.00    -0.000 C 
BRANCH  14  15
ATOM     15  C   UNL     1      24.558  33.035 148.187  1.00  0.00    -0.003 C 
ATOM     16  C   UNL     1      24.227  33.609 149.564  1.00  0.00     0.004 C 
ENDBRANCH  14  15
ENDBRANCH  13  14
ENDBRANCH  12  13
ENDBRANCH  11  12
ENDBRANCH  10  11
ENDBRANCH   1  10
TORSDOF 12
ENDMDL
MODEL 9
REMARK VINA RESULT:    -4.707      2.655      5.694
REMARK INTER + INTRA:          -9.507
REMARK INTER:                  -7.749
REMARK INTRA:                  -1.757
REMARK UNBOUND:                -1.498
REMARK SMILES CCCCCCCCCCCCCC(=O)[O-]
REMARK SMILES IDX 8 1 9 2 10 3 11 4 12 5 13 6 14 7 15 8 16 9 7 10 6 11 5 12
REMARK SMILES IDX 4 13 3 14 2 15 1 16
REMARK H PARENT
REMARK Flexibility Score: inf
ROOT
ATOM      1  C   UNL     1      24.497  36.898 147.456  1.00  0.00     0.000 C 
ENDROOT
BRANCH   1   2
ATOM      2  C   UNL     1      26.019  37.139 147.522  1.00  0.00     0.000 C 
BRANCH   2   3
ATOM      3  C   UNL     1      26.649  36.968 148.919  1.00  0.00     0.000 C 
BRANCH   3   4
ATOM      4  C   UNL     1      27.618  35.780 149.056  1.00  0.00     0.000 C 
BRANCH   4   5
ATOM      5  C   UNL     1      26.955  34.535 149.661  1.00  0.00     0.006 C 
BRANCH   5   6
ATOM      6  C   UNL     1      26.446  33.596 148.564  1.00  0.00     0.053 C 
BRANCH   6   7
ATOM      7  C   UNL     1      24.978  33.357 148.717  1.00  0.00     0.041 C 
ATOM      8  O   UNL     1      24.396  32.503 147.998  1.00  0.00    -0.550 OA
ATOM      9  O   UNL     1      24.240  34.114 149.621  1.00  0.00    -0.550 OA
ENDBRANCH   6   7
ENDBRANCH   5   6
ENDBRANCH   4   5
ENDBRANCH   3   4
ENDBRANCH   2   3
ENDBRANCH   1   2
BRANCH   1  10
ATOM     10  C   UNL     1      23.629  38.140 147.732  1.00  0.00     0.000 C 
BRANCH  10  11
ATOM     11  C   UNL     1      23.102  38.255 149.175  1.00  0.00    -0.000 C 
BRANCH  11  12
ATOM     12  C   UNL     1      23.961  39.163 150.081  1.00  0.00    -0.000 C 
BRANCH  12  13
ATOM     13  C   UNL     1      24.328  40.495 149.404  1.00  0.00    -0.000 C 
BRANCH  13  14
ATOM     14  C   UNL     1      25.828  40.829 149.510  1.00  0.00    -0.000 C 
BRANCH  14  15
ATOM     15  C   UNL     1      26.615  40.693 148.195  1.00  0.00    -0.003 C 
ATOM     16  C   UNL     1      25.778  41.023 146.959  1.00  0.00     0.004 C 
ENDBRANCH  14  15
ENDBRANCH  13  14
ENDBRANCH  12  13
ENDBRANCH  11  12
ENDBRANCH  10  11
ENDBRANCH   1  10
TORSDOF 12
ENDMDL
