MODEL 1
REMARK VINA RESULT:    -2.574      0.000      0.000
REMARK INTER + INTRA:         -12.290
REMARK INTER:                  -6.485
REMARK INTRA:                  -5.804
REMARK UNBOUND:                -5.804
REMARK SMILES CCCCCCCCCCCCCCCCCCCCCCCCCCCC(=O)[O-]
REMARK SMILES IDX 15 1 16 2 17 3 18 4 19 5 20 6 21 7 22 8 23 9 24 10 25 11
REMARK SMILES IDX 26 12 27 13 28 14 29 15 30 16 14 17 13 18 12 19 11 20 10 21
REMARK SMILES IDX 9 22 8 23 7 24 6 25 5 26 4 27 3 28 2 29 1 30
REMARK H PARENT
REMARK Flexibility Score: inf
ROOT
ATOM      1  C   UNL     1      95.673  65.036 226.913  1.00  0.00     0.000 C 
ENDROOT
BRANCH   1   2
ATOM      2  C   UNL     1      95.295  65.846 225.663  1.00  0.00     0.000 C 
BRANCH   2   3
ATOM      3  C   UNL     1      95.625  67.333 225.862  1.00  0.00     0.000 C 
BRANCH   3   4
ATOM      4  C   UNL     1      95.634  67.743 227.349  1.00  0.00     0.000 C 
BRANCH   4   5
ATOM      5  C   UNL     1      96.902  68.503 227.770  1.00  0.00     0.000 C 
BRANCH   5   6
ATOM      6  C   UNL     1      97.590  67.886 229.000  1.00  0.00     0.000 C 
BRANCH   6   7
ATOM      7  C   UNL     1      96.613  67.087 229.877  1.00  0.00     0.000 C 
BRANCH   7   8
ATOM      8  C   UNL     1      97.338  66.116 230.823  1.00  0.00     0.000 C 
BRANCH   8   9
ATOM      9  C   UNL     1      97.116  64.640 230.449  1.00  0.00     0.000 C 
BRANCH   9  10
ATOM     10  C   UNL     1      98.140  63.655 231.045  1.00  0.00     0.000 C 
BRANCH  10  11
ATOM     11  C   UNL     1      97.678  62.186 231.102  1.00  0.00     0.000 C 
BRANCH  11  12
ATOM     12  C   UNL     1      98.431  61.232 230.160  1.00  0.00     0.006 C 
BRANCH  12  13
ATOM     13  C   UNL     1      97.654  60.927 228.872  1.00  0.00     0.053 C 
BRANCH  13  14
ATOM     14  C   UNL     1      98.257  59.756 228.162  1.00  0.00     0.041 C 
ATOM     15  O   UNL     1      97.584  59.115 227.312  1.00  0.00    -0.550 OA
ATOM     16  O   UNL     1      99.575  59.393 228.410  1.00  0.00    -0.550 OA
ENDBRANCH  13  14
ENDBRANCH  12  13
ENDBRANCH  11  12
ENDBRANCH  10  11
ENDBRANCH   9  10
ENDBRANCH   8   9
ENDBRANCH   7   8
ENDBRANCH   6   7
ENDBRANCH   5   6
ENDBRANCH   4   5
ENDBRANCH   3   4
ENDBRANCH   2   3
ENDBRANCH   1   2
BRANCH   1  17
ATOM     17  C   UNL     1      97.094  64.447 226.843  1.00  0.00     0.000 C 
BRANCH  17  18
ATOM     18  C   UNL     1      97.679  64.330 225.422  1.00  0.00     0.000 C 
BRANCH  18  19
ATOM     19  C   UNL     1      98.948  65.164 225.169  1.00  0.00     0.000 C 
BRANCH  19  20
ATOM     20  C   UNL     1      99.304  66.131 226.320  1.00  0.00     0.000 C 
BRANCH  20  21
ATOM     21  C   UNL     1     100.596  65.726 227.049  1.00  0.00     0.000 C 
BRANCH  21  22
ATOM     22  C   UNL     1     100.323  65.070 228.413  1.00  0.00    -0.000 C 
BRANCH  22  23
ATOM     23  C   UNL     1     100.896  63.646 228.504  1.00  0.00    -0.000 C 
BRANCH  23  24
ATOM     24  C   UNL     1     100.356  62.713 227.408  1.00  0.00    -0.000 C 
BRANCH  24  25
ATOM     25  C   UNL     1     101.469  61.939 226.680  1.00  0.00    -0.000 C 
BRANCH  25  26
ATOM     26  C   UNL     1     101.902  62.634 225.377  1.00  0.00    -0.000 C 
BRANCH  26  27
ATOM     27  C   UNL     1     103.230  63.392 225.533  1.00  0.00    -0.000 C 
BRANCH  27  28
ATOM     28  C   UNL     1     104.180  62.647 226.477  1.00  0.00    -0.000 C 
BRANCH  28  29
ATOM     29  C   UNL     1     104.627  63.551 227.632  1.00  0.00    -0.003 C 
ATOM     30  C   UNL     1     104.236  65.004 227.376  1.00  0.00     0.004 C 
ENDBRANCH  28  29
ENDBRANCH  27  28
ENDBRANCH  26  27
ENDBRANCH  25  26
ENDBRANCH  24  25
ENDBRANCH  23  24
ENDBRANCH  22  23
ENDBRANCH  21  22
ENDBRANCH  20  21
ENDBRANCH  19  20
ENDBRANCH  18  19
ENDBRANCH  17  18
ENDBRANCH   1  17
TORSDOF 26
ENDMDL
MODEL 2
REMARK VINA RESULT:    -2.559      2.066      4.933
REMARK INTER + INTRA:         -12.253
REMARK INTER:                  -5.975
REMARK INTRA:                  -6.277
REMARK UNBOUND:                -5.804
REMARK SMILES CCCCCCCCCCCCCCCCCCCCCCCCCCCC(=O)[O-]
REMARK SMILES IDX 15 1 16 2 17 3 18 4 19 5 20 6 21 7 22 8 23 9 24 10 25 11
REMARK SMILES IDX 26 12 27 13 28 14 29 15 30 16 14 17 13 18 12 19 11 20 10 21
REMARK SMILES IDX 9 22 8 23 7 24 6 25 5 26 4 27 3 28 2 29 1 30
REMARK H PARENT
REMARK Flexibility Score: inf
ROOT
ATOM      1  C   UNL     1      97.489  64.258 225.772  1.00  0.00     0.000 C 
ENDROOT
BRANCH   1   2
ATOM      2  C   UNL     1      96.996  65.077 224.569  1.00  0.00     0.000 C 
BRANCH   2   3
ATOM      3  C   UNL     1      95.673  65.784 224.902  1.00  0.00     0.000 C 
BRANCH   3   4
ATOM      4  C   UNL     1      95.538  67.149 224.195  1.00  0.00     0.000 C 
BRANCH   4   5
ATOM      5  C   UNL     1      95.324  68.324 225.163  1.00  0.00     0.000 C 
BRANCH   5   6
ATOM      6  C   UNL     1      95.131  67.871 226.621  1.00  0.00     0.000 C 
BRANCH   6   7
ATOM      7  C   UNL     1      96.197  68.457 227.561  1.00  0.00     0.000 C 
BRANCH   7   8
ATOM      8  C   UNL     1      97.471  68.876 226.810  1.00  0.00     0.000 C 
BRANCH   8   9
ATOM      9  C   UNL     1      98.683  67.995 227.153  1.00  0.00     0.000 C 
BRANCH   9  10
ATOM     10  C   UNL     1      99.468  67.462 225.938  1.00  0.00     0.000 C 
BRANCH  10  11
ATOM     11  C   UNL     1     100.477  66.341 226.252  1.00  0.00     0.000 C 
BRANCH  11  12
ATOM     12  C   UNL     1     101.223  65.779 225.029  1.00  0.00     0.006 C 
BRANCH  12  13
ATOM     13  C   UNL     1     100.998  64.273 224.833  1.00  0.00     0.053 C 
BRANCH  13  14
ATOM     14  C   UNL     1     102.239  63.510 225.174  1.00  0.00     0.041 C 
ATOM     15  O   UNL     1     103.297  64.123 225.476  1.00  0.00    -0.550 OA
ATOM     16  O   UNL     1     102.221  62.121 225.195  1.00  0.00    -0.550 OA
ENDBRANCH  13  14
ENDBRANCH  12  13
ENDBRANCH  11  12
ENDBRANCH  10  11
ENDBRANCH   9  10
ENDBRANCH   8   9
ENDBRANCH   7   8
ENDBRANCH   6   7
ENDBRANCH   5   6
ENDBRANCH   4   5
ENDBRANCH   3   4
ENDBRANCH   2   3
ENDBRANCH   1   2
BRANCH   1  17
ATOM     17  C   UNL     1      96.773  64.623 227.084  1.00  0.00     0.000 C 
BRANCH  17  18
ATOM     18  C   UNL     1      97.677  64.652 228.331  1.00  0.00     0.000 C 
BRANCH  18  19
ATOM     19  C   UNL     1      97.159  65.521 229.492  1.00  0.00     0.000 C 
BRANCH  19  20
ATOM     20  C   UNL     1      98.274  66.074 230.407  1.00  0.00     0.000 C 
BRANCH  20  21
ATOM     21  C   UNL     1      99.679  65.665 229.933  1.00  0.00     0.000 C 
BRANCH  21  22
ATOM     22  C   UNL     1     100.358  64.670 230.890  1.00  0.00    -0.000 C 
BRANCH  22  23
ATOM     23  C   UNL     1     101.235  63.648 230.149  1.00  0.00    -0.000 C 
BRANCH  23  24
ATOM     24  C   UNL     1     100.946  63.597 228.640  1.00  0.00    -0.000 C 
BRANCH  24  25
ATOM     25  C   UNL     1     100.374  62.242 228.186  1.00  0.00    -0.000 C 
BRANCH  25  26
ATOM     26  C   UNL     1     100.510  61.161 229.274  1.00  0.00    -0.000 C 
BRANCH  26  27
ATOM     27  C   UNL     1      99.155  60.541 229.653  1.00  0.00    -0.000 C 
BRANCH  27  28
ATOM     28  C   UNL     1      98.176  61.616 230.137  1.00  0.00    -0.000 C 
BRANCH  28  29
ATOM     29  C   UNL     1      98.165  61.698 231.668  1.00  0.00    -0.003 C 
ATOM     30  C   UNL     1      97.349  62.895 232.149  1.00  0.00     0.004 C 
ENDBRANCH  28  29
ENDBRANCH  27  28
ENDBRANCH  26  27
ENDBRANCH  25  26
ENDBRANCH  24  25
ENDBRANCH  23  24
ENDBRANCH  22  23
ENDBRANCH  21  22
ENDBRANCH  20  21
ENDBRANCH  19  20
ENDBRANCH  18  19
ENDBRANCH  17  18
ENDBRANCH   1  17
TORSDOF 26
ENDMDL
MODEL 3
REMARK VINA RESULT:    -2.556      2.567      4.971
REMARK INTER + INTRA:         -12.245
REMARK INTER:                  -6.667
REMARK INTRA:                  -5.578
REMARK UNBOUND:                -5.804
REMARK SMILES CCCCCCCCCCCCCCCCCCCCCCCCCCCC(=O)[O-]
REMARK SMILES IDX 15 1 16 2 17 3 18 4 19 5 20 6 21 7 22 8 23 9 24 10 25 11
REMARK SMILES IDX 26 12 27 13 28 14 29 15 30 16 14 17 13 18 12 19 11 20 10 21
REMARK SMILES IDX 9 22 8 23 7 24 6 25 5 26 4 27 3 28 2 29 1 30
REMARK H PARENT
REMARK Flexibility Score: inf
ROOT
ATOM      1  C   UNL     1      97.277  64.587 227.034  1.00  0.00     0.000 C 
ENDROOT
BRANCH   1   2
ATOM      2  C   UNL     1      97.617  64.523 225.537  1.00  0.00     0.000 C 
BRANCH   2   3
ATOM      3  C   UNL     1      96.525  65.210 224.704  1.00  0.00     0.000 C 
BRANCH   3   4
ATOM      4  C   UNL     1      95.352  65.715 225.570  1.00  0.00     0.000 C 
BRANCH   4   5
ATOM      5  C   UNL     1      94.875  67.128 225.195  1.00  0.00     0.000 C 
BRANCH   5   6
ATOM      6  C   UNL     1      95.670  67.738 224.027  1.00  0.00     0.000 C 
BRANCH   6   7
ATOM      7  C   UNL     1      96.500  68.958 224.459  1.00  0.00     0.000 C 
BRANCH   7   8
ATOM      8  C   UNL     1      98.011  68.679 224.417  1.00  0.00     0.000 C 
BRANCH   8   9
ATOM      9  C   UNL     1      98.567  68.200 225.769  1.00  0.00     0.000 C 
BRANCH   9  10
ATOM     10  C   UNL     1      97.997  68.926 227.003  1.00  0.00     0.000 C 
BRANCH  10  11
ATOM     11  C   UNL     1      97.549  68.005 228.155  1.00  0.00     0.000 C 
BRANCH  11  12
ATOM     12  C   UNL     1      96.049  68.069 228.489  1.00  0.00     0.006 C 
BRANCH  12  13
ATOM     13  C   UNL     1      95.771  68.020 229.998  1.00  0.00     0.053 C 
BRANCH  13  14
ATOM     14  C   UNL     1      96.207  66.707 230.568  1.00  0.00     0.041 C 
ATOM     15  O   UNL     1      97.200  66.649 231.341  1.00  0.00    -0.550 OA
ATOM     16  O   UNL     1      95.496  65.549 230.276  1.00  0.00    -0.550 OA
ENDBRANCH  13  14
ENDBRANCH  12  13
ENDBRANCH  11  12
ENDBRANCH  10  11
ENDBRANCH   9  10
ENDBRANCH   8   9
ENDBRANCH   7   8
ENDBRANCH   6   7
ENDBRANCH   5   6
ENDBRANCH   4   5
ENDBRANCH   3   4
ENDBRANCH   2   3
ENDBRANCH   1   2
BRANCH   1  17
ATOM     17  C   UNL     1      98.269  63.802 227.912  1.00  0.00     0.000 C 
BRANCH  17  18
ATOM     18  C   UNL     1      99.062  64.657 228.919  1.00  0.00     0.000 C 
BRANCH  18  19
ATOM     19  C   UNL     1     100.542  64.885 228.557  1.00  0.00     0.000 C 
BRANCH  19  20
ATOM     20  C   UNL     1     100.800  66.185 227.764  1.00  0.00     0.000 C 
BRANCH  20  21
ATOM     21  C   UNL     1     101.810  65.985 226.621  1.00  0.00     0.000 C 
BRANCH  21  22
ATOM     22  C   UNL     1     101.125  65.715 225.270  1.00  0.00    -0.000 C 
BRANCH  22  23
ATOM     23  C   UNL     1     101.219  64.239 224.849  1.00  0.00    -0.000 C 
BRANCH  23  24
ATOM     24  C   UNL     1     102.494  63.552 225.364  1.00  0.00    -0.000 C 
BRANCH  24  25
ATOM     25  C   UNL     1     102.279  62.064 225.695  1.00  0.00    -0.000 C 
BRANCH  25  26
ATOM     26  C   UNL     1     101.133  61.853 226.701  1.00  0.00    -0.000 C 
BRANCH  26  27
ATOM     27  C   UNL     1     100.926  60.370 227.047  1.00  0.00    -0.000 C 
BRANCH  27  28
ATOM     28  C   UNL     1     100.262  60.215 228.420  1.00  0.00    -0.000 C 
BRANCH  28  29
ATOM     29  C   UNL     1     100.723  61.318 229.380  1.00  0.00    -0.003 C 
ATOM     30  C   UNL     1     101.886  60.842 230.246  1.00  0.00     0.004 C 
ENDBRANCH  28  29
ENDBRANCH  27  28
ENDBRANCH  26  27
ENDBRANCH  25  26
ENDBRANCH  24  25
ENDBRANCH  23  24
ENDBRANCH  22  23
ENDBRANCH  21  22
ENDBRANCH  20  21
ENDBRANCH  19  20
ENDBRANCH  18  19
ENDBRANCH  17  18
ENDBRANCH   1  17
TORSDOF 26
ENDMDL
MODEL 4
REMARK VINA RESULT:    -2.541      2.275      5.056
REMARK INTER + INTRA:         -12.208
REMARK INTER:                  -6.145
REMARK INTRA:                  -6.064
REMARK UNBOUND:                -5.804
REMARK SMILES CCCCCCCCCCCCCCCCCCCCCCCCCCCC(=O)[O-]
REMARK SMILES IDX 15 1 16 2 17 3 18 4 19 5 20 6 21 7 22 8 23 9 24 10 25 11
REMARK SMILES IDX 26 12 27 13 28 14 29 15 30 16 14 17 13 18 12 19 11 20 10 21
REMARK SMILES IDX 9 22 8 23 7 24 6 25 5 26 4 27 3 28 2 29 1 30
REMARK H PARENT
REMARK Flexibility Score: inf
ROOT
ATOM      1  C   UNL     1      98.663  65.158 228.531  1.00  0.00     0.000 C 
ENDROOT
BRANCH   1   2
ATOM      2  C   UNL     1      98.784  64.360 227.223  1.00  0.00     0.000 C 
BRANCH   2   3
ATOM      3  C   UNL     1      97.406  64.178 226.571  1.00  0.00     0.000 C 
BRANCH   3   4
ATOM      4  C   UNL     1      97.386  64.628 225.095  1.00  0.00     0.000 C 
BRANCH   4   5
ATOM      5  C   UNL     1      96.346  65.720 224.798  1.00  0.00     0.000 C 
BRANCH   5   6
ATOM      6  C   UNL     1      95.287  65.855 225.906  1.00  0.00     0.000 C 
BRANCH   6   7
ATOM      7  C   UNL     1      95.246  67.269 226.507  1.00  0.00     0.000 C 
BRANCH   7   8
ATOM      8  C   UNL     1      96.484  68.100 226.129  1.00  0.00     0.000 C 
BRANCH   8   9
ATOM      9  C   UNL     1      97.393  68.398 227.333  1.00  0.00     0.000 C 
BRANCH   9  10
ATOM     10  C   UNL     1      98.889  68.555 226.998  1.00  0.00     0.000 C 
BRANCH  10  11
ATOM     11  C   UNL     1      99.375  67.748 225.778  1.00  0.00     0.000 C 
BRANCH  11  12
ATOM     12  C   UNL     1     100.700  66.995 225.986  1.00  0.00     0.006 C 
BRANCH  12  13
ATOM     13  C   UNL     1     101.337  66.534 224.668  1.00  0.00     0.053 C 
BRANCH  13  14
ATOM     14  C   UNL     1     101.545  65.052 224.677  1.00  0.00     0.041 C 
ATOM     15  O   UNL     1     100.672  64.287 224.187  1.00  0.00    -0.550 OA
ATOM     16  O   UNL     1     102.718  64.515 225.193  1.00  0.00    -0.550 OA
ENDBRANCH  13  14
ENDBRANCH  12  13
ENDBRANCH  11  12
ENDBRANCH  10  11
ENDBRANCH   9  10
ENDBRANCH   8   9
ENDBRANCH   7   8
ENDBRANCH   6   7
ENDBRANCH   5   6
ENDBRANCH   4   5
ENDBRANCH   3   4
ENDBRANCH   2   3
ENDBRANCH   1   2
BRANCH   1  17
ATOM     17  C   UNL     1      97.243  65.131 229.124  1.00  0.00     0.000 C 
BRANCH  17  18
ATOM     18  C   UNL     1      97.182  65.115 230.664  1.00  0.00     0.000 C 
BRANCH  18  19
ATOM     19  C   UNL     1      97.284  63.720 231.307  1.00  0.00     0.000 C 
BRANCH  19  20
ATOM     20  C   UNL     1      98.733  63.223 231.502  1.00  0.00     0.000 C 
BRANCH  20  21
ATOM     21  C   UNL     1      98.982  61.861 230.833  1.00  0.00     0.000 C 
BRANCH  21  22
ATOM     22  C   UNL     1      97.890  61.496 229.813  1.00  0.00    -0.000 C 
BRANCH  22  23
ATOM     23  C   UNL     1      98.473  61.076 228.454  1.00  0.00    -0.000 C 
BRANCH  23  24
ATOM     24  C   UNL     1      99.797  60.307 228.584  1.00  0.00    -0.000 C 
BRANCH  24  25
ATOM     25  C   UNL     1     100.608  60.285 227.276  1.00  0.00    -0.000 C 
BRANCH  25  26
ATOM     26  C   UNL     1     101.232  61.655 226.957  1.00  0.00    -0.000 C 
BRANCH  26  27
ATOM     27  C   UNL     1     102.263  62.086 228.011  1.00  0.00    -0.000 C 
BRANCH  27  28
ATOM     28  C   UNL     1     102.039  63.542 228.436  1.00  0.00    -0.000 C 
BRANCH  28  29
ATOM     29  C   UNL     1     102.072  63.679 229.963  1.00  0.00    -0.003 C 
ATOM     30  C   UNL     1     102.641  62.422 230.616  1.00  0.00     0.004 C 
ENDBRANCH  28  29
ENDBRANCH  27  28
ENDBRANCH  26  27
ENDBRANCH  25  26
ENDBRANCH  24  25
ENDBRANCH  23  24
ENDBRANCH  22  23
ENDBRANCH  21  22
ENDBRANCH  20  21
ENDBRANCH  19  20
ENDBRANCH  18  19
ENDBRANCH  17  18
ENDBRANCH   1  17
TORSDOF 26
ENDMDL
MODEL 5
REMARK VINA RESULT:    -2.534      2.629      4.449
REMARK INTER + INTRA:         -12.190
REMARK INTER:                  -6.023
REMARK INTRA:                  -6.168
REMARK UNBOUND:                -5.804
REMARK SMILES CCCCCCCCCCCCCCCCCCCCCCCCCCCC(=O)[O-]
REMARK SMILES IDX 15 1 16 2 17 3 18 4 19 5 20 6 21 7 22 8 23 9 24 10 25 11
REMARK SMILES IDX 26 12 27 13 28 14 29 15 30 16 14 17 13 18 12 19 11 20 10 21
REMARK SMILES IDX 9 22 8 23 7 24 6 25 5 26 4 27 3 28 2 29 1 30
REMARK H PARENT
REMARK Flexibility Score: inf
ROOT
ATOM      1  C   UNL     1      95.605  65.021 226.087  1.00  0.00     0.000 C 
ENDROOT
BRANCH   1   2
ATOM      2  C   UNL     1      96.705  64.997 225.014  1.00  0.00     0.000 C 
BRANCH   2   3
ATOM      3  C   UNL     1      96.270  65.795 223.776  1.00  0.00     0.000 C 
BRANCH   3   4
ATOM      4  C   UNL     1      96.279  67.318 224.022  1.00  0.00     0.000 C 
BRANCH   4   5
ATOM      5  C   UNL     1      97.574  67.828 224.675  1.00  0.00     0.000 C 
BRANCH   5   6
ATOM      6  C   UNL     1      97.314  68.754 225.876  1.00  0.00     0.000 C 
BRANCH   6   7
ATOM      7  C   UNL     1      95.857  68.686 226.362  1.00  0.00     0.000 C 
BRANCH   7   8
ATOM      8  C   UNL     1      95.755  68.636 227.895  1.00  0.00     0.000 C 
BRANCH   8   9
ATOM      9  C   UNL     1      97.130  68.597 228.584  1.00  0.00     0.000 C 
BRANCH   9  10
ATOM     10  C   UNL     1      97.093  68.320 230.100  1.00  0.00     0.000 C 
BRANCH  10  11
ATOM     11  C   UNL     1      95.989  67.347 230.561  1.00  0.00     0.000 C 
BRANCH  11  12
ATOM     12  C   UNL     1      96.491  65.967 231.018  1.00  0.00     0.006 C 
BRANCH  12  13
ATOM     13  C   UNL     1      97.154  66.002 232.402  1.00  0.00     0.053 C 
BRANCH  13  14
ATOM     14  C   UNL     1      97.565  64.625 232.819  1.00  0.00     0.041 C 
ATOM     15  O   UNL     1      98.627  64.452 233.475  1.00  0.00    -0.550 OA
ATOM     16  O   UNL     1      96.759  63.534 232.517  1.00  0.00    -0.550 OA
ENDBRANCH  13  14
ENDBRANCH  12  13
ENDBRANCH  11  12
ENDBRANCH  10  11
ENDBRANCH   9  10
ENDBRANCH   8   9
ENDBRANCH   7   8
ENDBRANCH   6   7
ENDBRANCH   5   6
ENDBRANCH   4   5
ENDBRANCH   3   4
ENDBRANCH   2   3
ENDBRANCH   1   2
BRANCH   1  17
ATOM     17  C   UNL     1      96.163  65.046 227.522  1.00  0.00     0.000 C 
BRANCH  17  18
ATOM     18  C   UNL     1      97.693  65.189 227.621  1.00  0.00     0.000 C 
BRANCH  18  19
ATOM     19  C   UNL     1      98.427  63.966 228.203  1.00  0.00     0.000 C 
BRANCH  19  20
ATOM     20  C   UNL     1      99.171  63.120 227.147  1.00  0.00     0.000 C 
BRANCH  20  21
ATOM     21  C   UNL     1     100.699  63.283 227.235  1.00  0.00     0.000 C 
BRANCH  21  22
ATOM     22  C   UNL     1     101.327  63.683 225.889  1.00  0.00    -0.000 C 
BRANCH  22  23
ATOM     23  C   UNL     1     100.414  64.606 225.066  1.00  0.00    -0.000 C 
BRANCH  23  24
ATOM     24  C   UNL     1     101.059  65.967 224.761  1.00  0.00    -0.000 C 
BRANCH  24  25
ATOM     25  C   UNL     1     101.660  66.638 226.009  1.00  0.00    -0.000 C 
BRANCH  25  26
ATOM     26  C   UNL     1     100.615  67.455 226.789  1.00  0.00    -0.000 C 
BRANCH  26  27
ATOM     27  C   UNL     1     100.572  67.078 228.278  1.00  0.00    -0.000 C 
BRANCH  27  28
ATOM     28  C   UNL     1     101.870  66.385 228.707  1.00  0.00    -0.000 C 
BRANCH  28  29
ATOM     29  C   UNL     1     101.865  66.097 230.214  1.00  0.00    -0.003 C 
ATOM     30  C   UNL     1     100.440  66.017 230.754  1.00  0.00     0.004 C 
ENDBRANCH  28  29
ENDBRANCH  27  28
ENDBRANCH  26  27
ENDBRANCH  25  26
ENDBRANCH  24  25
ENDBRANCH  23  24
ENDBRANCH  22  23
ENDBRANCH  21  22
ENDBRANCH  20  21
ENDBRANCH  19  20
ENDBRANCH  18  19
ENDBRANCH  17  18
ENDBRANCH   1  17
TORSDOF 26
ENDMDL
MODEL 6
REMARK VINA RESULT:    -2.517      1.622      5.684
REMARK INTER + INTRA:         -12.147
REMARK INTER:                  -6.512
REMARK INTRA:                  -5.635
REMARK UNBOUND:                -5.804
REMARK SMILES CCCCCCCCCCCCCCCCCCCCCCCCCCCC(=O)[O-]
REMARK SMILES IDX 15 1 16 2 17 3 18 4 19 5 20 6 21 7 22 8 23 9 24 10 25 11
REMARK SMILES IDX 26 12 27 13 28 14 29 15 30 16 14 17 13 18 12 19 11 20 10 21
REMARK SMILES IDX 9 22 8 23 7 24 6 25 5 26 4 27 3 28 2 29 1 30
REMARK H PARENT
REMARK Flexibility Score: inf
ROOT
ATOM      1  C   UNL     1      95.246  65.634 225.547  1.00  0.00     0.000 C 
ENDROOT
BRANCH   1   2
ATOM      2  C   UNL     1      95.911  65.058 226.806  1.00  0.00     0.000 C 
BRANCH   2   3
ATOM      3  C   UNL     1      97.344  64.598 226.499  1.00  0.00     0.000 C 
BRANCH   3   4
ATOM      4  C   UNL     1      98.396  65.330 227.357  1.00  0.00     0.000 C 
BRANCH   4   5
ATOM      5  C   UNL     1      99.655  65.737 226.573  1.00  0.00     0.000 C 
BRANCH   5   6
ATOM      6  C   UNL     1      99.692  65.147 225.152  1.00  0.00     0.000 C 
BRANCH   6   7
ATOM      7  C   UNL     1     101.121  64.822 224.691  1.00  0.00     0.000 C 
BRANCH   7   8
ATOM      8  C   UNL     1     101.638  63.500 225.281  1.00  0.00     0.000 C 
BRANCH   8   9
ATOM      9  C   UNL     1     102.889  63.686 226.157  1.00  0.00     0.000 C 
BRANCH   9  10
ATOM     10  C   UNL     1     102.815  63.026 227.549  1.00  0.00     0.000 C 
BRANCH  10  11
ATOM     11  C   UNL     1     101.439  63.105 228.238  1.00  0.00     0.000 C 
BRANCH  11  12
ATOM     12  C   UNL     1     100.703  61.761 228.373  1.00  0.00     0.006 C 
BRANCH  12  13
ATOM     13  C   UNL     1      99.343  61.753 227.662  1.00  0.00     0.053 C 
BRANCH  13  14
ATOM     14  C   UNL     1      98.252  61.400 228.625  1.00  0.00     0.041 C 
ATOM     15  O   UNL     1      97.620  62.308 229.226  1.00  0.00    -0.550 OA
ATOM     16  O   UNL     1      97.908  60.070 228.832  1.00  0.00    -0.550 OA
ENDBRANCH  13  14
ENDBRANCH  12  13
ENDBRANCH  11  12
ENDBRANCH  10  11
ENDBRANCH   9  10
ENDBRANCH   8   9
ENDBRANCH   7   8
ENDBRANCH   6   7
ENDBRANCH   5   6
ENDBRANCH   4   5
ENDBRANCH   3   4
ENDBRANCH   2   3
ENDBRANCH   1   2
BRANCH   1  17
ATOM     17  C   UNL     1      96.098  65.451 224.278  1.00  0.00     0.000 C 
BRANCH  17  18
ATOM     18  C   UNL     1      96.081  66.646 223.306  1.00  0.00     0.000 C 
BRANCH  18  19
ATOM     19  C   UNL     1      96.343  68.018 223.954  1.00  0.00     0.000 C 
BRANCH  19  20
ATOM     20  C   UNL     1      97.721  68.133 224.642  1.00  0.00     0.000 C 
BRANCH  20  21
ATOM     21  C   UNL     1      97.655  68.924 225.960  1.00  0.00     0.000 C 
BRANCH  21  22
ATOM     22  C   UNL     1      96.217  69.071 226.488  1.00  0.00    -0.000 C 
BRANCH  22  23
ATOM     23  C   UNL     1      96.085  68.642 227.959  1.00  0.00    -0.000 C 
BRANCH  23  24
ATOM     24  C   UNL     1      97.419  68.703 228.720  1.00  0.00    -0.000 C 
BRANCH  24  25
ATOM     25  C   UNL     1      97.453  67.769 229.943  1.00  0.00    -0.000 C 
BRANCH  25  26
ATOM     26  C   UNL     1      96.078  67.142 230.233  1.00  0.00    -0.000 C 
BRANCH  26  27
ATOM     27  C   UNL     1      96.168  65.629 230.489  1.00  0.00    -0.000 C 
BRANCH  27  28
ATOM     28  C   UNL     1      97.537  65.250 231.062  1.00  0.00    -0.000 C 
BRANCH  28  29
ATOM     29  C   UNL     1      97.385  64.476 232.378  1.00  0.00    -0.003 C 
ATOM     30  C   UNL     1      97.749  65.350 233.575  1.00  0.00     0.004 C 
ENDBRANCH  28  29
ENDBRANCH  27  28
ENDBRANCH  26  27
ENDBRANCH  25  26
ENDBRANCH  24  25
ENDBRANCH  23  24
ENDBRANCH  22  23
ENDBRANCH  21  22
ENDBRANCH  20  21
ENDBRANCH  19  20
ENDBRANCH  18  19
ENDBRANCH  17  18
ENDBRANCH   1  17
TORSDOF 26
ENDMDL
MODEL 7
REMARK VINA RESULT:    -2.511      1.489      5.418
REMARK INTER + INTRA:         -12.133
REMARK INTER:                  -5.787
REMARK INTRA:                  -6.346
REMARK UNBOUND:                -5.804
REMARK SMILES CCCCCCCCCCCCCCCCCCCCCCCCCCCC(=O)[O-]
REMARK SMILES IDX 15 1 16 2 17 3 18 4 19 5 20 6 21 7 22 8 23 9 24 10 25 11
REMARK SMILES IDX 26 12 27 13 28 14 29 15 30 16 14 17 13 18 12 19 11 20 10 21
REMARK SMILES IDX 9 22 8 23 7 24 6 25 5 26 4 27 3 28 2 29 1 30
REMARK H PARENT
REMARK Flexibility Score: inf
ROOT
ATOM      1  C   UNL     1      97.651  64.279 225.798  1.00  0.00     0.000 C 
ENDROOT
BRANCH   1   2
ATOM      2  C   UNL     1      98.858  65.088 226.297  1.00  0.00     0.000 C 
BRANCH   2   3
ATOM      3  C   UNL     1      99.777  65.466 225.126  1.00  0.00     0.000 C 
BRANCH   3   4
ATOM      4  C   UNL     1     101.043  66.219 225.587  1.00  0.00     0.000 C 
BRANCH   4   5
ATOM      5  C   UNL     1     101.058  66.533 227.092  1.00  0.00     0.000 C 
BRANCH   5   6
ATOM      6  C   UNL     1     102.038  65.647 227.879  1.00  0.00     0.000 C 
BRANCH   6   7
ATOM      7  C   UNL     1     103.308  65.322 227.076  1.00  0.00     0.000 C 
BRANCH   7   8
ATOM      8  C   UNL     1     103.553  63.809 226.958  1.00  0.00     0.000 C 
BRANCH   8   9
ATOM      9  C   UNL     1     103.168  63.248 225.578  1.00  0.00     0.000 C 
BRANCH   9  10
ATOM     10  C   UNL     1     102.038  62.201 225.592  1.00  0.00     0.000 C 
BRANCH  10  11
ATOM     11  C   UNL     1     101.040  62.328 226.760  1.00  0.00     0.000 C 
BRANCH  11  12
ATOM     12  C   UNL     1     101.091  61.181 227.783  1.00  0.00     0.006 C 
BRANCH  12  13
ATOM     13  C   UNL     1      99.859  60.268 227.717  1.00  0.00     0.053 C 
BRANCH  13  14
ATOM     14  C   UNL     1     100.242  58.909 227.224  1.00  0.00     0.041 C 
ATOM     15  O   UNL     1     100.595  58.745 226.026  1.00  0.00    -0.550 OA
ATOM     16  O   UNL     1     100.244  57.825 228.094  1.00  0.00    -0.550 OA
ENDBRANCH  13  14
ENDBRANCH  12  13
ENDBRANCH  11  12
ENDBRANCH  10  11
ENDBRANCH   9  10
ENDBRANCH   8   9
ENDBRANCH   7   8
ENDBRANCH   6   7
ENDBRANCH   5   6
ENDBRANCH   4   5
ENDBRANCH   3   4
ENDBRANCH   2   3
ENDBRANCH   1   2
BRANCH   1  17
ATOM     17  C   UNL     1      96.325  64.710 226.450  1.00  0.00     0.000 C 
BRANCH  17  18
ATOM     18  C   UNL     1      95.480  65.691 225.615  1.00  0.00     0.000 C 
BRANCH  18  19
ATOM     19  C   UNL     1      95.849  65.763 224.122  1.00  0.00     0.000 C 
BRANCH  19  20
ATOM     20  C   UNL     1      96.473  67.109 223.694  1.00  0.00     0.000 C 
BRANCH  20  21
ATOM     21  C   UNL     1      96.423  68.162 224.815  1.00  0.00     0.000 C 
BRANCH  21  22
ATOM     22  C   UNL     1      97.824  68.601 225.274  1.00  0.00    -0.000 C 
BRANCH  22  23
ATOM     23  C   UNL     1      97.957  68.630 226.805  1.00  0.00    -0.000 C 
BRANCH  23  24
ATOM     24  C   UNL     1      96.597  68.644 227.523  1.00  0.00    -0.000 C 
BRANCH  24  25
ATOM     25  C   UNL     1      96.517  67.625 228.674  1.00  0.00    -0.000 C 
BRANCH  25  26
ATOM     26  C   UNL     1      97.905  67.096 229.077  1.00  0.00    -0.000 C 
BRANCH  26  27
ATOM     27  C   UNL     1      97.823  65.764 229.841  1.00  0.00    -0.000 C 
BRANCH  27  28
ATOM     28  C   UNL     1      99.222  65.243 230.188  1.00  0.00    -0.000 C 
BRANCH  28  29
ATOM     29  C   UNL     1      99.356  63.757 229.835  1.00  0.00    -0.003 C 
ATOM     30  C   UNL     1      98.016  63.171 229.400  1.00  0.00     0.004 C 
ENDBRANCH  28  29
ENDBRANCH  27  28
ENDBRANCH  26  27
ENDBRANCH  25  26
ENDBRANCH  24  25
ENDBRANCH  23  24
ENDBRANCH  22  23
ENDBRANCH  21  22
ENDBRANCH  20  21
ENDBRANCH  19  20
ENDBRANCH  18  19
ENDBRANCH  17  18
ENDBRANCH   1  17
TORSDOF 26
ENDMDL
MODEL 8
REMARK VINA RESULT:    -2.448      1.565      5.309
REMARK INTER + INTRA:         -11.974
REMARK INTER:                  -6.181
REMARK INTRA:                  -5.793
REMARK UNBOUND:                -5.804
REMARK SMILES CCCCCCCCCCCCCCCCCCCCCCCCCCCC(=O)[O-]
REMARK SMILES IDX 15 1 16 2 17 3 18 4 19 5 20 6 21 7 22 8 23 9 24 10 25 11
REMARK SMILES IDX 26 12 27 13 28 14 29 15 30 16 14 17 13 18 12 19 11 20 10 21
REMARK SMILES IDX 9 22 8 23 7 24 6 25 5 26 4 27 3 28 2 29 1 30
REMARK H PARENT
REMARK Flexibility Score: inf
ROOT
ATOM      1  C   UNL     1      97.455  64.249 225.928  1.00  0.00     0.000 C 
ENDROOT
BRANCH   1   2
ATOM      2  C   UNL     1      98.808  64.709 226.493  1.00  0.00     0.000 C 
BRANCH   2   3
ATOM      3  C   UNL     1      99.723  65.210 225.366  1.00  0.00     0.000 C 
BRANCH   3   4
ATOM      4  C   UNL     1      99.836  66.749 225.338  1.00  0.00     0.000 C 
BRANCH   4   5
ATOM      5  C   UNL     1     101.259  67.266 225.607  1.00  0.00     0.000 C 
BRANCH   5   6
ATOM      6  C   UNL     1     101.319  68.274 226.768  1.00  0.00     0.000 C 
BRANCH   6   7
ATOM      7  C   UNL     1     101.276  67.587 228.142  1.00  0.00     0.000 C 
BRANCH   7   8
ATOM      8  C   UNL     1     102.289  66.436 228.251  1.00  0.00     0.000 C 
BRANCH   8   9
ATOM      9  C   UNL     1     101.647  65.117 228.711  1.00  0.00     0.000 C 
BRANCH   9  10
ATOM     10  C   UNL     1     102.132  63.859 227.963  1.00  0.00     0.000 C 
BRANCH  10  11
ATOM     11  C   UNL     1     103.008  64.131 226.725  1.00  0.00     0.000 C 
BRANCH  11  12
ATOM     12  C   UNL     1     103.160  62.940 225.763  1.00  0.00     0.006 C 
BRANCH  12  13
ATOM     13  C   UNL     1     101.865  62.131 225.607  1.00  0.00     0.053 C 
BRANCH  13  14
ATOM     14  C   UNL     1     102.084  60.710 226.022  1.00  0.00     0.041 C 
ATOM     15  O   UNL     1     101.710  59.767 225.275  1.00  0.00    -0.550 OA
ATOM     16  O   UNL     1     102.733  60.424 227.216  1.00  0.00    -0.550 OA
ENDBRANCH  13  14
ENDBRANCH  12  13
ENDBRANCH  11  12
ENDBRANCH  10  11
ENDBRANCH   9  10
ENDBRANCH   8   9
ENDBRANCH   7   8
ENDBRANCH   6   7
ENDBRANCH   5   6
ENDBRANCH   4   5
ENDBRANCH   3   4
ENDBRANCH   2   3
ENDBRANCH   1   2
BRANCH   1  17
ATOM     17  C   UNL     1      96.256  64.744 226.757  1.00  0.00     0.000 C 
BRANCH  17  18
ATOM     18  C   UNL     1      95.329  65.737 226.029  1.00  0.00     0.000 C 
BRANCH  18  19
ATOM     19  C   UNL     1      95.932  67.134 225.788  1.00  0.00     0.000 C 
BRANCH  19  20
ATOM     20  C   UNL     1      96.002  68.014 227.055  1.00  0.00     0.000 C 
BRANCH  20  21
ATOM     21  C   UNL     1      97.435  68.145 227.600  1.00  0.00     0.000 C 
BRANCH  21  22
ATOM     22  C   UNL     1      97.642  67.363 228.908  1.00  0.00    -0.000 C 
BRANCH  22  23
ATOM     23  C   UNL     1      96.350  67.249 229.734  1.00  0.00    -0.000 C 
BRANCH  23  24
ATOM     24  C   UNL     1      96.112  65.831 230.277  1.00  0.00    -0.000 C 
BRANCH  24  25
ATOM     25  C   UNL     1      96.817  65.579 231.622  1.00  0.00    -0.000 C 
BRANCH  25  26
ATOM     26  C   UNL     1      97.489  64.195 231.674  1.00  0.00    -0.000 C 
BRANCH  26  27
ATOM     27  C   UNL     1      97.998  63.741 230.296  1.00  0.00    -0.000 C 
BRANCH  27  28
ATOM     28  C   UNL     1      97.886  62.221 230.143  1.00  0.00    -0.000 C 
BRANCH  28  29
ATOM     29  C   UNL     1      97.763  61.826 228.666  1.00  0.00    -0.003 C 
ATOM     30  C   UNL     1      99.105  61.362 228.107  1.00  0.00     0.004 C 
ENDBRANCH  28  29
ENDBRANCH  27  28
ENDBRANCH  26  27
ENDBRANCH  25  26
ENDBRANCH  24  25
ENDBRANCH  23  24
ENDBRANCH  22  23
ENDBRANCH  21  22
ENDBRANCH  20  21
ENDBRANCH  19  20
ENDBRANCH  18  19
ENDBRANCH  17  18
ENDBRANCH   1  17
TORSDOF 26
ENDMDL
MODEL 9
REMARK VINA RESULT:    -2.432      1.697      5.238
REMARK INTER + INTRA:         -11.934
REMARK INTER:                  -6.087
REMARK INTRA:                  -5.848
REMARK UNBOUND:                -5.804
REMARK SMILES CCCCCCCCCCCCCCCCCCCCCCCCCCCC(=O)[O-]
REMARK SMILES IDX 15 1 16 2 17 3 18 4 19 5 20 6 21 7 22 8 23 9 24 10 25 11
REMARK SMILES IDX 26 12 27 13 28 14 29 15 30 16 14 17 13 18 12 19 11 20 10 21
REMARK SMILES IDX 9 22 8 23 7 24 6 25 5 26 4 27 3 28 2 29 1 30
REMARK H PARENT
REMARK Flexibility Score: inf
ROOT
ATOM      1  C   UNL     1      96.830  64.703 226.954  1.00  0.00     0.000 C 
ENDROOT
BRANCH   1   2
ATOM      2  C   UNL     1      97.579  64.364 225.656  1.00  0.00     0.000 C 
BRANCH   2   3
ATOM      3  C   UNL     1      98.741  65.342 225.431  1.00  0.00     0.000 C 
BRANCH   3   4
ATOM      4  C   UNL     1     100.039  64.628 224.998  1.00  0.00     0.000 C 
BRANCH   4   5
ATOM      5  C   UNL     1     101.232  65.581 224.811  1.00  0.00     0.000 C 
BRANCH   5   6
ATOM      6  C   UNL     1     101.426  66.537 226.000  1.00  0.00     0.000 C 
BRANCH   6   7
ATOM      7  C   UNL     1     102.112  65.854 227.194  1.00  0.00     0.000 C 
BRANCH   7   8
ATOM      8  C   UNL     1     101.357  66.088 228.513  1.00  0.00     0.000 C 
BRANCH   8   9
ATOM      9  C   UNL     1     101.020  64.780 229.248  1.00  0.00     0.000 C 
BRANCH   9  10
ATOM     10  C   UNL     1      99.887  63.948 228.615  1.00  0.00     0.000 C 
BRANCH  10  11
ATOM     11  C   UNL     1     100.316  62.580 228.050  1.00  0.00     0.000 C 
BRANCH  11  12
ATOM     12  C   UNL     1      99.162  61.599 227.783  1.00  0.00     0.006 C 
BRANCH  12  13
ATOM     13  C   UNL     1      98.002  61.757 228.775  1.00  0.00     0.053 C 
BRANCH  13  14
ATOM     14  C   UNL     1      98.011  60.641 229.772  1.00  0.00     0.041 C 
ATOM     15  O   UNL     1      97.081  60.535 230.615  1.00  0.00    -0.550 OA
ATOM     16  O   UNL     1      99.027  59.693 229.749  1.00  0.00    -0.550 OA
ENDBRANCH  13  14
ENDBRANCH  12  13
ENDBRANCH  11  12
ENDBRANCH  10  11
ENDBRANCH   9  10
ENDBRANCH   8   9
ENDBRANCH   7   8
ENDBRANCH   6   7
ENDBRANCH   5   6
ENDBRANCH   4   5
ENDBRANCH   3   4
ENDBRANCH   2   3
ENDBRANCH   1   2
BRANCH   1  17
ATOM     17  C   UNL     1      95.399  65.216 226.708  1.00  0.00     0.000 C 
BRANCH  17  18
ATOM     18  C   UNL     1      95.147  65.787 225.299  1.00  0.00     0.000 C 
BRANCH  18  19
ATOM     19  C   UNL     1      95.228  67.321 225.192  1.00  0.00     0.000 C 
BRANCH  19  20
ATOM     20  C   UNL     1      94.904  68.059 226.510  1.00  0.00     0.000 C 
BRANCH  20  21
ATOM     21  C   UNL     1      96.007  69.054 226.911  1.00  0.00     0.000 C 
BRANCH  21  22
ATOM     22  C   UNL     1      97.420  68.499 226.662  1.00  0.00    -0.000 C 
BRANCH  22  23
ATOM     23  C   UNL     1      98.088  67.995 227.953  1.00  0.00    -0.000 C 
BRANCH  23  24
ATOM     24  C   UNL     1      97.290  68.352 229.217  1.00  0.00    -0.000 C 
BRANCH  24  25
ATOM     25  C   UNL     1      96.637  67.125 229.878  1.00  0.00    -0.000 C 
BRANCH  25  26
ATOM     26  C   UNL     1      97.681  66.108 230.371  1.00  0.00    -0.000 C 
BRANCH  26  27
ATOM     27  C   UNL     1      97.039  64.789 230.833  1.00  0.00    -0.000 C 
BRANCH  27  28
ATOM     28  C   UNL     1      97.146  64.629 232.353  1.00  0.00    -0.000 C 
BRANCH  28  29
ATOM     29  C   UNL     1      97.814  63.297 232.718  1.00  0.00    -0.003 C 
ATOM     30  C   UNL     1      99.236  63.225 232.167  1.00  0.00     0.004 C 
ENDBRANCH  28  29
ENDBRANCH  27  28
ENDBRANCH  26  27
ENDBRANCH  25  26
ENDBRANCH  24  25
ENDBRANCH  23  24
ENDBRANCH  22  23
ENDBRANCH  21  22
ENDBRANCH  20  21
ENDBRANCH  19  20
ENDBRANCH  18  19
ENDBRANCH  17  18
ENDBRANCH   1  17
TORSDOF 26
ENDMDL
