MODEL 1
REMARK VINA RESULT:    -2.041      0.000      0.000
REMARK INTER + INTRA:          -4.949
REMARK INTER:                  -3.831
REMARK INTRA:                  -1.118
REMARK UNBOUND:                -1.118
REMARK SMILES CCCCCCCCC=CCCCCCCCC(=O)[O-]
REMARK SMILES IDX 10 1 9 2 11 3 12 4 13 5 14 6 15 7 16 8 17 9 18 10 19 11
REMARK SMILES IDX 20 12 8 13 7 14 6 15 5 16 4 17 3 18 2 19 1 20
REMARK H PARENT
REMARK Flexibility Score: inf
ROOT
ATOM      1  C   UNL     1     149.144 143.200 147.399  1.00  0.00    -0.031 C 
ATOM      2  C   UNL     1     149.500 144.074 146.446  1.00  0.00    -0.031 C 
ENDROOT
BRANCH   1   3
ATOM      3  C   UNL     1     149.935 141.946 147.652  1.00  0.00     0.027 C 
BRANCH   3   4
ATOM      4  C   UNL     1     149.881 141.550 149.133  1.00  0.00     0.004 C 
BRANCH   4   5
ATOM      5  C   UNL     1     151.248 141.040 149.614  1.00  0.00     0.000 C 
BRANCH   5   6
ATOM      6  C   UNL     1     151.566 141.460 151.061  1.00  0.00     0.000 C 
BRANCH   6   7
ATOM      7  C   UNL     1     152.951 142.110 151.263  1.00  0.00     0.000 C 
BRANCH   7   8
ATOM      8  C   UNL     1     153.491 142.888 150.048  1.00  0.00     0.006 C 
BRANCH   8   9
ATOM      9  C   UNL     1     154.960 142.569 149.744  1.00  0.00     0.053 C 
BRANCH   9  10
ATOM     10  C   UNL     1     155.100 142.036 148.353  1.00  0.00     0.041 C 
ATOM     11  O   UNL     1     154.081 141.672 147.709  1.00  0.00    -0.550 OA
ATOM     12  O   UNL     1     156.349 141.988 147.749  1.00  0.00    -0.550 OA
ENDBRANCH   9  10
ENDBRANCH   8   9
ENDBRANCH   7   8
ENDBRANCH   6   7
ENDBRANCH   5   6
ENDBRANCH   4   5
ENDBRANCH   3   4
ENDBRANCH   1   3
BRANCH   2  13
ATOM     13  C   UNL     1     148.736 145.351 146.221  1.00  0.00     0.027 C 
BRANCH  13  14
ATOM     14  C   UNL     1     148.611 145.688 144.728  1.00  0.00     0.004 C 
BRANCH  14  15
ATOM     15  C   UNL     1     147.714 144.723 143.930  1.00  0.00     0.000 C 
BRANCH  15  16
ATOM     16  C   UNL     1     146.482 145.418 143.324  1.00  0.00     0.000 C 
BRANCH  16  17
ATOM     17  C   UNL     1     146.605 146.953 143.318  1.00  0.00    -0.000 C 
BRANCH  17  18
ATOM     18  C   UNL     1     145.582 147.699 144.200  1.00  0.00    -0.000 C 
BRANCH  18  19
ATOM     19  C   UNL     1     144.940 146.850 145.311  1.00  0.00    -0.003 C 
ATOM     20  C   UNL     1     143.868 147.607 146.093  1.00  0.00     0.004 C 
ENDBRANCH  18  19
ENDBRANCH  17  18
ENDBRANCH  16  17
ENDBRANCH  15  16
ENDBRANCH  14  15
ENDBRANCH  13  14
ENDBRANCH   2  13
TORSDOF 15
ENDMDL
MODEL 2
REMARK VINA RESULT:    -1.771      0.968      1.806
REMARK INTER + INTRA:          -4.442
REMARK INTER:                  -3.554
REMARK INTRA:                  -0.887
REMARK UNBOUND:                -1.118
REMARK SMILES CCCCCCCCC=CCCCCCCCC(=O)[O-]
REMARK SMILES IDX 10 1 9 2 11 3 12 4 13 5 14 6 15 7 16 8 17 9 18 10 19 11
REMARK SMILES IDX 20 12 8 13 7 14 6 15 5 16 4 17 3 18 2 19 1 20
REMARK H PARENT
REMARK Flexibility Score: inf
ROOT
ATOM      1  C   UNL     1     149.996 141.637 147.994  1.00  0.00    -0.031 C 
ATOM      2  C   UNL     1     149.288 142.768 147.862  1.00  0.00    -0.031 C 
ENDROOT
BRANCH   1   3
ATOM      3  C   UNL     1     150.224 141.005 149.339  1.00  0.00     0.027 C 
BRANCH   3   4
ATOM      4  C   UNL     1     151.706 141.061 149.731  1.00  0.00     0.004 C 
BRANCH   4   5
ATOM      5  C   UNL     1     151.874 141.583 151.165  1.00  0.00     0.000 C 
BRANCH   5   6
ATOM      6  C   UNL     1     153.202 142.334 151.376  1.00  0.00     0.000 C 
BRANCH   6   7
ATOM      7  C   UNL     1     153.726 143.095 150.140  1.00  0.00     0.000 C 
BRANCH   7   8
ATOM      8  C   UNL     1     155.143 142.703 149.683  1.00  0.00     0.006 C 
BRANCH   8   9
ATOM      9  C   UNL     1     155.155 141.997 148.321  1.00  0.00     0.053 C 
BRANCH   9  10
ATOM     10  C   UNL     1     156.561 141.806 147.847  1.00  0.00     0.041 C 
ATOM     11  O   UNL     1     157.384 141.159 148.546  1.00  0.00    -0.550 OA
ATOM     12  O   UNL     1     156.950 142.299 146.608  1.00  0.00    -0.550 OA
ENDBRANCH   9  10
ENDBRANCH   8   9
ENDBRANCH   7   8
ENDBRANCH   6   7
ENDBRANCH   5   6
ENDBRANCH   4   5
ENDBRANCH   3   4
ENDBRANCH   1   3
BRANCH   2  13
ATOM     13  C   UNL     1     149.020 143.378 146.512  1.00  0.00     0.027 C 
BRANCH  13  14
ATOM     14  C   UNL     1     149.437 144.856 146.458  1.00  0.00     0.004 C 
BRANCH  14  15
ATOM     15  C   UNL     1     148.391 145.791 145.821  1.00  0.00     0.000 C 
BRANCH  15  16
ATOM     16  C   UNL     1     148.135 145.474 144.337  1.00  0.00     0.000 C 
BRANCH  16  17
ATOM     17  C   UNL     1     146.896 146.196 143.778  1.00  0.00    -0.000 C 
BRANCH  17  18
ATOM     18  C   UNL     1     146.177 147.135 144.768  1.00  0.00    -0.000 C 
BRANCH  18  19
ATOM     19  C   UNL     1     144.848 146.598 145.326  1.00  0.00    -0.003 C 
ATOM     20  C   UNL     1     143.932 147.703 145.849  1.00  0.00     0.004 C 
ENDBRANCH  18  19
ENDBRANCH  17  18
ENDBRANCH  16  17
ENDBRANCH  15  16
ENDBRANCH  14  15
ENDBRANCH  13  14
ENDBRANCH   2  13
TORSDOF 15
ENDMDL
MODEL 3
REMARK VINA RESULT:    -1.697      5.717      8.442
REMARK INTER + INTRA:          -4.303
REMARK INTER:                  -3.292
REMARK INTRA:                  -1.011
REMARK UNBOUND:                -1.118
REMARK SMILES CCCCCCCCC=CCCCCCCCC(=O)[O-]
REMARK SMILES IDX 10 1 9 2 11 3 12 4 13 5 14 6 15 7 16 8 17 9 18 10 19 11
REMARK SMILES IDX 20 12 8 13 7 14 6 15 5 16 4 17 3 18 2 19 1 20
REMARK H PARENT
REMARK Flexibility Score: inf
ROOT
ATOM      1  C   UNL     1     149.110 145.356 146.469  1.00  0.00    -0.031 C 
ATOM      2  C   UNL     1     148.590 146.589 146.571  1.00  0.00    -0.031 C 
ENDROOT
BRANCH   1   3
ATOM      3  C   UNL     1     149.131 144.619 145.159  1.00  0.00     0.027 C 
BRANCH   3   4
ATOM      4  C   UNL     1     148.568 145.489 144.028  1.00  0.00     0.004 C 
BRANCH   4   5
ATOM      5  C   UNL     1     147.587 144.690 143.158  1.00  0.00     0.000 C 
BRANCH   5   6
ATOM      6  C   UNL     1     146.280 145.454 142.875  1.00  0.00     0.000 C 
BRANCH   6   7
ATOM      7  C   UNL     1     146.350 146.978 143.110  1.00  0.00     0.000 C 
BRANCH   7   8
ATOM      8  C   UNL     1     146.191 147.421 144.576  1.00  0.00     0.006 C 
BRANCH   8   9
ATOM      9  C   UNL     1     144.998 146.754 145.273  1.00  0.00     0.053 C 
BRANCH   9  10
ATOM     10  C   UNL     1     144.054 147.792 145.794  1.00  0.00     0.041 C 
ATOM     11  O   UNL     1     143.587 147.695 146.960  1.00  0.00    -0.550 OA
ATOM     12  O   UNL     1     143.729 148.893 145.013  1.00  0.00    -0.550 OA
ENDBRANCH   9  10
ENDBRANCH   8   9
ENDBRANCH   7   8
ENDBRANCH   6   7
ENDBRANCH   5   6
ENDBRANCH   4   5
ENDBRANCH   3   4
ENDBRANCH   1   3
BRANCH   2  13
ATOM     13  C   UNL     1     148.610 147.348 147.872  1.00  0.00     0.027 C 
BRANCH  13  14
ATOM     14  C   UNL     1     149.243 148.739 147.713  1.00  0.00     0.004 C 
BRANCH  14  15
ATOM     15  C   UNL     1     149.927 149.276 148.985  1.00  0.00     0.000 C 
BRANCH  15  16
ATOM     16  C   UNL     1     149.003 150.178 149.822  1.00  0.00     0.000 C 
BRANCH  16  17
ATOM     17  C   UNL     1     147.606 150.347 149.196  1.00  0.00    -0.000 C 
BRANCH  17  18
ATOM     18  C   UNL     1     146.423 150.172 150.169  1.00  0.00    -0.000 C 
BRANCH  18  19
ATOM     19  C   UNL     1     145.210 149.423 149.591  1.00  0.00    -0.003 C 
ATOM     20  C   UNL     1     144.130 150.361 149.055  1.00  0.00     0.004 C 
ENDBRANCH  18  19
ENDBRANCH  17  18
ENDBRANCH  16  17
ENDBRANCH  15  16
ENDBRANCH  14  15
ENDBRANCH  13  14
ENDBRANCH   2  13
TORSDOF 15
ENDMDL
MODEL 4
REMARK VINA RESULT:    -1.689      1.307      1.635
REMARK INTER + INTRA:          -4.288
REMARK INTER:                  -3.532
REMARK INTRA:                  -0.756
REMARK UNBOUND:                -1.118
REMARK SMILES CCCCCCCCC=CCCCCCCCC(=O)[O-]
REMARK SMILES IDX 10 1 9 2 11 3 12 4 13 5 14 6 15 7 16 8 17 9 18 10 19 11
REMARK SMILES IDX 20 12 8 13 7 14 6 15 5 16 4 17 3 18 2 19 1 20
REMARK H PARENT
REMARK Flexibility Score: inf
ROOT
ATOM      1  C   UNL     1     149.565 143.477 147.021  1.00  0.00    -0.031 C 
ATOM      2  C   UNL     1     148.716 144.413 146.570  1.00  0.00    -0.031 C 
ENDROOT
BRANCH   1   3
ATOM      3  C   UNL     1     149.181 142.537 148.130  1.00  0.00     0.027 C 
BRANCH   3   4
ATOM      4  C   UNL     1     150.054 141.276 148.110  1.00  0.00     0.004 C 
BRANCH   4   5
ATOM      5  C   UNL     1     150.777 141.088 149.452  1.00  0.00     0.000 C 
BRANCH   5   6
ATOM      6  C   UNL     1     152.298 141.304 149.346  1.00  0.00     0.000 C 
BRANCH   6   7
ATOM      7  C   UNL     1     152.908 140.992 147.963  1.00  0.00     0.000 C 
BRANCH   7   8
ATOM      8  C   UNL     1     153.981 141.986 147.483  1.00  0.00     0.006 C 
BRANCH   8   9
ATOM      9  C   UNL     1     155.183 142.068 148.433  1.00  0.00     0.053 C 
BRANCH   9  10
ATOM     10  C   UNL     1     156.455 141.815 147.685  1.00  0.00     0.041 C 
ATOM     11  O   UNL     1     156.681 142.411 146.598  1.00  0.00    -0.550 OA
ATOM     12  O   UNL     1     157.414 140.961 148.213  1.00  0.00    -0.550 OA
ENDBRANCH   9  10
ENDBRANCH   8   9
ENDBRANCH   7   8
ENDBRANCH   6   7
ENDBRANCH   5   6
ENDBRANCH   4   5
ENDBRANCH   3   4
ENDBRANCH   1   3
BRANCH   2  13
ATOM     13  C   UNL     1     149.081 145.325 145.429  1.00  0.00     0.027 C 
BRANCH  13  14
ATOM     14  C   UNL     1     148.249 145.030 144.172  1.00  0.00     0.004 C 
BRANCH  14  15
ATOM     15  C   UNL     1     148.498 145.999 143.000  1.00  0.00     0.000 C 
BRANCH  15  16
ATOM     16  C   UNL     1     147.628 147.266 143.080  1.00  0.00     0.000 C 
BRANCH  16  17
ATOM     17  C   UNL     1     146.191 146.975 143.550  1.00  0.00    -0.000 C 
BRANCH  17  18
ATOM     18  C   UNL     1     145.943 147.159 145.061  1.00  0.00    -0.000 C 
BRANCH  18  19
ATOM     19  C   UNL     1     144.546 146.736 145.547  1.00  0.00    -0.003 C 
ATOM     20  C   UNL     1     143.722 147.905 146.083  1.00  0.00     0.004 C 
ENDBRANCH  18  19
ENDBRANCH  17  18
ENDBRANCH  16  17
ENDBRANCH  15  16
ENDBRANCH  14  15
ENDBRANCH  13  14
ENDBRANCH   2  13
TORSDOF 15
ENDMDL
MODEL 5
REMARK VINA RESULT:    -1.671      4.237      9.585
REMARK INTER + INTRA:          -4.253
REMARK INTER:                  -3.109
REMARK INTRA:                  -1.144
REMARK UNBOUND:                -1.118
REMARK SMILES CCCCCCCCC=CCCCCCCCC(=O)[O-]
REMARK SMILES IDX 10 1 9 2 11 3 12 4 13 5 14 6 15 7 16 8 17 9 18 10 19 11
REMARK SMILES IDX 20 12 8 13 7 14 6 15 5 16 4 17 3 18 2 19 1 20
REMARK H PARENT
REMARK Flexibility Score: inf
ROOT
ATOM      1  C   UNL     1     149.087 144.995 146.615  1.00  0.00    -0.031 C 
ATOM      2  C   UNL     1     148.966 143.670 146.787  1.00  0.00    -0.031 C 
ENDROOT
BRANCH   1   3
ATOM      3  C   UNL     1     148.584 145.675 145.372  1.00  0.00     0.027 C 
BRANCH   3   4
ATOM      4  C   UNL     1     148.424 144.673 144.222  1.00  0.00     0.004 C 
BRANCH   4   5
ATOM      5  C   UNL     1     148.294 145.400 142.875  1.00  0.00     0.000 C 
BRANCH   5   6
ATOM      6  C   UNL     1     147.878 146.874 143.030  1.00  0.00     0.000 C 
BRANCH   6   7
ATOM      7  C   UNL     1     146.361 147.141 142.928  1.00  0.00     0.000 C 
BRANCH   7   8
ATOM      8  C   UNL     1     145.753 147.916 144.112  1.00  0.00     0.006 C 
BRANCH   8   9
ATOM      9  C   UNL     1     145.047 147.002 145.121  1.00  0.00     0.053 C 
BRANCH   9  10
ATOM     10  C   UNL     1     143.991 147.761 145.860  1.00  0.00     0.041 C 
ATOM     11  O   UNL     1     143.443 147.259 146.878  1.00  0.00    -0.550 OA
ATOM     12  O   UNL     1     143.646 149.044 145.457  1.00  0.00    -0.550 OA
ENDBRANCH   9  10
ENDBRANCH   8   9
ENDBRANCH   7   8
ENDBRANCH   6   7
ENDBRANCH   5   6
ENDBRANCH   4   5
ENDBRANCH   3   4
ENDBRANCH   1   3
BRANCH   2  13
ATOM     13  C   UNL     1     149.427 142.994 148.051  1.00  0.00     0.027 C 
BRANCH  13  14
ATOM     14  C   UNL     1     149.908 141.558 147.788  1.00  0.00     0.004 C 
BRANCH  14  15
ATOM     15  C   UNL     1     151.401 141.322 148.085  1.00  0.00     0.000 C 
BRANCH  15  16
ATOM     16  C   UNL     1     151.629 140.422 149.312  1.00  0.00     0.000 C 
BRANCH  16  17
ATOM     17  C   UNL     1     151.005 140.994 150.598  1.00  0.00    -0.000 C 
BRANCH  17  18
ATOM     18  C   UNL     1     152.012 141.455 151.671  1.00  0.00    -0.000 C 
BRANCH  18  19
ATOM     19  C   UNL     1     152.713 142.792 151.374  1.00  0.00    -0.003 C 
ATOM     20  C   UNL     1     154.040 142.617 150.637  1.00  0.00     0.004 C 
ENDBRANCH  18  19
ENDBRANCH  17  18
ENDBRANCH  16  17
ENDBRANCH  15  16
ENDBRANCH  14  15
ENDBRANCH  13  14
ENDBRANCH   2  13
TORSDOF 15
ENDMDL
MODEL 6
REMARK VINA RESULT:    -1.494      1.619      2.115
REMARK INTER + INTRA:          -3.922
REMARK INTER:                  -2.794
REMARK INTRA:                  -1.128
REMARK UNBOUND:                -1.118
REMARK SMILES CCCCCCCCC=CCCCCCCCC(=O)[O-]
REMARK SMILES IDX 10 1 9 2 11 3 12 4 13 5 14 6 15 7 16 8 17 9 18 10 19 11
REMARK SMILES IDX 20 12 8 13 7 14 6 15 5 16 4 17 3 18 2 19 1 20
REMARK H PARENT
REMARK Flexibility Score: inf
ROOT
ATOM      1  C   UNL     1     149.248 142.868 147.579  1.00  0.00    -0.031 C 
ATOM      2  C   UNL     1     149.559 143.802 146.667  1.00  0.00    -0.031 C 
ENDROOT
BRANCH   1   3
ATOM      3  C   UNL     1     150.034 141.591 147.695  1.00  0.00     0.027 C 
BRANCH   3   4
ATOM      4  C   UNL     1     150.303 141.242 149.165  1.00  0.00     0.004 C 
BRANCH   4   5
ATOM      5  C   UNL     1     151.782 140.894 149.384  1.00  0.00     0.000 C 
BRANCH   5   6
ATOM      6  C   UNL     1     152.662 141.228 148.165  1.00  0.00     0.000 C 
BRANCH   6   7
ATOM      7  C   UNL     1     153.975 141.971 148.489  1.00  0.00     0.000 C 
BRANCH   7   8
ATOM      8  C   UNL     1     154.981 142.057 147.326  1.00  0.00     0.006 C 
BRANCH   8   9
ATOM      9  C   UNL     1     154.335 142.520 146.014  1.00  0.00     0.053 C 
BRANCH   9  10
ATOM     10  C   UNL     1     155.381 142.729 144.965  1.00  0.00     0.041 C 
ATOM     11  O   UNL     1     156.493 143.238 145.270  1.00  0.00    -0.550 OA
ATOM     12  O   UNL     1     155.150 142.315 143.660  1.00  0.00    -0.550 OA
ENDBRANCH   9  10
ENDBRANCH   8   9
ENDBRANCH   7   8
ENDBRANCH   6   7
ENDBRANCH   5   6
ENDBRANCH   4   5
ENDBRANCH   3   4
ENDBRANCH   1   3
BRANCH   2  13
ATOM     13  C   UNL     1     148.802 145.100 146.579  1.00  0.00     0.027 C 
BRANCH  13  14
ATOM     14  C   UNL     1     148.744 145.632 145.138  1.00  0.00     0.004 C 
BRANCH  14  15
ATOM     15  C   UNL     1     148.010 144.708 144.147  1.00  0.00     0.000 C 
BRANCH  15  16
ATOM     16  C   UNL     1     146.829 145.403 143.448  1.00  0.00     0.000 C 
BRANCH  16  17
ATOM     17  C   UNL     1     146.930 146.939 143.490  1.00  0.00    -0.000 C 
BRANCH  17  18
ATOM     18  C   UNL     1     145.792 147.653 144.247  1.00  0.00    -0.000 C 
BRANCH  18  19
ATOM     19  C   UNL     1     144.971 146.754 145.187  1.00  0.00    -0.003 C 
ATOM     20  C   UNL     1     143.950 147.533 146.015  1.00  0.00     0.004 C 
ENDBRANCH  18  19
ENDBRANCH  17  18
ENDBRANCH  16  17
ENDBRANCH  15  16
ENDBRANCH  14  15
ENDBRANCH  13  14
ENDBRANCH   2  13
TORSDOF 15
ENDMDL
MODEL 7
REMARK VINA RESULT:    -1.356      4.236      9.735
REMARK INTER + INTRA:          -3.663
REMARK INTER:                  -3.077
REMARK INTRA:                  -0.586
REMARK UNBOUND:                -1.118
REMARK SMILES CCCCCCCCC=CCCCCCCCC(=O)[O-]
REMARK SMILES IDX 10 1 9 2 11 3 12 4 13 5 14 6 15 7 16 8 17 9 18 10 19 11
REMARK SMILES IDX 20 12 8 13 7 14 6 15 5 16 4 17 3 18 2 19 1 20
REMARK H PARENT
REMARK Flexibility Score: inf
ROOT
ATOM      1  C   UNL     1     149.753 142.383 148.192  1.00  0.00    -0.031 C 
ATOM      2  C   UNL     1     150.532 141.291 148.156  1.00  0.00    -0.031 C 
ENDROOT
BRANCH   1   3
ATOM      3  C   UNL     1     149.126 142.942 146.945  1.00  0.00     0.027 C 
BRANCH   3   4
ATOM      4  C   UNL     1     149.158 144.476 146.952  1.00  0.00     0.004 C 
BRANCH   4   5
ATOM      5  C   UNL     1     148.910 145.035 145.544  1.00  0.00     0.000 C 
BRANCH   5   6
ATOM      6  C   UNL     1     148.033 146.301 145.550  1.00  0.00     0.000 C 
BRANCH   6   7
ATOM      7  C   UNL     1     147.633 146.827 144.155  1.00  0.00     0.000 C 
BRANCH   7   8
ATOM      8  C   UNL     1     146.132 147.116 143.971  1.00  0.00     0.006 C 
BRANCH   8   9
ATOM      9  C   UNL     1     145.288 146.660 145.168  1.00  0.00     0.053 C 
BRANCH   9  10
ATOM     10  C   UNL     1     144.328 147.736 145.567  1.00  0.00     0.041 C 
ATOM     11  O   UNL     1     144.198 148.766 144.854  1.00  0.00    -0.550 OA
ATOM     12  O   UNL     1     143.539 147.580 146.699  1.00  0.00    -0.550 OA
ENDBRANCH   9  10
ENDBRANCH   8   9
ENDBRANCH   7   8
ENDBRANCH   6   7
ENDBRANCH   5   6
ENDBRANCH   4   5
ENDBRANCH   3   4
ENDBRANCH   1   3
BRANCH   2  13
ATOM     13  C   UNL     1     151.123 140.702 149.409  1.00  0.00     0.027 C 
BRANCH  13  14
ATOM     14  C   UNL     1     150.973 141.647 150.612  1.00  0.00     0.004 C 
BRANCH  14  15
ATOM     15  C   UNL     1     152.046 141.467 151.702  1.00  0.00     0.000 C 
BRANCH  15  16
ATOM     16  C   UNL     1     153.281 142.356 151.474  1.00  0.00     0.000 C 
BRANCH  16  17
ATOM     17  C   UNL     1     153.548 142.638 149.984  1.00  0.00    -0.000 C 
BRANCH  17  18
ATOM     18  C   UNL     1     155.034 142.797 149.600  1.00  0.00    -0.000 C 
BRANCH  18  19
ATOM     19  C   UNL     1     155.441 142.117 148.282  1.00  0.00    -0.003 C 
ATOM     20  C   UNL     1     156.870 141.578 148.307  1.00  0.00     0.004 C 
ENDBRANCH  18  19
ENDBRANCH  17  18
ENDBRANCH  16  17
ENDBRANCH  15  16
ENDBRANCH  14  15
ENDBRANCH  13  14
ENDBRANCH   2  13
TORSDOF 15
ENDMDL
MODEL 8
REMARK VINA RESULT:    -1.277      4.251      9.838
REMARK INTER + INTRA:          -3.514
REMARK INTER:                  -2.517
REMARK INTRA:                  -0.998
REMARK UNBOUND:                -1.118
REMARK SMILES CCCCCCCCC=CCCCCCCCC(=O)[O-]
REMARK SMILES IDX 10 1 9 2 11 3 12 4 13 5 14 6 15 7 16 8 17 9 18 10 19 11
REMARK SMILES IDX 20 12 8 13 7 14 6 15 5 16 4 17 3 18 2 19 1 20
REMARK H PARENT
REMARK Flexibility Score: inf
ROOT
ATOM      1  C   UNL     1     149.482 143.851 146.481  1.00  0.00    -0.031 C 
ATOM      2  C   UNL     1     149.257 143.028 147.517  1.00  0.00    -0.031 C 
ENDROOT
BRANCH   1   3
ATOM      3  C   UNL     1     148.728 145.142 146.325  1.00  0.00     0.027 C 
BRANCH   3   4
ATOM      4  C   UNL     1     148.710 145.597 144.860  1.00  0.00     0.004 C 
BRANCH   4   5
ATOM      5  C   UNL     1     147.867 144.643 144.001  1.00  0.00     0.000 C 
BRANCH   5   6
ATOM      6  C   UNL     1     146.669 145.343 143.333  1.00  0.00     0.000 C 
BRANCH   6   7
ATOM      7  C   UNL     1     146.830 146.863 143.127  1.00  0.00     0.000 C 
BRANCH   7   8
ATOM      8  C   UNL     1     145.796 147.736 143.861  1.00  0.00     0.006 C 
BRANCH   8   9
ATOM      9  C   UNL     1     145.244 147.066 145.126  1.00  0.00     0.053 C 
BRANCH   9  10
ATOM     10  C   UNL     1     144.102 147.859 145.679  1.00  0.00     0.041 C 
ATOM     11  O   UNL     1     143.456 147.433 146.673  1.00  0.00    -0.550 OA
ATOM     12  O   UNL     1     143.783 149.095 145.130  1.00  0.00    -0.550 OA
ENDBRANCH   9  10
ENDBRANCH   8   9
ENDBRANCH   7   8
ENDBRANCH   6   7
ENDBRANCH   5   6
ENDBRANCH   4   5
ENDBRANCH   3   4
ENDBRANCH   1   3
BRANCH   2  13
ATOM     13  C   UNL     1     150.042 141.757 147.700  1.00  0.00     0.027 C 
BRANCH  13  14
ATOM     14  C   UNL     1     150.256 141.425 149.185  1.00  0.00     0.004 C 
BRANCH  14  15
ATOM     15  C   UNL     1     151.624 140.793 149.506  1.00  0.00     0.000 C 
BRANCH  15  16
ATOM     16  C   UNL     1     152.636 140.947 148.357  1.00  0.00     0.000 C 
BRANCH  16  17
ATOM     17  C   UNL     1     153.727 141.990 148.658  1.00  0.00    -0.000 C 
BRANCH  17  18
ATOM     18  C   UNL     1     154.919 141.998 147.679  1.00  0.00    -0.000 C 
BRANCH  18  19
ATOM     19  C   UNL     1     156.300 141.824 148.334  1.00  0.00    -0.003 C 
ATOM     20  C   UNL     1     157.448 141.897 147.329  1.00  0.00     0.004 C 
ENDBRANCH  18  19
ENDBRANCH  17  18
ENDBRANCH  16  17
ENDBRANCH  15  16
ENDBRANCH  14  15
ENDBRANCH  13  14
ENDBRANCH   2  13
TORSDOF 15
ENDMDL
