MODEL 1
REMARK VINA RESULT:    -5.297      0.000      0.000
REMARK INTER + INTRA:          -5.606
REMARK INTER:                  -5.606
REMARK INTRA:                   0.000
REMARK UNBOUND:                 0.000
REMARK SMILES O=c1ccc2cc(O)c(O)cc2o1
REMARK SMILES IDX 4 1 3 2 2 3 1 4 13 5 12 6 11 7 9 8 7 9 6 10 5 11 8 12 10 14
REMARK H PARENT 8 13 10 15
REMARK Flexibility Score: inf
ROOT
ATOM      1  C   UNL     1       4.011   6.287 110.964  1.00  0.00     0.019 A 
ATOM      2  C   UNL     1       3.241   7.249 111.618  1.00  0.00     0.094 A 
ATOM      3  C   UNL     1       2.693   6.942 112.867  1.00  0.00     0.336 A 
ATOM      4  O   UNL     1       1.995   7.795 113.475  1.00  0.00    -0.246 OA
ATOM      5  O   UNL     1       2.905   5.750 113.422  1.00  0.00    -0.423 OA
ATOM      6  C   UNL     1       3.633   4.805 112.832  1.00  0.00     0.142 A 
ATOM      7  C   UNL     1       3.822   3.571 113.462  1.00  0.00     0.098 A 
ATOM      8  C   UNL     1       4.586   2.573 112.848  1.00  0.00     0.161 A 
ATOM      9  C   UNL     1       5.169   2.809 111.590  1.00  0.00     0.158 A 
ATOM     10  C   UNL     1       4.983   4.045 110.953  1.00  0.00     0.062 A 
ATOM     11  C   UNL     1       4.218   5.044 111.569  1.00  0.00     0.022 A 
ENDROOT
BRANCH   9  12
ATOM     12  O   UNL     1       5.931   1.815 110.977  1.00  0.00    -0.504 OA
ATOM     13  H   UNL     1       5.500   1.062 110.453  1.00  0.00     0.293 HD
ENDBRANCH   9  12
BRANCH   8  14
ATOM     14  O   UNL     1       4.755   1.353 113.502  1.00  0.00    -0.504 OA
ATOM     15  H   UNL     1       5.332   1.262 114.330  1.00  0.00     0.293 HD
ENDBRANCH   8  14
TORSDOF 2
ENDMDL
MODEL 2
REMARK VINA RESULT:    -5.138      1.229      2.286
REMARK INTER + INTRA:          -5.438
REMARK INTER:                  -5.438
REMARK INTRA:                   0.000
REMARK UNBOUND:                 0.000
REMARK SMILES O=c1ccc2cc(O)c(O)cc2o1
REMARK SMILES IDX 4 1 3 2 2 3 1 4 13 5 12 6 11 7 9 8 7 9 6 10 5 11 8 12 10 14
REMARK H PARENT 8 13 10 15
REMARK Flexibility Score: inf
ROOT
ATOM      1  C   UNL     1       2.309   5.674 113.175  1.00  0.00     0.019 A 
ATOM      2  C   UNL     1       2.019   6.928 112.640  1.00  0.00     0.094 A 
ATOM      3  C   UNL     1       2.777   7.397 111.563  1.00  0.00     0.336 A 
ATOM      4  O   UNL     1       2.531   8.527 111.064  1.00  0.00    -0.246 OA
ATOM      5  O   UNL     1       3.760   6.655 111.056  1.00  0.00    -0.423 OA
ATOM      6  C   UNL     1       4.069   5.453 111.538  1.00  0.00     0.142 A 
ATOM      7  C   UNL     1       5.113   4.718 110.967  1.00  0.00     0.098 A 
ATOM      8  C   UNL     1       5.444   3.454 111.467  1.00  0.00     0.161 A 
ATOM      9  C   UNL     1       4.725   2.916 112.550  1.00  0.00     0.158 A 
ATOM     10  C   UNL     1       3.678   3.650 113.127  1.00  0.00     0.062 A 
ATOM     11  C   UNL     1       3.347   4.915 112.625  1.00  0.00     0.022 A 
ENDROOT
BRANCH   9  12
ATOM     12  O   UNL     1       5.054   1.656 113.049  1.00  0.00    -0.504 OA
ATOM     13  H   UNL     1       4.724   1.341 113.954  1.00  0.00     0.293 HD
ENDBRANCH   9  12
BRANCH   8  14
ATOM     14  O   UNL     1       6.490   2.746 110.875  1.00  0.00    -0.504 OA
ATOM     15  H   UNL     1       7.174   2.239 111.423  1.00  0.00     0.293 HD
ENDBRANCH   8  14
TORSDOF 2
ENDMDL
MODEL 3
REMARK VINA RESULT:    -4.910      1.269      4.706
REMARK INTER + INTRA:          -5.197
REMARK INTER:                  -5.197
REMARK INTRA:                   0.000
REMARK UNBOUND:                 0.000
REMARK SMILES O=c1ccc2cc(O)c(O)cc2o1
REMARK SMILES IDX 4 1 3 2 2 3 1 4 13 5 12 6 11 7 9 8 7 9 6 10 5 11 8 12 10 14
REMARK H PARENT 8 13 10 15
REMARK Flexibility Score: inf
ROOT
ATOM      1  C   UNL     1       4.770   5.422 110.875  1.00  0.00     0.019 A 
ATOM      2  C   UNL     1       5.265   4.170 111.238  1.00  0.00     0.094 A 
ATOM      3  C   UNL     1       4.690   3.504 112.326  1.00  0.00     0.336 A 
ATOM      4  O   UNL     1       5.121   2.373 112.670  1.00  0.00    -0.246 OA
ATOM      5  O   UNL     1       3.686   4.059 113.002  1.00  0.00    -0.423 OA
ATOM      6  C   UNL     1       3.185   5.252 112.688  1.00  0.00     0.142 A 
ATOM      7  C   UNL     1       2.130   5.786 113.434  1.00  0.00     0.098 A 
ATOM      8  C   UNL     1       1.598   7.039 113.111  1.00  0.00     0.161 A 
ATOM      9  C   UNL     1       2.125   7.768 112.029  1.00  0.00     0.158 A 
ATOM     10  C   UNL     1       3.183   7.237 111.278  1.00  0.00     0.062 A 
ATOM     11  C   UNL     1       3.715   5.982 111.602  1.00  0.00     0.022 A 
ENDROOT
BRANCH   9  12
ATOM     12  O   UNL     1       1.596   9.017 111.706  1.00  0.00    -0.504 OA
ATOM     13  H   UNL     1       1.401   9.712 112.417  1.00  0.00     0.293 HD
ENDBRANCH   9  12
BRANCH   8  14
ATOM     14  O   UNL     1       0.546   7.544 113.875  1.00  0.00    -0.504 OA
ATOM     15  H   UNL     1      -0.203   6.954 114.215  1.00  0.00     0.293 HD
ENDBRANCH   8  14
TORSDOF 2
ENDMDL
MODEL 4
REMARK VINA RESULT:    -4.708      1.961      5.123
REMARK INTER + INTRA:          -4.984
REMARK INTER:                  -4.984
REMARK INTRA:                   0.000
REMARK UNBOUND:                 0.000
REMARK SMILES O=c1ccc2cc(O)c(O)cc2o1
REMARK SMILES IDX 4 1 3 2 2 3 1 4 13 5 12 6 11 7 9 8 7 9 6 10 5 11 8 12 10 14
REMARK H PARENT 8 13 10 15
REMARK Flexibility Score: inf
ROOT
ATOM      1  C   UNL     1       3.648   6.214 111.890  1.00  0.00     0.019 A 
ATOM      2  C   UNL     1       4.333   5.001 111.944  1.00  0.00     0.094 A 
ATOM      3  C   UNL     1       3.863   3.994 112.794  1.00  0.00     0.336 A 
ATOM      4  O   UNL     1       4.467   2.892 112.858  1.00  0.00    -0.246 OA
ATOM      5  O   UNL     1       2.778   4.194 113.539  1.00  0.00    -0.423 OA
ATOM      6  C   UNL     1       2.095   5.336 113.517  1.00  0.00     0.142 A 
ATOM      7  C   UNL     1       0.962   5.489 114.322  1.00  0.00     0.098 A 
ATOM      8  C   UNL     1       0.239   6.687 114.305  1.00  0.00     0.161 A 
ATOM      9  C   UNL     1       0.651   7.745 113.475  1.00  0.00     0.158 A 
ATOM     10  C   UNL     1       1.787   7.596 112.665  1.00  0.00     0.062 A 
ATOM     11  C   UNL     1       2.510   6.396 112.683  1.00  0.00     0.022 A 
ENDROOT
BRANCH   9  12
ATOM     12  O   UNL     1      -0.068   8.939 113.457  1.00  0.00    -0.504 OA
ATOM     13  H   UNL     1       0.239   9.736 112.911  1.00  0.00     0.293 HD
ENDBRANCH   9  12
BRANCH   8  14
ATOM     14  O   UNL     1      -0.887   6.808 115.119  1.00  0.00    -0.504 OA
ATOM     15  H   UNL     1      -1.602   6.092 115.159  1.00  0.00     0.293 HD
ENDBRANCH   8  14
TORSDOF 2
ENDMDL
MODEL 5
REMARK VINA RESULT:    -4.678      2.098      3.064
REMARK INTER + INTRA:          -4.952
REMARK INTER:                  -4.952
REMARK INTRA:                   0.000
REMARK UNBOUND:                 0.000
REMARK SMILES O=c1ccc2cc(O)c(O)cc2o1
REMARK SMILES IDX 4 1 3 2 2 3 1 4 13 5 12 6 11 7 9 8 7 9 6 10 5 11 8 12 10 14
REMARK H PARENT 8 13 10 15
REMARK Flexibility Score: inf
ROOT
ATOM      1  C   UNL     1       2.528   8.330 110.903  1.00  0.00     0.019 A 
ATOM      2  C   UNL     1       1.952   9.520 111.347  1.00  0.00     0.094 A 
ATOM      3  C   UNL     1       2.025   9.840 112.707  1.00  0.00     0.336 A 
ATOM      4  O   UNL     1       1.512  10.909 113.130  1.00  0.00    -0.246 OA
ATOM      5  O   UNL     1       2.635   9.021 113.561  1.00  0.00    -0.423 OA
ATOM      6  C   UNL     1       3.196   7.876 113.177  1.00  0.00     0.142 A 
ATOM      7  C   UNL     1       3.823   7.054 114.119  1.00  0.00     0.098 A 
ATOM      8  C   UNL     1       4.415   5.850 113.724  1.00  0.00     0.161 A 
ATOM      9  C   UNL     1       4.382   5.461 112.373  1.00  0.00     0.158 A 
ATOM     10  C   UNL     1       3.755   6.281 111.424  1.00  0.00     0.062 A 
ATOM     11  C   UNL     1       3.162   7.488 111.821  1.00  0.00     0.022 A 
ENDROOT
BRANCH   9  12
ATOM     12  O   UNL     1       4.972   4.261 111.978  1.00  0.00    -0.504 OA
ATOM     13  H   UNL     1       4.706   3.376 112.394  1.00  0.00     0.293 HD
ENDBRANCH   9  12
BRANCH   8  14
ATOM     14  O   UNL     1       5.033   5.053 114.688  1.00  0.00    -0.504 OA
ATOM     15  H   UNL     1       4.841   5.158 115.676  1.00  0.00     0.293 HD
ENDBRANCH   8  14
TORSDOF 2
ENDMDL
MODEL 6
REMARK VINA RESULT:    -4.678      1.181      5.048
REMARK INTER + INTRA:          -4.951
REMARK INTER:                  -4.951
REMARK INTRA:                   0.000
REMARK UNBOUND:                 0.000
REMARK SMILES O=c1ccc2cc(O)c(O)cc2o1
REMARK SMILES IDX 4 1 3 2 2 3 1 4 13 5 12 6 11 7 9 8 7 9 6 10 5 11 8 12 10 14
REMARK H PARENT 8 13 10 15
REMARK Flexibility Score: inf
ROOT
ATOM      1  C   UNL     1       3.800   3.323 113.239  1.00  0.00     0.019 A 
ATOM      2  C   UNL     1       4.733   2.504 112.605  1.00  0.00     0.094 A 
ATOM      3  C   UNL     1       5.386   2.978 111.463  1.00  0.00     0.336 A 
ATOM      4  O   UNL     1       6.232   2.255 110.876  1.00  0.00    -0.246 OA
ATOM      5  O   UNL     1       5.120   4.195 110.991  1.00  0.00    -0.423 OA
ATOM      6  C   UNL     1       4.237   5.008 111.566  1.00  0.00     0.142 A 
ATOM      7  C   UNL     1       3.998   6.275 111.026  1.00  0.00     0.098 A 
ATOM      8  C   UNL     1       3.072   7.136 111.624  1.00  0.00     0.161 A 
ATOM      9  C   UNL     1       2.375   6.728 112.776  1.00  0.00     0.158 A 
ATOM     10  C   UNL     1       2.611   5.457 113.322  1.00  0.00     0.062 A 
ATOM     11  C   UNL     1       3.540   4.596 112.722  1.00  0.00     0.022 A 
ENDROOT
BRANCH   9  12
ATOM     12  O   UNL     1       1.452   7.585 113.374  1.00  0.00    -0.504 OA
ATOM     13  H   UNL     1       1.746   8.396 113.905  1.00  0.00     0.293 HD
ENDBRANCH   9  12
BRANCH   8  14
ATOM     14  O   UNL     1       2.856   8.394 111.061  1.00  0.00    -0.504 OA
ATOM     15  H   UNL     1       3.598   8.918 110.615  1.00  0.00     0.293 HD
ENDBRANCH   8  14
TORSDOF 2
ENDMDL
MODEL 7
REMARK VINA RESULT:    -4.627      1.645      5.261
REMARK INTER + INTRA:          -4.897
REMARK INTER:                  -4.897
REMARK INTRA:                   0.000
REMARK UNBOUND:                 0.000
REMARK SMILES O=c1ccc2cc(O)c(O)cc2o1
REMARK SMILES IDX 4 1 3 2 2 3 1 4 13 5 12 6 11 7 9 8 7 9 6 10 5 11 8 12 10 14
REMARK H PARENT 8 13 10 15
REMARK Flexibility Score: inf
ROOT
ATOM      1  C   UNL     1       4.570   4.823 113.903  1.00  0.00     0.019 A 
ATOM      2  C   UNL     1       4.797   3.760 113.030  1.00  0.00     0.094 A 
ATOM      3  C   UNL     1       4.452   3.905 111.682  1.00  0.00     0.336 A 
ATOM      4  O   UNL     1       4.649   2.958 110.877  1.00  0.00    -0.246 OA
ATOM      5  O   UNL     1       3.918   5.042 111.241  1.00  0.00    -0.423 OA
ATOM      6  C   UNL     1       3.686   6.080 112.041  1.00  0.00     0.142 A 
ATOM      7  C   UNL     1       3.121   7.250 111.523  1.00  0.00     0.098 A 
ATOM      8  C   UNL     1       2.874   8.346 112.357  1.00  0.00     0.161 A 
ATOM      9  C   UNL     1       3.194   8.274 113.725  1.00  0.00     0.158 A 
ATOM     10  C   UNL     1       3.760   7.102 114.250  1.00  0.00     0.062 A 
ATOM     11  C   UNL     1       4.008   6.006 113.414  1.00  0.00     0.022 A 
ENDROOT
BRANCH   9  12
ATOM     12  O   UNL     1       2.948   9.365 114.558  1.00  0.00    -0.504 OA
ATOM     13  H   UNL     1       3.186  10.310 114.280  1.00  0.00     0.293 HD
ENDBRANCH   9  12
BRANCH   8  14
ATOM     14  O   UNL     1       2.310   9.498 111.810  1.00  0.00    -0.504 OA
ATOM     15  H   UNL     1       2.214   9.628 110.810  1.00  0.00     0.293 HD
ENDBRANCH   8  14
TORSDOF 2
ENDMDL
MODEL 8
REMARK VINA RESULT:    -4.604      1.871      5.247
REMARK INTER + INTRA:          -4.873
REMARK INTER:                  -4.873
REMARK INTRA:                   0.000
REMARK UNBOUND:                 0.000
REMARK SMILES O=c1ccc2cc(O)c(O)cc2o1
REMARK SMILES IDX 4 1 3 2 2 3 1 4 13 5 12 6 11 7 9 8 7 9 6 10 5 11 8 12 10 14
REMARK H PARENT 8 13 10 15
REMARK Flexibility Score: inf
ROOT
ATOM      1  C   UNL     1       3.807   6.330 111.424  1.00  0.00     0.019 A 
ATOM      2  C   UNL     1       4.385   5.070 111.579  1.00  0.00     0.094 A 
ATOM      3  C   UNL     1       4.618   4.585 112.870  1.00  0.00     0.336 A 
ATOM      4  O   UNL     1       5.138   3.450 113.032  1.00  0.00    -0.246 OA
ATOM      5  O   UNL     1       4.291   5.316 113.934  1.00  0.00    -0.423 OA
ATOM      6  C   UNL     1       3.738   6.523 113.830  1.00  0.00     0.142 A 
ATOM      7  C   UNL     1       3.416   7.246 114.982  1.00  0.00     0.098 A 
ATOM      8  C   UNL     1       2.835   8.515 114.882  1.00  0.00     0.161 A 
ATOM      9  C   UNL     1       2.571   9.068 113.616  1.00  0.00     0.158 A 
ATOM     10  C   UNL     1       2.892   8.347 112.457  1.00  0.00     0.062 A 
ATOM     11  C   UNL     1       3.474   7.076 112.559  1.00  0.00     0.022 A 
ENDROOT
BRANCH   9  12
ATOM     12  O   UNL     1       1.991  10.333 113.515  1.00  0.00    -0.504 OA
ATOM     13  H   UNL     1       2.554  11.165 113.385  1.00  0.00     0.293 HD
ENDBRANCH   9  12
BRANCH   8  14
ATOM     14  O   UNL     1       2.525   9.211 116.050  1.00  0.00    -0.504 OA
ATOM     15  H   UNL     1       2.889  10.137 116.237  1.00  0.00     0.293 HD
ENDBRANCH   8  14
TORSDOF 2
ENDMDL
MODEL 9
REMARK VINA RESULT:    -4.584      1.722      4.560
REMARK INTER + INTRA:          -4.852
REMARK INTER:                  -4.852
REMARK INTRA:                   0.000
REMARK UNBOUND:                 0.000
REMARK SMILES O=c1ccc2cc(O)c(O)cc2o1
REMARK SMILES IDX 4 1 3 2 2 3 1 4 13 5 12 6 11 7 9 8 7 9 6 10 5 11 8 12 10 14
REMARK H PARENT 8 13 10 15
REMARK Flexibility Score: inf
ROOT
ATOM      1  C   UNL     1       4.759   3.764 112.303  1.00  0.00     0.019 A 
ATOM      2  C   UNL     1       4.698   2.674 113.171  1.00  0.00     0.094 A 
ATOM      3  C   UNL     1       3.701   2.645 114.152  1.00  0.00     0.336 A 
ATOM      4  O   UNL     1       3.628   1.670 114.945  1.00  0.00    -0.246 OA
ATOM      5  O   UNL     1       2.824   3.642 114.252  1.00  0.00    -0.423 OA
ATOM      6  C   UNL     1       2.848   4.699 113.443  1.00  0.00     0.142 A 
ATOM      7  C   UNL     1       1.902   5.717 113.596  1.00  0.00     0.098 A 
ATOM      8  C   UNL     1       1.920   6.832 112.750  1.00  0.00     0.161 A 
ATOM      9  C   UNL     1       2.893   6.932 111.740  1.00  0.00     0.158 A 
ATOM     10  C   UNL     1       3.845   5.913 111.583  1.00  0.00     0.062 A 
ATOM     11  C   UNL     1       3.826   4.797 112.430  1.00  0.00     0.022 A 
ENDROOT
BRANCH   9  12
ATOM     12  O   UNL     1       2.913   8.042 110.896  1.00  0.00    -0.504 OA
ATOM     13  H   UNL     1       2.979   8.985 111.262  1.00  0.00     0.293 HD
ENDBRANCH   9  12
BRANCH   8  14
ATOM     14  O   UNL     1       0.962   7.830 112.928  1.00  0.00    -0.504 OA
ATOM     15  H   UNL     1       1.216   8.789 113.133  1.00  0.00     0.293 HD
ENDBRANCH   8  14
TORSDOF 2
ENDMDL
