MODEL 1
REMARK VINA RESULT:    -4.748      0.000      0.000
REMARK INTER + INTRA:          -9.660
REMARK INTER:                  -8.079
REMARK INTRA:                  -1.581
REMARK UNBOUND:                -1.581
REMARK SMILES CCCCCCCCCCCCCC(=O)[O-]
REMARK SMILES IDX 8 1 9 2 10 3 11 4 12 5 13 6 14 7 15 8 16 9 7 10 6 11 5 12
REMARK SMILES IDX 4 13 3 14 2 15 1 16
REMARK H PARENT
REMARK Flexibility Score: inf
ROOT
ATOM      1  C   UNL     1     -28.307  65.249  81.620  1.00  0.00     0.000 C 
ENDROOT
BRANCH   1   2
ATOM      2  C   UNL     1     -28.121  66.749  81.902  1.00  0.00     0.000 C 
BRANCH   2   3
ATOM      3  C   UNL     1     -28.561  67.146  83.323  1.00  0.00     0.000 C 
BRANCH   3   4
ATOM      4  C   UNL     1     -27.473  66.880  84.375  1.00  0.00     0.000 C 
BRANCH   4   5
ATOM      5  C   UNL     1     -27.383  68.000  85.427  1.00  0.00     0.006 C 
BRANCH   5   6
ATOM      6  C   UNL     1     -28.003  67.586  86.767  1.00  0.00     0.053 C 
BRANCH   6   7
ATOM      7  C   UNL     1     -28.633  68.749  87.470  1.00  0.00     0.041 C 
ATOM      8  O   UNL     1     -28.229  69.096  88.611  1.00  0.00    -0.550 OA
ATOM      9  O   UNL     1     -29.648  69.469  86.851  1.00  0.00    -0.550 OA
ENDBRANCH   6   7
ENDBRANCH   5   6
ENDBRANCH   4   5
ENDBRANCH   3   4
ENDBRANCH   2   3
ENDBRANCH   1   2
BRANCH   1  10
ATOM     10  C   UNL     1     -29.511  64.653  82.371  1.00  0.00     0.000 C 
BRANCH  10  11
ATOM     11  C   UNL     1     -29.146  63.384  83.159  1.00  0.00    -0.000 C 
BRANCH  11  12
ATOM     12  C   UNL     1     -28.875  63.671  84.646  1.00  0.00    -0.000 C 
BRANCH  12  13
ATOM     13  C   UNL     1     -30.168  63.767  85.474  1.00  0.00    -0.000 C 
BRANCH  13  14
ATOM     14  C   UNL     1     -30.325  65.126  86.174  1.00  0.00    -0.000 C 
BRANCH  14  15
ATOM     15  C   UNL     1     -31.249  66.050  85.375  1.00  0.00    -0.003 C 
ATOM     16  C   UNL     1     -32.001  67.008  86.294  1.00  0.00     0.004 C 
ENDBRANCH  14  15
ENDBRANCH  13  14
ENDBRANCH  12  13
ENDBRANCH  11  12
ENDBRANCH  10  11
ENDBRANCH   1  10
TORSDOF 12
ENDMDL
MODEL 2
REMARK VINA RESULT:    -4.676      1.082      2.269
REMARK INTER + INTRA:          -9.538
REMARK INTER:                  -8.200
REMARK INTRA:                  -1.339
REMARK UNBOUND:                -1.581
REMARK SMILES CCCCCCCCCCCCCC(=O)[O-]
REMARK SMILES IDX 8 1 9 2 10 3 11 4 12 5 13 6 14 7 15 8 16 9 7 10 6 11 5 12
REMARK SMILES IDX 4 13 3 14 2 15 1 16
REMARK H PARENT
REMARK Flexibility Score: inf
ROOT
ATOM      1  C   UNL     1     -29.382  63.410  83.060  1.00  0.00     0.000 C 
ENDROOT
BRANCH   1   2
ATOM      2  C   UNL     1     -29.526  64.738  82.299  1.00  0.00     0.000 C 
BRANCH   2   3
ATOM      3  C   UNL     1     -28.172  65.426  82.045  1.00  0.00     0.000 C 
BRANCH   3   4
ATOM      4  C   UNL     1     -28.256  66.956  82.151  1.00  0.00     0.000 C 
BRANCH   4   5
ATOM      5  C   UNL     1     -28.637  67.430  83.564  1.00  0.00     0.006 C 
BRANCH   5   6
ATOM      6  C   UNL     1     -27.570  67.066  84.604  1.00  0.00     0.053 C 
BRANCH   6   7
ATOM      7  C   UNL     1     -27.396  68.150  85.624  1.00  0.00     0.041 C 
ATOM      8  O   UNL     1     -26.274  68.700  85.781  1.00  0.00    -0.550 OA
ATOM      9  O   UNL     1     -28.482  68.572  86.382  1.00  0.00    -0.550 OA
ENDBRANCH   6   7
ENDBRANCH   5   6
ENDBRANCH   4   5
ENDBRANCH   3   4
ENDBRANCH   2   3
ENDBRANCH   1   2
BRANCH   1  10
ATOM     10  C   UNL     1     -29.004  63.615  84.538  1.00  0.00     0.000 C 
BRANCH  10  11
ATOM     11  C   UNL     1     -30.121  63.177  85.499  1.00  0.00    -0.000 C 
BRANCH  11  12
ATOM     12  C   UNL     1     -30.233  64.094  86.730  1.00  0.00    -0.000 C 
BRANCH  12  13
ATOM     13  C   UNL     1     -30.151  65.586  86.365  1.00  0.00    -0.000 C 
BRANCH  13  14
ATOM     14  C   UNL     1     -31.274  66.028  85.415  1.00  0.00    -0.000 C 
BRANCH  14  15
ATOM     15  C   UNL     1     -32.373  66.775  86.178  1.00  0.00    -0.003 C 
ATOM     16  C   UNL     1     -31.799  67.951  86.962  1.00  0.00     0.004 C 
ENDBRANCH  14  15
ENDBRANCH  13  14
ENDBRANCH  12  13
ENDBRANCH  11  12
ENDBRANCH  10  11
ENDBRANCH   1  10
TORSDOF 12
ENDMDL
MODEL 3
REMARK VINA RESULT:    -4.670      2.671      5.502
REMARK INTER + INTRA:          -9.528
REMARK INTER:                  -8.067
REMARK INTRA:                  -1.461
REMARK UNBOUND:                -1.581
REMARK SMILES CCCCCCCCCCCCCC(=O)[O-]
REMARK SMILES IDX 8 1 9 2 10 3 11 4 12 5 13 6 14 7 15 8 16 9 7 10 6 11 5 12
REMARK SMILES IDX 4 13 3 14 2 15 1 16
REMARK H PARENT
REMARK Flexibility Score: inf
ROOT
ATOM      1  C   UNL     1     -30.486  68.582  85.985  1.00  0.00     0.000 C 
ENDROOT
BRANCH   1   2
ATOM      2  C   UNL     1     -31.772  68.093  86.671  1.00  0.00     0.000 C 
BRANCH   2   3
ATOM      3  C   UNL     1     -32.149  66.655  86.271  1.00  0.00     0.000 C 
BRANCH   3   4
ATOM      4  C   UNL     1     -31.123  66.017  85.321  1.00  0.00     0.000 C 
BRANCH   4   5
ATOM      5  C   UNL     1     -30.179  65.039  86.043  1.00  0.00     0.006 C 
BRANCH   5   6
ATOM      6  C   UNL     1     -30.288  63.613  85.487  1.00  0.00     0.053 C 
BRANCH   6   7
ATOM      7  C   UNL     1     -29.363  63.397  84.329  1.00  0.00     0.041 C 
ATOM      8  O   UNL     1     -28.288  62.760  84.484  1.00  0.00    -0.550 OA
ATOM      9  O   UNL     1     -29.703  63.876  83.069  1.00  0.00    -0.550 OA
ENDBRANCH   6   7
ENDBRANCH   5   6
ENDBRANCH   4   5
ENDBRANCH   3   4
ENDBRANCH   2   3
ENDBRANCH   1   2
BRANCH   1  10
ATOM     10  C   UNL     1     -29.384  68.956  86.992  1.00  0.00     0.000 C 
BRANCH  10  11
ATOM     11  C   UNL     1     -28.149  68.048  86.880  1.00  0.00    -0.000 C 
BRANCH  11  12
ATOM     12  C   UNL     1     -27.116  68.580  85.872  1.00  0.00    -0.000 C 
BRANCH  12  13
ATOM     13  C   UNL     1     -26.495  67.462  85.017  1.00  0.00    -0.000 C 
BRANCH  13  14
ATOM     14  C   UNL     1     -27.547  66.510  84.428  1.00  0.00    -0.000 C 
BRANCH  14  15
ATOM     15  C   UNL     1     -28.362  67.205  83.333  1.00  0.00    -0.003 C 
ATOM     16  C   UNL     1     -28.076  66.598  81.962  1.00  0.00     0.004 C 
ENDBRANCH  14  15
ENDBRANCH  13  14
ENDBRANCH  12  13
ENDBRANCH  11  12
ENDBRANCH  10  11
ENDBRANCH   1  10
TORSDOF 12
ENDMDL
MODEL 4
REMARK VINA RESULT:    -4.664      1.067      3.666
REMARK INTER + INTRA:          -9.517
REMARK INTER:                  -8.258
REMARK INTRA:                  -1.259
REMARK UNBOUND:                -1.581
REMARK SMILES CCCCCCCCCCCCCC(=O)[O-]
REMARK SMILES IDX 8 1 9 2 10 3 11 4 12 5 13 6 14 7 15 8 16 9 7 10 6 11 5 12
REMARK SMILES IDX 4 13 3 14 2 15 1 16
REMARK H PARENT
REMARK Flexibility Score: inf
ROOT
ATOM      1  C   UNL     1     -29.436  63.500  83.110  1.00  0.00     0.000 C 
ENDROOT
BRANCH   1   2
ATOM      2  C   UNL     1     -29.006  63.659  84.577  1.00  0.00     0.000 C 
BRANCH   2   3
ATOM      3  C   UNL     1     -30.204  63.718  85.543  1.00  0.00     0.000 C 
BRANCH   3   4
ATOM      4  C   UNL     1     -30.268  65.039  86.327  1.00  0.00     0.000 C 
BRANCH   4   5
ATOM      5  C   UNL     1     -31.066  66.127  85.587  1.00  0.00     0.006 C 
BRANCH   5   6
ATOM      6  C   UNL     1     -31.553  67.232  86.532  1.00  0.00     0.053 C 
BRANCH   6   7
ATOM      7  C   UNL     1     -30.582  68.371  86.602  1.00  0.00     0.041 C 
ATOM      8  O   UNL     1     -29.451  68.210  87.132  1.00  0.00    -0.550 OA
ATOM      9  O   UNL     1     -30.916  69.604  86.054  1.00  0.00    -0.550 OA
ENDBRANCH   6   7
ENDBRANCH   5   6
ENDBRANCH   4   5
ENDBRANCH   3   4
ENDBRANCH   2   3
ENDBRANCH   1   2
BRANCH   1  10
ATOM     10  C   UNL     1     -29.595  64.852  82.392  1.00  0.00     0.000 C 
BRANCH  10  11
ATOM     11  C   UNL     1     -28.244  65.513  82.072  1.00  0.00    -0.000 C 
BRANCH  11  12
ATOM     12  C   UNL     1     -28.243  67.024  82.364  1.00  0.00    -0.000 C 
BRANCH  12  13
ATOM     13  C   UNL     1     -28.394  67.337  83.862  1.00  0.00    -0.000 C 
BRANCH  13  14
ATOM     14  C   UNL     1     -27.381  66.578  84.733  1.00  0.00    -0.000 C 
BRANCH  14  15
ATOM     15  C   UNL     1     -26.166  67.455  85.049  1.00  0.00    -0.003 C 
ATOM     16  C   UNL     1     -26.578  68.724  85.790  1.00  0.00     0.004 C 
ENDBRANCH  14  15
ENDBRANCH  13  14
ENDBRANCH  12  13
ENDBRANCH  11  12
ENDBRANCH  10  11
ENDBRANCH   1  10
TORSDOF 12
ENDMDL
MODEL 5
REMARK VINA RESULT:    -4.639      2.722      4.949
REMARK INTER + INTRA:          -9.474
REMARK INTER:                  -8.065
REMARK INTRA:                  -1.410
REMARK UNBOUND:                -1.581
REMARK SMILES CCCCCCCCCCCCCC(=O)[O-]
REMARK SMILES IDX 8 1 9 2 10 3 11 4 12 5 13 6 14 7 15 8 16 9 7 10 6 11 5 12
REMARK SMILES IDX 4 13 3 14 2 15 1 16
REMARK H PARENT
REMARK Flexibility Score: inf
ROOT
ATOM      1  C   UNL     1     -28.142  68.070  86.872  1.00  0.00     0.000 C 
ENDROOT
BRANCH   1   2
ATOM      2  C   UNL     1     -27.078  68.605  85.901  1.00  0.00     0.000 C 
BRANCH   2   3
ATOM      3  C   UNL     1     -26.488  67.503  85.001  1.00  0.00     0.000 C 
BRANCH   3   4
ATOM      4  C   UNL     1     -27.508  66.403  84.668  1.00  0.00     0.000 C 
BRANCH   4   5
ATOM      5  C   UNL     1     -28.328  66.721  83.405  1.00  0.00     0.006 C 
BRANCH   5   6
ATOM      6  C   UNL     1     -28.172  65.641  82.327  1.00  0.00     0.053 C 
BRANCH   6   7
ATOM      7  C   UNL     1     -29.078  64.474  82.574  1.00  0.00     0.041 C 
ATOM      8  O   UNL     1     -30.165  64.369  81.948  1.00  0.00    -0.550 OA
ATOM      9  O   UNL     1     -28.707  63.486  83.479  1.00  0.00    -0.550 OA
ENDBRANCH   6   7
ENDBRANCH   5   6
ENDBRANCH   4   5
ENDBRANCH   3   4
ENDBRANCH   2   3
ENDBRANCH   1   2
BRANCH   1  10
ATOM     10  C   UNL     1     -29.395  68.963  86.925  1.00  0.00     0.000 C 
BRANCH  10  11
ATOM     11  C   UNL     1     -30.497  68.492  85.963  1.00  0.00    -0.000 C 
BRANCH  11  12
ATOM     12  C   UNL     1     -31.715  67.910  86.701  1.00  0.00    -0.000 C 
BRANCH  12  13
ATOM     13  C   UNL     1     -32.129  66.530  86.163  1.00  0.00    -0.000 C 
BRANCH  13  14
ATOM     14  C   UNL     1     -30.990  65.816  85.420  1.00  0.00    -0.000 C 
BRANCH  14  15
ATOM     15  C   UNL     1     -30.185  64.928  86.375  1.00  0.00    -0.003 C 
ATOM     16  C   UNL     1     -30.526  63.454  86.179  1.00  0.00     0.004 C 
ENDBRANCH  14  15
ENDBRANCH  13  14
ENDBRANCH  12  13
ENDBRANCH  11  12
ENDBRANCH  10  11
ENDBRANCH   1  10
TORSDOF 12
ENDMDL
MODEL 6
REMARK VINA RESULT:    -4.580      2.443      5.240
REMARK INTER + INTRA:          -9.374
REMARK INTER:                  -8.007
REMARK INTRA:                  -1.366
REMARK UNBOUND:                -1.581
REMARK SMILES CCCCCCCCCCCCCC(=O)[O-]
REMARK SMILES IDX 8 1 9 2 10 3 11 4 12 5 13 6 14 7 15 8 16 9 7 10 6 11 5 12
REMARK SMILES IDX 4 13 3 14 2 15 1 16
REMARK H PARENT
REMARK Flexibility Score: inf
ROOT
ATOM      1  C   UNL     1     -29.270  69.047  86.795  1.00  0.00     0.000 C 
ENDROOT
BRANCH   1   2
ATOM      2  C   UNL     1     -30.635  68.784  86.139  1.00  0.00     0.000 C 
BRANCH   2   3
ATOM      3  C   UNL     1     -31.467  67.736  86.900  1.00  0.00     0.000 C 
BRANCH   3   4
ATOM      4  C   UNL     1     -32.118  66.705  85.964  1.00  0.00     0.000 C 
BRANCH   4   5
ATOM      5  C   UNL     1     -31.082  65.820  85.248  1.00  0.00     0.006 C 
BRANCH   5   6
ATOM      6  C   UNL     1     -30.225  65.018  86.235  1.00  0.00     0.053 C 
BRANCH   6   7
ATOM      7  C   UNL     1     -29.822  63.691  85.669  1.00  0.00     0.041 C 
ATOM      8  O   UNL     1     -30.468  62.651  85.965  1.00  0.00    -0.550 OA
ATOM      9  O   UNL     1     -28.748  63.607  84.791  1.00  0.00    -0.550 OA
ENDBRANCH   6   7
ENDBRANCH   5   6
ENDBRANCH   4   5
ENDBRANCH   3   4
ENDBRANCH   2   3
ENDBRANCH   1   2
BRANCH   1  10
ATOM     10  C   UNL     1     -28.304  67.859  86.645  1.00  0.00     0.000 C 
BRANCH  10  11
ATOM     11  C   UNL     1     -27.334  68.032  85.465  1.00  0.00    -0.000 C 
BRANCH  11  12
ATOM     12  C   UNL     1     -27.465  66.906  84.424  1.00  0.00    -0.000 C 
BRANCH  12  13
ATOM     13  C   UNL     1     -28.583  67.173  83.402  1.00  0.00    -0.000 C 
BRANCH  13  14
ATOM     14  C   UNL     1     -28.148  66.888  81.957  1.00  0.00    -0.000 C 
BRANCH  14  15
ATOM     15  C   UNL     1     -28.208  65.387  81.652  1.00  0.00    -0.003 C 
ATOM     16  C   UNL     1     -29.581  64.811  81.988  1.00  0.00     0.004 C 
ENDBRANCH  14  15
ENDBRANCH  13  14
ENDBRANCH  12  13
ENDBRANCH  11  12
ENDBRANCH  10  11
ENDBRANCH   1  10
TORSDOF 12
ENDMDL
MODEL 7
REMARK VINA RESULT:    -4.541      2.241      4.478
REMARK INTER + INTRA:          -9.308
REMARK INTER:                  -8.049
REMARK INTRA:                  -1.259
REMARK UNBOUND:                -1.581
REMARK SMILES CCCCCCCCCCCCCC(=O)[O-]
REMARK SMILES IDX 8 1 9 2 10 3 11 4 12 5 13 6 14 7 15 8 16 9 7 10 6 11 5 12
REMARK SMILES IDX 4 13 3 14 2 15 1 16
REMARK H PARENT
REMARK Flexibility Score: inf
ROOT
ATOM      1  C   UNL     1     -27.373  67.076  84.444  1.00  0.00     0.000 C 
ENDROOT
BRANCH   1   2
ATOM      2  C   UNL     1     -28.567  67.213  83.486  1.00  0.00     0.000 C 
BRANCH   2   3
ATOM      3  C   UNL     1     -28.233  66.763  82.052  1.00  0.00     0.000 C 
BRANCH   3   4
ATOM      4  C   UNL     1     -28.380  65.246  81.859  1.00  0.00     0.000 C 
BRANCH   4   5
ATOM      5  C   UNL     1     -29.515  64.649  82.710  1.00  0.00     0.006 C 
BRANCH   5   6
ATOM      6  C   UNL     1     -29.032  63.485  83.585  1.00  0.00     0.053 C 
BRANCH   6   7
ATOM      7  C   UNL     1     -29.372  63.697  85.028  1.00  0.00     0.041 C 
ATOM      8  O   UNL     1     -28.649  64.435  85.749  1.00  0.00    -0.550 OA
ATOM      9  O   UNL     1     -30.504  63.102  85.572  1.00  0.00    -0.550 OA
ENDBRANCH   6   7
ENDBRANCH   5   6
ENDBRANCH   4   5
ENDBRANCH   3   4
ENDBRANCH   2   3
ENDBRANCH   1   2
BRANCH   1  10
ATOM     10  C   UNL     1     -27.373  68.150  85.546  1.00  0.00     0.000 C 
BRANCH  10  11
ATOM     11  C   UNL     1     -28.258  67.766  86.744  1.00  0.00    -0.000 C 
BRANCH  11  12
ATOM     12  C   UNL     1     -29.293  68.852  87.084  1.00  0.00    -0.000 C 
BRANCH  12  13
ATOM     13  C   UNL     1     -30.503  68.833  86.135  1.00  0.00    -0.000 C 
BRANCH  13  14
ATOM     14  C   UNL     1     -31.819  68.502  86.856  1.00  0.00    -0.000 C 
BRANCH  14  15
ATOM     15  C   UNL     1     -32.224  67.044  86.614  1.00  0.00    -0.003 C 
ATOM     16  C   UNL     1     -31.546  66.482  85.368  1.00  0.00     0.004 C 
ENDBRANCH  14  15
ENDBRANCH  13  14
ENDBRANCH  12  13
ENDBRANCH  11  12
ENDBRANCH  10  11
ENDBRANCH   1  10
TORSDOF 12
ENDMDL
MODEL 8
REMARK VINA RESULT:    -4.537      1.467      2.956
REMARK INTER + INTRA:          -9.301
REMARK INTER:                  -7.826
REMARK INTRA:                  -1.474
REMARK UNBOUND:                -1.581
REMARK SMILES CCCCCCCCCCCCCC(=O)[O-]
REMARK SMILES IDX 8 1 9 2 10 3 11 4 12 5 13 6 14 7 15 8 16 9 7 10 6 11 5 12
REMARK SMILES IDX 4 13 3 14 2 15 1 16
REMARK H PARENT
REMARK Flexibility Score: inf
ROOT
ATOM      1  C   UNL     1     -28.613  67.176  83.424  1.00  0.00     0.000 C 
ENDROOT
BRANCH   1   2
ATOM      2  C   UNL     1     -27.549  66.937  84.508  1.00  0.00     0.000 C 
BRANCH   2   3
ATOM      3  C   UNL     1     -27.452  68.101  85.512  1.00  0.00     0.000 C 
BRANCH   3   4
ATOM      4  C   UNL     1     -28.200  67.814  86.823  1.00  0.00     0.000 C 
BRANCH   4   5
ATOM      5  C   UNL     1     -29.225  68.909  87.170  1.00  0.00     0.006 C 
BRANCH   5   6
ATOM      6  C   UNL     1     -30.332  69.022  86.113  1.00  0.00     0.053 C 
BRANCH   6   7
ATOM      7  C   UNL     1     -31.271  67.856  86.166  1.00  0.00     0.041 C 
ATOM      8  O   UNL     1     -31.359  67.067  85.189  1.00  0.00    -0.550 OA
ATOM      9  O   UNL     1     -32.030  67.626  87.307  1.00  0.00    -0.550 OA
ENDBRANCH   6   7
ENDBRANCH   5   6
ENDBRANCH   4   5
ENDBRANCH   3   4
ENDBRANCH   2   3
ENDBRANCH   1   2
BRANCH   1  10
ATOM     10  C   UNL     1     -28.126  66.776  82.020  1.00  0.00     0.000 C 
BRANCH  10  11
ATOM     11  C   UNL     1     -28.286  65.272  81.746  1.00  0.00    -0.000 C 
BRANCH  11  12
ATOM     12  C   UNL     1     -29.544  64.683  82.406  1.00  0.00    -0.000 C 
BRANCH  12  13
ATOM     13  C   UNL     1     -29.285  63.313  83.055  1.00  0.00    -0.000 C 
BRANCH  13  14
ATOM     14  C   UNL     1     -28.875  63.423  84.532  1.00  0.00    -0.000 C 
BRANCH  14  15
ATOM     15  C   UNL     1     -30.082  63.767  85.411  1.00  0.00    -0.003 C 
ATOM     16  C   UNL     1     -29.667  64.608  86.615  1.00  0.00     0.004 C 
ENDBRANCH  14  15
ENDBRANCH  13  14
ENDBRANCH  12  13
ENDBRANCH  11  12
ENDBRANCH  10  11
ENDBRANCH   1  10
TORSDOF 12
ENDMDL
MODEL 9
REMARK VINA RESULT:    -4.506      2.287      5.371
REMARK INTER + INTRA:          -9.248
REMARK INTER:                  -7.904
REMARK INTRA:                  -1.344
REMARK UNBOUND:                -1.581
REMARK SMILES CCCCCCCCCCCCCC(=O)[O-]
REMARK SMILES IDX 8 1 9 2 10 3 11 4 12 5 13 6 14 7 15 8 16 9 7 10 6 11 5 12
REMARK SMILES IDX 4 13 3 14 2 15 1 16
REMARK H PARENT
REMARK Flexibility Score: inf
ROOT
ATOM      1  C   UNL     1     -31.076  66.067  85.432  1.00  0.00     0.000 C 
ENDROOT
BRANCH   1   2
ATOM      2  C   UNL     1     -30.304  65.088  86.331  1.00  0.00     0.000 C 
BRANCH   2   3
ATOM      3  C   UNL     1     -30.009  63.748  85.633  1.00  0.00     0.000 C 
BRANCH   3   4
ATOM      4  C   UNL     1     -28.761  63.809  84.738  1.00  0.00     0.000 C 
BRANCH   4   5
ATOM      5  C   UNL     1     -29.039  63.326  83.304  1.00  0.00     0.006 C 
BRANCH   5   6
ATOM      6  C   UNL     1     -29.664  64.424  82.433  1.00  0.00     0.053 C 
BRANCH   6   7
ATOM      7  C   UNL     1     -28.714  65.560  82.206  1.00  0.00     0.041 C 
ATOM      8  O   UNL     1     -27.747  65.429  81.409  1.00  0.00    -0.550 OA
ATOM      9  O   UNL     1     -28.913  66.773  82.853  1.00  0.00    -0.550 OA
ENDBRANCH   6   7
ENDBRANCH   5   6
ENDBRANCH   4   5
ENDBRANCH   3   4
ENDBRANCH   2   3
ENDBRANCH   1   2
BRANCH   1  10
ATOM     10  C   UNL     1     -32.207  66.793  86.184  1.00  0.00     0.000 C 
BRANCH  10  11
ATOM     11  C   UNL     1     -31.741  68.114  86.818  1.00  0.00    -0.000 C 
BRANCH  11  12
ATOM     12  C   UNL     1     -30.579  68.761  86.046  1.00  0.00    -0.000 C 
BRANCH  12  13
ATOM     13  C   UNL     1     -29.387  69.108  86.954  1.00  0.00    -0.000 C 
BRANCH  13  14
ATOM     14  C   UNL     1     -28.272  68.053  86.901  1.00  0.00    -0.000 C 
BRANCH  14  15
ATOM     15  C   UNL     1     -27.334  68.306  85.715  1.00  0.00    -0.003 C 
ATOM     16  C   UNL     1     -26.757  67.000  85.179  1.00  0.00     0.004 C 
ENDBRANCH  14  15
ENDBRANCH  13  14
ENDBRANCH  12  13
ENDBRANCH  11  12
ENDBRANCH  10  11
ENDBRANCH   1  10
TORSDOF 12
ENDMDL
