MODEL 1
REMARK VINA RESULT:    -5.035      0.000      0.000
REMARK INTER + INTRA:         -14.650
REMARK INTER:                 -11.510
REMARK INTRA:                  -3.140
REMARK UNBOUND:                -3.140
REMARK SMILES CCCCCCCCCCCCCCCCCCCCCCCC(=O)[O-]
REMARK SMILES IDX 13 1 14 2 15 3 16 4 17 5 18 6 19 7 20 8 21 9 22 10 23 11
REMARK SMILES IDX 24 12 25 13 26 14 12 15 11 16 10 17 9 18 8 19 7 20 6 21 5 22
REMARK SMILES IDX 4 23 3 24 2 25 1 26
REMARK H PARENT
REMARK Flexibility Score: inf
ROOT
ATOM      1  C   UNL     1      12.113  13.684 164.607  1.00  0.00     0.000 C 
ENDROOT
BRANCH   1   2
ATOM      2  C   UNL     1      11.277  14.632 165.485  1.00  0.00     0.000 C 
BRANCH   2   3
ATOM      3  C   UNL     1      11.353  16.119 165.095  1.00  0.00     0.000 C 
BRANCH   3   4
ATOM      4  C   UNL     1      10.073  16.621 164.406  1.00  0.00     0.000 C 
BRANCH   4   5
ATOM      5  C   UNL     1      10.154  18.101 163.988  1.00  0.00     0.000 C 
BRANCH   5   6
ATOM      6  C   UNL     1       9.195  19.055 164.732  1.00  0.00     0.000 C 
BRANCH   6   7
ATOM      7  C   UNL     1       8.310  18.388 165.799  1.00  0.00     0.000 C 
BRANCH   7   8
ATOM      8  C   UNL     1       6.966  19.111 165.993  1.00  0.00     0.000 C 
BRANCH   8   9
ATOM      9  C   UNL     1       5.798  18.134 166.201  1.00  0.00     0.000 C 
BRANCH   9  10
ATOM     10  C   UNL     1       6.238  16.662 166.107  1.00  0.00     0.006 C 
BRANCH  10  11
ATOM     11  C   UNL     1       5.923  15.879 167.389  1.00  0.00     0.053 C 
BRANCH  11  12
ATOM     12  C   UNL     1       7.126  15.745 168.271  1.00  0.00     0.041 C 
ATOM     13  O   UNL     1       7.000  15.786 169.524  1.00  0.00    -0.550 OA
ATOM     14  O   UNL     1       8.389  15.596 167.710  1.00  0.00    -0.550 OA
ENDBRANCH  11  12
ENDBRANCH  10  11
ENDBRANCH   9  10
ENDBRANCH   8   9
ENDBRANCH   7   8
ENDBRANCH   6   7
ENDBRANCH   5   6
ENDBRANCH   4   5
ENDBRANCH   3   4
ENDBRANCH   2   3
ENDBRANCH   1   2
BRANCH   1  15
ATOM     15  C   UNL     1      11.256  12.674 163.830  1.00  0.00     0.000 C 
BRANCH  15  16
ATOM     16  C   UNL     1      11.740  12.543 162.382  1.00  0.00     0.000 C 
BRANCH  16  17
ATOM     17  C   UNL     1      10.591  12.762 161.391  1.00  0.00     0.000 C 
BRANCH  17  18
ATOM     18  C   UNL     1       9.551  13.734 161.967  1.00  0.00    -0.000 C 
BRANCH  18  19
ATOM     19  C   UNL     1       9.812  15.197 161.569  1.00  0.00    -0.000 C 
BRANCH  19  20
ATOM     20  C   UNL     1      10.564  15.388 160.237  1.00  0.00    -0.000 C 
BRANCH  20  21
ATOM     21  C   UNL     1      11.886  16.171 160.336  1.00  0.00    -0.000 C 
BRANCH  21  22
ATOM     22  C   UNL     1      12.554  16.047 161.713  1.00  0.00    -0.000 C 
BRANCH  22  23
ATOM     23  C   UNL     1      13.702  15.029 161.675  1.00  0.00    -0.000 C 
BRANCH  23  24
ATOM     24  C   UNL     1      14.740  15.262 162.785  1.00  0.00    -0.000 C 
BRANCH  24  25
ATOM     25  C   UNL     1      15.596  14.017 163.063  1.00  0.00    -0.003 C 
ATOM     26  C   UNL     1      17.028  14.214 162.570  1.00  0.00     0.004 C 
ENDBRANCH  24  25
ENDBRANCH  23  24
ENDBRANCH  22  23
ENDBRANCH  21  22
ENDBRANCH  20  21
ENDBRANCH  19  20
ENDBRANCH  18  19
ENDBRANCH  17  18
ENDBRANCH  16  17
ENDBRANCH  15  16
ENDBRANCH   1  15
TORSDOF 22
ENDMDL
MODEL 2
REMARK VINA RESULT:    -5.016      1.465      4.223
REMARK INTER + INTRA:         -14.608
REMARK INTER:                 -11.036
REMARK INTRA:                  -3.571
REMARK UNBOUND:                -3.140
REMARK SMILES CCCCCCCCCCCCCCCCCCCCCCCC(=O)[O-]
REMARK SMILES IDX 13 1 14 2 15 3 16 4 17 5 18 6 19 7 20 8 21 9 22 10 23 11
REMARK SMILES IDX 24 12 25 13 26 14 12 15 11 16 10 17 9 18 8 19 7 20 6 21 5 22
REMARK SMILES IDX 4 23 3 24 2 25 1 26
REMARK H PARENT
REMARK Flexibility Score: inf
ROOT
ATOM      1  C   UNL     1      11.461  17.838 159.623  1.00  0.00     0.000 C 
ENDROOT
BRANCH   1   2
ATOM      2  C   UNL     1      11.306  19.073 160.528  1.00  0.00     0.000 C 
BRANCH   2   3
ATOM      3  C   UNL     1      10.909  18.768 161.983  1.00  0.00     0.000 C 
BRANCH   3   4
ATOM      4  C   UNL     1      12.113  18.397 162.865  1.00  0.00     0.000 C 
BRANCH   4   5
ATOM      5  C   UNL     1      11.848  17.177 163.766  1.00  0.00     0.000 C 
BRANCH   5   6
ATOM      6  C   UNL     1      10.393  16.662 163.775  1.00  0.00     0.000 C 
BRANCH   6   7
ATOM      7  C   UNL     1       9.596  16.981 165.052  1.00  0.00     0.000 C 
BRANCH   7   8
ATOM      8  C   UNL     1       9.025  18.409 165.055  1.00  0.00     0.000 C 
BRANCH   8   9
ATOM      9  C   UNL     1       7.778  18.541 165.945  1.00  0.00     0.000 C 
BRANCH   9  10
ATOM     10  C   UNL     1       7.162  17.177 166.300  1.00  0.00     0.006 C 
BRANCH  10  11
ATOM     11  C   UNL     1       6.685  17.116 167.757  1.00  0.00     0.053 C 
BRANCH  11  12
ATOM     12  C   UNL     1       7.335  15.998 168.512  1.00  0.00     0.041 C 
ATOM     13  O   UNL     1       8.347  15.417 168.037  1.00  0.00    -0.550 OA
ATOM     14  O   UNL     1       6.811  15.581 169.730  1.00  0.00    -0.550 OA
ENDBRANCH  11  12
ENDBRANCH  10  11
ENDBRANCH   9  10
ENDBRANCH   8   9
ENDBRANCH   7   8
ENDBRANCH   6   7
ENDBRANCH   5   6
ENDBRANCH   4   5
ENDBRANCH   3   4
ENDBRANCH   2   3
ENDBRANCH   1   2
BRANCH   1  15
ATOM     15  C   UNL     1      10.500  16.699 159.993  1.00  0.00     0.000 C 
BRANCH  15  16
ATOM     16  C   UNL     1      11.271  15.413 160.314  1.00  0.00     0.000 C 
BRANCH  16  17
ATOM     17  C   UNL     1      12.783  15.625 160.171  1.00  0.00     0.000 C 
BRANCH  17  18
ATOM     18  C   UNL     1      13.560  14.523 160.905  1.00  0.00    -0.000 C 
BRANCH  18  19
ATOM     19  C   UNL     1      14.269  15.031 162.173  1.00  0.00    -0.000 C 
BRANCH  19  20
ATOM     20  C   UNL     1      13.821  14.359 163.486  1.00  0.00    -0.000 C 
BRANCH  20  21
ATOM     21  C   UNL     1      13.055  13.034 163.317  1.00  0.00    -0.000 C 
BRANCH  21  22
ATOM     22  C   UNL     1      11.632  13.088 163.892  1.00  0.00    -0.000 C 
BRANCH  22  23
ATOM     23  C   UNL     1      10.586  13.010 162.771  1.00  0.00    -0.000 C 
BRANCH  23  24
ATOM     24  C   UNL     1      11.030  12.110 161.606  1.00  0.00    -0.000 C 
BRANCH  24  25
ATOM     25  C   UNL     1       9.881  11.252 161.052  1.00  0.00    -0.003 C 
ATOM     26  C   UNL     1       9.690   9.987 161.886  1.00  0.00     0.004 C 
ENDBRANCH  24  25
ENDBRANCH  23  24
ENDBRANCH  22  23
ENDBRANCH  21  22
ENDBRANCH  20  21
ENDBRANCH  19  20
ENDBRANCH  18  19
ENDBRANCH  17  18
ENDBRANCH  16  17
ENDBRANCH  15  16
ENDBRANCH   1  15
TORSDOF 22
ENDMDL
MODEL 3
REMARK VINA RESULT:    -4.993      0.895      2.165
REMARK INTER + INTRA:         -14.554
REMARK INTER:                 -11.344
REMARK INTRA:                  -3.210
REMARK UNBOUND:                -3.140
REMARK SMILES CCCCCCCCCCCCCCCCCCCCCCCC(=O)[O-]
REMARK SMILES IDX 13 1 14 2 15 3 16 4 17 5 18 6 19 7 20 8 21 9 22 10 23 11
REMARK SMILES IDX 24 12 25 13 26 14 12 15 11 16 10 17 9 18 8 19 7 20 6 21 5 22
REMARK SMILES IDX 4 23 3 24 2 25 1 26
REMARK H PARENT
REMARK Flexibility Score: inf
ROOT
ATOM      1  C   UNL     1      11.424  12.710 162.578  1.00  0.00     0.000 C 
ENDROOT
BRANCH   1   2
ATOM      2  C   UNL     1      11.230  12.996 164.077  1.00  0.00     0.000 C 
BRANCH   2   3
ATOM      3  C   UNL     1      12.064  14.164 164.632  1.00  0.00     0.000 C 
BRANCH   3   4
ATOM      4  C   UNL     1      11.290  15.020 165.649  1.00  0.00     0.000 C 
BRANCH   4   5
ATOM      5  C   UNL     1      10.880  16.395 165.091  1.00  0.00     0.000 C 
BRANCH   5   6
ATOM      6  C   UNL     1       9.408  16.795 165.326  1.00  0.00     0.000 C 
BRANCH   6   7
ATOM      7  C   UNL     1       9.050  18.235 164.916  1.00  0.00     0.000 C 
BRANCH   7   8
ATOM      8  C   UNL     1       7.854  18.797 165.702  1.00  0.00     0.000 C 
BRANCH   8   9
ATOM      9  C   UNL     1       7.951  18.506 167.208  1.00  0.00     0.000 C 
BRANCH   9  10
ATOM     10  C   UNL     1       6.614  18.027 167.801  1.00  0.00     0.006 C 
BRANCH  10  11
ATOM     11  C   UNL     1       6.402  16.519 167.614  1.00  0.00     0.053 C 
BRANCH  11  12
ATOM     12  C   UNL     1       7.220  15.717 168.578  1.00  0.00     0.041 C 
ATOM     13  O   UNL     1       8.318  15.217 168.216  1.00  0.00    -0.550 OA
ATOM     14  O   UNL     1       6.759  15.501 169.872  1.00  0.00    -0.550 OA
ENDBRANCH  11  12
ENDBRANCH  10  11
ENDBRANCH   9  10
ENDBRANCH   8   9
ENDBRANCH   7   8
ENDBRANCH   6   7
ENDBRANCH   5   6
ENDBRANCH   4   5
ENDBRANCH   3   4
ENDBRANCH   2   3
ENDBRANCH   1   2
BRANCH   1  15
ATOM     15  C   UNL     1      10.108  12.743 161.786  1.00  0.00     0.000 C 
BRANCH  15  16
ATOM     16  C   UNL     1       9.378  14.075 161.993  1.00  0.00     0.000 C 
BRANCH  16  17
ATOM     17  C   UNL     1       9.851  15.128 160.983  1.00  0.00     0.000 C 
BRANCH  17  18
ATOM     18  C   UNL     1      10.525  16.307 161.700  1.00  0.00    -0.000 C 
BRANCH  18  19
ATOM     19  C   UNL     1      12.052  16.331 161.511  1.00  0.00    -0.000 C 
BRANCH  19  20
ATOM     20  C   UNL     1      12.594  15.356 160.447  1.00  0.00    -0.000 C 
BRANCH  20  21
ATOM     21  C   UNL     1      13.945  14.698 160.787  1.00  0.00    -0.000 C 
BRANCH  21  22
ATOM     22  C   UNL     1      14.444  15.051 162.195  1.00  0.00    -0.000 C 
BRANCH  22  23
ATOM     23  C   UNL     1      14.984  13.805 162.911  1.00  0.00    -0.000 C 
BRANCH  23  24
ATOM     24  C   UNL     1      16.456  13.953 163.331  1.00  0.00    -0.000 C 
BRANCH  24  25
ATOM     25  C   UNL     1      17.422  13.857 162.140  1.00  0.00    -0.003 C 
ATOM     26  C   UNL     1      18.806  14.384 162.511  1.00  0.00     0.004 C 
ENDBRANCH  24  25
ENDBRANCH  23  24
ENDBRANCH  22  23
ENDBRANCH  21  22
ENDBRANCH  20  21
ENDBRANCH  19  20
ENDBRANCH  18  19
ENDBRANCH  17  18
ENDBRANCH  16  17
ENDBRANCH  15  16
ENDBRANCH   1  15
TORSDOF 22
ENDMDL
MODEL 4
REMARK VINA RESULT:    -4.958      1.450      3.599
REMARK INTER + INTRA:         -14.474
REMARK INTER:                 -10.960
REMARK INTRA:                  -3.514
REMARK UNBOUND:                -3.140
REMARK SMILES CCCCCCCCCCCCCCCCCCCCCCCC(=O)[O-]
REMARK SMILES IDX 13 1 14 2 15 3 16 4 17 5 18 6 19 7 20 8 21 9 22 10 23 11
REMARK SMILES IDX 24 12 25 13 26 14 12 15 11 16 10 17 9 18 8 19 7 20 6 21 5 22
REMARK SMILES IDX 4 23 3 24 2 25 1 26
REMARK H PARENT
REMARK Flexibility Score: inf
ROOT
ATOM      1  C   UNL     1      13.877  13.942 163.471  1.00  0.00     0.000 C 
ENDROOT
BRANCH   1   2
ATOM      2  C   UNL     1      12.599  14.018 164.324  1.00  0.00     0.000 C 
BRANCH   2   3
ATOM      3  C   UNL     1      12.180  15.438 164.745  1.00  0.00     0.000 C 
BRANCH   3   4
ATOM      4  C   UNL     1      11.024  15.442 165.760  1.00  0.00     0.000 C 
BRANCH   4   5
ATOM      5  C   UNL     1       9.899  16.426 165.388  1.00  0.00     0.000 C 
BRANCH   5   6
ATOM      6  C   UNL     1      10.278  17.508 164.356  1.00  0.00     0.000 C 
BRANCH   6   7
ATOM      7  C   UNL     1       9.404  18.774 164.388  1.00  0.00     0.000 C 
BRANCH   7   8
ATOM      8  C   UNL     1       8.659  18.950 165.722  1.00  0.00     0.000 C 
BRANCH   8   9
ATOM      9  C   UNL     1       7.132  18.904 165.554  1.00  0.00     0.000 C 
BRANCH   9  10
ATOM     10  C   UNL     1       6.413  18.443 166.834  1.00  0.00     0.006 C 
BRANCH  10  11
ATOM     11  C   UNL     1       7.343  17.662 167.773  1.00  0.00     0.053 C 
BRANCH  11  12
ATOM     12  C   UNL     1       7.082  16.189 167.719  1.00  0.00     0.041 C 
ATOM     13  O   UNL     1       6.065  15.746 167.122  1.00  0.00    -0.550 OA
ATOM     14  O   UNL     1       7.951  15.304 168.347  1.00  0.00    -0.550 OA
ENDBRANCH  11  12
ENDBRANCH  10  11
ENDBRANCH   9  10
ENDBRANCH   8   9
ENDBRANCH   7   8
ENDBRANCH   6   7
ENDBRANCH   5   6
ENDBRANCH   4   5
ENDBRANCH   3   4
ENDBRANCH   2   3
ENDBRANCH   1   2
BRANCH   1  15
ATOM     15  C   UNL     1      14.008  15.109 162.481  1.00  0.00     0.000 C 
BRANCH  15  16
ATOM     16  C   UNL     1      13.845  14.622 161.037  1.00  0.00     0.000 C 
BRANCH  16  17
ATOM     17  C   UNL     1      12.712  15.371 160.325  1.00  0.00     0.000 C 
BRANCH  17  18
ATOM     18  C   UNL     1      11.969  16.293 161.301  1.00  0.00    -0.000 C 
BRANCH  18  19
ATOM     19  C   UNL     1      10.450  16.330 161.054  1.00  0.00    -0.000 C 
BRANCH  19  20
ATOM     20  C   UNL     1       9.790  14.955 160.832  1.00  0.00    -0.000 C 
BRANCH  20  21
ATOM     21  C   UNL     1       9.361  14.218 162.114  1.00  0.00    -0.000 C 
BRANCH  21  22
ATOM     22  C   UNL     1      10.185  12.950 162.380  1.00  0.00    -0.000 C 
BRANCH  22  23
ATOM     23  C   UNL     1      10.776  12.397 161.075  1.00  0.00    -0.000 C 
BRANCH  23  24
ATOM     24  C   UNL     1      10.133  11.068 160.648  1.00  0.00    -0.000 C 
BRANCH  24  25
ATOM     25  C   UNL     1       9.742  10.189 161.847  1.00  0.00    -0.003 C 
ATOM     26  C   UNL     1       8.729   9.123 161.439  1.00  0.00     0.004 C 
ENDBRANCH  24  25
ENDBRANCH  23  24
ENDBRANCH  22  23
ENDBRANCH  21  22
ENDBRANCH  20  21
ENDBRANCH  19  20
ENDBRANCH  18  19
ENDBRANCH  17  18
ENDBRANCH  16  17
ENDBRANCH  15  16
ENDBRANCH   1  15
TORSDOF 22
ENDMDL
MODEL 5
REMARK VINA RESULT:    -4.940      1.175      2.711
REMARK INTER + INTRA:         -14.433
REMARK INTER:                 -10.780
REMARK INTRA:                  -3.653
REMARK UNBOUND:                -3.140
REMARK SMILES CCCCCCCCCCCCCCCCCCCCCCCC(=O)[O-]
REMARK SMILES IDX 13 1 14 2 15 3 16 4 17 5 18 6 19 7 20 8 21 9 22 10 23 11
REMARK SMILES IDX 24 12 25 13 26 14 12 15 11 16 10 17 9 18 8 19 7 20 6 21 5 22
REMARK SMILES IDX 4 23 3 24 2 25 1 26
REMARK H PARENT
REMARK Flexibility Score: inf
ROOT
ATOM      1  C   UNL     1      12.279  18.348 163.240  1.00  0.00     0.000 C 
ENDROOT
BRANCH   1   2
ATOM      2  C   UNL     1      13.165  17.141 163.592  1.00  0.00     0.000 C 
BRANCH   2   3
ATOM      3  C   UNL     1      12.868  16.489 164.954  1.00  0.00     0.000 C 
BRANCH   3   4
ATOM      4  C   UNL     1      11.630  15.577 164.922  1.00  0.00     0.000 C 
BRANCH   4   5
ATOM      5  C   UNL     1      10.462  16.117 165.768  1.00  0.00     0.000 C 
BRANCH   5   6
ATOM      6  C   UNL     1       9.316  16.776 164.973  1.00  0.00     0.000 C 
BRANCH   6   7
ATOM      7  C   UNL     1       9.219  18.305 165.114  1.00  0.00     0.000 C 
BRANCH   7   8
ATOM      8  C   UNL     1       7.894  18.761 165.748  1.00  0.00     0.000 C 
BRANCH   8   9
ATOM      9  C   UNL     1       7.810  18.421 167.245  1.00  0.00     0.000 C 
BRANCH   9  10
ATOM     10  C   UNL     1       6.422  17.895 167.651  1.00  0.00     0.006 C 
BRANCH  10  11
ATOM     11  C   UNL     1       6.334  16.365 167.568  1.00  0.00     0.053 C 
BRANCH  11  12
ATOM     12  C   UNL     1       7.208  15.699 168.585  1.00  0.00     0.041 C 
ATOM     13  O   UNL     1       8.292  15.161 168.235  1.00  0.00    -0.550 OA
ATOM     14  O   UNL     1       6.816  15.653 169.918  1.00  0.00    -0.550 OA
ENDBRANCH  11  12
ENDBRANCH  10  11
ENDBRANCH   9  10
ENDBRANCH   8   9
ENDBRANCH   7   8
ENDBRANCH   6   7
ENDBRANCH   5   6
ENDBRANCH   4   5
ENDBRANCH   3   4
ENDBRANCH   2   3
ENDBRANCH   1   2
BRANCH   1  15
ATOM     15  C   UNL     1      11.296  18.057 162.095  1.00  0.00     0.000 C 
BRANCH  15  16
ATOM     16  C   UNL     1      11.563  16.677 161.483  1.00  0.00     0.000 C 
BRANCH  16  17
ATOM     17  C   UNL     1      10.665  16.429 160.265  1.00  0.00     0.000 C 
BRANCH  17  18
ATOM     18  C   UNL     1       9.915  15.097 160.401  1.00  0.00    -0.000 C 
BRANCH  18  19
ATOM     19  C   UNL     1       9.703  14.674 161.866  1.00  0.00    -0.000 C 
BRANCH  19  20
ATOM     20  C   UNL     1       9.933  13.178 162.155  1.00  0.00    -0.000 C 
BRANCH  20  21
ATOM     21  C   UNL     1      11.261  12.841 162.857  1.00  0.00    -0.000 C 
BRANCH  21  22
ATOM     22  C   UNL     1      12.439  12.712 161.881  1.00  0.00    -0.000 C 
BRANCH  22  23
ATOM     23  C   UNL     1      13.398  13.902 162.021  1.00  0.00    -0.000 C 
BRANCH  23  24
ATOM     24  C   UNL     1      14.503  13.655 163.061  1.00  0.00    -0.000 C 
BRANCH  24  25
ATOM     25  C   UNL     1      15.711  14.586 162.871  1.00  0.00    -0.003 C 
ATOM     26  C   UNL     1      17.003  13.786 162.727  1.00  0.00     0.004 C 
ENDBRANCH  24  25
ENDBRANCH  23  24
ENDBRANCH  22  23
ENDBRANCH  21  22
ENDBRANCH  20  21
ENDBRANCH  19  20
ENDBRANCH  18  19
ENDBRANCH  17  18
ENDBRANCH  16  17
ENDBRANCH  15  16
ENDBRANCH   1  15
TORSDOF 22
ENDMDL
MODEL 6
REMARK VINA RESULT:    -4.827      1.115      2.861
REMARK INTER + INTRA:         -14.175
REMARK INTER:                 -11.395
REMARK INTRA:                  -2.779
REMARK UNBOUND:                -3.140
REMARK SMILES CCCCCCCCCCCCCCCCCCCCCCCC(=O)[O-]
REMARK SMILES IDX 13 1 14 2 15 3 16 4 17 5 18 6 19 7 20 8 21 9 22 10 23 11
REMARK SMILES IDX 24 12 25 13 26 14 12 15 11 16 10 17 9 18 8 19 7 20 6 21 5 22
REMARK SMILES IDX 4 23 3 24 2 25 1 26
REMARK H PARENT
REMARK Flexibility Score: inf
ROOT
ATOM      1  C   UNL     1      11.460  16.485 160.536  1.00  0.00     0.000 C 
ENDROOT
BRANCH   1   2
ATOM      2  C   UNL     1      11.204  17.936 160.090  1.00  0.00     0.000 C 
BRANCH   2   3
ATOM      3  C   UNL     1      11.225  18.979 161.221  1.00  0.00     0.000 C 
BRANCH   3   4
ATOM      4  C   UNL     1      11.585  18.371 162.587  1.00  0.00     0.000 C 
BRANCH   4   5
ATOM      5  C   UNL     1      10.425  18.427 163.598  1.00  0.00     0.000 C 
BRANCH   5   6
ATOM      6  C   UNL     1      10.380  17.275 164.622  1.00  0.00     0.000 C 
BRANCH   6   7
ATOM      7  C   UNL     1       9.002  17.022 165.259  1.00  0.00     0.000 C 
BRANCH   7   8
ATOM      8  C   UNL     1       8.312  18.317 165.720  1.00  0.00     0.000 C 
BRANCH   8   9
ATOM      9  C   UNL     1       7.956  18.294 167.215  1.00  0.00     0.000 C 
BRANCH   9  10
ATOM     10  C   UNL     1       6.520  17.802 167.469  1.00  0.00     0.006 C 
BRANCH  10  11
ATOM     11  C   UNL     1       6.423  16.271 167.471  1.00  0.00     0.053 C 
BRANCH  11  12
ATOM     12  C   UNL     1       7.284  15.657 168.531  1.00  0.00     0.041 C 
ATOM     13  O   UNL     1       6.913  15.671 169.735  1.00  0.00    -0.550 OA
ATOM     14  O   UNL     1       8.507  15.088 168.194  1.00  0.00    -0.550 OA
ENDBRANCH  11  12
ENDBRANCH  10  11
ENDBRANCH   9  10
ENDBRANCH   8   9
ENDBRANCH   7   8
ENDBRANCH   6   7
ENDBRANCH   5   6
ENDBRANCH   4   5
ENDBRANCH   3   4
ENDBRANCH   2   3
ENDBRANCH   1   2
BRANCH   1  15
ATOM     15  C   UNL     1      10.197  15.612 160.487  1.00  0.00     0.000 C 
BRANCH  15  16
ATOM     16  C   UNL     1       9.844  15.081 161.882  1.00  0.00     0.000 C 
BRANCH  16  17
ATOM     17  C   UNL     1       9.507  13.586 161.836  1.00  0.00     0.000 C 
BRANCH  17  18
ATOM     18  C   UNL     1      10.493  12.831 160.933  1.00  0.00    -0.000 C 
BRANCH  18  19
ATOM     19  C   UNL     1      11.495  11.972 161.724  1.00  0.00    -0.000 C 
BRANCH  19  20
ATOM     20  C   UNL     1      12.641  12.755 162.395  1.00  0.00    -0.000 C 
BRANCH  20  21
ATOM     21  C   UNL     1      12.340  13.273 163.813  1.00  0.00    -0.000 C 
BRANCH  21  22
ATOM     22  C   UNL     1      13.053  14.594 164.132  1.00  0.00    -0.000 C 
BRANCH  22  23
ATOM     23  C   UNL     1      13.590  15.249 162.851  1.00  0.00    -0.000 C 
BRANCH  23  24
ATOM     24  C   UNL     1      15.121  15.386 162.852  1.00  0.00    -0.000 C 
BRANCH  24  25
ATOM     25  C   UNL     1      15.835  14.026 162.857  1.00  0.00    -0.003 C 
ATOM     26  C   UNL     1      17.327  14.187 162.575  1.00  0.00     0.004 C 
ENDBRANCH  24  25
ENDBRANCH  23  24
ENDBRANCH  22  23
ENDBRANCH  21  22
ENDBRANCH  20  21
ENDBRANCH  19  20
ENDBRANCH  18  19
ENDBRANCH  17  18
ENDBRANCH  16  17
ENDBRANCH  15  16
ENDBRANCH   1  15
TORSDOF 22
ENDMDL
MODEL 7
REMARK VINA RESULT:    -4.790      1.183      3.204
REMARK INTER + INTRA:         -14.092
REMARK INTER:                 -10.727
REMARK INTRA:                  -3.364
REMARK UNBOUND:                -3.140
REMARK SMILES CCCCCCCCCCCCCCCCCCCCCCCC(=O)[O-]
REMARK SMILES IDX 13 1 14 2 15 3 16 4 17 5 18 6 19 7 20 8 21 9 22 10 23 11
REMARK SMILES IDX 24 12 25 13 26 14 12 15 11 16 10 17 9 18 8 19 7 20 6 21 5 22
REMARK SMILES IDX 4 23 3 24 2 25 1 26
REMARK H PARENT
REMARK Flexibility Score: inf
ROOT
ATOM      1  C   UNL     1      13.735  16.574 163.620  1.00  0.00     0.000 C 
ENDROOT
BRANCH   1   2
ATOM      2  C   UNL     1      12.234  16.619 163.956  1.00  0.00     0.000 C 
BRANCH   2   3
ATOM      3  C   UNL     1      11.821  15.821 165.205  1.00  0.00     0.000 C 
BRANCH   3   4
ATOM      4  C   UNL     1      10.412  16.183 165.706  1.00  0.00     0.000 C 
BRANCH   4   5
ATOM      5  C   UNL     1       9.581  16.953 164.664  1.00  0.00     0.000 C 
BRANCH   5   6
ATOM      6  C   UNL     1       9.372  18.453 164.958  1.00  0.00     0.000 C 
BRANCH   6   7
ATOM      7  C   UNL     1       7.960  18.834 165.435  1.00  0.00     0.000 C 
BRANCH   7   8
ATOM      8  C   UNL     1       7.873  19.005 166.961  1.00  0.00     0.000 C 
BRANCH   8   9
ATOM      9  C   UNL     1       6.669  18.267 167.568  1.00  0.00     0.000 C 
BRANCH   9  10
ATOM     10  C   UNL     1       6.165  17.125 166.668  1.00  0.00     0.006 C 
BRANCH  10  11
ATOM     11  C   UNL     1       6.038  15.799 167.430  1.00  0.00     0.053 C 
BRANCH  11  12
ATOM     12  C   UNL     1       7.139  15.620 168.428  1.00  0.00     0.041 C 
ATOM     13  O   UNL     1       8.320  15.420 168.039  1.00  0.00    -0.550 OA
ATOM     14  O   UNL     1       6.859  15.651 169.789  1.00  0.00    -0.550 OA
ENDBRANCH  11  12
ENDBRANCH  10  11
ENDBRANCH   9  10
ENDBRANCH   8   9
ENDBRANCH   7   8
ENDBRANCH   6   7
ENDBRANCH   5   6
ENDBRANCH   4   5
ENDBRANCH   3   4
ENDBRANCH   2   3
ENDBRANCH   1   2
BRANCH   1  15
ATOM     15  C   UNL     1      14.085  15.494 162.585  1.00  0.00     0.000 C 
BRANCH  15  16
ATOM     16  C   UNL     1      14.617  14.230 163.270  1.00  0.00     0.000 C 
BRANCH  16  17
ATOM     17  C   UNL     1      13.541  13.140 163.333  1.00  0.00     0.000 C 
BRANCH  17  18
ATOM     18  C   UNL     1      13.075  12.751 161.922  1.00  0.00    -0.000 C 
BRANCH  18  19
ATOM     19  C   UNL     1      11.577  12.403 161.859  1.00  0.00    -0.000 C 
BRANCH  19  20
ATOM     20  C   UNL     1      10.667  13.267 162.755  1.00  0.00    -0.000 C 
BRANCH  20  21
ATOM     21  C   UNL     1       9.555  14.033 162.015  1.00  0.00    -0.000 C 
BRANCH  21  22
ATOM     22  C   UNL     1       9.987  15.438 161.575  1.00  0.00    -0.000 C 
BRANCH  22  23
ATOM     23  C   UNL     1      10.889  15.370 160.334  1.00  0.00    -0.000 C 
BRANCH  23  24
ATOM     24  C   UNL     1      11.784  16.610 160.182  1.00  0.00    -0.000 C 
BRANCH  24  25
ATOM     25  C   UNL     1      10.974  17.910 160.052  1.00  0.00    -0.003 C 
ATOM     26  C   UNL     1      11.213  18.827 161.249  1.00  0.00     0.004 C 
ENDBRANCH  24  25
ENDBRANCH  23  24
ENDBRANCH  22  23
ENDBRANCH  21  22
ENDBRANCH  20  21
ENDBRANCH  19  20
ENDBRANCH  18  19
ENDBRANCH  17  18
ENDBRANCH  16  17
ENDBRANCH  15  16
ENDBRANCH   1  15
TORSDOF 22
ENDMDL
MODEL 8
REMARK VINA RESULT:    -4.759      2.726      7.633
REMARK INTER + INTRA:         -14.021
REMARK INTER:                 -11.055
REMARK INTRA:                  -2.966
REMARK UNBOUND:                -3.140
REMARK SMILES CCCCCCCCCCCCCCCCCCCCCCCC(=O)[O-]
REMARK SMILES IDX 13 1 14 2 15 3 16 4 17 5 18 6 19 7 20 8 21 9 22 10 23 11
REMARK SMILES IDX 24 12 25 13 26 14 12 15 11 16 10 17 9 18 8 19 7 20 6 21 5 22
REMARK SMILES IDX 4 23 3 24 2 25 1 26
REMARK H PARENT
REMARK Flexibility Score: inf
ROOT
ATOM      1  C   UNL     1      11.364  13.615 164.964  1.00  0.00     0.000 C 
ENDROOT
BRANCH   1   2
ATOM      2  C   UNL     1      11.736  12.854 163.678  1.00  0.00     0.000 C 
BRANCH   2   3
ATOM      3  C   UNL     1      10.542  12.343 162.854  1.00  0.00     0.000 C 
BRANCH   3   4
ATOM      4  C   UNL     1      10.338  13.130 161.548  1.00  0.00     0.000 C 
BRANCH   4   5
ATOM      5  C   UNL     1       9.492  14.402 161.736  1.00  0.00     0.000 C 
BRANCH   5   6
ATOM      6  C   UNL     1       9.901  15.607 160.863  1.00  0.00     0.000 C 
BRANCH   6   7
ATOM      7  C   UNL     1      11.348  16.092 161.058  1.00  0.00     0.000 C 
BRANCH   7   8
ATOM      8  C   UNL     1      12.252  15.768 159.857  1.00  0.00     0.000 C 
BRANCH   8   9
ATOM      9  C   UNL     1      13.506  14.976 160.261  1.00  0.00     0.000 C 
BRANCH   9  10
ATOM     10  C   UNL     1      13.538  14.653 161.765  1.00  0.00     0.006 C 
BRANCH  10  11
ATOM     11  C   UNL     1      14.707  15.341 162.482  1.00  0.00     0.053 C 
BRANCH  11  12
ATOM     12  C   UNL     1      15.693  14.351 163.021  1.00  0.00     0.041 C 
ATOM     13  O   UNL     1      15.366  13.580 163.962  1.00  0.00    -0.550 OA
ATOM     14  O   UNL     1      16.980  14.293 162.498  1.00  0.00    -0.550 OA
ENDBRANCH  11  12
ENDBRANCH  10  11
ENDBRANCH   9  10
ENDBRANCH   8   9
ENDBRANCH   7   8
ENDBRANCH   6   7
ENDBRANCH   5   6
ENDBRANCH   4   5
ENDBRANCH   3   4
ENDBRANCH   2   3
ENDBRANCH   1   2
BRANCH   1  15
ATOM     15  C   UNL     1      11.817  15.082 164.945  1.00  0.00     0.000 C 
BRANCH  15  16
ATOM     16  C   UNL     1      10.808  15.977 165.674  1.00  0.00     0.000 C 
BRANCH  16  17
ATOM     17  C   UNL     1       9.754  16.527 164.705  1.00  0.00     0.000 C 
BRANCH  17  18
ATOM     18  C   UNL     1      10.199  17.876 164.124  1.00  0.00    -0.000 C 
BRANCH  18  19
ATOM     19  C   UNL     1       9.368  19.060 164.650  1.00  0.00    -0.000 C 
BRANCH  19  20
ATOM     20  C   UNL     1       8.023  18.678 165.298  1.00  0.00    -0.000 C 
BRANCH  20  21
ATOM     21  C   UNL     1       7.962  18.840 166.828  1.00  0.00    -0.000 C 
BRANCH  21  22
ATOM     22  C   UNL     1       6.565  18.568 167.404  1.00  0.00    -0.000 C 
BRANCH  22  23
ATOM     23  C   UNL     1       6.326  17.060 167.568  1.00  0.00    -0.000 C 
BRANCH  23  24
ATOM     24  C   UNL     1       7.632  16.251 167.602  1.00  0.00    -0.000 C 
BRANCH  24  25
ATOM     25  C   UNL     1       7.698  15.287 168.797  1.00  0.00    -0.003 C 
ATOM     26  C   UNL     1       6.659  15.651 169.855  1.00  0.00     0.004 C 
ENDBRANCH  24  25
ENDBRANCH  23  24
ENDBRANCH  22  23
ENDBRANCH  21  22
ENDBRANCH  20  21
ENDBRANCH  19  20
ENDBRANCH  18  19
ENDBRANCH  17  18
ENDBRANCH  16  17
ENDBRANCH  15  16
ENDBRANCH   1  15
TORSDOF 22
ENDMDL
MODEL 9
REMARK VINA RESULT:    -4.598      1.565      3.486
REMARK INTER + INTRA:         -13.652
REMARK INTER:                 -10.534
REMARK INTRA:                  -3.118
REMARK UNBOUND:                -3.140
REMARK SMILES CCCCCCCCCCCCCCCCCCCCCCCC(=O)[O-]
REMARK SMILES IDX 13 1 14 2 15 3 16 4 17 5 18 6 19 7 20 8 21 9 22 10 23 11
REMARK SMILES IDX 24 12 25 13 26 14 12 15 11 16 10 17 9 18 8 19 7 20 6 21 5 22
REMARK SMILES IDX 4 23 3 24 2 25 1 26
REMARK H PARENT
REMARK Flexibility Score: inf
ROOT
ATOM      1  C   UNL     1      10.833  12.651 162.694  1.00  0.00     0.000 C 
ENDROOT
BRANCH   1   2
ATOM      2  C   UNL     1      11.287  13.172 164.069  1.00  0.00     0.000 C 
BRANCH   2   3
ATOM      3  C   UNL     1      10.896  14.628 164.376  1.00  0.00     0.000 C 
BRANCH   3   4
ATOM      4  C   UNL     1      11.100  15.003 165.854  1.00  0.00     0.000 C 
BRANCH   4   5
ATOM      5  C   UNL     1      10.201  16.166 166.311  1.00  0.00     0.000 C 
BRANCH   5   6
ATOM      6  C   UNL     1       9.225  16.710 165.246  1.00  0.00     0.000 C 
BRANCH   6   7
ATOM      7  C   UNL     1       9.214  18.241 165.093  1.00  0.00     0.000 C 
BRANCH   7   8
ATOM      8  C   UNL     1       7.912  18.881 165.604  1.00  0.00     0.000 C 
BRANCH   8   9
ATOM      9  C   UNL     1       7.867  18.977 167.138  1.00  0.00     0.000 C 
BRANCH   9  10
ATOM     10  C   UNL     1       6.657  18.239 167.737  1.00  0.00     0.006 C 
BRANCH  10  11
ATOM     11  C   UNL     1       5.843  17.495 166.670  1.00  0.00     0.053 C 
BRANCH  11  12
ATOM     12  C   UNL     1       5.903  16.010 166.856  1.00  0.00     0.041 C 
ATOM     13  O   UNL     1       5.120  15.259 166.217  1.00  0.00    -0.550 OA
ATOM     14  O   UNL     1       6.809  15.456 167.753  1.00  0.00    -0.550 OA
ENDBRANCH  11  12
ENDBRANCH  10  11
ENDBRANCH   9  10
ENDBRANCH   8   9
ENDBRANCH   7   8
ENDBRANCH   6   7
ENDBRANCH   5   6
ENDBRANCH   4   5
ENDBRANCH   3   4
ENDBRANCH   2   3
ENDBRANCH   1   2
BRANCH   1  15
ATOM     15  C   UNL     1      12.006  12.383 161.738  1.00  0.00     0.000 C 
BRANCH  15  16
ATOM     16  C   UNL     1      13.007  13.544 161.762  1.00  0.00     0.000 C 
BRANCH  16  17
ATOM     17  C   UNL     1      14.216  13.214 162.645  1.00  0.00     0.000 C 
BRANCH  17  18
ATOM     18  C   UNL     1      14.683  14.456 163.417  1.00  0.00    -0.000 C 
BRANCH  18  19
ATOM     19  C   UNL     1      14.177  15.772 162.800  1.00  0.00    -0.000 C 
BRANCH  19  20
ATOM     20  C   UNL     1      13.543  16.761 163.799  1.00  0.00    -0.000 C 
BRANCH  20  21
ATOM     21  C   UNL     1      12.901  18.010 163.168  1.00  0.00    -0.000 C 
BRANCH  21  22
ATOM     22  C   UNL     1      11.497  17.742 162.606  1.00  0.00    -0.000 C 
BRANCH  22  23
ATOM     23  C   UNL     1      11.227  18.613 161.371  1.00  0.00    -0.000 C 
BRANCH  23  24
ATOM     24  C   UNL     1      11.177  17.797 160.069  1.00  0.00    -0.000 C 
BRANCH  24  25
ATOM     25  C   UNL     1      11.383  16.293 160.307  1.00  0.00    -0.003 C 
ATOM     26  C   UNL     1      10.050  15.586 160.544  1.00  0.00     0.004 C 
ENDBRANCH  24  25
ENDBRANCH  23  24
ENDBRANCH  22  23
ENDBRANCH  21  22
ENDBRANCH  20  21
ENDBRANCH  19  20
ENDBRANCH  18  19
ENDBRANCH  17  18
ENDBRANCH  16  17
ENDBRANCH  15  16
ENDBRANCH   1  15
TORSDOF 22
ENDMDL
