MODEL 1
REMARK VINA RESULT:    16.028      0.000      0.000
REMARK INTER + INTRA:          19.645
REMARK INTER:                  19.307
REMARK INTRA:                   0.337
REMARK UNBOUND:                 0.337
REMARK SMILES O=c1c(O)c(-c2ccc(O)c(O)c2)oc2cc(O)cc(O)c12
REMARK SMILES IDX 5 1 3 2 2 3 1 4 22 5 20 6 19 7 17 8 16 9 15 10 14 11 6 12
REMARK SMILES IDX 7 13 8 14 9 15 13 16 11 17 10 18 12 20 4 22 21 24 18 26
REMARK H PARENT 10 19 12 21 4 23 21 25 18 27
REMARK Flexibility Score: inf
ROOT
ATOM      1  C   UNL     1      29.731  14.872   4.347  1.00  0.00     0.180 A 
ATOM      2  C   UNL     1      29.405  14.062   5.448  1.00  0.00     0.208 A 
ATOM      3  C   UNL     1      30.401  13.758   6.390  1.00  0.00     0.238 A 
ATOM      4  O   UNL     1      30.089  13.079   7.402  1.00  0.00    -0.285 OA
ATOM      5  C   UNL     1      31.715  14.255   6.211  1.00  0.00     0.111 A 
ATOM      6  C   UNL     1      32.812  13.976   7.080  1.00  0.00     0.134 A 
ATOM      7  C   UNL     1      34.036  14.626   6.877  1.00  0.00     0.093 A 
ATOM      8  C   UNL     1      34.221  15.494   5.797  1.00  0.00     0.123 A 
ATOM      9  C   UNL     1      33.173  15.725   4.909  1.00  0.00     0.094 A 
ATOM     10  C   UNL     1      31.930  15.119   5.105  1.00  0.00     0.146 A 
ATOM     11  O   UNL     1      30.956  15.375   4.241  1.00  0.00    -0.452 OA
ENDROOT
BRANCH   1  12
ATOM     12  C   UNL     1      28.742  15.215   3.300  1.00  0.00     0.025 A 
ATOM     13  C   UNL     1      29.182  15.486   1.996  1.00  0.00     0.016 A 
ATOM     14  C   UNL     1      28.264  15.792   0.988  1.00  0.00     0.051 A 
ATOM     15  C   UNL     1      26.894  15.815   1.263  1.00  0.00     0.157 A 
ATOM     16  C   UNL     1      27.362  15.218   3.571  1.00  0.00     0.062 A 
ATOM     17  C   UNL     1      26.439  15.523   2.560  1.00  0.00     0.158 A 
BRANCH  15  18
ATOM     18  O   UNL     1      26.001  16.125   0.238  1.00  0.00    -0.504 OA
ATOM     19  H   UNL     1      26.067  16.985  -0.293  1.00  0.00     0.293 HD
ENDBRANCH  15  18
BRANCH  17  20
ATOM     20  O   UNL     1      25.073  15.531   2.838  1.00  0.00    -0.504 OA
ATOM     21  H   UNL     1      24.628  14.772   3.342  1.00  0.00     0.293 HD
ENDBRANCH  17  20
ENDBRANCH   1  12
BRANCH   2  22
ATOM     22  O   UNL     1      28.096  13.601   5.618  1.00  0.00    -0.502 OA
ATOM     23  H   UNL     1      27.303  14.227   5.681  1.00  0.00     0.293 HD
ENDBRANCH   2  22
BRANCH   6  24
ATOM     24  O   UNL     1      32.760  13.058   8.132  1.00  0.00    -0.507 OA
ATOM     25  H   UNL     1      32.289  13.215   9.010  1.00  0.00     0.293 HD
ENDBRANCH   6  24
BRANCH   8  26
ATOM     26  O   UNL     1      35.446  16.124   5.593  1.00  0.00    -0.508 OA
ATOM     27  H   UNL     1      36.168  16.121   6.305  1.00  0.00     0.293 HD
ENDBRANCH   8  26
TORSDOF 6
ENDMDL
MODEL 2
REMARK VINA RESULT:    18.908      1.513      7.568
REMARK INTER + INTRA:          23.114
REMARK INTER:                  22.862
REMARK INTRA:                   0.253
REMARK UNBOUND:                 0.337
REMARK SMILES O=c1c(O)c(-c2ccc(O)c(O)c2)oc2cc(O)cc(O)c12
REMARK SMILES IDX 5 1 3 2 2 3 1 4 22 5 20 6 19 7 17 8 16 9 15 10 14 11 6 12
REMARK SMILES IDX 7 13 8 14 9 15 13 16 11 17 10 18 12 20 4 22 21 24 18 26
REMARK H PARENT 10 19 12 21 4 23 21 25 18 27
REMARK Flexibility Score: inf
ROOT
ATOM      1  C   UNL     1      28.720  15.213   3.771  1.00  0.00     0.180 A 
ATOM      2  C   UNL     1      28.984  15.478   2.416  1.00  0.00     0.208 A 
ATOM      3  C   UNL     1      27.912  15.767   1.557  1.00  0.00     0.238 A 
ATOM      4  O   UNL     1      28.160  16.058   0.358  1.00  0.00    -0.285 OA
ATOM      5  C   UNL     1      26.588  15.774   2.059  1.00  0.00     0.111 A 
ATOM      6  C   UNL     1      25.424  16.015   1.270  1.00  0.00     0.134 A 
ATOM      7  C   UNL     1      24.175  16.125   1.896  1.00  0.00     0.093 A 
ATOM      8  C   UNL     1      24.043  15.938   3.275  1.00  0.00     0.123 A 
ATOM      9  C   UNL     1      25.166  15.644   4.045  1.00  0.00     0.094 A 
ATOM     10  C   UNL     1      26.429  15.562   3.454  1.00  0.00     0.146 A 
ATOM     11  O   UNL     1      27.474  15.290   4.225  1.00  0.00    -0.452 OA
ENDROOT
BRANCH   1  12
ATOM     12  C   UNL     1      29.794  14.875   4.732  1.00  0.00     0.025 A 
ATOM     13  C   UNL     1      29.540  13.948   5.755  1.00  0.00     0.016 A 
ATOM     14  C   UNL     1      30.545  13.599   6.660  1.00  0.00     0.051 A 
ATOM     15  C   UNL     1      31.822  14.158   6.548  1.00  0.00     0.157 A 
ATOM     16  C   UNL     1      31.084  15.420   4.608  1.00  0.00     0.062 A 
ATOM     17  C   UNL     1      32.096  15.069   5.515  1.00  0.00     0.158 A 
BRANCH  15  18
ATOM     18  O   UNL     1      32.805  13.792   7.467  1.00  0.00    -0.504 OA
ATOM     19  H   UNL     1      33.664  13.336   7.183  1.00  0.00     0.293 HD
ENDBRANCH  15  18
BRANCH  17  20
ATOM     20  O   UNL     1      33.370  15.619   5.389  1.00  0.00    -0.504 OA
ATOM     21  H   UNL     1      34.044  15.578   6.145  1.00  0.00     0.293 HD
ENDBRANCH  17  20
ENDBRANCH   1  12
BRANCH   2  22
ATOM     22  O   UNL     1      30.300  15.489   1.946  1.00  0.00    -0.502 OA
ATOM     23  H   UNL     1      31.030  16.039   2.384  1.00  0.00     0.293 HD
ENDBRANCH   2  22
BRANCH   6  24
ATOM     24  O   UNL     1      25.434  16.125  -0.123  1.00  0.00    -0.507 OA
ATOM     25  H   UNL     1      24.719  15.759  -0.734  1.00  0.00     0.293 HD
ENDBRANCH   6  24
BRANCH   8  26
ATOM     26  O   UNL     1      22.796  16.034   3.889  1.00  0.00    -0.508 OA
ATOM     27  H   UNL     1      22.588  16.771   4.553  1.00  0.00     0.293 HD
ENDBRANCH   8  26
TORSDOF 6
ENDMDL
