MODEL 1
REMARK VINA RESULT:    -3.302      0.000      0.000
REMARK INTER + INTRA:          -7.154
REMARK INTER:                  -6.391
REMARK INTRA:                  -0.763
REMARK UNBOUND:                -0.763
REMARK SMILES CCCCCCCCCCCCCCCCCC(=O)[O-]
REMARK SMILES IDX 10 1 11 2 12 3 13 4 14 5 15 6 16 7 17 8 18 9 19 10 20 11
REMARK SMILES IDX 9 12 8 13 7 14 6 15 5 16 4 17 3 18 2 19 1 20
REMARK H PARENT
REMARK Flexibility Score: inf
ROOT
ATOM      1  C   UNL     1      -9.356  15.848 -12.703  1.00  0.00     0.000 C 
ENDROOT
BRANCH   1   2
ATOM      2  C   UNL     1      -9.422  17.152 -13.524  1.00  0.00     0.000 C 
BRANCH   2   3
ATOM      3  C   UNL     1      -8.373  17.282 -14.650  1.00  0.00     0.000 C 
BRANCH   3   4
ATOM      4  C   UNL     1      -6.933  16.915 -14.254  1.00  0.00     0.000 C 
BRANCH   4   5
ATOM      5  C   UNL     1      -5.876  17.643 -15.098  1.00  0.00     0.000 C 
BRANCH   5   6
ATOM      6  C   UNL     1      -6.535  18.576 -16.120  1.00  0.00     0.000 C 
BRANCH   6   7
ATOM      7  C   UNL     1      -6.091  20.030 -15.903  1.00  0.00     0.006 C 
BRANCH   7   8
ATOM      8  C   UNL     1      -5.893  20.361 -14.418  1.00  0.00     0.053 C 
BRANCH   8   9
ATOM      9  C   UNL     1      -7.200  20.567 -13.716  1.00  0.00     0.041 C 
ATOM     10  O   UNL     1      -7.267  20.467 -12.462  1.00  0.00    -0.550 OA
ATOM     11  O   UNL     1      -8.338  20.894 -14.442  1.00  0.00    -0.550 OA
ENDBRANCH   8   9
ENDBRANCH   7   8
ENDBRANCH   6   7
ENDBRANCH   5   6
ENDBRANCH   4   5
ENDBRANCH   3   4
ENDBRANCH   2   3
ENDBRANCH   1   2
BRANCH   1  12
ATOM     12  C   UNL     1      -7.949  15.487 -12.176  1.00  0.00     0.000 C 
BRANCH  12  13
ATOM     13  C   UNL     1      -7.766  13.989 -11.865  1.00  0.00    -0.000 C 
BRANCH  13  14
ATOM     14  C   UNL     1      -7.468  13.101 -13.088  1.00  0.00    -0.000 C 
BRANCH  14  15
ATOM     15  C   UNL     1      -6.411  13.661 -14.057  1.00  0.00    -0.000 C 
BRANCH  15  16
ATOM     16  C   UNL     1      -6.711  13.333 -15.526  1.00  0.00    -0.000 C 
BRANCH  16  17
ATOM     17  C   UNL     1      -7.700  14.346 -16.125  1.00  0.00    -0.000 C 
BRANCH  17  18
ATOM     18  C   UNL     1      -9.160  13.852 -16.048  1.00  0.00    -0.000 C 
BRANCH  18  19
ATOM     19  C   UNL     1      -9.287  12.351 -15.736  1.00  0.00    -0.003 C 
ATOM     20  C   UNL     1     -10.652  11.776 -16.108  1.00  0.00     0.004 C 
ENDBRANCH  18  19
ENDBRANCH  17  18
ENDBRANCH  16  17
ENDBRANCH  15  16
ENDBRANCH  14  15
ENDBRANCH  13  14
ENDBRANCH  12  13
ENDBRANCH   1  12
TORSDOF 16
ENDMDL
MODEL 2
REMARK VINA RESULT:    -3.169      2.676      6.345
REMARK INTER + INTRA:          -6.896
REMARK INTER:                  -6.457
REMARK INTRA:                  -0.439
REMARK UNBOUND:                -0.763
REMARK SMILES CCCCCCCCCCCCCCCCCC(=O)[O-]
REMARK SMILES IDX 10 1 11 2 12 3 13 4 14 5 15 6 16 7 17 8 18 9 19 10 20 11
REMARK SMILES IDX 9 12 8 13 7 14 6 15 5 16 4 17 3 18 2 19 1 20
REMARK H PARENT
REMARK Flexibility Score: inf
ROOT
ATOM      1  C   UNL     1      -9.503  16.041 -12.486  1.00  0.00     0.000 C 
ENDROOT
BRANCH   1   2
ATOM      2  C   UNL     1      -8.214  15.398 -11.936  1.00  0.00     0.000 C 
BRANCH   2   3
ATOM      3  C   UNL     1      -7.902  13.979 -12.460  1.00  0.00     0.000 C 
BRANCH   3   4
ATOM      4  C   UNL     1      -6.794  13.899 -13.524  1.00  0.00     0.000 C 
BRANCH   4   5
ATOM      5  C   UNL     1      -6.263  12.472 -13.728  1.00  0.00     0.000 C 
BRANCH   5   6
ATOM      6  C   UNL     1      -5.929  12.214 -15.202  1.00  0.00     0.000 C 
BRANCH   6   7
ATOM      7  C   UNL     1      -7.025  12.776 -16.119  1.00  0.00     0.006 C 
BRANCH   7   8
ATOM      8  C   UNL     1      -8.343  12.001 -15.991  1.00  0.00     0.053 C 
BRANCH   8   9
ATOM      9  C   UNL     1      -9.504  12.916 -15.749  1.00  0.00     0.041 C 
ATOM     10  O   UNL     1      -9.319  14.051 -15.236  1.00  0.00    -0.550 OA
ATOM     11  O   UNL     1     -10.787  12.526 -16.113  1.00  0.00    -0.550 OA
ENDBRANCH   8   9
ENDBRANCH   7   8
ENDBRANCH   6   7
ENDBRANCH   5   6
ENDBRANCH   4   5
ENDBRANCH   3   4
ENDBRANCH   2   3
ENDBRANCH   1   2
BRANCH   1  12
ATOM     12  C   UNL     1      -9.360  17.524 -12.898  1.00  0.00     0.000 C 
BRANCH  12  13
ATOM     13  C   UNL     1      -8.142  17.805 -13.801  1.00  0.00    -0.000 C 
BRANCH  13  14
ATOM     14  C   UNL     1      -8.115  17.013 -15.122  1.00  0.00    -0.000 C 
BRANCH  14  15
ATOM     15  C   UNL     1      -6.940  17.350 -16.059  1.00  0.00    -0.000 C 
BRANCH  15  16
ATOM     16  C   UNL     1      -6.247  18.672 -15.697  1.00  0.00    -0.000 C 
BRANCH  16  17
ATOM     17  C   UNL     1      -7.101  19.875 -16.124  1.00  0.00    -0.000 C 
BRANCH  17  18
ATOM     18  C   UNL     1      -7.023  21.036 -15.110  1.00  0.00    -0.000 C 
BRANCH  18  19
ATOM     19  C   UNL     1      -7.631  20.698 -13.739  1.00  0.00    -0.003 C 
ATOM     20  C   UNL     1      -6.718  21.068 -12.572  1.00  0.00     0.004 C 
ENDBRANCH  18  19
ENDBRANCH  17  18
ENDBRANCH  16  17
ENDBRANCH  15  16
ENDBRANCH  14  15
ENDBRANCH  13  14
ENDBRANCH  12  13
ENDBRANCH   1  12
TORSDOF 16
ENDMDL
MODEL 3
REMARK VINA RESULT:    -2.603      2.912      6.388
REMARK INTER + INTRA:          -5.801
REMARK INTER:                  -5.041
REMARK INTRA:                  -0.760
REMARK UNBOUND:                -0.763
REMARK SMILES CCCCCCCCCCCCCCCCCC(=O)[O-]
REMARK SMILES IDX 10 1 11 2 12 3 13 4 14 5 15 6 16 7 17 8 18 9 19 10 20 11
REMARK SMILES IDX 9 12 8 13 7 14 6 15 5 16 4 17 3 18 2 19 1 20
REMARK H PARENT
REMARK Flexibility Score: inf
ROOT
ATOM      1  C   UNL     1      -9.557  16.299 -13.201  1.00  0.00     0.000 C 
ENDROOT
BRANCH   1   2
ATOM      2  C   UNL     1      -9.071  15.494 -11.979  1.00  0.00     0.000 C 
BRANCH   2   3
ATOM      3  C   UNL     1      -7.709  14.786 -12.147  1.00  0.00     0.000 C 
BRANCH   3   4
ATOM      4  C   UNL     1      -7.734  13.500 -12.990  1.00  0.00     0.000 C 
BRANCH   4   5
ATOM      5  C   UNL     1      -6.440  13.283 -13.789  1.00  0.00     0.000 C 
BRANCH   5   6
ATOM      6  C   UNL     1      -6.453  14.095 -15.089  1.00  0.00     0.000 C 
BRANCH   6   7
ATOM      7  C   UNL     1      -7.491  13.538 -16.074  1.00  0.00     0.006 C 
BRANCH   7   8
ATOM      8  C   UNL     1      -8.347  12.428 -15.449  1.00  0.00     0.053 C 
BRANCH   8   9
ATOM      9  C   UNL     1      -9.791  12.560 -15.826  1.00  0.00     0.041 C 
ATOM     10  O   UNL     1     -10.266  13.688 -16.125  1.00  0.00    -0.550 OA
ATOM     11  O   UNL     1     -10.605  11.436 -15.874  1.00  0.00    -0.550 OA
ENDBRANCH   8   9
ENDBRANCH   7   8
ENDBRANCH   6   7
ENDBRANCH   5   6
ENDBRANCH   4   5
ENDBRANCH   3   4
ENDBRANCH   2   3
ENDBRANCH   1   2
BRANCH   1  12
ATOM     12  C   UNL     1      -8.675  17.515 -13.566  1.00  0.00     0.000 C 
BRANCH  12  13
ATOM     13  C   UNL     1      -8.967  18.771 -12.721  1.00  0.00    -0.000 C 
BRANCH  13  14
ATOM     14  C   UNL     1      -8.421  20.089 -13.303  1.00  0.00    -0.000 C 
BRANCH  14  15
ATOM     15  C   UNL     1      -7.037  20.509 -12.776  1.00  0.00    -0.000 C 
BRANCH  15  16
ATOM     16  C   UNL     1      -6.126  21.076 -13.875  1.00  0.00    -0.000 C 
BRANCH  16  17
ATOM     17  C   UNL     1      -6.727  20.834 -15.267  1.00  0.00    -0.000 C 
BRANCH  17  18
ATOM     18  C   UNL     1      -5.876  19.860 -16.110  1.00  0.00    -0.000 C 
BRANCH  18  19
ATOM     19  C   UNL     1      -6.416  18.420 -16.117  1.00  0.00    -0.003 C 
ATOM     20  C   UNL     1      -5.900  17.582 -14.949  1.00  0.00     0.004 C 
ENDBRANCH  18  19
ENDBRANCH  17  18
ENDBRANCH  16  17
ENDBRANCH  15  16
ENDBRANCH  14  15
ENDBRANCH  13  14
ENDBRANCH  12  13
ENDBRANCH   1  12
TORSDOF 16
ENDMDL
MODEL 4
REMARK VINA RESULT:    -2.497      3.050      6.574
REMARK INTER + INTRA:          -5.595
REMARK INTER:                  -4.642
REMARK INTRA:                  -0.953
REMARK UNBOUND:                -0.763
REMARK SMILES CCCCCCCCCCCCCCCCCC(=O)[O-]
REMARK SMILES IDX 10 1 11 2 12 3 13 4 14 5 15 6 16 7 17 8 18 9 19 10 20 11
REMARK SMILES IDX 9 12 8 13 7 14 6 15 5 16 4 17 3 18 2 19 1 20
REMARK H PARENT
REMARK Flexibility Score: inf
ROOT
ATOM      1  C   UNL     1      -8.710  16.014 -13.451  1.00  0.00     0.000 C 
ENDROOT
BRANCH   1   2
ATOM      2  C   UNL     1      -8.426  15.349 -12.089  1.00  0.00     0.000 C 
BRANCH   2   3
ATOM      3  C   UNL     1      -7.401  14.194 -12.113  1.00  0.00     0.000 C 
BRANCH   3   4
ATOM      4  C   UNL     1      -7.756  13.018 -13.039  1.00  0.00     0.000 C 
BRANCH   4   5
ATOM      5  C   UNL     1      -6.519  12.354 -13.664  1.00  0.00     0.000 C 
BRANCH   5   6
ATOM      6  C   UNL     1      -6.113  13.061 -14.962  1.00  0.00     0.000 C 
BRANCH   6   7
ATOM      7  C   UNL     1      -7.023  12.638 -16.125  1.00  0.00     0.006 C 
BRANCH   7   8
ATOM      8  C   UNL     1      -8.356  13.397 -16.125  1.00  0.00     0.053 C 
BRANCH   8   9
ATOM      9  C   UNL     1      -9.519  12.479 -15.902  1.00  0.00     0.041 C 
ATOM     10  O   UNL     1     -10.630  12.943 -15.535  1.00  0.00    -0.550 OA
ATOM     11  O   UNL     1      -9.383  11.114 -16.125  1.00  0.00    -0.550 OA
ENDBRANCH   8   9
ENDBRANCH   7   8
ENDBRANCH   6   7
ENDBRANCH   5   6
ENDBRANCH   4   5
ENDBRANCH   3   4
ENDBRANCH   2   3
ENDBRANCH   1   2
BRANCH   1  12
ATOM     12  C   UNL     1      -7.570  16.914 -13.980  1.00  0.00     0.000 C 
BRANCH  12  13
ATOM     13  C   UNL     1      -6.760  16.283 -15.130  1.00  0.00    -0.000 C 
BRANCH  13  14
ATOM     14  C   UNL     1      -5.940  17.279 -15.972  1.00  0.00    -0.000 C 
BRANCH  14  15
ATOM     15  C   UNL     1      -5.978  18.736 -15.477  1.00  0.00    -0.000 C 
BRANCH  15  16
ATOM     16  C   UNL     1      -7.105  19.557 -16.120  1.00  0.00    -0.000 C 
BRANCH  16  17
ATOM     17  C   UNL     1      -7.275  20.909 -15.410  1.00  0.00    -0.000 C 
BRANCH  17  18
ATOM     18  C   UNL     1      -6.316  21.062 -14.209  1.00  0.00    -0.000 C 
BRANCH  18  19
ATOM     19  C   UNL     1      -7.014  20.939 -12.844  1.00  0.00    -0.003 C 
ATOM     20  C   UNL     1      -8.107  19.872 -12.826  1.00  0.00     0.004 C 
ENDBRANCH  18  19
ENDBRANCH  17  18
ENDBRANCH  16  17
ENDBRANCH  15  16
ENDBRANCH  14  15
ENDBRANCH  13  14
ENDBRANCH  12  13
ENDBRANCH   1  12
TORSDOF 16
ENDMDL
MODEL 5
REMARK VINA RESULT:    -1.969      1.536      2.404
REMARK INTER + INTRA:          -4.573
REMARK INTER:                  -5.191
REMARK INTRA:                   0.618
REMARK UNBOUND:                -0.763
REMARK SMILES CCCCCCCCCCCCCCCCCC(=O)[O-]
REMARK SMILES IDX 10 1 11 2 12 3 13 4 14 5 15 6 16 7 17 8 18 9 19 10 20 11
REMARK SMILES IDX 9 12 8 13 7 14 6 15 5 16 4 17 3 18 2 19 1 20
REMARK H PARENT
REMARK Flexibility Score: inf
ROOT
ATOM      1  C   UNL     1      -9.425  16.221 -12.542  1.00  0.00     0.000 C 
ENDROOT
BRANCH   1   2
ATOM      2  C   UNL     1      -9.495  17.755 -12.396  1.00  0.00     0.000 C 
BRANCH   2   3
ATOM      3  C   UNL     1      -8.380  18.544 -13.118  1.00  0.00     0.000 C 
BRANCH   3   4
ATOM      4  C   UNL     1      -8.353  20.055 -12.832  1.00  0.00     0.000 C 
BRANCH   4   5
ATOM      5  C   UNL     1      -6.941  20.581 -12.533  1.00  0.00     0.000 C 
BRANCH   5   6
ATOM      6  C   UNL     1      -5.951  20.153 -13.623  1.00  0.00     0.000 C 
BRANCH   6   7
ATOM      7  C   UNL     1      -6.154  20.977 -14.902  1.00  0.00     0.006 C 
BRANCH   7   8
ATOM      8  C   UNL     1      -6.584  20.107 -16.091  1.00  0.00     0.053 C 
BRANCH   8   9
ATOM      9  C   UNL     1      -8.058  19.837 -16.078  1.00  0.00     0.041 C 
ATOM     10  O   UNL     1      -8.484  18.654 -16.123  1.00  0.00    -0.550 OA
ATOM     11  O   UNL     1      -8.959  20.891 -15.990  1.00  0.00    -0.550 OA
ENDBRANCH   8   9
ENDBRANCH   7   8
ENDBRANCH   6   7
ENDBRANCH   5   6
ENDBRANCH   4   5
ENDBRANCH   3   4
ENDBRANCH   2   3
ENDBRANCH   1   2
BRANCH   1  12
ATOM     12  C   UNL     1      -8.006  15.660 -12.787  1.00  0.00     0.000 C 
BRANCH  12  13
ATOM     13  C   UNL     1      -7.251  16.355 -13.937  1.00  0.00    -0.000 C 
BRANCH  13  14
ATOM     14  C   UNL     1      -6.065  15.558 -14.513  1.00  0.00    -0.000 C 
BRANCH  14  15
ATOM     15  C   UNL     1      -6.244  15.084 -15.968  1.00  0.00    -0.000 C 
BRANCH  15  16
ATOM     16  C   UNL     1      -7.367  14.049 -16.125  1.00  0.00    -0.000 C 
BRANCH  16  17
ATOM     17  C   UNL     1      -7.282  12.975 -15.029  1.00  0.00    -0.000 C 
BRANCH  17  18
ATOM     18  C   UNL     1      -8.575  12.894 -14.189  1.00  0.00    -0.000 C 
BRANCH  18  19
ATOM     19  C   UNL     1      -9.842  12.664 -15.030  1.00  0.00    -0.003 C 
ATOM     20  C   UNL     1      -9.657  11.600 -16.111  1.00  0.00     0.004 C 
ENDBRANCH  18  19
ENDBRANCH  17  18
ENDBRANCH  16  17
ENDBRANCH  15  16
ENDBRANCH  14  15
ENDBRANCH  13  14
ENDBRANCH  12  13
ENDBRANCH   1  12
TORSDOF 16
ENDMDL
MODEL 6
REMARK VINA RESULT:    -1.808      1.639      2.208
REMARK INTER + INTRA:          -4.262
REMARK INTER:                  -3.844
REMARK INTRA:                  -0.418
REMARK UNBOUND:                -0.763
REMARK SMILES CCCCCCCCCCCCCCCCCC(=O)[O-]
REMARK SMILES IDX 10 1 11 2 12 3 13 4 14 5 15 6 16 7 17 8 18 9 19 10 20 11
REMARK SMILES IDX 9 12 8 13 7 14 6 15 5 16 4 17 3 18 2 19 1 20
REMARK H PARENT
REMARK Flexibility Score: inf
ROOT
ATOM      1  C   UNL     1      -9.527  15.513 -12.053  1.00  0.00     0.000 C 
ENDROOT
BRANCH   1   2
ATOM      2  C   UNL     1     -10.143  16.900 -12.323  1.00  0.00     0.000 C 
BRANCH   2   3
ATOM      3  C   UNL     1      -9.392  17.772 -13.354  1.00  0.00     0.000 C 
BRANCH   3   4
ATOM      4  C   UNL     1      -8.377  18.764 -12.761  1.00  0.00     0.000 C 
BRANCH   4   5
ATOM      5  C   UNL     1      -8.398  20.132 -13.461  1.00  0.00     0.000 C 
BRANCH   5   6
ATOM      6  C   UNL     1      -8.395  19.969 -14.986  1.00  0.00     0.000 C 
BRANCH   6   7
ATOM      7  C   UNL     1      -7.020  20.319 -15.572  1.00  0.00     0.006 C 
BRANCH   7   8
ATOM      8  C   UNL     1      -5.875  19.631 -14.818  1.00  0.00     0.053 C 
BRANCH   8   9
ATOM      9  C   UNL     1      -5.996  18.138 -14.866  1.00  0.00     0.041 C 
ATOM     10  O   UNL     1      -6.133  17.550 -15.971  1.00  0.00    -0.550 OA
ATOM     11  O   UNL     1      -5.931  17.394 -13.694  1.00  0.00    -0.550 OA
ENDBRANCH   8   9
ENDBRANCH   7   8
ENDBRANCH   6   7
ENDBRANCH   5   6
ENDBRANCH   4   5
ENDBRANCH   3   4
ENDBRANCH   2   3
ENDBRANCH   1   2
BRANCH   1  12
ATOM     12  C   UNL     1      -8.703  14.932 -13.225  1.00  0.00     0.000 C 
BRANCH  12  13
ATOM     13  C   UNL     1      -7.311  14.415 -12.812  1.00  0.00    -0.000 C 
BRANCH  13  14
ATOM     14  C   UNL     1      -7.189  12.883 -12.712  1.00  0.00    -0.000 C 
BRANCH  14  15
ATOM     15  C   UNL     1      -6.282  12.232 -13.773  1.00  0.00    -0.000 C 
BRANCH  15  16
ATOM     16  C   UNL     1      -6.238  13.022 -15.088  1.00  0.00    -0.000 C 
BRANCH  16  17
ATOM     17  C   UNL     1      -7.248  12.460 -16.101  1.00  0.00    -0.000 C 
BRANCH  17  18
ATOM     18  C   UNL     1      -8.617  13.168 -16.015  1.00  0.00    -0.000 C 
BRANCH  18  19
ATOM     19  C   UNL     1      -9.676  12.367 -15.240  1.00  0.00    -0.003 C 
ATOM     20  C   UNL     1     -10.821  11.877 -16.124  1.00  0.00     0.004 C 
ENDBRANCH  18  19
ENDBRANCH  17  18
ENDBRANCH  16  17
ENDBRANCH  15  16
ENDBRANCH  14  15
ENDBRANCH  13  14
ENDBRANCH  12  13
ENDBRANCH   1  12
TORSDOF 16
ENDMDL
MODEL 7
REMARK VINA RESULT:    -1.626      1.680      5.889
REMARK INTER + INTRA:          -3.909
REMARK INTER:                  -2.969
REMARK INTRA:                  -0.939
REMARK UNBOUND:                -0.763
REMARK SMILES CCCCCCCCCCCCCCCCCC(=O)[O-]
REMARK SMILES IDX 10 1 11 2 12 3 13 4 14 5 15 6 16 7 17 8 18 9 19 10 20 11
REMARK SMILES IDX 9 12 8 13 7 14 6 15 5 16 4 17 3 18 2 19 1 20
REMARK H PARENT
REMARK Flexibility Score: inf
ROOT
ATOM      1  C   UNL     1      -8.634  14.312 -15.711  1.00  0.00     0.000 C 
ENDROOT
BRANCH   1   2
ATOM      2  C   UNL     1      -8.437  12.840 -15.294  1.00  0.00     0.000 C 
BRANCH   2   3
ATOM      3  C   UNL     1      -6.970  12.362 -15.214  1.00  0.00     0.000 C 
BRANCH   3   4
ATOM      4  C   UNL     1      -6.131  12.998 -14.093  1.00  0.00     0.000 C 
BRANCH   4   5
ATOM      5  C   UNL     1      -6.400  12.370 -12.716  1.00  0.00     0.000 C 
BRANCH   5   6
ATOM      6  C   UNL     1      -7.673  12.947 -12.087  1.00  0.00     0.000 C 
BRANCH   6   7
ATOM      7  C   UNL     1      -7.699  14.477 -12.207  1.00  0.00     0.006 C 
BRANCH   7   8
ATOM      8  C   UNL     1      -9.081  15.005 -12.612  1.00  0.00     0.053 C 
BRANCH   8   9
ATOM      9  C   UNL     1      -9.175  16.493 -12.460  1.00  0.00     0.041 C 
ATOM     10  O   UNL     1      -8.375  17.102 -11.702  1.00  0.00    -0.550 OA
ATOM     11  O   UNL     1     -10.128  17.209 -13.173  1.00  0.00    -0.550 OA
ENDBRANCH   8   9
ENDBRANCH   7   8
ENDBRANCH   6   7
ENDBRANCH   5   6
ENDBRANCH   4   5
ENDBRANCH   3   4
ENDBRANCH   2   3
ENDBRANCH   1   2
BRANCH   1  12
ATOM     12  C   UNL     1      -7.336  15.050 -16.108  1.00  0.00     0.000 C 
BRANCH  12  13
ATOM     13  C   UNL     1      -7.132  16.390 -15.374  1.00  0.00    -0.000 C 
BRANCH  13  14
ATOM     14  C   UNL     1      -5.910  17.207 -15.835  1.00  0.00    -0.000 C 
BRANCH  14  15
ATOM     15  C   UNL     1      -6.192  18.693 -16.125  1.00  0.00    -0.000 C 
BRANCH  15  16
ATOM     16  C   UNL     1      -7.681  19.050 -16.021  1.00  0.00    -0.000 C 
BRANCH  16  17
ATOM     17  C   UNL     1      -7.883  20.573 -16.023  1.00  0.00    -0.000 C 
BRANCH  17  18
ATOM     18  C   UNL     1      -8.176  21.125 -14.611  1.00  0.00    -0.000 C 
BRANCH  18  19
ATOM     19  C   UNL     1      -7.736  20.183 -13.479  1.00  0.00    -0.003 C 
ATOM     20  C   UNL     1      -6.275  20.374 -13.076  1.00  0.00     0.004 C 
ENDBRANCH  18  19
ENDBRANCH  17  18
ENDBRANCH  16  17
ENDBRANCH  15  16
ENDBRANCH  14  15
ENDBRANCH  13  14
ENDBRANCH  12  13
ENDBRANCH   1  12
TORSDOF 16
ENDMDL
MODEL 8
REMARK VINA RESULT:    -1.014      1.200      2.796
REMARK INTER + INTRA:          -2.725
REMARK INTER:                  -1.611
REMARK INTRA:                  -1.113
REMARK UNBOUND:                -0.763
REMARK SMILES CCCCCCCCCCCCCCCCCC(=O)[O-]
REMARK SMILES IDX 10 1 11 2 12 3 13 4 14 5 15 6 16 7 17 8 18 9 19 10 20 11
REMARK SMILES IDX 9 12 8 13 7 14 6 15 5 16 4 17 3 18 2 19 1 20
REMARK H PARENT
REMARK Flexibility Score: inf
ROOT
ATOM      1  C   UNL     1      -9.178  15.815 -13.452  1.00  0.00     0.000 C 
ENDROOT
BRANCH   1   2
ATOM      2  C   UNL     1      -8.334  16.861 -14.207  1.00  0.00     0.000 C 
BRANCH   2   3
ATOM      3  C   UNL     1      -6.808  16.767 -13.990  1.00  0.00     0.000 C 
BRANCH   3   4
ATOM      4  C   UNL     1      -5.954  17.632 -14.934  1.00  0.00     0.000 C 
BRANCH   4   5
ATOM      5  C   UNL     1      -6.756  18.196 -16.116  1.00  0.00     0.000 C 
BRANCH   5   6
ATOM      6  C   UNL     1      -6.805  19.727 -16.068  1.00  0.00     0.000 C 
BRANCH   6   7
ATOM      7  C   UNL     1      -8.193  20.219 -15.636  1.00  0.00     0.006 C 
BRANCH   7   8
ATOM      8  C   UNL     1      -8.130  21.125 -14.399  1.00  0.00     0.053 C 
BRANCH   8   9
ATOM      9  C   UNL     1      -7.638  20.384 -13.193  1.00  0.00     0.041 C 
ATOM     10  O   UNL     1      -8.355  19.499 -12.658  1.00  0.00    -0.550 OA
ATOM     11  O   UNL     1      -6.377  20.654 -12.676  1.00  0.00    -0.550 OA
ENDBRANCH   8   9
ENDBRANCH   7   8
ENDBRANCH   6   7
ENDBRANCH   5   6
ENDBRANCH   4   5
ENDBRANCH   3   4
ENDBRANCH   2   3
ENDBRANCH   1   2
BRANCH   1  12
ATOM     12  C   UNL     1      -9.824  14.735 -14.350  1.00  0.00     0.000 C 
BRANCH  12  13
ATOM     13  C   UNL     1      -9.054  14.472 -15.659  1.00  0.00    -0.000 C 
BRANCH  13  14
ATOM     14  C   UNL     1      -8.431  13.068 -15.777  1.00  0.00    -0.000 C 
BRANCH  14  15
ATOM     15  C   UNL     1      -6.931  13.049 -16.125  1.00  0.00    -0.000 C 
BRANCH  15  16
ATOM     16  C   UNL     1      -6.031  13.268 -14.901  1.00  0.00    -0.000 C 
BRANCH  16  17
ATOM     17  C   UNL     1      -6.070  12.051 -13.964  1.00  0.00    -0.000 C 
BRANCH  17  18
ATOM     18  C   UNL     1      -6.296  12.455 -12.491  1.00  0.00    -0.000 C 
BRANCH  18  19
ATOM     19  C   UNL     1      -7.707  13.002 -12.212  1.00  0.00    -0.003 C 
ATOM     20  C   UNL     1      -7.696  14.408 -11.617  1.00  0.00     0.004 C 
ENDBRANCH  18  19
ENDBRANCH  17  18
ENDBRANCH  16  17
ENDBRANCH  15  16
ENDBRANCH  14  15
ENDBRANCH  13  14
ENDBRANCH  12  13
ENDBRANCH   1  12
TORSDOF 16
ENDMDL
