MODEL 1
REMARK VINA RESULT:    -3.778      0.000      0.000
REMARK INTER + INTRA:          -9.743
REMARK INTER:                  -7.312
REMARK INTRA:                  -2.431
REMARK UNBOUND:                -2.431
REMARK SMILES CCCCCCCCCCCCCCCCCC(=O)[O-]
REMARK SMILES IDX 10 1 11 2 12 3 13 4 14 5 15 6 16 7 17 8 18 9 19 10 20 11
REMARK SMILES IDX 9 12 8 13 7 14 6 15 5 16 4 17 3 18 2 19 1 20
REMARK H PARENT
REMARK Flexibility Score: inf
ROOT
ATOM      1  C   UNL     1      23.014  10.374  20.762  1.00  0.00     0.000 C 
ENDROOT
BRANCH   1   2
ATOM      2  C   UNL     1      22.275   9.792  21.979  1.00  0.00     0.000 C 
BRANCH   2   3
ATOM      3  C   UNL     1      22.214  10.775  23.162  1.00  0.00     0.000 C 
BRANCH   3   4
ATOM      4  C   UNL     1      23.117  10.349  24.331  1.00  0.00     0.000 C 
BRANCH   4   5
ATOM      5  C   UNL     1      24.211  11.386  24.642  1.00  0.00     0.000 C 
BRANCH   5   6
ATOM      6  C   UNL     1      23.731  12.831  24.430  1.00  0.00     0.000 C 
BRANCH   6   7
ATOM      7  C   UNL     1      24.840  13.868  24.681  1.00  0.00     0.006 C 
BRANCH   7   8
ATOM      8  C   UNL     1      25.183  14.665  23.415  1.00  0.00     0.053 C 
BRANCH   8   9
ATOM      9  C   UNL     1      24.121  15.669  23.085  1.00  0.00     0.041 C 
ATOM     10  O   UNL     1      23.564  16.327  24.002  1.00  0.00    -0.550 OA
ATOM     11  O   UNL     1      23.720  15.851  21.767  1.00  0.00    -0.550 OA
ENDBRANCH   8   9
ENDBRANCH   7   8
ENDBRANCH   6   7
ENDBRANCH   5   6
ENDBRANCH   4   5
ENDBRANCH   3   4
ENDBRANCH   2   3
ENDBRANCH   1   2
BRANCH   1  12
ATOM     12  C   UNL     1      22.995  11.912  20.662  1.00  0.00     0.000 C 
BRANCH  12  13
ATOM     13  C   UNL     1      24.399  12.554  20.675  1.00  0.00    -0.000 C 
BRANCH  13  14
ATOM     14  C   UNL     1      25.519  11.500  20.650  1.00  0.00    -0.000 C 
BRANCH  14  15
ATOM     15  C   UNL     1      26.547  11.696  21.775  1.00  0.00    -0.000 C 
BRANCH  15  16
ATOM     16  C   UNL     1      27.040  10.365  22.365  1.00  0.00    -0.000 C 
BRANCH  16  17
ATOM     17  C   UNL     1      28.528  10.146  22.056  1.00  0.00    -0.000 C 
BRANCH  17  18
ATOM     18  C   UNL     1      28.784   8.896  21.194  1.00  0.00    -0.000 C 
BRANCH  18  19
ATOM     19  C   UNL     1      29.685   9.129  19.968  1.00  0.00    -0.003 C 
ATOM     20  C   UNL     1      28.901   9.250  18.663  1.00  0.00     0.004 C 
ENDBRANCH  18  19
ENDBRANCH  17  18
ENDBRANCH  16  17
ENDBRANCH  15  16
ENDBRANCH  14  15
ENDBRANCH  13  14
ENDBRANCH  12  13
ENDBRANCH   1  12
TORSDOF 16
ENDMDL
MODEL 2
REMARK VINA RESULT:    -3.674      2.945      5.847
REMARK INTER + INTRA:          -9.541
REMARK INTER:                  -6.832
REMARK INTRA:                  -2.709
REMARK UNBOUND:                -2.431
REMARK SMILES CCCCCCCCCCCCCCCCCC(=O)[O-]
REMARK SMILES IDX 10 1 11 2 12 3 13 4 14 5 15 6 16 7 17 8 18 9 19 10 20 11
REMARK SMILES IDX 9 12 8 13 7 14 6 15 5 16 4 17 3 18 2 19 1 20
REMARK H PARENT
REMARK Flexibility Score: inf
ROOT
ATOM      1  C   UNL     1      25.891  12.646  24.431  1.00  0.00     0.000 C 
ENDROOT
BRANCH   1   2
ATOM      2  C   UNL     1      25.913  13.316  23.046  1.00  0.00     0.000 C 
BRANCH   2   3
ATOM      3  C   UNL     1      26.408  12.372  21.936  1.00  0.00     0.000 C 
BRANCH   3   4
ATOM      4  C   UNL     1      26.437  10.901  22.382  1.00  0.00     0.000 C 
BRANCH   4   5
ATOM      5  C   UNL     1      27.728  10.180  21.958  1.00  0.00     0.000 C 
BRANCH   5   6
ATOM      6  C   UNL     1      28.257   9.230  23.045  1.00  0.00     0.000 C 
BRANCH   6   7
ATOM      7  C   UNL     1      27.456   9.321  24.356  1.00  0.00     0.006 C 
BRANCH   7   8
ATOM      8  C   UNL     1      28.341   9.708  25.548  1.00  0.00     0.053 C 
BRANCH   8   9
ATOM      9  C   UNL     1      27.537  10.276  26.677  1.00  0.00     0.041 C 
ATOM     10  O   UNL     1      26.461   9.725  27.030  1.00  0.00    -0.550 OA
ATOM     11  O   UNL     1      27.957  11.438  27.315  1.00  0.00    -0.550 OA
ENDBRANCH   8   9
ENDBRANCH   7   8
ENDBRANCH   6   7
ENDBRANCH   5   6
ENDBRANCH   4   5
ENDBRANCH   3   4
ENDBRANCH   2   3
ENDBRANCH   1   2
BRANCH   1  12
ATOM     12  C   UNL     1      24.519  12.649  25.134  1.00  0.00     0.000 C 
BRANCH  12  13
ATOM     13  C   UNL     1      23.327  12.461  24.171  1.00  0.00    -0.000 C 
BRANCH  13  14
ATOM     14  C   UNL     1      23.045  10.977  23.879  1.00  0.00    -0.000 C 
BRANCH  14  15
ATOM     15  C   UNL     1      22.151  10.773  22.645  1.00  0.00    -0.000 C 
BRANCH  15  16
ATOM     16  C   UNL     1      22.892  10.091  21.484  1.00  0.00    -0.000 C 
BRANCH  16  17
ATOM     17  C   UNL     1      23.283  11.113  20.407  1.00  0.00    -0.000 C 
BRANCH  17  18
ATOM     18  C   UNL     1      22.455  12.409  20.482  1.00  0.00    -0.000 C 
BRANCH  18  19
ATOM     19  C   UNL     1      23.283  13.706  20.508  1.00  0.00    -0.003 C 
ATOM     20  C   UNL     1      23.865  14.072  19.143  1.00  0.00     0.004 C 
ENDBRANCH  18  19
ENDBRANCH  17  18
ENDBRANCH  16  17
ENDBRANCH  15  16
ENDBRANCH  14  15
ENDBRANCH  13  14
ENDBRANCH  12  13
ENDBRANCH   1  12
TORSDOF 16
ENDMDL
MODEL 3
REMARK VINA RESULT:    -3.671      3.281      3.920
REMARK INTER + INTRA:          -9.536
REMARK INTER:                  -7.605
REMARK INTRA:                  -1.931
REMARK UNBOUND:                -2.431
REMARK SMILES CCCCCCCCCCCCCCCCCC(=O)[O-]
REMARK SMILES IDX 10 1 11 2 12 3 13 4 14 5 15 6 16 7 17 8 18 9 19 10 20 11
REMARK SMILES IDX 9 12 8 13 7 14 6 15 5 16 4 17 3 18 2 19 1 20
REMARK H PARENT
REMARK Flexibility Score: inf
ROOT
ATOM      1  C   UNL     1      23.288  10.535  21.181  1.00  0.00     0.000 C 
ENDROOT
BRANCH   1   2
ATOM      2  C   UNL     1      22.158  10.791  22.192  1.00  0.00     0.000 C 
BRANCH   2   3
ATOM      3  C   UNL     1      22.546  10.401  23.630  1.00  0.00     0.000 C 
BRANCH   3   4
ATOM      4  C   UNL     1      23.721  11.233  24.169  1.00  0.00     0.000 C 
BRANCH   4   5
ATOM      5  C   UNL     1      24.780  10.371  24.879  1.00  0.00     0.000 C 
BRANCH   5   6
ATOM      6  C   UNL     1      25.813  11.216  25.641  1.00  0.00     0.000 C 
BRANCH   6   7
ATOM      7  C   UNL     1      27.085  10.424  25.993  1.00  0.00     0.006 C 
BRANCH   7   8
ATOM      8  C   UNL     1      27.900  11.103  27.102  1.00  0.00     0.053 C 
BRANCH   8   9
ATOM      9  C   UNL     1      27.433  10.694  28.466  1.00  0.00     0.041 C 
ATOM     10  O   UNL     1      27.905   9.664  29.015  1.00  0.00    -0.550 OA
ATOM     11  O   UNL     1      26.449  11.430  29.114  1.00  0.00    -0.550 OA
ENDBRANCH   8   9
ENDBRANCH   7   8
ENDBRANCH   6   7
ENDBRANCH   5   6
ENDBRANCH   4   5
ENDBRANCH   3   4
ENDBRANCH   2   3
ENDBRANCH   1   2
BRANCH   1  12
ATOM     12  C   UNL     1      23.759  11.780  20.402  1.00  0.00     0.000 C 
BRANCH  12  13
ATOM     13  C   UNL     1      25.241  12.139  20.641  1.00  0.00    -0.000 C 
BRANCH  13  14
ATOM     14  C   UNL     1      26.030  10.971  21.259  1.00  0.00    -0.000 C 
BRANCH  14  15
ATOM     15  C   UNL     1      27.139  11.440  22.213  1.00  0.00    -0.000 C 
BRANCH  15  16
ATOM     16  C   UNL     1      28.230  10.378  22.420  1.00  0.00    -0.000 C 
BRANCH  16  17
ATOM     17  C   UNL     1      28.352   9.470  21.188  1.00  0.00    -0.000 C 
BRANCH  17  18
ATOM     18  C   UNL     1      29.800   9.336  20.681  1.00  0.00    -0.000 C 
BRANCH  18  19
ATOM     19  C   UNL     1      29.950   9.306  19.150  1.00  0.00    -0.003 C 
ATOM     20  C   UNL     1      28.628   9.519  18.415  1.00  0.00     0.004 C 
ENDBRANCH  18  19
ENDBRANCH  17  18
ENDBRANCH  16  17
ENDBRANCH  15  16
ENDBRANCH  14  15
ENDBRANCH  13  14
ENDBRANCH  12  13
ENDBRANCH   1  12
TORSDOF 16
ENDMDL
MODEL 4
REMARK VINA RESULT:    -3.649      2.650      3.131
REMARK INTER + INTRA:          -9.492
REMARK INTER:                  -7.255
REMARK INTRA:                  -2.237
REMARK UNBOUND:                -2.431
REMARK SMILES CCCCCCCCCCCCCCCCCC(=O)[O-]
REMARK SMILES IDX 10 1 11 2 12 3 13 4 14 5 15 6 16 7 17 8 18 9 19 10 20 11
REMARK SMILES IDX 9 12 8 13 7 14 6 15 5 16 4 17 3 18 2 19 1 20
REMARK H PARENT
REMARK Flexibility Score: inf
ROOT
ATOM      1  C   UNL     1      23.010  10.597  21.083  1.00  0.00     0.000 C 
ENDROOT
BRANCH   1   2
ATOM      2  C   UNL     1      21.991  10.420  22.222  1.00  0.00     0.000 C 
BRANCH   2   3
ATOM      3  C   UNL     1      22.659  10.132  23.578  1.00  0.00     0.000 C 
BRANCH   3   4
ATOM      4  C   UNL     1      23.585  11.271  24.034  1.00  0.00     0.000 C 
BRANCH   4   5
ATOM      5  C   UNL     1      24.525  10.848  25.177  1.00  0.00     0.000 C 
BRANCH   5   6
ATOM      6  C   UNL     1      24.438  11.788  26.390  1.00  0.00     0.000 C 
BRANCH   6   7
ATOM      7  C   UNL     1      25.065  13.167  26.119  1.00  0.00     0.006 C 
BRANCH   7   8
ATOM      8  C   UNL     1      26.593  13.092  25.991  1.00  0.00     0.053 C 
BRANCH   8   9
ATOM      9  C   UNL     1      27.243  12.724  27.290  1.00  0.00     0.041 C 
ATOM     10  O   UNL     1      27.885  11.646  27.395  1.00  0.00    -0.550 OA
ATOM     11  O   UNL     1      27.107  13.555  28.396  1.00  0.00    -0.550 OA
ENDBRANCH   8   9
ENDBRANCH   7   8
ENDBRANCH   6   7
ENDBRANCH   5   6
ENDBRANCH   4   5
ENDBRANCH   3   4
ENDBRANCH   2   3
ENDBRANCH   1   2
BRANCH   1  12
ATOM     12  C   UNL     1      22.882  11.916  20.294  1.00  0.00     0.000 C 
BRANCH  12  13
ATOM     13  C   UNL     1      24.237  12.592  19.990  1.00  0.00    -0.000 C 
BRANCH  13  14
ATOM     14  C   UNL     1      25.410  11.883  20.689  1.00  0.00    -0.000 C 
BRANCH  14  15
ATOM     15  C   UNL     1      26.004  12.708  21.841  1.00  0.00    -0.000 C 
BRANCH  15  16
ATOM     16  C   UNL     1      27.097  11.949  22.610  1.00  0.00    -0.000 C 
BRANCH  16  17
ATOM     17  C   UNL     1      27.047  10.447  22.293  1.00  0.00    -0.000 C 
BRANCH  17  18
ATOM     18  C   UNL     1      27.956   9.610  23.212  1.00  0.00    -0.000 C 
BRANCH  18  19
ATOM     19  C   UNL     1      29.214   9.040  22.534  1.00  0.00    -0.003 C 
ATOM     20  C   UNL     1      29.231   9.262  21.022  1.00  0.00     0.004 C 
ENDBRANCH  18  19
ENDBRANCH  17  18
ENDBRANCH  16  17
ENDBRANCH  15  16
ENDBRANCH  14  15
ENDBRANCH  13  14
ENDBRANCH  12  13
ENDBRANCH   1  12
TORSDOF 16
ENDMDL
MODEL 5
REMARK VINA RESULT:    -3.610      3.286      6.118
REMARK INTER + INTRA:          -9.418
REMARK INTER:                  -6.903
REMARK INTRA:                  -2.515
REMARK UNBOUND:                -2.431
REMARK SMILES CCCCCCCCCCCCCCCCCC(=O)[O-]
REMARK SMILES IDX 10 1 11 2 12 3 13 4 14 5 15 6 16 7 17 8 18 9 19 10 20 11
REMARK SMILES IDX 9 12 8 13 7 14 6 15 5 16 4 17 3 18 2 19 1 20
REMARK H PARENT
REMARK Flexibility Score: inf
ROOT
ATOM      1  C   UNL     1      25.661  11.856  24.229  1.00  0.00     0.000 C 
ENDROOT
BRANCH   1   2
ATOM      2  C   UNL     1      25.981  10.590  23.414  1.00  0.00     0.000 C 
BRANCH   2   3
ATOM      3  C   UNL     1      26.666  10.905  22.072  1.00  0.00     0.000 C 
BRANCH   3   4
ATOM      4  C   UNL     1      27.892  10.014  21.812  1.00  0.00     0.000 C 
BRANCH   4   5
ATOM      5  C   UNL     1      28.280   9.170  23.038  1.00  0.00     0.000 C 
BRANCH   5   6
ATOM      6  C   UNL     1      29.621   9.604  23.652  1.00  0.00     0.000 C 
BRANCH   6   7
ATOM      7  C   UNL     1      29.710   9.303  25.159  1.00  0.00     0.006 C 
BRANCH   7   8
ATOM      8  C   UNL     1      28.333   9.016  25.773  1.00  0.00     0.053 C 
BRANCH   8   9
ATOM      9  C   UNL     1      28.065   9.878  26.968  1.00  0.00     0.041 C 
ATOM     10  O   UNL     1      28.027  11.131  26.850  1.00  0.00    -0.550 OA
ATOM     11  O   UNL     1      27.896   9.299  28.220  1.00  0.00    -0.550 OA
ENDBRANCH   8   9
ENDBRANCH   7   8
ENDBRANCH   6   7
ENDBRANCH   5   6
ENDBRANCH   4   5
ENDBRANCH   3   4
ENDBRANCH   2   3
ENDBRANCH   1   2
BRANCH   1  12
ATOM     12  C   UNL     1      26.402  13.129  23.772  1.00  0.00     0.000 C 
BRANCH  12  13
ATOM     13  C   UNL     1      25.462  14.267  23.321  1.00  0.00    -0.000 C 
BRANCH  13  14
ATOM     14  C   UNL     1      24.027  13.770  23.071  1.00  0.00    -0.000 C 
BRANCH  14  15
ATOM     15  C   UNL     1      23.511  14.123  21.667  1.00  0.00    -0.000 C 
BRANCH  15  16
ATOM     16  C   UNL     1      24.313  13.433  20.552  1.00  0.00    -0.000 C 
BRANCH  16  17
ATOM     17  C   UNL     1      23.436  12.432  19.785  1.00  0.00    -0.000 C 
BRANCH  17  18
ATOM     18  C   UNL     1      22.421  11.709  20.688  1.00  0.00    -0.000 C 
BRANCH  18  19
ATOM     19  C   UNL     1      22.949  10.428  21.359  1.00  0.00    -0.003 C 
ATOM     20  C   UNL     1      22.217  10.085  22.655  1.00  0.00     0.004 C 
ENDBRANCH  18  19
ENDBRANCH  17  18
ENDBRANCH  16  17
ENDBRANCH  15  16
ENDBRANCH  14  15
ENDBRANCH  13  14
ENDBRANCH  12  13
ENDBRANCH   1  12
TORSDOF 16
ENDMDL
MODEL 6
REMARK VINA RESULT:    -3.553      3.220      5.942
REMARK INTER + INTRA:          -9.308
REMARK INTER:                  -6.760
REMARK INTRA:                  -2.548
REMARK UNBOUND:                -2.431
REMARK SMILES CCCCCCCCCCCCCCCCCC(=O)[O-]
REMARK SMILES IDX 10 1 11 2 12 3 13 4 14 5 15 6 16 7 17 8 18 9 19 10 20 11
REMARK SMILES IDX 9 12 8 13 7 14 6 15 5 16 4 17 3 18 2 19 1 20
REMARK H PARENT
REMARK Flexibility Score: inf
ROOT
ATOM      1  C   UNL     1      23.151  10.415  21.040  1.00  0.00     0.000 C 
ENDROOT
BRANCH   1   2
ATOM      2  C   UNL     1      22.705  11.719  20.356  1.00  0.00     0.000 C 
BRANCH   2   3
ATOM      3  C   UNL     1      23.882  12.661  20.048  1.00  0.00     0.000 C 
BRANCH   3   4
ATOM      4  C   UNL     1      25.226  12.109  20.549  1.00  0.00     0.000 C 
BRANCH   4   5
ATOM      5  C   UNL     1      25.824  12.953  21.688  1.00  0.00     0.000 C 
BRANCH   5   6
ATOM      6  C   UNL     1      26.791  12.148  22.572  1.00  0.00     0.000 C 
BRANCH   6   7
ATOM      7  C   UNL     1      26.779  10.643  22.250  1.00  0.00     0.006 C 
BRANCH   7   8
ATOM      8  C   UNL     1      27.587   9.827  23.268  1.00  0.00     0.053 C 
BRANCH   8   9
ATOM      9  C   UNL     1      29.035   9.748  22.893  1.00  0.00     0.041 C 
ATOM     10  O   UNL     1      29.913   9.606  23.784  1.00  0.00    -0.550 OA
ATOM     11  O   UNL     1      29.418   9.869  21.563  1.00  0.00    -0.550 OA
ENDBRANCH   8   9
ENDBRANCH   7   8
ENDBRANCH   6   7
ENDBRANCH   5   6
ENDBRANCH   4   5
ENDBRANCH   3   4
ENDBRANCH   2   3
ENDBRANCH   1   2
BRANCH   1  12
ATOM     12  C   UNL     1      22.289   9.983  22.244  1.00  0.00     0.000 C 
BRANCH  12  13
ATOM     13  C   UNL     1      22.098  11.092  23.300  1.00  0.00    -0.000 C 
BRANCH  13  14
ATOM     14  C   UNL     1      23.412  11.440  24.022  1.00  0.00    -0.000 C 
BRANCH  14  15
ATOM     15  C   UNL     1      23.826  10.376  25.051  1.00  0.00    -0.000 C 
BRANCH  15  16
ATOM     16  C   UNL     1      25.080  10.777  25.844  1.00  0.00    -0.000 C 
BRANCH  16  17
ATOM     17  C   UNL     1      25.300  12.295  25.790  1.00  0.00    -0.000 C 
BRANCH  17  18
ATOM     18  C   UNL     1      25.354  12.944  27.186  1.00  0.00    -0.000 C 
BRANCH  18  19
ATOM     19  C   UNL     1      25.138  14.467  27.201  1.00  0.00    -0.003 C 
ATOM     20  C   UNL     1      24.508  14.995  25.913  1.00  0.00     0.004 C 
ENDBRANCH  18  19
ENDBRANCH  17  18
ENDBRANCH  16  17
ENDBRANCH  15  16
ENDBRANCH  14  15
ENDBRANCH  13  14
ENDBRANCH  12  13
ENDBRANCH   1  12
TORSDOF 16
ENDMDL
MODEL 7
REMARK VINA RESULT:    -3.546      3.035      6.010
REMARK INTER + INTRA:          -9.294
REMARK INTER:                  -6.558
REMARK INTRA:                  -2.736
REMARK UNBOUND:                -2.431
REMARK SMILES CCCCCCCCCCCCCCCCCC(=O)[O-]
REMARK SMILES IDX 10 1 11 2 12 3 13 4 14 5 15 6 16 7 17 8 18 9 19 10 20 11
REMARK SMILES IDX 9 12 8 13 7 14 6 15 5 16 4 17 3 18 2 19 1 20
REMARK H PARENT
REMARK Flexibility Score: inf
ROOT
ATOM      1  C   UNL     1      22.301  10.842  22.113  1.00  0.00     0.000 C 
ENDROOT
BRANCH   1   2
ATOM      2  C   UNL     1      23.034  10.762  20.763  1.00  0.00     0.000 C 
BRANCH   2   3
ATOM      3  C   UNL     1      23.124  12.126  20.054  1.00  0.00     0.000 C 
BRANCH   3   4
ATOM      4  C   UNL     1      24.571  12.630  19.926  1.00  0.00     0.000 C 
BRANCH   4   5
ATOM      5  C   UNL     1      25.560  11.812  20.775  1.00  0.00     0.000 C 
BRANCH   5   6
ATOM      6  C   UNL     1      26.240  12.655  21.865  1.00  0.00     0.000 C 
BRANCH   6   7
ATOM      7  C   UNL     1      26.837  11.797  22.995  1.00  0.00     0.006 C 
BRANCH   7   8
ATOM      8  C   UNL     1      26.896  10.310  22.621  1.00  0.00     0.053 C 
BRANCH   8   9
ATOM      9  C   UNL     1      28.297   9.862  22.337  1.00  0.00     0.041 C 
ATOM     10  O   UNL     1      28.667   9.649  21.153  1.00  0.00    -0.550 OA
ATOM     11  O   UNL     1      29.184   9.645  23.385  1.00  0.00    -0.550 OA
ENDBRANCH   8   9
ENDBRANCH   7   8
ENDBRANCH   6   7
ENDBRANCH   5   6
ENDBRANCH   4   5
ENDBRANCH   3   4
ENDBRANCH   2   3
ENDBRANCH   1   2
BRANCH   1  12
ATOM     12  C   UNL     1      23.203  10.682  23.354  1.00  0.00     0.000 C 
BRANCH  12  13
ATOM     13  C   UNL     1      23.200  11.913  24.286  1.00  0.00    -0.000 C 
BRANCH  13  14
ATOM     14  C   UNL     1      22.834  13.207  23.540  1.00  0.00    -0.000 C 
BRANCH  14  15
ATOM     15  C   UNL     1      23.814  14.356  23.824  1.00  0.00    -0.000 C 
BRANCH  15  16
ATOM     16  C   UNL     1      23.434  15.653  23.091  1.00  0.00    -0.000 C 
BRANCH  16  17
ATOM     17  C   UNL     1      24.138  15.739  21.729  1.00  0.00    -0.000 C 
BRANCH  17  18
ATOM     18  C   UNL     1      24.078  17.148  21.111  1.00  0.00    -0.000 C 
BRANCH  18  19
ATOM     19  C   UNL     1      24.183  17.186  19.576  1.00  0.00    -0.003 C 
ATOM     20  C   UNL     1      23.533  15.978  18.901  1.00  0.00     0.004 C 
ENDBRANCH  18  19
ENDBRANCH  17  18
ENDBRANCH  16  17
ENDBRANCH  15  16
ENDBRANCH  14  15
ENDBRANCH  13  14
ENDBRANCH  12  13
ENDBRANCH   1  12
TORSDOF 16
ENDMDL
MODEL 8
REMARK VINA RESULT:    -3.546      1.506      3.240
REMARK INTER + INTRA:          -9.293
REMARK INTER:                  -6.494
REMARK INTRA:                  -2.799
REMARK UNBOUND:                -2.431
REMARK SMILES CCCCCCCCCCCCCCCCCC(=O)[O-]
REMARK SMILES IDX 10 1 11 2 12 3 13 4 14 5 15 6 16 7 17 8 18 9 19 10 20 11
REMARK SMILES IDX 9 12 8 13 7 14 6 15 5 16 4 17 3 18 2 19 1 20
REMARK H PARENT
REMARK Flexibility Score: inf
ROOT
ATOM      1  C   UNL     1      21.951  11.202  23.207  1.00  0.00     0.000 C 
ENDROOT
BRANCH   1   2
ATOM      2  C   UNL     1      22.428  10.004  22.367  1.00  0.00     0.000 C 
BRANCH   2   3
ATOM      3  C   UNL     1      22.975  10.423  20.991  1.00  0.00     0.000 C 
BRANCH   3   4
ATOM      4  C   UNL     1      22.491  11.818  20.563  1.00  0.00     0.000 C 
BRANCH   4   5
ATOM      5  C   UNL     1      23.506  12.547  19.665  1.00  0.00     0.000 C 
BRANCH   5   6
ATOM      6  C   UNL     1      24.321  13.601  20.430  1.00  0.00     0.000 C 
BRANCH   6   7
ATOM      7  C   UNL     1      23.547  14.207  21.614  1.00  0.00     0.006 C 
BRANCH   7   8
ATOM      8  C   UNL     1      24.342  15.314  22.319  1.00  0.00     0.053 C 
BRANCH   8   9
ATOM      9  C   UNL     1      23.846  16.678  21.948  1.00  0.00     0.041 C 
ATOM     10  O   UNL     1      23.299  16.871  20.831  1.00  0.00    -0.550 OA
ATOM     11  O   UNL     1      24.021  17.744  22.822  1.00  0.00    -0.550 OA
ENDBRANCH   8   9
ENDBRANCH   7   8
ENDBRANCH   6   7
ENDBRANCH   5   6
ENDBRANCH   4   5
ENDBRANCH   3   4
ENDBRANCH   2   3
ENDBRANCH   1   2
BRANCH   1  12
ATOM     12  C   UNL     1      23.005  11.780  24.173  1.00  0.00     0.000 C 
BRANCH  12  13
ATOM     13  C   UNL     1      23.835  10.703  24.904  1.00  0.00    -0.000 C 
BRANCH  13  14
ATOM     14  C   UNL     1      25.326  10.764  24.527  1.00  0.00    -0.000 C 
BRANCH  14  15
ATOM     15  C   UNL     1      25.775  12.169  24.097  1.00  0.00    -0.000 C 
BRANCH  15  16
ATOM     16  C   UNL     1      26.652  12.150  22.835  1.00  0.00    -0.000 C 
BRANCH  16  17
ATOM     17  C   UNL     1      26.526  10.806  22.101  1.00  0.00    -0.000 C 
BRANCH  17  18
ATOM     18  C   UNL     1      27.891  10.164  21.789  1.00  0.00    -0.000 C 
BRANCH  18  19
ATOM     19  C   UNL     1      28.242   8.939  22.652  1.00  0.00    -0.003 C 
ATOM     20  C   UNL     1      28.681   9.310  24.067  1.00  0.00     0.004 C 
ENDBRANCH  18  19
ENDBRANCH  17  18
ENDBRANCH  16  17
ENDBRANCH  15  16
ENDBRANCH  14  15
ENDBRANCH  13  14
ENDBRANCH  12  13
ENDBRANCH   1  12
TORSDOF 16
ENDMDL
MODEL 9
REMARK VINA RESULT:    -3.523     13.130     15.719
REMARK INTER + INTRA:          -9.249
REMARK INTER:                  -6.341
REMARK INTRA:                  -2.908
REMARK UNBOUND:                -2.431
REMARK SMILES CCCCCCCCCCCCCCCCCC(=O)[O-]
REMARK SMILES IDX 10 1 11 2 12 3 13 4 14 5 15 6 16 7 17 8 18 9 19 10 20 11
REMARK SMILES IDX 9 12 8 13 7 14 6 15 5 16 4 17 3 18 2 19 1 20
REMARK H PARENT
REMARK Flexibility Score: inf
ROOT
ATOM      1  C   UNL     1      25.265  24.502  20.019  1.00  0.00     0.000 C 
ENDROOT
BRANCH   1   2
ATOM      2  C   UNL     1      24.649  24.065  21.360  1.00  0.00     0.000 C 
BRANCH   2   3
ATOM      3  C   UNL     1      25.525  24.445  22.567  1.00  0.00     0.000 C 
BRANCH   3   4
ATOM      4  C   UNL     1      26.820  25.163  22.154  1.00  0.00     0.000 C 
BRANCH   4   5
ATOM      5  C   UNL     1      26.934  26.573  22.758  1.00  0.00     0.000 C 
BRANCH   5   6
ATOM      6  C   UNL     1      28.308  27.214  22.504  1.00  0.00     0.000 C 
BRANCH   6   7
ATOM      7  C   UNL     1      28.208  28.701  22.119  1.00  0.00     0.006 C 
BRANCH   7   8
ATOM      8  C   UNL     1      28.035  28.896  20.607  1.00  0.00     0.053 C 
BRANCH   8   9
ATOM      9  C   UNL     1      29.027  28.090  19.825  1.00  0.00     0.041 C 
ATOM     10  O   UNL     1      28.635  27.164  19.068  1.00  0.00    -0.550 OA
ATOM     11  O   UNL     1      30.388  28.339  19.961  1.00  0.00    -0.550 OA
ENDBRANCH   8   9
ENDBRANCH   7   8
ENDBRANCH   6   7
ENDBRANCH   5   6
ENDBRANCH   4   5
ENDBRANCH   3   4
ENDBRANCH   2   3
ENDBRANCH   1   2
BRANCH   1  12
ATOM     12  C   UNL     1      24.476  25.591  19.265  1.00  0.00     0.000 C 
BRANCH  12  13
ATOM     13  C   UNL     1      25.020  27.019  19.488  1.00  0.00    -0.000 C 
BRANCH  13  14
ATOM     14  C   UNL     1      24.274  27.755  20.614  1.00  0.00    -0.000 C 
BRANCH  14  15
ATOM     15  C   UNL     1      22.780  27.400  20.671  1.00  0.00    -0.000 C 
BRANCH  15  16
ATOM     16  C   UNL     1      22.336  26.929  22.065  1.00  0.00    -0.000 C 
BRANCH  16  17
ATOM     17  C   UNL     1      23.278  27.468  23.151  1.00  0.00    -0.000 C 
BRANCH  17  18
ATOM     18  C   UNL     1      22.971  26.898  24.549  1.00  0.00    -0.000 C 
BRANCH  18  19
ATOM     19  C   UNL     1      24.170  26.241  25.256  1.00  0.00    -0.003 C 
ATOM     20  C   UNL     1      23.807  24.933  25.958  1.00  0.00     0.004 C 
ENDBRANCH  18  19
ENDBRANCH  17  18
ENDBRANCH  16  17
ENDBRANCH  15  16
ENDBRANCH  14  15
ENDBRANCH  13  14
ENDBRANCH  12  13
ENDBRANCH   1  12
TORSDOF 16
ENDMDL
