MODEL 1
REMARK VINA RESULT:    -4.731      0.000      0.000
REMARK INTER + INTRA:          -9.935
REMARK INTER:                  -8.604
REMARK INTRA:                  -1.331
REMARK UNBOUND:                -1.331
REMARK SMILES CCCCCCCCCCCCCCCC(=O)[O-]
REMARK SMILES IDX 9 1 10 2 11 3 12 4 13 5 14 6 15 7 16 8 17 9 18 10 8 11 7 12
REMARK SMILES IDX 6 13 5 14 4 15 3 16 2 17 1 18
REMARK H PARENT
REMARK Flexibility Score: inf
ROOT
ATOM      1  C   UNL     1       2.961 -12.952 -14.848  1.00  0.00     0.000 C 
ENDROOT
BRANCH   1   2
ATOM      2  C   UNL     1       4.179 -12.264 -15.478  1.00  0.00     0.000 C 
BRANCH   2   3
ATOM      3  C   UNL     1       4.259 -10.790 -15.055  1.00  0.00     0.000 C 
BRANCH   3   4
ATOM      4  C   UNL     1       4.305  -9.832 -16.255  1.00  0.00     0.000 C 
BRANCH   4   5
ATOM      5  C   UNL     1       3.039  -9.916 -17.127  1.00  0.00     0.000 C 
BRANCH   5   6
ATOM      6  C   UNL     1       3.359  -9.944 -18.630  1.00  0.00     0.006 C 
BRANCH   6   7
ATOM      7  C   UNL     1       4.509 -10.900 -18.971  1.00  0.00     0.053 C 
BRANCH   7   8
ATOM      8  C   UNL     1       5.198 -10.462 -20.225  1.00  0.00     0.041 C 
ATOM      9  O   UNL     1       4.550  -9.875 -21.131  1.00  0.00    -0.550 OA
ATOM     10  O   UNL     1       6.544 -10.746 -20.413  1.00  0.00    -0.550 OA
ENDBRANCH   7   8
ENDBRANCH   6   7
ENDBRANCH   5   6
ENDBRANCH   4   5
ENDBRANCH   3   4
ENDBRANCH   2   3
ENDBRANCH   1   2
BRANCH   1  11
ATOM     11  C   UNL     1       2.153 -13.719 -15.907  1.00  0.00     0.000 C 
BRANCH  11  12
ATOM     12  C   UNL     1       2.576 -13.370 -17.343  1.00  0.00    -0.000 C 
BRANCH  12  13
ATOM     13  C   UNL     1       1.721 -14.089 -18.401  1.00  0.00    -0.000 C 
BRANCH  13  14
ATOM     14  C   UNL     1       0.900 -15.245 -17.808  1.00  0.00    -0.000 C 
BRANCH  14  15
ATOM     15  C   UNL     1      -0.317 -15.615 -18.673  1.00  0.00    -0.000 C 
BRANCH  15  16
ATOM     16  C   UNL     1      -0.334 -17.099 -19.076  1.00  0.00    -0.000 C 
BRANCH  16  17
ATOM     17  C   UNL     1       0.857 -17.922 -18.553  1.00  0.00    -0.003 C 
ATOM     18  C   UNL     1       0.490 -19.371 -18.237  1.00  0.00     0.004 C 
ENDBRANCH  16  17
ENDBRANCH  15  16
ENDBRANCH  14  15
ENDBRANCH  13  14
ENDBRANCH  12  13
ENDBRANCH  11  12
ENDBRANCH   1  11
TORSDOF 14
ENDMDL
MODEL 2
REMARK VINA RESULT:    -4.596      1.016      2.225
REMARK INTER + INTRA:          -9.689
REMARK INTER:                  -8.314
REMARK INTRA:                  -1.376
REMARK UNBOUND:                -1.331
REMARK SMILES CCCCCCCCCCCCCCCC(=O)[O-]
REMARK SMILES IDX 9 1 10 2 11 3 12 4 13 5 14 6 15 7 16 8 17 9 18 10 8 11 7 12
REMARK SMILES IDX 6 13 5 14 4 15 3 16 2 17 1 18
REMARK H PARENT
REMARK Flexibility Score: inf
ROOT
ATOM      1  C   UNL     1       4.963 -11.503 -15.679  1.00  0.00     0.000 C 
ENDROOT
BRANCH   1   2
ATOM      2  C   UNL     1       4.291 -10.225 -15.159  1.00  0.00     0.000 C 
BRANCH   2   3
ATOM      3  C   UNL     1       3.896  -9.299 -16.319  1.00  0.00     0.000 C 
BRANCH   3   4
ATOM      4  C   UNL     1       2.913  -9.963 -17.296  1.00  0.00     0.000 C 
BRANCH   4   5
ATOM      5  C   UNL     1       3.433  -9.971 -18.744  1.00  0.00     0.000 C 
BRANCH   5   6
ATOM      6  C   UNL     1       3.914 -11.360 -19.190  1.00  0.00     0.006 C 
BRANCH   6   7
ATOM      7  C   UNL     1       5.443 -11.462 -19.259  1.00  0.00     0.053 C 
BRANCH   7   8
ATOM      8  C   UNL     1       5.971 -10.637 -20.390  1.00  0.00     0.041 C 
ATOM      9  O   UNL     1       5.182 -10.158 -21.246  1.00  0.00    -0.550 OA
ATOM     10  O   UNL     1       7.339 -10.437 -20.525  1.00  0.00    -0.550 OA
ENDBRANCH   7   8
ENDBRANCH   6   7
ENDBRANCH   5   6
ENDBRANCH   4   5
ENDBRANCH   3   4
ENDBRANCH   2   3
ENDBRANCH   1   2
BRANCH   1  11
ATOM     11  C   UNL     1       4.452 -12.740 -14.924  1.00  0.00     0.000 C 
BRANCH  11  12
ATOM     12  C   UNL     1       2.987 -12.600 -14.480  1.00  0.00    -0.000 C 
BRANCH  12  13
ATOM     13  C   UNL     1       2.009 -13.292 -15.444  1.00  0.00    -0.000 C 
BRANCH  13  14
ATOM     14  C   UNL     1       2.687 -13.738 -16.750  1.00  0.00    -0.000 C 
BRANCH  14  15
ATOM     15  C   UNL     1       1.690 -13.906 -17.909  1.00  0.00    -0.000 C 
BRANCH  15  16
ATOM     16  C   UNL     1       1.153 -15.343 -18.032  1.00  0.00    -0.000 C 
BRANCH  16  17
ATOM     17  C   UNL     1      -0.344 -15.442 -18.382  1.00  0.00    -0.003 C 
ATOM     18  C   UNL     1      -0.726 -16.791 -18.988  1.00  0.00     0.004 C 
ENDBRANCH  16  17
ENDBRANCH  15  16
ENDBRANCH  14  15
ENDBRANCH  13  14
ENDBRANCH  12  13
ENDBRANCH  11  12
ENDBRANCH   1  11
TORSDOF 14
ENDMDL
MODEL 3
REMARK VINA RESULT:    -4.587      3.586      6.983
REMARK INTER + INTRA:          -9.672
REMARK INTER:                  -8.449
REMARK INTRA:                  -1.223
REMARK UNBOUND:                -1.331
REMARK SMILES CCCCCCCCCCCCCCCC(=O)[O-]
REMARK SMILES IDX 9 1 10 2 11 3 12 4 13 5 14 6 15 7 16 8 17 9 18 10 8 11 7 12
REMARK SMILES IDX 6 13 5 14 4 15 3 16 2 17 1 18
REMARK H PARENT
REMARK Flexibility Score: inf
ROOT
ATOM      1  C   UNL     1       3.123 -12.669 -15.027  1.00  0.00     0.000 C 
ENDROOT
BRANCH   1   2
ATOM      2  C   UNL     1       2.174 -13.414 -15.974  1.00  0.00     0.000 C 
BRANCH   2   3
ATOM      3  C   UNL     1       2.803 -13.579 -17.366  1.00  0.00     0.000 C 
BRANCH   3   4
ATOM      4  C   UNL     1       1.763 -13.908 -18.449  1.00  0.00     0.000 C 
BRANCH   4   5
ATOM      5  C   UNL     1       0.738 -14.958 -17.985  1.00  0.00     0.000 C 
BRANCH   5   6
ATOM      6  C   UNL     1       1.110 -16.382 -18.431  1.00  0.00     0.006 C 
BRANCH   6   7
ATOM      7  C   UNL     1      -0.107 -17.191 -18.897  1.00  0.00     0.053 C 
BRANCH   7   8
ATOM      8  C   UNL     1       0.237 -18.644 -18.991  1.00  0.00     0.041 C 
ATOM      9  O   UNL     1      -0.264 -19.355 -19.902  1.00  0.00    -0.550 OA
ATOM     10  O   UNL     1       1.071 -19.223 -18.045  1.00  0.00    -0.550 OA
ENDBRANCH   7   8
ENDBRANCH   6   7
ENDBRANCH   5   6
ENDBRANCH   4   5
ENDBRANCH   3   4
ENDBRANCH   2   3
ENDBRANCH   1   2
BRANCH   1  11
ATOM     11  C   UNL     1       4.556 -12.654 -15.583  1.00  0.00     0.000 C 
BRANCH  11  12
ATOM     12  C   UNL     1       4.962 -11.279 -16.139  1.00  0.00    -0.000 C 
BRANCH  12  13
ATOM     13  C   UNL     1       4.017 -10.155 -15.682  1.00  0.00    -0.000 C 
BRANCH  13  14
ATOM     14  C   UNL     1       3.455  -9.344 -16.861  1.00  0.00    -0.000 C 
BRANCH  14  15
ATOM     15  C   UNL     1       3.051 -10.231 -18.052  1.00  0.00    -0.000 C 
BRANCH  15  16
ATOM     16  C   UNL     1       3.929  -9.997 -19.294  1.00  0.00    -0.000 C 
BRANCH  16  17
ATOM     17  C   UNL     1       4.950 -11.114 -19.580  1.00  0.00    -0.003 C 
ATOM     18  C   UNL     1       6.098 -10.657 -20.478  1.00  0.00     0.004 C 
ENDBRANCH  16  17
ENDBRANCH  15  16
ENDBRANCH  14  15
ENDBRANCH  13  14
ENDBRANCH  12  13
ENDBRANCH  11  12
ENDBRANCH   1  11
TORSDOF 14
ENDMDL
MODEL 4
REMARK VINA RESULT:    -4.573      3.730      7.383
REMARK INTER + INTRA:          -9.647
REMARK INTER:                  -8.390
REMARK INTRA:                  -1.257
REMARK UNBOUND:                -1.331
REMARK SMILES CCCCCCCCCCCCCCCC(=O)[O-]
REMARK SMILES IDX 9 1 10 2 11 3 12 4 13 5 14 6 15 7 16 8 17 9 18 10 8 11 7 12
REMARK SMILES IDX 6 13 5 14 4 15 3 16 2 17 1 18
REMARK H PARENT
REMARK Flexibility Score: inf
ROOT
ATOM      1  C   UNL     1       3.538 -13.288 -16.145  1.00  0.00     0.000 C 
ENDROOT
BRANCH   1   2
ATOM      2  C   UNL     1       2.069 -13.591 -16.468  1.00  0.00     0.000 C 
BRANCH   2   3
ATOM      3  C   UNL     1       1.932 -14.229 -17.859  1.00  0.00     0.000 C 
BRANCH   3   4
ATOM      4  C   UNL     1       0.607 -14.988 -18.032  1.00  0.00     0.000 C 
BRANCH   4   5
ATOM      5  C   UNL     1       0.812 -16.426 -18.540  1.00  0.00     0.000 C 
BRANCH   5   6
ATOM      6  C   UNL     1      -0.470 -17.030 -19.134  1.00  0.00     0.006 C 
BRANCH   6   7
ATOM      7  C   UNL     1      -0.857 -18.360 -18.474  1.00  0.00     0.053 C 
BRANCH   7   8
ATOM      8  C   UNL     1       0.247 -19.358 -18.625  1.00  0.00     0.041 C 
ATOM      9  O   UNL     1       0.494 -19.864 -19.751  1.00  0.00    -0.550 OA
ATOM     10  O   UNL     1       0.972 -19.765 -17.513  1.00  0.00    -0.550 OA
ENDBRANCH   7   8
ENDBRANCH   6   7
ENDBRANCH   5   6
ENDBRANCH   4   5
ENDBRANCH   3   4
ENDBRANCH   2   3
ENDBRANCH   1   2
BRANCH   1  11
ATOM     11  C   UNL     1       3.667 -12.567 -14.794  1.00  0.00     0.000 C 
BRANCH  11  12
ATOM     12  C   UNL     1       4.171 -11.122 -14.939  1.00  0.00    -0.000 C 
BRANCH  12  13
ATOM     13  C   UNL     1       4.519 -10.761 -16.393  1.00  0.00    -0.000 C 
BRANCH  13  14
ATOM     14  C   UNL     1       3.571  -9.703 -16.980  1.00  0.00    -0.000 C 
BRANCH  14  15
ATOM     15  C   UNL     1       2.877 -10.176 -18.269  1.00  0.00    -0.000 C 
BRANCH  15  16
ATOM     16  C   UNL     1       3.790 -11.043 -19.154  1.00  0.00    -0.000 C 
BRANCH  16  17
ATOM     17  C   UNL     1       4.592 -10.261 -20.211  1.00  0.00    -0.003 C 
ATOM     18  C   UNL     1       6.049 -10.710 -20.308  1.00  0.00     0.004 C 
ENDBRANCH  16  17
ENDBRANCH  15  16
ENDBRANCH  14  15
ENDBRANCH  13  14
ENDBRANCH  12  13
ENDBRANCH  11  12
ENDBRANCH   1  11
TORSDOF 14
ENDMDL
MODEL 5
REMARK VINA RESULT:    -4.518      0.783      1.453
REMARK INTER + INTRA:          -9.547
REMARK INTER:                  -8.249
REMARK INTRA:                  -1.298
REMARK UNBOUND:                -1.331
REMARK SMILES CCCCCCCCCCCCCCCC(=O)[O-]
REMARK SMILES IDX 9 1 10 2 11 3 12 4 13 5 14 6 15 7 16 8 17 9 18 10 8 11 7 12
REMARK SMILES IDX 6 13 5 14 4 15 3 16 2 17 1 18
REMARK H PARENT
REMARK Flexibility Score: inf
ROOT
ATOM      1  C   UNL     1       2.111 -13.359 -15.491  1.00  0.00     0.000 C 
ENDROOT
BRANCH   1   2
ATOM      2  C   UNL     1       3.104 -12.510 -14.686  1.00  0.00     0.000 C 
BRANCH   2   3
ATOM      3  C   UNL     1       4.381 -12.241 -15.496  1.00  0.00     0.000 C 
BRANCH   3   4
ATOM      4  C   UNL     1       4.595 -10.746 -15.781  1.00  0.00     0.000 C 
BRANCH   4   5
ATOM      5  C   UNL     1       3.317 -10.051 -16.282  1.00  0.00     0.000 C 
BRANCH   5   6
ATOM      6  C   UNL     1       3.443  -9.561 -17.733  1.00  0.00     0.006 C 
BRANCH   6   7
ATOM      7  C   UNL     1       3.282 -10.694 -18.755  1.00  0.00     0.053 C 
BRANCH   7   8
ATOM      8  C   UNL     1       4.482 -10.767 -19.646  1.00  0.00     0.041 C 
ATOM      9  O   UNL     1       5.421 -11.563 -19.379  1.00  0.00    -0.550 OA
ATOM     10  O   UNL     1       4.585  -9.923 -20.743  1.00  0.00    -0.550 OA
ENDBRANCH   7   8
ENDBRANCH   6   7
ENDBRANCH   5   6
ENDBRANCH   4   5
ENDBRANCH   3   4
ENDBRANCH   2   3
ENDBRANCH   1   2
BRANCH   1  11
ATOM     11  C   UNL     1       2.698 -13.742 -16.859  1.00  0.00     0.000 C 
BRANCH  11  12
ATOM     12  C   UNL     1       1.617 -13.940 -17.934  1.00  0.00    -0.000 C 
BRANCH  12  13
ATOM     13  C   UNL     1       1.260 -15.422 -18.147  1.00  0.00    -0.000 C 
BRANCH  13  14
ATOM     14  C   UNL     1      -0.238 -15.632 -18.423  1.00  0.00    -0.000 C 
BRANCH  14  15
ATOM     15  C   UNL     1      -0.548 -17.034 -18.975  1.00  0.00    -0.000 C 
BRANCH  15  16
ATOM     16  C   UNL     1       0.619 -18.020 -18.793  1.00  0.00    -0.000 C 
BRANCH  16  17
ATOM     17  C   UNL     1       0.330 -19.191 -17.836  1.00  0.00    -0.003 C 
ATOM     18  C   UNL     1       1.529 -19.563 -16.967  1.00  0.00     0.004 C 
ENDBRANCH  16  17
ENDBRANCH  15  16
ENDBRANCH  14  15
ENDBRANCH  13  14
ENDBRANCH  12  13
ENDBRANCH  11  12
ENDBRANCH   1  11
TORSDOF 14
ENDMDL
MODEL 6
REMARK VINA RESULT:    -4.518      2.475      6.449
REMARK INTER + INTRA:          -9.546
REMARK INTER:                  -7.889
REMARK INTRA:                  -1.657
REMARK UNBOUND:                -1.331
REMARK SMILES CCCCCCCCCCCCCCCC(=O)[O-]
REMARK SMILES IDX 9 1 10 2 11 3 12 4 13 5 14 6 15 7 16 8 17 9 18 10 8 11 7 12
REMARK SMILES IDX 6 13 5 14 4 15 3 16 2 17 1 18
REMARK H PARENT
REMARK Flexibility Score: inf
ROOT
ATOM      1  C   UNL     1       2.320 -13.309 -15.364  1.00  0.00     0.000 C 
ENDROOT
BRANCH   1   2
ATOM      2  C   UNL     1       3.178 -13.344 -16.636  1.00  0.00     0.000 C 
BRANCH   2   3
ATOM      3  C   UNL     1       2.297 -13.417 -17.892  1.00  0.00     0.000 C 
BRANCH   3   4
ATOM      4  C   UNL     1       2.570 -12.267 -18.874  1.00  0.00     0.000 C 
BRANCH   4   5
ATOM      5  C   UNL     1       2.646 -10.898 -18.174  1.00  0.00     0.000 C 
BRANCH   5   6
ATOM      6  C   UNL     1       3.944 -10.142 -18.498  1.00  0.00     0.006 C 
BRANCH   6   7
ATOM      7  C   UNL     1       5.065 -11.072 -18.980  1.00  0.00     0.053 C 
BRANCH   7   8
ATOM      8  C   UNL     1       5.598 -10.606 -20.298  1.00  0.00     0.041 C 
ATOM      9  O   UNL     1       6.824 -10.724 -20.562  1.00  0.00    -0.550 OA
ATOM     10  O   UNL     1       4.751  -9.999 -21.215  1.00  0.00    -0.550 OA
ENDBRANCH   7   8
ENDBRANCH   6   7
ENDBRANCH   5   6
ENDBRANCH   4   5
ENDBRANCH   3   4
ENDBRANCH   2   3
ENDBRANCH   1   2
BRANCH   1  11
ATOM     11  C   UNL     1       2.873 -12.289 -14.356  1.00  0.00     0.000 C 
BRANCH  11  12
ATOM     12  C   UNL     1       4.322 -11.879 -14.663  1.00  0.00    -0.000 C 
BRANCH  12  13
ATOM     13  C   UNL     1       4.472 -10.364 -14.888  1.00  0.00    -0.000 C 
BRANCH  13  14
ATOM     14  C   UNL     1       4.918  -9.621 -13.619  1.00  0.00    -0.000 C 
BRANCH  14  15
ATOM     15  C   UNL     1       4.611  -8.115 -13.673  1.00  0.00    -0.000 C 
BRANCH  15  16
ATOM     16  C   UNL     1       3.695  -7.734 -14.849  1.00  0.00    -0.000 C 
BRANCH  16  17
ATOM     17  C   UNL     1       2.834  -6.479 -14.614  1.00  0.00    -0.003 C 
ATOM     18  C   UNL     1       2.478  -6.266 -13.144  1.00  0.00     0.004 C 
ENDBRANCH  16  17
ENDBRANCH  15  16
ENDBRANCH  14  15
ENDBRANCH  13  14
ENDBRANCH  12  13
ENDBRANCH  11  12
ENDBRANCH   1  11
TORSDOF 14
ENDMDL
MODEL 7
REMARK VINA RESULT:    -4.498      3.543      5.805
REMARK INTER + INTRA:          -9.510
REMARK INTER:                  -7.960
REMARK INTRA:                  -1.551
REMARK UNBOUND:                -1.331
REMARK SMILES CCCCCCCCCCCCCCCC(=O)[O-]
REMARK SMILES IDX 9 1 10 2 11 3 12 4 13 5 14 6 15 7 16 8 17 9 18 10 8 11 7 12
REMARK SMILES IDX 6 13 5 14 4 15 3 16 2 17 1 18
REMARK H PARENT
REMARK Flexibility Score: inf
ROOT
ATOM      1  C   UNL     1       2.167 -13.192 -15.386  1.00  0.00     0.000 C 
ENDROOT
BRANCH   1   2
ATOM      2  C   UNL     1       3.302 -12.593 -14.546  1.00  0.00     0.000 C 
BRANCH   2   3
ATOM      3  C   UNL     1       4.581 -12.434 -15.382  1.00  0.00     0.000 C 
BRANCH   3   4
ATOM      4  C   UNL     1       4.921 -10.963 -15.668  1.00  0.00     0.000 C 
BRANCH   4   5
ATOM      5  C   UNL     1       4.615 -10.042 -14.473  1.00  0.00     0.000 C 
BRANCH   5   6
ATOM      6  C   UNL     1       4.153  -8.643 -14.910  1.00  0.00     0.006 C 
BRANCH   6   7
ATOM      7  C   UNL     1       4.174  -7.629 -13.759  1.00  0.00     0.053 C 
BRANCH   7   8
ATOM      8  C   UNL     1       3.030  -6.674 -13.884  1.00  0.00     0.041 C 
ATOM      9  O   UNL     1       2.671  -6.260 -15.018  1.00  0.00    -0.550 OA
ATOM     10  O   UNL     1       2.390  -6.203 -12.745  1.00  0.00    -0.550 OA
ENDBRANCH   7   8
ENDBRANCH   6   7
ENDBRANCH   5   6
ENDBRANCH   4   5
ENDBRANCH   3   4
ENDBRANCH   2   3
ENDBRANCH   1   2
BRANCH   1  11
ATOM     11  C   UNL     1       2.715 -13.854 -16.660  1.00  0.00     0.000 C 
BRANCH  11  12
ATOM     12  C   UNL     1       2.022 -13.349 -17.936  1.00  0.00    -0.000 C 
BRANCH  12  13
ATOM     13  C   UNL     1       2.914 -12.403 -18.758  1.00  0.00    -0.000 C 
BRANCH  13  14
ATOM     14  C   UNL     1       2.613 -10.921 -18.478  1.00  0.00    -0.000 C 
BRANCH  14  15
ATOM     15  C   UNL     1       3.832 -10.013 -18.718  1.00  0.00    -0.000 C 
BRANCH  15  16
ATOM     16  C   UNL     1       4.308 -10.026 -20.181  1.00  0.00    -0.000 C 
BRANCH  16  17
ATOM     17  C   UNL     1       5.694 -10.662 -20.401  1.00  0.00    -0.003 C 
ATOM     18  C   UNL     1       6.195 -11.436 -19.183  1.00  0.00     0.004 C 
ENDBRANCH  16  17
ENDBRANCH  15  16
ENDBRANCH  14  15
ENDBRANCH  13  14
ENDBRANCH  12  13
ENDBRANCH  11  12
ENDBRANCH   1  11
TORSDOF 14
ENDMDL
MODEL 8
REMARK VINA RESULT:    -4.252      3.775      7.644
REMARK INTER + INTRA:          -9.063
REMARK INTER:                  -7.954
REMARK INTRA:                  -1.109
REMARK UNBOUND:                -1.331
REMARK SMILES CCCCCCCCCCCCCCCC(=O)[O-]
REMARK SMILES IDX 9 1 10 2 11 3 12 4 13 5 14 6 15 7 16 8 17 9 18 10 8 11 7 12
REMARK SMILES IDX 6 13 5 14 4 15 3 16 2 17 1 18
REMARK H PARENT
REMARK Flexibility Score: inf
ROOT
ATOM      1  C   UNL     1       2.384 -13.688 -18.735  1.00  0.00     0.000 C 
ENDROOT
BRANCH   1   2
ATOM      2  C   UNL     1       1.335 -14.313 -17.806  1.00  0.00     0.000 C 
BRANCH   2   3
ATOM      3  C   UNL     1       0.729 -15.578 -18.432  1.00  0.00     0.000 C 
BRANCH   3   4
ATOM      4  C   UNL     1      -0.807 -15.543 -18.466  1.00  0.00     0.000 C 
BRANCH   4   5
ATOM      5  C   UNL     1      -1.393 -16.393 -19.607  1.00  0.00     0.000 C 
BRANCH   5   6
ATOM      6  C   UNL     1      -1.632 -17.853 -19.192  1.00  0.00     0.006 C 
BRANCH   6   7
ATOM      7  C   UNL     1      -0.425 -18.755 -19.478  1.00  0.00     0.053 C 
BRANCH   7   8
ATOM      8  C   UNL     1       0.161 -19.264 -18.200  1.00  0.00     0.041 C 
ATOM      9  O   UNL     1      -0.559 -19.891 -17.378  1.00  0.00    -0.550 OA
ATOM     10  O   UNL     1       1.491 -19.006 -17.893  1.00  0.00    -0.550 OA
ENDBRANCH   7   8
ENDBRANCH   6   7
ENDBRANCH   5   6
ENDBRANCH   4   5
ENDBRANCH   3   4
ENDBRANCH   2   3
ENDBRANCH   1   2
BRANCH   1  11
ATOM     11  C   UNL     1       2.425 -12.161 -18.569  1.00  0.00     0.000 C 
BRANCH  11  12
ATOM     12  C   UNL     1       3.704 -11.535 -19.149  1.00  0.00    -0.000 C 
BRANCH  12  13
ATOM     13  C   UNL     1       4.028 -10.167 -18.525  1.00  0.00    -0.000 C 
BRANCH  13  14
ATOM     14  C   UNL     1       3.228  -9.903 -17.239  1.00  0.00    -0.000 C 
BRANCH  14  15
ATOM     15  C   UNL     1       4.084 -10.042 -15.969  1.00  0.00    -0.000 C 
BRANCH  15  16
ATOM     16  C   UNL     1       4.733 -11.431 -15.836  1.00  0.00    -0.000 C 
BRANCH  16  17
ATOM     17  C   UNL     1       4.224 -12.268 -14.648  1.00  0.00    -0.003 C 
ATOM     18  C   UNL     1       2.775 -12.722 -14.814  1.00  0.00     0.004 C 
ENDBRANCH  16  17
ENDBRANCH  15  16
ENDBRANCH  14  15
ENDBRANCH  13  14
ENDBRANCH  12  13
ENDBRANCH  11  12
ENDBRANCH   1  11
TORSDOF 14
ENDMDL
MODEL 9
REMARK VINA RESULT:    -4.251      2.302      3.571
REMARK INTER + INTRA:          -9.060
REMARK INTER:                  -7.754
REMARK INTRA:                  -1.307
REMARK UNBOUND:                -1.331
REMARK SMILES CCCCCCCCCCCCCCCC(=O)[O-]
REMARK SMILES IDX 9 1 10 2 11 3 12 4 13 5 14 6 15 7 16 8 17 9 18 10 8 11 7 12
REMARK SMILES IDX 6 13 5 14 4 15 3 16 2 17 1 18
REMARK H PARENT
REMARK Flexibility Score: inf
ROOT
ATOM      1  C   UNL     1       2.369 -12.362 -18.748  1.00  0.00     0.000 C 
ENDROOT
BRANCH   1   2
ATOM      2  C   UNL     1       3.786 -11.837 -19.011  1.00  0.00     0.000 C 
BRANCH   2   3
ATOM      3  C   UNL     1       3.878 -10.331 -18.721  1.00  0.00     0.000 C 
BRANCH   3   4
ATOM      4  C   UNL     1       2.901  -9.880 -17.624  1.00  0.00     0.000 C 
BRANCH   4   5
ATOM      5  C   UNL     1       3.622  -9.323 -16.384  1.00  0.00     0.000 C 
BRANCH   5   6
ATOM      6  C   UNL     1       4.628 -10.320 -15.788  1.00  0.00     0.006 C 
BRANCH   6   7
ATOM      7  C   UNL     1       4.014 -11.190 -14.684  1.00  0.00     0.053 C 
BRANCH   7   8
ATOM      8  C   UNL     1       3.746 -12.570 -15.196  1.00  0.00     0.041 C 
ATOM      9  O   UNL     1       4.628 -13.185 -15.851  1.00  0.00    -0.550 OA
ATOM     10  O   UNL     1       2.505 -13.159 -14.989  1.00  0.00    -0.550 OA
ENDBRANCH   7   8
ENDBRANCH   6   7
ENDBRANCH   5   6
ENDBRANCH   4   5
ENDBRANCH   3   4
ENDBRANCH   2   3
ENDBRANCH   1   2
BRANCH   1  11
ATOM     11  C   UNL     1       2.381 -13.880 -18.505  1.00  0.00     0.000 C 
BRANCH  11  12
ATOM     12  C   UNL     1       1.043 -14.404 -17.961  1.00  0.00    -0.000 C 
BRANCH  12  13
ATOM     13  C   UNL     1       0.780 -15.869 -18.351  1.00  0.00    -0.000 C 
BRANCH  13  14
ATOM     14  C   UNL     1      -0.706 -16.143 -18.636  1.00  0.00    -0.000 C 
BRANCH  14  15
ATOM     15  C   UNL     1      -1.011 -17.642 -18.807  1.00  0.00    -0.000 C 
BRANCH  15  16
ATOM     16  C   UNL     1       0.233 -18.464 -19.190  1.00  0.00    -0.000 C 
BRANCH  16  17
ATOM     17  C   UNL     1       0.356 -19.818 -18.469  1.00  0.00    -0.003 C 
ATOM     18  C   UNL     1       1.014 -19.705 -17.095  1.00  0.00     0.004 C 
ENDBRANCH  16  17
ENDBRANCH  15  16
ENDBRANCH  14  15
ENDBRANCH  13  14
ENDBRANCH  12  13
ENDBRANCH  11  12
ENDBRANCH   1  11
TORSDOF 14
ENDMDL
