MODEL 1
REMARK VINA RESULT:    -6.168      0.000      0.000
REMARK INTER + INTRA:         -17.652
REMARK INTER:                 -15.543
REMARK INTRA:                  -2.109
REMARK UNBOUND:                -2.109
REMARK SMILES CCCCCCCCCCCCCCCCCCCCCCCCCCCC(=O)[O-]
REMARK SMILES IDX 15 1 16 2 17 3 18 4 19 5 20 6 21 7 22 8 23 9 24 10 25 11
REMARK SMILES IDX 26 12 27 13 28 14 29 15 30 16 14 17 13 18 12 19 11 20 10 21
REMARK SMILES IDX 9 22 8 23 7 24 6 25 5 26 4 27 3 28 2 29 1 30
REMARK H PARENT
REMARK Flexibility Score: inf
ROOT
ATOM      1  C   UNL     1      -9.025  63.768  46.966  1.00  0.00     0.000 C 
ENDROOT
BRANCH   1   2
ATOM      2  C   UNL     1      -9.010  62.247  46.727  1.00  0.00     0.000 C 
BRANCH   2   3
ATOM      3  C   UNL     1      -9.244  61.871  45.254  1.00  0.00     0.000 C 
BRANCH   3   4
ATOM      4  C   UNL     1      -9.523  63.098  44.370  1.00  0.00     0.000 C 
BRANCH   4   5
ATOM      5  C   UNL     1      -9.961  62.713  42.944  1.00  0.00     0.000 C 
BRANCH   5   6
ATOM      6  C   UNL     1      -9.905  63.899  41.967  1.00  0.00     0.000 C 
BRANCH   6   7
ATOM      7  C   UNL     1      -9.054  63.602  40.721  1.00  0.00     0.000 C 
BRANCH   7   8
ATOM      8  C   UNL     1      -9.811  63.875  39.411  1.00  0.00     0.000 C 
BRANCH   8   9
ATOM      9  C   UNL     1     -11.198  63.207  39.375  1.00  0.00     0.000 C 
BRANCH   9  10
ATOM     10  C   UNL     1     -11.096  61.683  39.191  1.00  0.00     0.000 C 
BRANCH  10  11
ATOM     11  C   UNL     1     -11.822  60.896  40.305  1.00  0.00     0.000 C 
BRANCH  11  12
ATOM     12  C   UNL     1     -12.651  59.707  39.786  1.00  0.00     0.006 C 
BRANCH  12  13
ATOM     13  C   UNL     1     -13.511  60.040  38.554  1.00  0.00     0.053 C 
BRANCH  13  14
ATOM     14  C   UNL     1     -14.720  60.856  38.899  1.00  0.00     0.041 C 
ATOM     15  O   UNL     1     -15.211  60.807  40.058  1.00  0.00    -0.550 OA
ATOM     16  O   UNL     1     -15.330  61.645  37.930  1.00  0.00    -0.550 OA
ENDBRANCH  13  14
ENDBRANCH  12  13
ENDBRANCH  11  12
ENDBRANCH  10  11
ENDBRANCH   9  10
ENDBRANCH   8   9
ENDBRANCH   7   8
ENDBRANCH   6   7
ENDBRANCH   5   6
ENDBRANCH   4   5
ENDBRANCH   3   4
ENDBRANCH   2   3
ENDBRANCH   1   2
BRANCH   1  17
ATOM     17  C   UNL     1      -9.552  64.216  48.345  1.00  0.00     0.000 C 
BRANCH  17  18
ATOM     18  C   UNL     1      -8.468  64.627  49.359  1.00  0.00     0.000 C 
BRANCH  18  19
ATOM     19  C   UNL     1      -7.639  63.436  49.864  1.00  0.00     0.000 C 
BRANCH  19  20
ATOM     20  C   UNL     1      -6.360  63.921  50.562  1.00  0.00     0.000 C 
BRANCH  20  21
ATOM     21  C   UNL     1      -6.613  65.095  51.520  1.00  0.00     0.000 C 
BRANCH  21  22
ATOM     22  C   UNL     1      -6.606  64.669  52.997  1.00  0.00    -0.000 C 
BRANCH  22  23
ATOM     23  C   UNL     1      -7.987  64.161  53.430  1.00  0.00    -0.000 C 
BRANCH  23  24
ATOM     24  C   UNL     1      -7.857  62.926  54.334  1.00  0.00    -0.000 C 
BRANCH  24  25
ATOM     25  C   UNL     1      -7.711  61.617  53.539  1.00  0.00    -0.000 C 
BRANCH  25  26
ATOM     26  C   UNL     1      -6.530  60.720  53.967  1.00  0.00    -0.000 C 
BRANCH  26  27
ATOM     27  C   UNL     1      -5.371  61.454  54.662  1.00  0.00    -0.000 C 
BRANCH  27  28
ATOM     28  C   UNL     1      -4.229  60.509  55.074  1.00  0.00    -0.000 C 
BRANCH  28  29
ATOM     29  C   UNL     1      -4.708  59.371  55.990  1.00  0.00    -0.003 C 
ATOM     30  C   UNL     1      -3.856  59.234  57.252  1.00  0.00     0.004 C 
ENDBRANCH  28  29
ENDBRANCH  27  28
ENDBRANCH  26  27
ENDBRANCH  25  26
ENDBRANCH  24  25
ENDBRANCH  23  24
ENDBRANCH  22  23
ENDBRANCH  21  22
ENDBRANCH  20  21
ENDBRANCH  19  20
ENDBRANCH  18  19
ENDBRANCH  17  18
ENDBRANCH   1  17
TORSDOF 26
ENDMDL
MODEL 2
REMARK VINA RESULT:    -6.153      5.085     14.010
REMARK INTER + INTRA:         -17.614
REMARK INTER:                 -15.875
REMARK INTRA:                  -1.740
REMARK UNBOUND:                -2.109
REMARK SMILES CCCCCCCCCCCCCCCCCCCCCCCCCCCC(=O)[O-]
REMARK SMILES IDX 15 1 16 2 17 3 18 4 19 5 20 6 21 7 22 8 23 9 24 10 25 11
REMARK SMILES IDX 26 12 27 13 28 14 29 15 30 16 14 17 13 18 12 19 11 20 10 21
REMARK SMILES IDX 9 22 8 23 7 24 6 25 5 26 4 27 3 28 2 29 1 30
REMARK H PARENT
REMARK Flexibility Score: inf
ROOT
ATOM      1  C   UNL     1      -9.223  62.591  47.375  1.00  0.00     0.000 C 
ENDROOT
BRANCH   1   2
ATOM      2  C   UNL     1      -9.597  63.952  47.989  1.00  0.00     0.000 C 
BRANCH   2   3
ATOM      3  C   UNL     1      -8.478  64.539  48.867  1.00  0.00     0.000 C 
BRANCH   3   4
ATOM      4  C   UNL     1      -7.738  63.461  49.676  1.00  0.00     0.000 C 
BRANCH   4   5
ATOM      5  C   UNL     1      -6.244  63.786  49.865  1.00  0.00     0.000 C 
BRANCH   5   6
ATOM      6  C   UNL     1      -6.002  65.253  50.256  1.00  0.00     0.000 C 
BRANCH   6   7
ATOM      7  C   UNL     1      -6.604  65.610  51.626  1.00  0.00     0.000 C 
BRANCH   7   8
ATOM      8  C   UNL     1      -6.514  64.451  52.631  1.00  0.00     0.000 C 
BRANCH   8   9
ATOM      9  C   UNL     1      -7.746  64.363  53.550  1.00  0.00     0.000 C 
BRANCH   9  10
ATOM     10  C   UNL     1      -7.809  63.019  54.297  1.00  0.00     0.000 C 
BRANCH  10  11
ATOM     11  C   UNL     1      -7.525  61.810  53.377  1.00  0.00     0.000 C 
BRANCH  11  12
ATOM     12  C   UNL     1      -6.503  60.816  53.957  1.00  0.00     0.006 C 
BRANCH  12  13
ATOM     13  C   UNL     1      -6.369  60.883  55.489  1.00  0.00     0.053 C 
BRANCH  13  14
ATOM     14  C   UNL     1      -5.475  59.811  56.036  1.00  0.00     0.041 C 
ATOM     15  O   UNL     1      -4.603  60.091  56.901  1.00  0.00    -0.550 OA
ATOM     16  O   UNL     1      -5.577  58.508  55.564  1.00  0.00    -0.550 OA
ENDBRANCH  13  14
ENDBRANCH  12  13
ENDBRANCH  11  12
ENDBRANCH  10  11
ENDBRANCH   9  10
ENDBRANCH   8   9
ENDBRANCH   7   8
ENDBRANCH   6   7
ENDBRANCH   5   6
ENDBRANCH   4   5
ENDBRANCH   3   4
ENDBRANCH   2   3
ENDBRANCH   1   2
BRANCH   1  17
ATOM     17  C   UNL     1      -8.892  62.613  45.868  1.00  0.00     0.000 C 
BRANCH  17  18
ATOM     18  C   UNL     1      -9.534  61.485  45.038  1.00  0.00     0.000 C 
BRANCH  18  19
ATOM     19  C   UNL     1     -10.000  61.954  43.652  1.00  0.00     0.000 C 
BRANCH  19  20
ATOM     20  C   UNL     1      -9.636  63.429  43.425  1.00  0.00     0.000 C 
BRANCH  20  21
ATOM     21  C   UNL     1      -9.922  63.898  41.990  1.00  0.00     0.000 C 
BRANCH  21  22
ATOM     22  C   UNL     1      -9.329  62.957  40.928  1.00  0.00    -0.000 C 
BRANCH  22  23
ATOM     23  C   UNL     1      -9.622  63.470  39.513  1.00  0.00    -0.000 C 
BRANCH  23  24
ATOM     24  C   UNL     1     -10.367  62.409  38.689  1.00  0.00    -0.000 C 
BRANCH  24  25
ATOM     25  C   UNL     1     -11.836  62.243  39.116  1.00  0.00    -0.000 C 
BRANCH  25  26
ATOM     26  C   UNL     1     -12.193  60.866  39.712  1.00  0.00    -0.000 C 
BRANCH  26  27
ATOM     27  C   UNL     1     -13.254  60.071  38.932  1.00  0.00    -0.000 C 
BRANCH  27  28
ATOM     28  C   UNL     1     -14.691  60.428  39.350  1.00  0.00    -0.000 C 
BRANCH  28  29
ATOM     29  C   UNL     1     -15.535  60.950  38.176  1.00  0.00    -0.003 C 
ATOM     30  C   UNL     1     -17.034  60.924  38.472  1.00  0.00     0.004 C 
ENDBRANCH  28  29
ENDBRANCH  27  28
ENDBRANCH  26  27
ENDBRANCH  25  26
ENDBRANCH  24  25
ENDBRANCH  23  24
ENDBRANCH  22  23
ENDBRANCH  21  22
ENDBRANCH  20  21
ENDBRANCH  19  20
ENDBRANCH  18  19
ENDBRANCH  17  18
ENDBRANCH   1  17
TORSDOF 26
ENDMDL
MODEL 3
REMARK VINA RESULT:    -6.150      5.102     13.694
REMARK INTER + INTRA:         -17.606
REMARK INTER:                 -15.517
REMARK INTRA:                  -2.089
REMARK UNBOUND:                -2.109
REMARK SMILES CCCCCCCCCCCCCCCCCCCCCCCCCCCC(=O)[O-]
REMARK SMILES IDX 15 1 16 2 17 3 18 4 19 5 20 6 21 7 22 8 23 9 24 10 25 11
REMARK SMILES IDX 26 12 27 13 28 14 29 15 30 16 14 17 13 18 12 19 11 20 10 21
REMARK SMILES IDX 9 22 8 23 7 24 6 25 5 26 4 27 3 28 2 29 1 30
REMARK H PARENT
REMARK Flexibility Score: inf
ROOT
ATOM      1  C   UNL     1      -9.626  61.387  45.149  1.00  0.00     0.000 C 
ENDROOT
BRANCH   1   2
ATOM      2  C   UNL     1      -8.683  62.311  45.941  1.00  0.00     0.000 C 
BRANCH   2   3
ATOM      3  C   UNL     1      -9.131  62.515  47.398  1.00  0.00     0.000 C 
BRANCH   3   4
ATOM      4  C   UNL     1      -9.318  64.000  47.754  1.00  0.00     0.000 C 
BRANCH   4   5
ATOM      5  C   UNL     1      -8.794  64.343  49.161  1.00  0.00     0.000 C 
BRANCH   5   6
ATOM      6  C   UNL     1      -7.469  63.633  49.487  1.00  0.00     0.000 C 
BRANCH   6   7
ATOM      7  C   UNL     1      -6.769  64.223  50.723  1.00  0.00     0.000 C 
BRANCH   7   8
ATOM      8  C   UNL     1      -7.756  64.862  51.713  1.00  0.00     0.000 C 
BRANCH   8   9
ATOM      9  C   UNL     1      -7.721  64.197  53.101  1.00  0.00     0.000 C 
BRANCH   9  10
ATOM     10  C   UNL     1      -6.859  62.922  53.105  1.00  0.00     0.000 C 
BRANCH  10  11
ATOM     11  C   UNL     1      -7.496  61.772  53.917  1.00  0.00     0.000 C 
BRANCH  11  12
ATOM     12  C   UNL     1      -6.706  61.395  55.183  1.00  0.00     0.006 C 
BRANCH  12  13
ATOM     13  C   UNL     1      -5.488  60.493  54.911  1.00  0.00     0.053 C 
BRANCH  13  14
ATOM     14  C   UNL     1      -5.512  59.233  55.723  1.00  0.00     0.041 C 
ATOM     15  O   UNL     1      -6.601  58.783  56.167  1.00  0.00    -0.550 OA
ATOM     16  O   UNL     1      -4.325  58.574  56.024  1.00  0.00    -0.550 OA
ENDBRANCH  13  14
ENDBRANCH  12  13
ENDBRANCH  11  12
ENDBRANCH  10  11
ENDBRANCH   9  10
ENDBRANCH   8   9
ENDBRANCH   7   8
ENDBRANCH   6   7
ENDBRANCH   5   6
ENDBRANCH   4   5
ENDBRANCH   3   4
ENDBRANCH   2   3
ENDBRANCH   1   2
BRANCH   1  17
ATOM     17  C   UNL     1     -10.041  61.902  43.755  1.00  0.00     0.000 C 
BRANCH  17  18
ATOM     18  C   UNL     1      -9.698  63.377  43.472  1.00  0.00     0.000 C 
BRANCH  18  19
ATOM     19  C   UNL     1      -9.777  63.733  41.980  1.00  0.00     0.000 C 
BRANCH  19  20
ATOM     20  C   UNL     1      -9.782  65.256  41.783  1.00  0.00     0.000 C 
BRANCH  20  21
ATOM     21  C   UNL     1      -8.797  65.719  40.698  1.00  0.00     0.000 C 
BRANCH  21  22
ATOM     22  C   UNL     1      -8.200  64.549  39.900  1.00  0.00    -0.000 C 
BRANCH  22  23
ATOM     23  C   UNL     1      -8.643  64.600  38.433  1.00  0.00    -0.000 C 
BRANCH  23  24
ATOM     24  C   UNL     1     -10.013  63.929  38.251  1.00  0.00    -0.000 C 
BRANCH  24  25
ATOM     25  C   UNL     1     -10.033  62.469  38.736  1.00  0.00    -0.000 C 
BRANCH  25  26
ATOM     26  C   UNL     1     -11.433  61.905  39.055  1.00  0.00    -0.000 C 
BRANCH  26  27
ATOM     27  C   UNL     1     -11.481  60.898  40.218  1.00  0.00    -0.000 C 
BRANCH  27  28
ATOM     28  C   UNL     1     -12.624  59.878  40.074  1.00  0.00    -0.000 C 
BRANCH  28  29
ATOM     29  C   UNL     1     -13.577  60.219  38.917  1.00  0.00    -0.003 C 
ATOM     30  C   UNL     1     -14.946  60.693  39.403  1.00  0.00     0.004 C 
ENDBRANCH  28  29
ENDBRANCH  27  28
ENDBRANCH  26  27
ENDBRANCH  25  26
ENDBRANCH  24  25
ENDBRANCH  23  24
ENDBRANCH  22  23
ENDBRANCH  21  22
ENDBRANCH  20  21
ENDBRANCH  19  20
ENDBRANCH  18  19
ENDBRANCH  17  18
ENDBRANCH   1  17
TORSDOF 26
ENDMDL
MODEL 4
REMARK VINA RESULT:    -6.114      1.124      1.784
REMARK INTER + INTRA:         -17.516
REMARK INTER:                 -15.206
REMARK INTRA:                  -2.311
REMARK UNBOUND:                -2.109
REMARK SMILES CCCCCCCCCCCCCCCCCCCCCCCCCCCC(=O)[O-]
REMARK SMILES IDX 15 1 16 2 17 3 18 4 19 5 20 6 21 7 22 8 23 9 24 10 25 11
REMARK SMILES IDX 26 12 27 13 28 14 29 15 30 16 14 17 13 18 12 19 11 20 10 21
REMARK SMILES IDX 9 22 8 23 7 24 6 25 5 26 4 27 3 28 2 29 1 30
REMARK H PARENT
REMARK Flexibility Score: inf
ROOT
ATOM      1  C   UNL     1      -8.858  62.239  47.114  1.00  0.00     0.000 C 
ENDROOT
BRANCH   1   2
ATOM      2  C   UNL     1      -9.227  62.717  45.697  1.00  0.00     0.000 C 
BRANCH   2   3
ATOM      3  C   UNL     1      -9.262  61.572  44.671  1.00  0.00     0.000 C 
BRANCH   3   4
ATOM      4  C   UNL     1     -10.253  61.839  43.525  1.00  0.00     0.000 C 
BRANCH   4   5
ATOM      5  C   UNL     1      -9.615  62.614  42.358  1.00  0.00     0.000 C 
BRANCH   5   6
ATOM      6  C   UNL     1      -9.940  64.117  42.398  1.00  0.00     0.000 C 
BRANCH   6   7
ATOM      7  C   UNL     1      -9.344  64.885  41.206  1.00  0.00     0.000 C 
BRANCH   7   8
ATOM      8  C   UNL     1      -8.458  63.999  40.316  1.00  0.00     0.000 C 
BRANCH   8   9
ATOM      9  C   UNL     1      -8.646  64.286  38.815  1.00  0.00     0.000 C 
BRANCH   9  10
ATOM     10  C   UNL     1     -10.008  63.787  38.301  1.00  0.00     0.000 C 
BRANCH  10  11
ATOM     11  C   UNL     1     -10.268  62.303  38.641  1.00  0.00     0.000 C 
BRANCH  11  12
ATOM     12  C   UNL     1     -11.566  62.065  39.434  1.00  0.00     0.006 C 
BRANCH  12  13
ATOM     13  C   UNL     1     -11.653  60.670  40.080  1.00  0.00     0.053 C 
BRANCH  13  14
ATOM     14  C   UNL     1     -13.058  60.287  40.437  1.00  0.00     0.041 C 
ATOM     15  O   UNL     1     -13.431  60.289  41.639  1.00  0.00    -0.550 OA
ATOM     16  O   UNL     1     -13.946  59.891  39.444  1.00  0.00    -0.550 OA
ENDBRANCH  13  14
ENDBRANCH  12  13
ENDBRANCH  11  12
ENDBRANCH  10  11
ENDBRANCH   9  10
ENDBRANCH   8   9
ENDBRANCH   7   8
ENDBRANCH   6   7
ENDBRANCH   5   6
ENDBRANCH   4   5
ENDBRANCH   3   4
ENDBRANCH   2   3
ENDBRANCH   1   2
BRANCH   1  17
ATOM     17  C   UNL     1      -9.514  63.025  48.269  1.00  0.00     0.000 C 
BRANCH  17  18
ATOM     18  C   UNL     1      -9.134  64.515  48.347  1.00  0.00     0.000 C 
BRANCH  18  19
ATOM     19  C   UNL     1      -8.312  64.857  49.598  1.00  0.00     0.000 C 
BRANCH  19  20
ATOM     20  C   UNL     1      -6.900  64.261  49.501  1.00  0.00     0.000 C 
BRANCH  20  21
ATOM     21  C   UNL     1      -6.055  64.525  50.757  1.00  0.00     0.000 C 
BRANCH  21  22
ATOM     22  C   UNL     1      -6.640  65.635  51.645  1.00  0.00    -0.000 C 
BRANCH  22  23
ATOM     23  C   UNL     1      -6.812  65.152  53.090  1.00  0.00    -0.000 C 
BRANCH  23  24
ATOM     24  C   UNL     1      -7.932  64.106  53.188  1.00  0.00    -0.000 C 
BRANCH  24  25
ATOM     25  C   UNL     1      -7.705  63.090  54.321  1.00  0.00    -0.000 C 
BRANCH  25  26
ATOM     26  C   UNL     1      -7.800  61.608  53.902  1.00  0.00    -0.000 C 
BRANCH  26  27
ATOM     27  C   UNL     1      -6.457  60.858  53.847  1.00  0.00    -0.000 C 
BRANCH  27  28
ATOM     28  C   UNL     1      -5.544  61.185  55.041  1.00  0.00    -0.000 C 
BRANCH  28  29
ATOM     29  C   UNL     1      -4.614  60.018  55.410  1.00  0.00    -0.003 C 
ATOM     30  C   UNL     1      -5.335  58.913  56.182  1.00  0.00     0.004 C 
ENDBRANCH  28  29
ENDBRANCH  27  28
ENDBRANCH  26  27
ENDBRANCH  25  26
ENDBRANCH  24  25
ENDBRANCH  23  24
ENDBRANCH  22  23
ENDBRANCH  21  22
ENDBRANCH  20  21
ENDBRANCH  19  20
ENDBRANCH  18  19
ENDBRANCH  17  18
ENDBRANCH   1  17
TORSDOF 26
ENDMDL
MODEL 5
REMARK VINA RESULT:    -6.101      5.141     13.808
REMARK INTER + INTRA:         -17.484
REMARK INTER:                 -15.173
REMARK INTRA:                  -2.311
REMARK UNBOUND:                -2.109
REMARK SMILES CCCCCCCCCCCCCCCCCCCCCCCCCCCC(=O)[O-]
REMARK SMILES IDX 15 1 16 2 17 3 18 4 19 5 20 6 21 7 22 8 23 9 24 10 25 11
REMARK SMILES IDX 26 12 27 13 28 14 29 15 30 16 14 17 13 18 12 19 11 20 10 21
REMARK SMILES IDX 9 22 8 23 7 24 6 25 5 26 4 27 3 28 2 29 1 30
REMARK H PARENT
REMARK Flexibility Score: inf
ROOT
ATOM      1  C   UNL     1      -9.496  61.649  44.724  1.00  0.00     0.000 C 
ENDROOT
BRANCH   1   2
ATOM      2  C   UNL     1      -9.191  62.897  45.572  1.00  0.00     0.000 C 
BRANCH   2   3
ATOM      3  C   UNL     1      -8.729  62.553  46.998  1.00  0.00     0.000 C 
BRANCH   3   4
ATOM      4  C   UNL     1      -9.319  63.504  48.053  1.00  0.00     0.000 C 
BRANCH   4   5
ATOM      5  C   UNL     1      -8.613  63.386  49.417  1.00  0.00     0.000 C 
BRANCH   5   6
ATOM      6  C   UNL     1      -7.246  64.091  49.438  1.00  0.00     0.000 C 
BRANCH   6   7
ATOM      7  C   UNL     1      -7.201  65.272  50.422  1.00  0.00     0.000 C 
BRANCH   7   8
ATOM      8  C   UNL     1      -6.139  65.089  51.517  1.00  0.00     0.000 C 
BRANCH   8   9
ATOM      9  C   UNL     1      -6.666  65.436  52.921  1.00  0.00     0.000 C 
BRANCH   9  10
ATOM     10  C   UNL     1      -7.642  64.369  53.447  1.00  0.00     0.000 C 
BRANCH  10  11
ATOM     11  C   UNL     1      -7.098  62.931  53.290  1.00  0.00     0.000 C 
BRANCH  11  12
ATOM     12  C   UNL     1      -7.479  61.993  54.450  1.00  0.00     0.006 C 
BRANCH  12  13
ATOM     13  C   UNL     1      -6.740  60.643  54.426  1.00  0.00     0.053 C 
BRANCH  13  14
ATOM     14  C   UNL     1      -5.615  60.585  55.415  1.00  0.00     0.041 C 
ATOM     15  O   UNL     1      -5.725  59.899  56.465  1.00  0.00    -0.550 OA
ATOM     16  O   UNL     1      -4.455  61.320  55.196  1.00  0.00    -0.550 OA
ENDBRANCH  13  14
ENDBRANCH  12  13
ENDBRANCH  11  12
ENDBRANCH  10  11
ENDBRANCH   9  10
ENDBRANCH   8   9
ENDBRANCH   7   8
ENDBRANCH   6   7
ENDBRANCH   5   6
ENDBRANCH   4   5
ENDBRANCH   3   4
ENDBRANCH   2   3
ENDBRANCH   1   2
BRANCH   1  17
ATOM     17  C   UNL     1     -10.314  61.904  43.441  1.00  0.00     0.000 C 
BRANCH  17  18
ATOM     18  C   UNL     1      -9.600  62.739  42.362  1.00  0.00     0.000 C 
BRANCH  18  19
ATOM     19  C   UNL     1     -10.003  64.220  42.387  1.00  0.00     0.000 C 
BRANCH  19  20
ATOM     20  C   UNL     1      -9.392  64.971  41.194  1.00  0.00     0.000 C 
BRANCH  20  21
ATOM     21  C   UNL     1      -8.410  64.107  40.387  1.00  0.00     0.000 C 
BRANCH  21  22
ATOM     22  C   UNL     1      -8.590  64.264  38.869  1.00  0.00    -0.000 C 
BRANCH  22  23
ATOM     23  C   UNL     1     -10.025  63.927  38.447  1.00  0.00    -0.000 C 
BRANCH  23  24
ATOM     24  C   UNL     1     -10.300  62.423  38.596  1.00  0.00    -0.000 C 
BRANCH  24  25
ATOM     25  C   UNL     1     -11.602  62.127  39.361  1.00  0.00    -0.000 C 
BRANCH  25  26
ATOM     26  C   UNL     1     -11.613  60.797  40.144  1.00  0.00    -0.000 C 
BRANCH  26  27
ATOM     27  C   UNL     1     -12.895  59.960  39.991  1.00  0.00    -0.000 C 
BRANCH  27  28
ATOM     28  C   UNL     1     -13.434  59.957  38.550  1.00  0.00    -0.000 C 
BRANCH  28  29
ATOM     29  C   UNL     1     -14.928  60.313  38.479  1.00  0.00    -0.003 C 
ATOM     30  C   UNL     1     -15.182  61.814  38.615  1.00  0.00     0.004 C 
ENDBRANCH  28  29
ENDBRANCH  27  28
ENDBRANCH  26  27
ENDBRANCH  25  26
ENDBRANCH  24  25
ENDBRANCH  23  24
ENDBRANCH  22  23
ENDBRANCH  21  22
ENDBRANCH  20  21
ENDBRANCH  19  20
ENDBRANCH  18  19
ENDBRANCH  17  18
ENDBRANCH   1  17
TORSDOF 26
ENDMDL
MODEL 6
REMARK VINA RESULT:    -5.916      1.288      3.133
REMARK INTER + INTRA:         -17.017
REMARK INTER:                 -15.082
REMARK INTRA:                  -1.935
REMARK UNBOUND:                -2.109
REMARK SMILES CCCCCCCCCCCCCCCCCCCCCCCCCCCC(=O)[O-]
REMARK SMILES IDX 15 1 16 2 17 3 18 4 19 5 20 6 21 7 22 8 23 9 24 10 25 11
REMARK SMILES IDX 26 12 27 13 28 14 29 15 30 16 14 17 13 18 12 19 11 20 10 21
REMARK SMILES IDX 9 22 8 23 7 24 6 25 5 26 4 27 3 28 2 29 1 30
REMARK H PARENT
REMARK Flexibility Score: inf
ROOT
ATOM      1  C   UNL     1     -10.428  61.704  43.731  1.00  0.00     0.000 C 
ENDROOT
BRANCH   1   2
ATOM      2  C   UNL     1      -9.972  62.486  42.486  1.00  0.00     0.000 C 
BRANCH   2   3
ATOM      3  C   UNL     1      -9.643  63.957  42.790  1.00  0.00     0.000 C 
BRANCH   3   4
ATOM      4  C   UNL     1     -10.071  64.903  41.656  1.00  0.00     0.000 C 
BRANCH   4   5
ATOM      5  C   UNL     1      -8.883  65.669  41.044  1.00  0.00     0.000 C 
BRANCH   5   6
ATOM      6  C   UNL     1      -8.112  64.835  40.008  1.00  0.00     0.000 C 
BRANCH   6   7
ATOM      7  C   UNL     1      -8.964  64.479  38.778  1.00  0.00     0.000 C 
BRANCH   7   8
ATOM      8  C   UNL     1      -9.551  63.061  38.858  1.00  0.00     0.000 C 
BRANCH   8   9
ATOM      9  C   UNL     1     -10.882  62.924  38.096  1.00  0.00     0.000 C 
BRANCH   9  10
ATOM     10  C   UNL     1     -12.071  62.717  39.050  1.00  0.00     0.000 C 
BRANCH  10  11
ATOM     11  C   UNL     1     -12.121  61.291  39.643  1.00  0.00     0.000 C 
BRANCH  11  12
ATOM     12  C   UNL     1     -13.137  60.365  38.949  1.00  0.00     0.006 C 
BRANCH  12  13
ATOM     13  C   UNL     1     -14.493  60.278  39.672  1.00  0.00     0.053 C 
BRANCH  13  14
ATOM     14  C   UNL     1     -15.537  61.152  39.045  1.00  0.00     0.041 C 
ATOM     15  O   UNL     1     -15.225  61.961  38.132  1.00  0.00    -0.550 OA
ATOM     16  O   UNL     1     -16.852  61.102  39.495  1.00  0.00    -0.550 OA
ENDBRANCH  13  14
ENDBRANCH  12  13
ENDBRANCH  11  12
ENDBRANCH  10  11
ENDBRANCH   9  10
ENDBRANCH   8   9
ENDBRANCH   7   8
ENDBRANCH   6   7
ENDBRANCH   5   6
ENDBRANCH   4   5
ENDBRANCH   3   4
ENDBRANCH   2   3
ENDBRANCH   1   2
BRANCH   1  17
ATOM     17  C   UNL     1      -9.298  61.249  44.678  1.00  0.00     0.000 C 
BRANCH  17  18
ATOM     18  C   UNL     1      -8.875  62.281  45.739  1.00  0.00     0.000 C 
BRANCH  18  19
ATOM     19  C   UNL     1      -9.574  62.071  47.090  1.00  0.00     0.000 C 
BRANCH  19  20
ATOM     20  C   UNL     1      -8.733  62.653  48.235  1.00  0.00     0.000 C 
BRANCH  20  21
ATOM     21  C   UNL     1      -9.177  64.067  48.641  1.00  0.00     0.000 C 
BRANCH  21  22
ATOM     22  C   UNL     1      -8.437  64.590  49.883  1.00  0.00    -0.000 C 
BRANCH  22  23
ATOM     23  C   UNL     1      -6.921  64.422  49.731  1.00  0.00    -0.000 C 
BRANCH  23  24
ATOM     24  C   UNL     1      -6.205  64.684  51.065  1.00  0.00    -0.000 C 
BRANCH  24  25
ATOM     25  C   UNL     1      -6.486  63.598  52.118  1.00  0.00    -0.000 C 
BRANCH  25  26
ATOM     26  C   UNL     1      -7.392  64.038  53.287  1.00  0.00    -0.000 C 
BRANCH  26  27
ATOM     27  C   UNL     1      -7.845  62.904  54.224  1.00  0.00    -0.000 C 
BRANCH  27  28
ATOM     28  C   UNL     1      -7.722  61.514  53.577  1.00  0.00    -0.000 C 
BRANCH  28  29
ATOM     29  C   UNL     1      -6.569  60.688  54.169  1.00  0.00    -0.003 C 
ATOM     30  C   UNL     1      -6.281  61.039  55.628  1.00  0.00     0.004 C 
ENDBRANCH  28  29
ENDBRANCH  27  28
ENDBRANCH  26  27
ENDBRANCH  25  26
ENDBRANCH  24  25
ENDBRANCH  23  24
ENDBRANCH  22  23
ENDBRANCH  21  22
ENDBRANCH  20  21
ENDBRANCH  19  20
ENDBRANCH  18  19
ENDBRANCH  17  18
ENDBRANCH   1  17
TORSDOF 26
ENDMDL
MODEL 7
REMARK VINA RESULT:    -5.908      1.144      2.527
REMARK INTER + INTRA:         -16.998
REMARK INTER:                 -15.033
REMARK INTRA:                  -1.965
REMARK UNBOUND:                -2.109
REMARK SMILES CCCCCCCCCCCCCCCCCCCCCCCCCCCC(=O)[O-]
REMARK SMILES IDX 15 1 16 2 17 3 18 4 19 5 20 6 21 7 22 8 23 9 24 10 25 11
REMARK SMILES IDX 26 12 27 13 28 14 29 15 30 16 14 17 13 18 12 19 11 20 10 21
REMARK SMILES IDX 9 22 8 23 7 24 6 25 5 26 4 27 3 28 2 29 1 30
REMARK H PARENT
REMARK Flexibility Score: inf
ROOT
ATOM      1  C   UNL     1      -7.681  63.239  49.505  1.00  0.00     0.000 C 
ENDROOT
BRANCH   1   2
ATOM      2  C   UNL     1      -8.768  64.217  49.023  1.00  0.00     0.000 C 
BRANCH   2   3
ATOM      3  C   UNL     1      -9.619  63.647  47.876  1.00  0.00     0.000 C 
BRANCH   3   4
ATOM      4  C   UNL     1      -8.842  62.643  47.008  1.00  0.00     0.000 C 
BRANCH   4   5
ATOM      5  C   UNL     1      -9.140  62.805  45.506  1.00  0.00     0.000 C 
BRANCH   5   6
ATOM      6  C   UNL     1      -9.661  61.509  44.863  1.00  0.00     0.000 C 
BRANCH   6   7
ATOM      7  C   UNL     1     -10.096  61.705  43.400  1.00  0.00     0.000 C 
BRANCH   7   8
ATOM      8  C   UNL     1      -9.928  63.157  42.924  1.00  0.00     0.000 C 
BRANCH   8   9
ATOM      9  C   UNL     1      -9.625  63.258  41.418  1.00  0.00     0.000 C 
BRANCH   9  10
ATOM     10  C   UNL     1      -9.923  61.939  40.683  1.00  0.00     0.000 C 
BRANCH  10  11
ATOM     11  C   UNL     1     -10.498  62.160  39.267  1.00  0.00     0.000 C 
BRANCH  11  12
ATOM     12  C   UNL     1     -12.036  62.126  39.208  1.00  0.00     0.006 C 
BRANCH  12  13
ATOM     13  C   UNL     1     -12.629  60.706  39.274  1.00  0.00     0.053 C 
BRANCH  13  14
ATOM     14  C   UNL     1     -13.666  60.566  40.348  1.00  0.00     0.041 C 
ATOM     15  O   UNL     1     -14.881  60.769  40.089  1.00  0.00    -0.550 OA
ATOM     16  O   UNL     1     -13.287  60.246  41.647  1.00  0.00    -0.550 OA
ENDBRANCH  13  14
ENDBRANCH  12  13
ENDBRANCH  11  12
ENDBRANCH  10  11
ENDBRANCH   9  10
ENDBRANCH   8   9
ENDBRANCH   7   8
ENDBRANCH   6   7
ENDBRANCH   5   6
ENDBRANCH   4   5
ENDBRANCH   3   4
ENDBRANCH   2   3
ENDBRANCH   1   2
BRANCH   1  17
ATOM     17  C   UNL     1      -6.261  63.832  49.620  1.00  0.00     0.000 C 
BRANCH  17  18
ATOM     18  C   UNL     1      -6.174  65.362  49.470  1.00  0.00     0.000 C 
BRANCH  18  19
ATOM     19  C   UNL     1      -5.883  66.077  50.798  1.00  0.00     0.000 C 
BRANCH  19  20
ATOM     20  C   UNL     1      -6.931  65.705  51.857  1.00  0.00     0.000 C 
BRANCH  20  21
ATOM     21  C   UNL     1      -6.314  65.024  53.090  1.00  0.00     0.000 C 
BRANCH  21  22
ATOM     22  C   UNL     1      -6.578  63.510  53.126  1.00  0.00    -0.000 C 
BRANCH  22  23
ATOM     23  C   UNL     1      -7.740  63.177  54.068  1.00  0.00    -0.000 C 
BRANCH  23  24
ATOM     24  C   UNL     1      -7.509  61.828  54.766  1.00  0.00    -0.000 C 
BRANCH  24  25
ATOM     25  C   UNL     1      -6.614  60.878  53.951  1.00  0.00    -0.000 C 
BRANCH  25  26
ATOM     26  C   UNL     1      -5.939  59.755  54.766  1.00  0.00    -0.000 C 
BRANCH  26  27
ATOM     27  C   UNL     1      -5.940  59.964  56.291  1.00  0.00    -0.000 C 
BRANCH  27  28
ATOM     28  C   UNL     1      -4.593  59.602  56.941  1.00  0.00    -0.000 C 
BRANCH  28  29
ATOM     29  C   UNL     1      -3.413  59.733  55.966  1.00  0.00    -0.003 C 
ATOM     30  C   UNL     1      -2.967  61.182  55.773  1.00  0.00     0.004 C 
ENDBRANCH  28  29
ENDBRANCH  27  28
ENDBRANCH  26  27
ENDBRANCH  25  26
ENDBRANCH  24  25
ENDBRANCH  23  24
ENDBRANCH  22  23
ENDBRANCH  21  22
ENDBRANCH  20  21
ENDBRANCH  19  20
ENDBRANCH  18  19
ENDBRANCH  17  18
ENDBRANCH   1  17
TORSDOF 26
ENDMDL
MODEL 8
REMARK VINA RESULT:    -5.907      4.566     13.300
REMARK INTER + INTRA:         -16.994
REMARK INTER:                 -14.757
REMARK INTRA:                  -2.237
REMARK UNBOUND:                -2.109
REMARK SMILES CCCCCCCCCCCCCCCCCCCCCCCCCCCC(=O)[O-]
REMARK SMILES IDX 15 1 16 2 17 3 18 4 19 5 20 6 21 7 22 8 23 9 24 10 25 11
REMARK SMILES IDX 26 12 27 13 28 14 29 15 30 16 14 17 13 18 12 19 11 20 10 21
REMARK SMILES IDX 9 22 8 23 7 24 6 25 5 26 4 27 3 28 2 29 1 30
REMARK H PARENT
REMARK Flexibility Score: inf
ROOT
ATOM      1  C   UNL     1      -9.744  63.735  41.927  1.00  0.00     0.000 C 
ENDROOT
BRANCH   1   2
ATOM      2  C   UNL     1      -9.621  63.379  43.420  1.00  0.00     0.000 C 
BRANCH   2   3
ATOM      3  C   UNL     1      -9.934  61.902  43.710  1.00  0.00     0.000 C 
BRANCH   3   4
ATOM      4  C   UNL     1      -9.510  61.477  45.126  1.00  0.00     0.000 C 
BRANCH   4   5
ATOM      5  C   UNL     1      -9.099  62.673  46.004  1.00  0.00     0.000 C 
BRANCH   5   6
ATOM      6  C   UNL     1      -8.950  62.294  47.487  1.00  0.00     0.000 C 
BRANCH   6   7
ATOM      7  C   UNL     1      -9.662  63.281  48.427  1.00  0.00     0.000 C 
BRANCH   7   8
ATOM      8  C   UNL     1      -8.794  64.503  48.767  1.00  0.00     0.000 C 
BRANCH   8   9
ATOM      9  C   UNL     1      -7.437  64.116  49.384  1.00  0.00     0.000 C 
BRANCH   9  10
ATOM     10  C   UNL     1      -6.789  65.296  50.128  1.00  0.00     0.000 C 
BRANCH  10  11
ATOM     11  C   UNL     1      -6.036  64.858  51.404  1.00  0.00     0.000 C 
BRANCH  11  12
ATOM     12  C   UNL     1      -6.417  63.450  51.897  1.00  0.00     0.006 C 
BRANCH  12  13
ATOM     13  C   UNL     1      -6.458  63.317  53.430  1.00  0.00     0.053 C 
BRANCH  13  14
ATOM     14  C   UNL     1      -7.528  62.377  53.898  1.00  0.00     0.041 C 
ATOM     15  O   UNL     1      -7.781  61.328  53.250  1.00  0.00    -0.550 OA
ATOM     16  O   UNL     1      -8.273  62.679  55.032  1.00  0.00    -0.550 OA
ENDBRANCH  13  14
ENDBRANCH  12  13
ENDBRANCH  11  12
ENDBRANCH  10  11
ENDBRANCH   9  10
ENDBRANCH   8   9
ENDBRANCH   7   8
ENDBRANCH   6   7
ENDBRANCH   5   6
ENDBRANCH   4   5
ENDBRANCH   3   4
ENDBRANCH   2   3
ENDBRANCH   1   2
BRANCH   1  17
ATOM     17  C   UNL     1     -10.100  65.206  41.624  1.00  0.00     0.000 C 
BRANCH  17  18
ATOM     18  C   UNL     1      -8.896  66.153  41.463  1.00  0.00     0.000 C 
BRANCH  18  19
ATOM     19  C   UNL     1      -8.562  66.450  39.994  1.00  0.00     0.000 C 
BRANCH  19  20
ATOM     20  C   UNL     1      -7.622  65.379  39.421  1.00  0.00     0.000 C 
BRANCH  20  21
ATOM     21  C   UNL     1      -8.207  64.672  38.189  1.00  0.00     0.000 C 
BRANCH  21  22
ATOM     22  C   UNL     1      -9.732  64.497  38.272  1.00  0.00    -0.000 C 
BRANCH  22  23
ATOM     23  C   UNL     1     -10.129  63.027  38.093  1.00  0.00    -0.000 C 
BRANCH  23  24
ATOM     24  C   UNL     1     -11.459  62.729  38.800  1.00  0.00    -0.000 C 
BRANCH  24  25
ATOM     25  C   UNL     1     -11.392  61.481  39.698  1.00  0.00    -0.000 C 
BRANCH  25  26
ATOM     26  C   UNL     1     -12.741  60.770  39.933  1.00  0.00    -0.000 C 
BRANCH  26  27
ATOM     27  C   UNL     1     -13.276  59.973  38.730  1.00  0.00    -0.000 C 
BRANCH  27  28
ATOM     28  C   UNL     1     -14.750  60.285  38.418  1.00  0.00    -0.000 C 
BRANCH  28  29
ATOM     29  C   UNL     1     -15.265  61.519  39.176  1.00  0.00    -0.003 C 
ATOM     30  C   UNL     1     -15.289  62.776  38.307  1.00  0.00     0.004 C 
ENDBRANCH  28  29
ENDBRANCH  27  28
ENDBRANCH  26  27
ENDBRANCH  25  26
ENDBRANCH  24  25
ENDBRANCH  23  24
ENDBRANCH  22  23
ENDBRANCH  21  22
ENDBRANCH  20  21
ENDBRANCH  19  20
ENDBRANCH  18  19
ENDBRANCH  17  18
ENDBRANCH   1  17
TORSDOF 26
ENDMDL
MODEL 9
REMARK VINA RESULT:    -5.865      1.168      2.148
REMARK INTER + INTRA:         -16.887
REMARK INTER:                 -14.930
REMARK INTRA:                  -1.958
REMARK UNBOUND:                -2.109
REMARK SMILES CCCCCCCCCCCCCCCCCCCCCCCCCCCC(=O)[O-]
REMARK SMILES IDX 15 1 16 2 17 3 18 4 19 5 20 6 21 7 22 8 23 9 24 10 25 11
REMARK SMILES IDX 26 12 27 13 28 14 29 15 30 16 14 17 13 18 12 19 11 20 10 21
REMARK SMILES IDX 9 22 8 23 7 24 6 25 5 26 4 27 3 28 2 29 1 30
REMARK H PARENT
REMARK Flexibility Score: inf
ROOT
ATOM      1  C   UNL     1      -9.032  61.839  45.206  1.00  0.00     0.000 C 
ENDROOT
BRANCH   1   2
ATOM      2  C   UNL     1     -10.199  61.600  44.231  1.00  0.00     0.000 C 
BRANCH   2   3
ATOM      3  C   UNL     1      -9.958  62.222  42.846  1.00  0.00     0.000 C 
BRANCH   3   4
ATOM      4  C   UNL     1      -9.632  63.723  42.923  1.00  0.00     0.000 C 
BRANCH   4   5
ATOM      5  C   UNL     1     -10.047  64.485  41.650  1.00  0.00     0.000 C 
BRANCH   5   6
ATOM      6  C   UNL     1      -9.219  65.762  41.429  1.00  0.00     0.000 C 
BRANCH   6   7
ATOM      7  C   UNL     1      -8.690  65.884  39.990  1.00  0.00     0.000 C 
BRANCH   7   8
ATOM      8  C   UNL     1      -8.450  64.517  39.331  1.00  0.00     0.000 C 
BRANCH   8   9
ATOM      9  C   UNL     1      -9.268  64.327  38.040  1.00  0.00     0.000 C 
BRANCH   9  10
ATOM     10  C   UNL     1     -10.451  63.366  38.248  1.00  0.00     0.000 C 
BRANCH  10  11
ATOM     11  C   UNL     1     -10.075  62.126  39.090  1.00  0.00     0.000 C 
BRANCH  11  12
ATOM     12  C   UNL     1     -11.289  61.329  39.599  1.00  0.00     0.006 C 
BRANCH  12  13
ATOM     13  C   UNL     1     -12.645  61.953  39.223  1.00  0.00     0.053 C 
BRANCH  13  14
ATOM     14  C   UNL     1     -13.787  60.998  39.397  1.00  0.00     0.041 C 
ATOM     15  O   UNL     1     -14.369  60.897  40.509  1.00  0.00    -0.550 OA
ATOM     16  O   UNL     1     -14.187  60.188  38.340  1.00  0.00    -0.550 OA
ENDBRANCH  13  14
ENDBRANCH  12  13
ENDBRANCH  11  12
ENDBRANCH  10  11
ENDBRANCH   9  10
ENDBRANCH   8   9
ENDBRANCH   7   8
ENDBRANCH   6   7
ENDBRANCH   5   6
ENDBRANCH   4   5
ENDBRANCH   3   4
ENDBRANCH   2   3
ENDBRANCH   1   2
BRANCH   1  17
ATOM     17  C   UNL     1      -9.223  63.010  46.193  1.00  0.00     0.000 C 
BRANCH  17  18
ATOM     18  C   UNL     1      -8.875  62.695  47.660  1.00  0.00     0.000 C 
BRANCH  18  19
ATOM     19  C   UNL     1      -9.553  63.649  48.654  1.00  0.00     0.000 C 
BRANCH  19  20
ATOM     20  C   UNL     1      -8.532  64.627  49.253  1.00  0.00     0.000 C 
BRANCH  20  21
ATOM     21  C   UNL     1      -7.142  63.998  49.436  1.00  0.00     0.000 C 
BRANCH  21  22
ATOM     22  C   UNL     1      -6.395  64.554  50.659  1.00  0.00    -0.000 C 
BRANCH  22  23
ATOM     23  C   UNL     1      -7.348  65.313  51.588  1.00  0.00    -0.000 C 
BRANCH  23  24
ATOM     24  C   UNL     1      -7.697  64.469  52.824  1.00  0.00    -0.000 C 
BRANCH  24  25
ATOM     25  C   UNL     1      -6.813  63.217  52.961  1.00  0.00    -0.000 C 
BRANCH  25  26
ATOM     26  C   UNL     1      -7.480  62.020  53.672  1.00  0.00    -0.000 C 
BRANCH  26  27
ATOM     27  C   UNL     1      -6.533  60.858  54.020  1.00  0.00    -0.000 C 
BRANCH  27  28
ATOM     28  C   UNL     1      -5.647  61.158  55.240  1.00  0.00    -0.000 C 
BRANCH  28  29
ATOM     29  C   UNL     1      -5.705  60.046  56.299  1.00  0.00    -0.003 C 
ATOM     30  C   UNL     1      -5.810  58.651  55.682  1.00  0.00     0.004 C 
ENDBRANCH  28  29
ENDBRANCH  27  28
ENDBRANCH  26  27
ENDBRANCH  25  26
ENDBRANCH  24  25
ENDBRANCH  23  24
ENDBRANCH  22  23
ENDBRANCH  21  22
ENDBRANCH  20  21
ENDBRANCH  19  20
ENDBRANCH  18  19
ENDBRANCH  17  18
ENDBRANCH   1  17
TORSDOF 26
ENDMDL
