MODEL 1
REMARK VINA RESULT:     7.250      0.000      0.000
REMARK INTER + INTRA:          12.651
REMARK INTER:                  13.607
REMARK INTRA:                  -0.956
REMARK UNBOUND:                -0.956
REMARK SMILES CCCCCCCCC=CCCCCCCCC(=O)[O-]
REMARK SMILES IDX 10 1 9 2 11 3 12 4 13 5 14 6 15 7 16 8 17 9 18 10 19 11
REMARK SMILES IDX 20 12 8 13 7 14 6 15 5 16 4 17 3 18 2 19 1 20
REMARK H PARENT
REMARK Flexibility Score: inf
ROOT
ATOM      1  C   UNL     1      -0.041   2.395  -2.172  1.00  0.00    -0.031 C 
ATOM      2  C   UNL     1      -0.430   3.407  -2.971  1.00  0.00    -0.031 C 
ENDROOT
BRANCH   1   3
ATOM      3  C   UNL     1      -0.636   1.005  -2.176  1.00  0.00     0.027 C 
BRANCH   3   4
ATOM      4  C   UNL     1       0.420  -0.059  -1.852  1.00  0.00     0.004 C 
BRANCH   4   5
ATOM      5  C   UNL     1      -0.185  -1.269  -1.121  1.00  0.00     0.000 C 
BRANCH   5   6
ATOM      6  C   UNL     1      -0.182  -2.550  -1.975  1.00  0.00     0.000 C 
BRANCH   6   7
ATOM      7  C   UNL     1       0.203  -2.346  -3.452  1.00  0.00     0.000 C 
BRANCH   7   8
ATOM      8  C   UNL     1       1.594  -2.909  -3.792  1.00  0.00     0.006 C 
BRANCH   8   9
ATOM      9  C   UNL     1       2.273  -3.548  -2.573  1.00  0.00     0.053 C 
BRANCH   9  10
ATOM     10  C   UNL     1       3.394  -2.701  -2.056  1.00  0.00     0.041 C 
ATOM     11  O   UNL     1       3.437  -1.472  -2.327  1.00  0.00    -0.550 OA
ATOM     12  O   UNL     1       4.411  -3.276  -1.304  1.00  0.00    -0.550 OA
ENDBRANCH   9  10
ENDBRANCH   8   9
ENDBRANCH   7   8
ENDBRANCH   6   7
ENDBRANCH   5   6
ENDBRANCH   4   5
ENDBRANCH   3   4
ENDBRANCH   1   3
BRANCH   2  13
ATOM     13  C   UNL     1      -1.559   3.331  -3.967  1.00  0.00     0.027 C 
BRANCH  13  14
ATOM     14  C   UNL     1      -1.993   4.731  -4.417  1.00  0.00     0.004 C 
BRANCH  14  15
ATOM     15  C   UNL     1      -2.599   5.519  -3.246  1.00  0.00     0.000 C 
BRANCH  15  16
ATOM     16  C   UNL     1      -2.244   7.014  -3.294  1.00  0.00     0.000 C 
BRANCH  16  17
ATOM     17  C   UNL     1      -3.248   7.885  -2.519  1.00  0.00    -0.000 C 
BRANCH  17  18
ATOM     18  C   UNL     1      -3.934   7.121  -1.377  1.00  0.00    -0.000 C 
BRANCH  18  19
ATOM     19  C   UNL     1      -4.740   8.042  -0.449  1.00  0.00    -0.003 C 
ATOM     20  C   UNL     1      -4.211   7.982   0.981  1.00  0.00     0.004 C 
ENDBRANCH  18  19
ENDBRANCH  17  18
ENDBRANCH  16  17
ENDBRANCH  15  16
ENDBRANCH  14  15
ENDBRANCH  13  14
ENDBRANCH   2  13
TORSDOF 15
ENDMDL
MODEL 2
REMARK VINA RESULT:     8.849      0.801      1.418
REMARK INTER + INTRA:          15.654
REMARK INTER:                  16.356
REMARK INTRA:                  -0.702
REMARK UNBOUND:                -0.956
REMARK SMILES CCCCCCCCC=CCCCCCCCC(=O)[O-]
REMARK SMILES IDX 10 1 9 2 11 3 12 4 13 5 14 6 15 7 16 8 17 9 18 10 19 11
REMARK SMILES IDX 20 12 8 13 7 14 6 15 5 16 4 17 3 18 2 19 1 20
REMARK H PARENT
REMARK Flexibility Score: inf
ROOT
ATOM      1  C   UNL     1      -1.574   2.436  -3.823  1.00  0.00    -0.031 C 
ATOM      2  C   UNL     1      -2.235   3.586  -4.056  1.00  0.00    -0.031 C 
ENDROOT
BRANCH   1   3
ATOM      3  C   UNL     1      -0.415   2.278  -2.867  1.00  0.00     0.027 C 
BRANCH   3   4
ATOM      4  C   UNL     1      -0.771   1.346  -1.702  1.00  0.00     0.004 C 
BRANCH   4   5
ATOM      5  C   UNL     1       0.291   0.253  -1.491  1.00  0.00     0.000 C 
BRANCH   5   6
ATOM      6  C   UNL     1      -0.276  -1.171  -1.632  1.00  0.00     0.000 C 
BRANCH   6   7
ATOM      7  C   UNL     1      -0.045  -1.831  -3.004  1.00  0.00     0.000 C 
BRANCH   7   8
ATOM      8  C   UNL     1       0.779  -3.127  -2.915  1.00  0.00     0.006 C 
BRANCH   8   9
ATOM      9  C   UNL     1       2.209  -2.940  -3.441  1.00  0.00     0.053 C 
BRANCH   9  10
ATOM     10  C   UNL     1       3.118  -2.380  -2.390  1.00  0.00     0.041 C 
ATOM     11  O   UNL     1       3.232  -1.134  -2.251  1.00  0.00    -0.550 OA
ATOM     12  O   UNL     1       3.865  -3.234  -1.589  1.00  0.00    -0.550 OA
ENDBRANCH   9  10
ENDBRANCH   8   9
ENDBRANCH   7   8
ENDBRANCH   6   7
ENDBRANCH   5   6
ENDBRANCH   4   5
ENDBRANCH   3   4
ENDBRANCH   1   3
BRANCH   2  13
ATOM     13  C   UNL     1      -1.893   4.916  -3.434  1.00  0.00     0.027 C 
BRANCH  13  14
ATOM     14  C   UNL     1      -3.146   5.606  -2.883  1.00  0.00     0.004 C 
BRANCH  14  15
ATOM     15  C   UNL     1      -3.254   7.046  -3.408  1.00  0.00     0.000 C 
BRANCH  15  16
ATOM     16  C   UNL     1      -2.545   8.061  -2.497  1.00  0.00     0.000 C 
BRANCH  16  17
ATOM     17  C   UNL     1      -3.160   8.122  -1.088  1.00  0.00    -0.000 C 
BRANCH  17  18
ATOM     18  C   UNL     1      -4.682   7.916  -1.099  1.00  0.00    -0.000 C 
BRANCH  18  19
ATOM     19  C   UNL     1      -5.317   8.125   0.284  1.00  0.00    -0.003 C 
ATOM     20  C   UNL     1      -4.265   8.062   1.387  1.00  0.00     0.004 C 
ENDBRANCH  18  19
ENDBRANCH  17  18
ENDBRANCH  16  17
ENDBRANCH  15  16
ENDBRANCH  14  15
ENDBRANCH  13  14
ENDBRANCH   2  13
TORSDOF 15
ENDMDL
MODEL 3
REMARK VINA RESULT:     8.999      4.110     10.007
REMARK INTER + INTRA:          15.935
REMARK INTER:                  15.506
REMARK INTRA:                   0.429
REMARK UNBOUND:                -0.956
REMARK SMILES CCCCCCCCC=CCCCCCCCC(=O)[O-]
REMARK SMILES IDX 10 1 9 2 11 3 12 4 13 5 14 6 15 7 16 8 17 9 18 10 19 11
REMARK SMILES IDX 20 12 8 13 7 14 6 15 5 16 4 17 3 18 2 19 1 20
REMARK H PARENT
REMARK Flexibility Score: inf
ROOT
ATOM      1  C   UNL     1      -0.469   3.701  -3.342  1.00  0.00    -0.031 C 
ATOM      2  C   UNL     1      -0.208   2.679  -2.504  1.00  0.00    -0.031 C 
ENDROOT
BRANCH   1   3
ATOM      3  C   UNL     1      -1.576   3.722  -4.370  1.00  0.00     0.027 C 
BRANCH   3   4
ATOM      4  C   UNL     1      -2.270   5.089  -4.421  1.00  0.00     0.004 C 
BRANCH   4   5
ATOM      5  C   UNL     1      -2.403   5.721  -3.025  1.00  0.00     0.000 C 
BRANCH   5   6
ATOM      6  C   UNL     1      -2.338   7.259  -3.053  1.00  0.00     0.000 C 
BRANCH   6   7
ATOM      7  C   UNL     1      -3.174   7.966  -1.970  1.00  0.00     0.000 C 
BRANCH   7   8
ATOM      8  C   UNL     1      -4.545   7.305  -1.745  1.00  0.00     0.006 C 
BRANCH   8   9
ATOM      9  C   UNL     1      -5.217   7.791  -0.454  1.00  0.00     0.053 C 
BRANCH   9  10
ATOM     10  C   UNL     1      -4.217   8.026   0.637  1.00  0.00     0.041 C 
ATOM     11  O   UNL     1      -2.992   8.123   0.363  1.00  0.00    -0.550 OA
ATOM     12  O   UNL     1      -4.635   8.103   1.959  1.00  0.00    -0.550 OA
ENDBRANCH   9  10
ENDBRANCH   8   9
ENDBRANCH   7   8
ENDBRANCH   6   7
ENDBRANCH   5   6
ENDBRANCH   4   5
ENDBRANCH   3   4
ENDBRANCH   1   3
BRANCH   2  13
ATOM     13  C   UNL     1      -0.951   1.367  -2.492  1.00  0.00     0.027 C 
BRANCH  13  14
ATOM     14  C   UNL     1      -0.710   0.610  -1.180  1.00  0.00     0.004 C 
BRANCH  14  15
ATOM     15  C   UNL     1       0.256  -0.565  -1.396  1.00  0.00     0.000 C 
BRANCH  15  16
ATOM     16  C   UNL     1      -0.338  -1.661  -2.296  1.00  0.00     0.000 C 
BRANCH  16  17
ATOM     17  C   UNL     1       0.450  -2.981  -2.217  1.00  0.00    -0.000 C 
BRANCH  17  18
ATOM     18  C   UNL     1       1.035  -3.400  -3.574  1.00  0.00    -0.000 C 
BRANCH  18  19
ATOM     19  C   UNL     1       2.377  -2.716  -3.875  1.00  0.00    -0.003 C 
ATOM     20  C   UNL     1       3.120  -2.371  -2.587  1.00  0.00     0.004 C 
ENDBRANCH  18  19
ENDBRANCH  17  18
ENDBRANCH  16  17
ENDBRANCH  15  16
ENDBRANCH  14  15
ENDBRANCH  13  14
ENDBRANCH   2  13
TORSDOF 15
ENDMDL
MODEL 4
REMARK VINA RESULT:     9.124      1.822      2.041
REMARK INTER + INTRA:          16.170
REMARK INTER:                  16.864
REMARK INTRA:                  -0.694
REMARK UNBOUND:                -0.956
REMARK SMILES CCCCCCCCC=CCCCCCCCC(=O)[O-]
REMARK SMILES IDX 10 1 9 2 11 3 12 4 13 5 14 6 15 7 16 8 17 9 18 10 19 11
REMARK SMILES IDX 20 12 8 13 7 14 6 15 5 16 4 17 3 18 2 19 1 20
REMARK H PARENT
REMARK Flexibility Score: inf
ROOT
ATOM      1  C   UNL     1      -0.091   1.905  -2.091  1.00  0.00    -0.031 C 
ATOM      2  C   UNL     1      -0.397   3.012  -2.794  1.00  0.00    -0.031 C 
ENDROOT
BRANCH   1   3
ATOM      3  C   UNL     1      -0.747   0.554  -2.266  1.00  0.00     0.027 C 
BRANCH   3   4
ATOM      4  C   UNL     1       0.004  -0.539  -1.496  1.00  0.00     0.004 C 
BRANCH   4   5
ATOM      5  C   UNL     1       1.499  -0.575  -1.856  1.00  0.00     0.000 C 
BRANCH   5   6
ATOM      6  C   UNL     1       1.856  -1.711  -2.831  1.00  0.00     0.000 C 
BRANCH   6   7
ATOM      7  C   UNL     1       0.654  -2.353  -3.549  1.00  0.00     0.000 C 
BRANCH   7   8
ATOM      8  C   UNL     1       0.131  -3.610  -2.833  1.00  0.00     0.006 C 
BRANCH   8   9
ATOM      9  C   UNL     1       1.101  -4.106  -1.751  1.00  0.00     0.053 C 
BRANCH   9  10
ATOM     10  C   UNL     1       0.380  -4.796  -0.634  1.00  0.00     0.041 C 
ATOM     11  O   UNL     1      -0.817  -4.507  -0.379  1.00  0.00    -0.550 OA
ATOM     12  O   UNL     1       1.044  -5.734   0.147  1.00  0.00    -0.550 OA
ENDBRANCH   9  10
ENDBRANCH   8   9
ENDBRANCH   7   8
ENDBRANCH   6   7
ENDBRANCH   5   6
ENDBRANCH   4   5
ENDBRANCH   3   4
ENDBRANCH   1   3
BRANCH   2  13
ATOM     13  C   UNL     1      -1.481   3.095  -3.838  1.00  0.00     0.027 C 
BRANCH  13  14
ATOM     14  C   UNL     1      -1.684   4.540  -4.308  1.00  0.00     0.004 C 
BRANCH  14  15
ATOM     15  C   UNL     1      -2.470   5.350  -3.266  1.00  0.00     0.000 C 
BRANCH  15  16
ATOM     16  C   UNL     1      -2.203   6.860  -3.367  1.00  0.00     0.000 C 
BRANCH  16  17
ATOM     17  C   UNL     1      -3.307   7.701  -2.701  1.00  0.00    -0.000 C 
BRANCH  17  18
ATOM     18  C   UNL     1      -3.861   7.045  -1.428  1.00  0.00    -0.000 C 
BRANCH  18  19
ATOM     19  C   UNL     1      -4.579   8.047  -0.512  1.00  0.00    -0.003 C 
ATOM     20  C   UNL     1      -4.228   7.803   0.953  1.00  0.00     0.004 C 
ENDBRANCH  18  19
ENDBRANCH  17  18
ENDBRANCH  16  17
ENDBRANCH  15  16
ENDBRANCH  14  15
ENDBRANCH  13  14
ENDBRANCH   2  13
TORSDOF 15
ENDMDL
MODEL 5
REMARK VINA RESULT:     9.243      4.282     10.121
REMARK INTER + INTRA:          16.392
REMARK INTER:                  17.102
REMARK INTRA:                  -0.710
REMARK UNBOUND:                -0.956
REMARK SMILES CCCCCCCCC=CCCCCCCCC(=O)[O-]
REMARK SMILES IDX 10 1 9 2 11 3 12 4 13 5 14 6 15 7 16 8 17 9 18 10 19 11
REMARK SMILES IDX 20 12 8 13 7 14 6 15 5 16 4 17 3 18 2 19 1 20
REMARK H PARENT
REMARK Flexibility Score: inf
ROOT
ATOM      1  C   UNL     1       0.611   1.804  -2.295  1.00  0.00    -0.031 C 
ATOM      2  C   UNL     1       0.762   0.504  -1.974  1.00  0.00    -0.031 C 
ENDROOT
BRANCH   1   3
ATOM      3  C   UNL     1      -0.711   2.535  -2.357  1.00  0.00     0.027 C 
BRANCH   3   4
ATOM      4  C   UNL     1      -0.643   3.737  -3.307  1.00  0.00     0.004 C 
BRANCH   4   5
ATOM      5  C   UNL     1      -2.041   4.273  -3.661  1.00  0.00     0.000 C 
BRANCH   5   6
ATOM      6  C   UNL     1      -2.167   5.795  -3.468  1.00  0.00     0.000 C 
BRANCH   6   7
ATOM      7  C   UNL     1      -3.450   6.255  -2.751  1.00  0.00     0.000 C 
BRANCH   7   8
ATOM      8  C   UNL     1      -3.470   7.768  -2.471  1.00  0.00     0.006 C 
BRANCH   8   9
ATOM      9  C   UNL     1      -3.169   8.088  -1.000  1.00  0.00     0.053 C 
BRANCH   9  10
ATOM     10  C   UNL     1      -4.379   7.916  -0.135  1.00  0.00     0.041 C 
ATOM     11  O   UNL     1      -5.529   8.107  -0.610  1.00  0.00    -0.550 OA
ATOM     12  O   UNL     1      -4.235   7.579   1.205  1.00  0.00    -0.550 OA
ENDBRANCH   9  10
ENDBRANCH   8   9
ENDBRANCH   7   8
ENDBRANCH   6   7
ENDBRANCH   5   6
ENDBRANCH   4   5
ENDBRANCH   3   4
ENDBRANCH   1   3
BRANCH   2  13
ATOM     13  C   UNL     1      -0.368  -0.445  -1.672  1.00  0.00     0.027 C 
BRANCH  13  14
ATOM     14  C   UNL     1       0.125  -1.896  -1.630  1.00  0.00     0.004 C 
BRANCH  14  15
ATOM     15  C   UNL     1      -0.274  -2.648  -2.908  1.00  0.00     0.000 C 
BRANCH  15  16
ATOM     16  C   UNL     1       0.924  -2.924  -3.830  1.00  0.00     0.000 C 
BRANCH  16  17
ATOM     17  C   UNL     1       2.200  -2.192  -3.377  1.00  0.00    -0.000 C 
BRANCH  17  18
ATOM     18  C   UNL     1       3.233  -3.140  -2.751  1.00  0.00    -0.000 C 
BRANCH  18  19
ATOM     19  C   UNL     1       3.778  -2.619  -1.413  1.00  0.00    -0.003 C 
ATOM     20  C   UNL     1       4.633  -3.675  -0.718  1.00  0.00     0.004 C 
ENDBRANCH  18  19
ENDBRANCH  17  18
ENDBRANCH  16  17
ENDBRANCH  15  16
ENDBRANCH  14  15
ENDBRANCH  13  14
ENDBRANCH   2  13
TORSDOF 15
ENDMDL
MODEL 6
REMARK VINA RESULT:     9.430      1.616      2.280
REMARK INTER + INTRA:          16.744
REMARK INTER:                  17.319
REMARK INTRA:                  -0.575
REMARK UNBOUND:                -0.956
REMARK SMILES CCCCCCCCC=CCCCCCCCC(=O)[O-]
REMARK SMILES IDX 10 1 9 2 11 3 12 4 13 5 14 6 15 7 16 8 17 9 18 10 19 11
REMARK SMILES IDX 20 12 8 13 7 14 6 15 5 16 4 17 3 18 2 19 1 20
REMARK H PARENT
REMARK Flexibility Score: inf
ROOT
ATOM      1  C   UNL     1      -1.348   2.697  -3.394  1.00  0.00    -0.031 C 
ATOM      2  C   UNL     1      -2.081   3.547  -4.139  1.00  0.00    -0.031 C 
ENDROOT
BRANCH   1   3
ATOM      3  C   UNL     1      -0.153   3.086  -2.556  1.00  0.00     0.027 C 
BRANCH   3   4
ATOM      4  C   UNL     1       0.542   1.853  -1.963  1.00  0.00     0.004 C 
BRANCH   4   5
ATOM      5  C   UNL     1      -0.466   0.783  -1.512  1.00  0.00     0.000 C 
BRANCH   5   6
ATOM      6  C   UNL     1       0.065  -0.652  -1.681  1.00  0.00     0.000 C 
BRANCH   6   7
ATOM      7  C   UNL     1       1.527  -0.753  -2.155  1.00  0.00     0.000 C 
BRANCH   7   8
ATOM      8  C   UNL     1       2.171  -2.111  -1.828  1.00  0.00     0.006 C 
BRANCH   8   9
ATOM      9  C   UNL     1       2.309  -3.000  -3.072  1.00  0.00     0.053 C 
BRANCH   9  10
ATOM     10  C   UNL     1       1.108  -2.899  -3.962  1.00  0.00     0.041 C 
ATOM     11  O   UNL     1       1.180  -2.278  -5.054  1.00  0.00    -0.550 OA
ATOM     12  O   UNL     1      -0.100  -3.460  -3.567  1.00  0.00    -0.550 OA
ENDBRANCH   9  10
ENDBRANCH   8   9
ENDBRANCH   7   8
ENDBRANCH   6   7
ENDBRANCH   5   6
ENDBRANCH   4   5
ENDBRANCH   3   4
ENDBRANCH   1   3
BRANCH   2  13
ATOM     13  C   UNL     1      -1.796   5.019  -4.296  1.00  0.00     0.027 C 
BRANCH  13  14
ATOM     14  C   UNL     1      -2.247   5.803  -3.059  1.00  0.00     0.004 C 
BRANCH  14  15
ATOM     15  C   UNL     1      -2.588   7.255  -3.425  1.00  0.00     0.000 C 
BRANCH  15  16
ATOM     16  C   UNL     1      -3.048   8.079  -2.212  1.00  0.00     0.000 C 
BRANCH  16  17
ATOM     17  C   UNL     1      -4.192   7.401  -1.437  1.00  0.00    -0.000 C 
BRANCH  17  18
ATOM     18  C   UNL     1      -3.788   7.016  -0.006  1.00  0.00    -0.000 C 
BRANCH  18  19
ATOM     19  C   UNL     1      -4.176   8.085   1.026  1.00  0.00    -0.003 C 
ATOM     20  C   UNL     1      -5.687   8.124   1.236  1.00  0.00     0.004 C 
ENDBRANCH  18  19
ENDBRANCH  17  18
ENDBRANCH  16  17
ENDBRANCH  15  16
ENDBRANCH  14  15
ENDBRANCH  13  14
ENDBRANCH   2  13
TORSDOF 15
ENDMDL
MODEL 7
REMARK VINA RESULT:     9.982      4.301     10.003
REMARK INTER + INTRA:          17.780
REMARK INTER:                  18.819
REMARK INTRA:                  -1.039
REMARK UNBOUND:                -0.956
REMARK SMILES CCCCCCCCC=CCCCCCCCC(=O)[O-]
REMARK SMILES IDX 10 1 9 2 11 3 12 4 13 5 14 6 15 7 16 8 17 9 18 10 19 11
REMARK SMILES IDX 20 12 8 13 7 14 6 15 5 16 4 17 3 18 2 19 1 20
REMARK H PARENT
REMARK Flexibility Score: inf
ROOT
ATOM      1  C   UNL     1      -0.611   0.554  -1.986  1.00  0.00    -0.031 C 
ATOM      2  C   UNL     1       0.233  -0.486  -1.845  1.00  0.00    -0.031 C 
ENDROOT
BRANCH   1   3
ATOM      3  C   UNL     1      -0.193   1.987  -2.227  1.00  0.00     0.027 C 
BRANCH   3   4
ATOM      4  C   UNL     1      -1.116   2.679  -3.237  1.00  0.00     0.004 C 
BRANCH   4   5
ATOM      5  C   UNL     1      -1.009   4.212  -3.162  1.00  0.00     0.000 C 
BRANCH   5   6
ATOM      6  C   UNL     1      -2.288   4.927  -3.633  1.00  0.00     0.000 C 
BRANCH   6   7
ATOM      7  C   UNL     1      -2.391   6.410  -3.229  1.00  0.00     0.000 C 
BRANCH   7   8
ATOM      8  C   UNL     1      -3.603   6.702  -2.329  1.00  0.00     0.006 C 
BRANCH   8   9
ATOM      9  C   UNL     1      -3.284   7.745  -1.249  1.00  0.00     0.053 C 
BRANCH   9  10
ATOM     10  C   UNL     1      -4.382   7.849  -0.235  1.00  0.00     0.041 C 
ATOM     11  O   UNL     1      -5.555   8.125  -0.598  1.00  0.00    -0.550 OA
ATOM     12  O   UNL     1      -4.101   7.675   1.114  1.00  0.00    -0.550 OA
ENDBRANCH   9  10
ENDBRANCH   8   9
ENDBRANCH   7   8
ENDBRANCH   6   7
ENDBRANCH   5   6
ENDBRANCH   4   5
ENDBRANCH   3   4
ENDBRANCH   1   3
BRANCH   2  13
ATOM     13  C   UNL     1       1.736  -0.381  -1.855  1.00  0.00     0.027 C 
BRANCH  13  14
ATOM     14  C   UNL     1       2.368  -1.581  -2.570  1.00  0.00     0.004 C 
BRANCH  14  15
ATOM     15  C   UNL     1       1.422  -2.141  -3.642  1.00  0.00     0.000 C 
BRANCH  15  16
ATOM     16  C   UNL     1       0.995  -3.590  -3.356  1.00  0.00     0.000 C 
BRANCH  16  17
ATOM     17  C   UNL     1      -0.485  -3.701  -2.951  1.00  0.00    -0.000 C 
BRANCH  17  18
ATOM     18  C   UNL     1      -0.669  -3.940  -1.445  1.00  0.00    -0.000 C 
BRANCH  18  19
ATOM     19  C   UNL     1       0.662  -4.188  -0.720  1.00  0.00    -0.003 C 
ATOM     20  C   UNL     1       0.787  -5.644  -0.282  1.00  0.00     0.004 C 
ENDBRANCH  18  19
ENDBRANCH  17  18
ENDBRANCH  16  17
ENDBRANCH  15  16
ENDBRANCH  14  15
ENDBRANCH  13  14
ENDBRANCH   2  13
TORSDOF 15
ENDMDL
