MODEL 1
REMARK VINA RESULT:    -5.010      0.000      0.000
REMARK INTER + INTRA:         -16.439
REMARK INTER:                 -12.626
REMARK INTRA:                  -3.814
REMARK UNBOUND:                -3.814
REMARK SMILES CCCCCCCCCCCCCCCCCCCCCCCCCCCC(=O)[O-]
REMARK SMILES IDX 15 1 16 2 17 3 18 4 19 5 20 6 21 7 22 8 23 9 24 10 25 11
REMARK SMILES IDX 26 12 27 13 28 14 29 15 30 16 14 17 13 18 12 19 11 20 10 21
REMARK SMILES IDX 9 22 8 23 7 24 6 25 5 26 4 27 3 28 2 29 1 30
REMARK H PARENT
REMARK Flexibility Score: inf
ROOT
ATOM      1  C   UNL     1       4.448  45.091  10.630  1.00  0.00     0.000 C 
ENDROOT
BRANCH   1   2
ATOM      2  C   UNL     1       4.770  46.589  10.503  1.00  0.00     0.000 C 
BRANCH   2   3
ATOM      3  C   UNL     1       5.403  46.945   9.146  1.00  0.00     0.000 C 
BRANCH   3   4
ATOM      4  C   UNL     1       6.699  47.758   9.298  1.00  0.00     0.000 C 
BRANCH   4   5
ATOM      5  C   UNL     1       6.531  49.228   8.873  1.00  0.00     0.000 C 
BRANCH   5   6
ATOM      6  C   UNL     1       6.192  50.148  10.058  1.00  0.00     0.000 C 
BRANCH   6   7
ATOM      7  C   UNL     1       4.775  50.742   9.963  1.00  0.00     0.000 C 
BRANCH   7   8
ATOM      8  C   UNL     1       3.742  49.920  10.751  1.00  0.00     0.000 C 
BRANCH   8   9
ATOM      9  C   UNL     1       2.606  49.390   9.857  1.00  0.00     0.000 C 
BRANCH   9  10
ATOM     10  C   UNL     1       2.677  49.934   8.421  1.00  0.00     0.000 C 
BRANCH  10  11
ATOM     11  C   UNL     1       2.516  48.830   7.364  1.00  0.00     0.000 C 
BRANCH  11  12
ATOM     12  C   UNL     1       2.131  47.474   7.977  1.00  0.00     0.006 C 
BRANCH  12  13
ATOM     13  C   UNL     1       0.733  47.007   7.551  1.00  0.00     0.053 C 
BRANCH  13  14
ATOM     14  C   UNL     1      -0.319  47.874   8.169  1.00  0.00     0.041 C 
ATOM     15  O   UNL     1      -0.809  48.835   7.519  1.00  0.00    -0.550 OA
ATOM     16  O   UNL     1      -0.724  47.652   9.479  1.00  0.00    -0.550 OA
ENDBRANCH  13  14
ENDBRANCH  12  13
ENDBRANCH  11  12
ENDBRANCH  10  11
ENDBRANCH   9  10
ENDBRANCH   8   9
ENDBRANCH   7   8
ENDBRANCH   6   7
ENDBRANCH   5   6
ENDBRANCH   4   5
ENDBRANCH   3   4
ENDBRANCH   2   3
ENDBRANCH   1   2
BRANCH   1  17
ATOM     17  C   UNL     1       3.999  44.467   9.297  1.00  0.00     0.000 C 
BRANCH  17  18
ATOM     18  C   UNL     1       3.416  43.054   9.464  1.00  0.00     0.000 C 
BRANCH  18  19
ATOM     19  C   UNL     1       1.882  42.990   9.300  1.00  0.00     0.000 C 
BRANCH  19  20
ATOM     20  C   UNL     1       1.189  44.262   9.818  1.00  0.00     0.000 C 
BRANCH  20  21
ATOM     21  C   UNL     1       0.833  44.184  11.314  1.00  0.00     0.000 C 
BRANCH  21  22
ATOM     22  C   UNL     1       1.366  42.942  12.055  1.00  0.00    -0.000 C 
BRANCH  22  23
ATOM     23  C   UNL     1       0.354  42.211  12.960  1.00  0.00    -0.000 C 
BRANCH  23  24
ATOM     24  C   UNL     1       0.984  41.199  13.941  1.00  0.00    -0.000 C 
BRANCH  24  25
ATOM     25  C   UNL     1       0.453  39.767  13.753  1.00  0.00    -0.000 C 
BRANCH  25  26
ATOM     26  C   UNL     1       1.456  38.845  13.039  1.00  0.00    -0.000 C 
BRANCH  26  27
ATOM     27  C   UNL     1       2.733  39.550  12.540  1.00  0.00    -0.000 C 
BRANCH  27  28
ATOM     28  C   UNL     1       4.019  39.068  13.246  1.00  0.00    -0.000 C 
BRANCH  28  29
ATOM     29  C   UNL     1       5.123  40.134  13.227  1.00  0.00    -0.003 C 
ATOM     30  C   UNL     1       4.643  41.416  12.557  1.00  0.00     0.004 C 
ENDBRANCH  28  29
ENDBRANCH  27  28
ENDBRANCH  26  27
ENDBRANCH  25  26
ENDBRANCH  24  25
ENDBRANCH  23  24
ENDBRANCH  22  23
ENDBRANCH  21  22
ENDBRANCH  20  21
ENDBRANCH  19  20
ENDBRANCH  18  19
ENDBRANCH  17  18
ENDBRANCH   1  17
TORSDOF 26
ENDMDL
MODEL 2
REMARK VINA RESULT:    -4.916      3.113      8.180
REMARK INTER + INTRA:         -16.202
REMARK INTER:                 -12.311
REMARK INTRA:                  -3.891
REMARK UNBOUND:                -3.814
REMARK SMILES CCCCCCCCCCCCCCCCCCCCCCCCCCCC(=O)[O-]
REMARK SMILES IDX 15 1 16 2 17 3 18 4 19 5 20 6 21 7 22 8 23 9 24 10 25 11
REMARK SMILES IDX 26 12 27 13 28 14 29 15 30 16 14 17 13 18 12 19 11 20 10 21
REMARK SMILES IDX 9 22 8 23 7 24 6 25 5 26 4 27 3 28 2 29 1 30
REMARK H PARENT
REMARK Flexibility Score: inf
ROOT
ATOM      1  C   UNL     1       6.378  47.277   9.215  1.00  0.00     0.000 C 
ENDROOT
BRANCH   1   2
ATOM      2  C   UNL     1       4.918  46.824   9.053  1.00  0.00     0.000 C 
BRANCH   2   3
ATOM      3  C   UNL     1       4.220  46.584  10.404  1.00  0.00     0.000 C 
BRANCH   3   4
ATOM      4  C   UNL     1       4.437  45.155  10.930  1.00  0.00     0.000 C 
BRANCH   4   5
ATOM      5  C   UNL     1       4.284  44.088   9.831  1.00  0.00     0.000 C 
BRANCH   5   6
ATOM      6  C   UNL     1       3.038  44.315   8.960  1.00  0.00     0.000 C 
BRANCH   6   7
ATOM      7  C   UNL     1       1.768  43.687   9.562  1.00  0.00     0.000 C 
BRANCH   7   8
ATOM      8  C   UNL     1       1.040  44.643  10.521  1.00  0.00     0.000 C 
BRANCH   8   9
ATOM      9  C   UNL     1       0.522  43.930  11.783  1.00  0.00     0.000 C 
BRANCH   9  10
ATOM     10  C   UNL     1       1.529  42.916  12.348  1.00  0.00     0.000 C 
BRANCH  10  11
ATOM     11  C   UNL     1       0.849  41.786  13.136  1.00  0.00     0.000 C 
BRANCH  11  12
ATOM     12  C   UNL     1       1.555  40.432  12.958  1.00  0.00     0.006 C 
BRANCH  12  13
ATOM     13  C   UNL     1       2.949  40.568  12.333  1.00  0.00     0.053 C 
BRANCH  13  14
ATOM     14  C   UNL     1       3.838  39.454  12.790  1.00  0.00     0.041 C 
ATOM     15  O   UNL     1       3.481  38.256  12.636  1.00  0.00    -0.550 OA
ATOM     16  O   UNL     1       5.039  39.737  13.428  1.00  0.00    -0.550 OA
ENDBRANCH  13  14
ENDBRANCH  12  13
ENDBRANCH  11  12
ENDBRANCH  10  11
ENDBRANCH   9  10
ENDBRANCH   8   9
ENDBRANCH   7   8
ENDBRANCH   6   7
ENDBRANCH   5   6
ENDBRANCH   4   5
ENDBRANCH   3   4
ENDBRANCH   2   3
ENDBRANCH   1   2
BRANCH   1  17
ATOM     17  C   UNL     1       6.503  48.630   9.936  1.00  0.00     0.000 C 
BRANCH  17  18
ATOM     18  C   UNL     1       6.439  49.830   8.976  1.00  0.00     0.000 C 
BRANCH  18  19
ATOM     19  C   UNL     1       5.369  50.875   9.357  1.00  0.00     0.000 C 
BRANCH  19  20
ATOM     20  C   UNL     1       4.436  50.373  10.471  1.00  0.00     0.000 C 
BRANCH  20  21
ATOM     21  C   UNL     1       2.954  50.367  10.054  1.00  0.00     0.000 C 
BRANCH  21  22
ATOM     22  C   UNL     1       2.662  50.930   8.649  1.00  0.00    -0.000 C 
BRANCH  22  23
ATOM     23  C   UNL     1       1.677  50.114   7.787  1.00  0.00    -0.000 C 
BRANCH  23  24
ATOM     24  C   UNL     1       2.127  48.666   7.493  1.00  0.00    -0.000 C 
BRANCH  24  25
ATOM     25  C   UNL     1       1.466  47.630   8.419  1.00  0.00    -0.000 C 
BRANCH  25  26
ATOM     26  C   UNL     1       0.142  48.127   9.025  1.00  0.00    -0.000 C 
BRANCH  26  27
ATOM     27  C   UNL     1      -1.125  47.597   8.323  1.00  0.00    -0.000 C 
BRANCH  27  28
ATOM     28  C   UNL     1      -0.824  46.700   7.103  1.00  0.00    -0.000 C 
BRANCH  28  29
ATOM     29  C   UNL     1      -1.003  45.210   7.423  1.00  0.00    -0.003 C 
ATOM     30  C   UNL     1      -0.369  44.333   6.350  1.00  0.00     0.004 C 
ENDBRANCH  28  29
ENDBRANCH  27  28
ENDBRANCH  26  27
ENDBRANCH  25  26
ENDBRANCH  24  25
ENDBRANCH  23  24
ENDBRANCH  22  23
ENDBRANCH  21  22
ENDBRANCH  20  21
ENDBRANCH  19  20
ENDBRANCH  18  19
ENDBRANCH  17  18
ENDBRANCH   1  17
TORSDOF 26
ENDMDL
MODEL 3
REMARK VINA RESULT:    -4.914      1.231      2.325
REMARK INTER + INTRA:         -16.196
REMARK INTER:                 -11.875
REMARK INTRA:                  -4.321
REMARK UNBOUND:                -3.814
REMARK SMILES CCCCCCCCCCCCCCCCCCCCCCCCCCCC(=O)[O-]
REMARK SMILES IDX 15 1 16 2 17 3 18 4 19 5 20 6 21 7 22 8 23 9 24 10 25 11
REMARK SMILES IDX 26 12 27 13 28 14 29 15 30 16 14 17 13 18 12 19 11 20 10 21
REMARK SMILES IDX 9 22 8 23 7 24 6 25 5 26 4 27 3 28 2 29 1 30
REMARK H PARENT
REMARK Flexibility Score: inf
ROOT
ATOM      1  C   UNL     1       3.836  43.006  10.652  1.00  0.00     0.000 C 
ENDROOT
BRANCH   1   2
ATOM      2  C   UNL     1       3.843  43.928  11.881  1.00  0.00     0.000 C 
BRANCH   2   3
ATOM      3  C   UNL     1       4.168  45.389  11.521  1.00  0.00     0.000 C 
BRANCH   3   4
ATOM      4  C   UNL     1       4.679  45.539  10.079  1.00  0.00     0.000 C 
BRANCH   4   5
ATOM      5  C   UNL     1       4.432  46.945   9.504  1.00  0.00     0.000 C 
BRANCH   5   6
ATOM      6  C   UNL     1       3.306  47.692  10.238  1.00  0.00     0.000 C 
BRANCH   6   7
ATOM      7  C   UNL     1       3.791  48.990  10.908  1.00  0.00     0.000 C 
BRANCH   7   8
ATOM      8  C   UNL     1       5.194  49.405  10.434  1.00  0.00     0.000 C 
BRANCH   8   9
ATOM      9  C   UNL     1       5.212  50.811   9.807  1.00  0.00     0.000 C 
BRANCH   9  10
ATOM     10  C   UNL     1       4.976  50.788   8.289  1.00  0.00     0.000 C 
BRANCH  10  11
ATOM     11  C   UNL     1       3.522  51.115   7.914  1.00  0.00     0.000 C 
BRANCH  11  12
ATOM     12  C   UNL     1       2.767  49.898   7.354  1.00  0.00     0.006 C 
BRANCH  12  13
ATOM     13  C   UNL     1       1.251  49.990   7.571  1.00  0.00     0.053 C 
BRANCH  13  14
ATOM     14  C   UNL     1       0.669  48.627   7.778  1.00  0.00     0.041 C 
ATOM     15  O   UNL     1       1.261  47.611   7.326  1.00  0.00    -0.550 OA
ATOM     16  O   UNL     1      -0.550  48.480   8.426  1.00  0.00    -0.550 OA
ENDBRANCH  13  14
ENDBRANCH  12  13
ENDBRANCH  11  12
ENDBRANCH  10  11
ENDBRANCH   9  10
ENDBRANCH   8   9
ENDBRANCH   7   8
ENDBRANCH   6   7
ENDBRANCH   5   6
ENDBRANCH   4   5
ENDBRANCH   3   4
ENDBRANCH   2   3
ENDBRANCH   1   2
BRANCH   1  17
ATOM     17  C   UNL     1       2.414  42.626  10.204  1.00  0.00     0.000 C 
BRANCH  17  18
ATOM     18  C   UNL     1       2.090  43.095   8.775  1.00  0.00     0.000 C 
BRANCH  18  19
ATOM     19  C   UNL     1       0.906  44.083   8.698  1.00  0.00     0.000 C 
BRANCH  19  20
ATOM     20  C   UNL     1       0.985  45.170   9.782  1.00  0.00     0.000 C 
BRANCH  20  21
ATOM     21  C   UNL     1      -0.393  45.539  10.362  1.00  0.00     0.000 C 
BRANCH  21  22
ATOM     22  C   UNL     1      -0.760  44.838  11.685  1.00  0.00    -0.000 C 
BRANCH  22  23
ATOM     23  C   UNL     1       0.353  43.987  12.329  1.00  0.00    -0.000 C 
BRANCH  23  24
ATOM     24  C   UNL     1      -0.126  42.646  12.924  1.00  0.00    -0.000 C 
BRANCH  24  25
ATOM     25  C   UNL     1       1.032  41.747  13.395  1.00  0.00    -0.000 C 
BRANCH  25  26
ATOM     26  C   UNL     1       0.578  40.318  13.739  1.00  0.00    -0.000 C 
BRANCH  26  27
ATOM     27  C   UNL     1       1.516  39.206  13.230  1.00  0.00    -0.000 C 
BRANCH  27  28
ATOM     28  C   UNL     1       2.730  39.738  12.439  1.00  0.00    -0.000 C 
BRANCH  28  29
ATOM     29  C   UNL     1       4.046  39.094  12.897  1.00  0.00    -0.003 C 
ATOM     30  C   UNL     1       5.073  40.150  13.288  1.00  0.00     0.004 C 
ENDBRANCH  28  29
ENDBRANCH  27  28
ENDBRANCH  26  27
ENDBRANCH  25  26
ENDBRANCH  24  25
ENDBRANCH  23  24
ENDBRANCH  22  23
ENDBRANCH  21  22
ENDBRANCH  20  21
ENDBRANCH  19  20
ENDBRANCH  18  19
ENDBRANCH  17  18
ENDBRANCH   1  17
TORSDOF 26
ENDMDL
MODEL 4
REMARK VINA RESULT:    -4.840      2.368      4.308
REMARK INTER + INTRA:         -16.011
REMARK INTER:                 -11.788
REMARK INTRA:                  -4.223
REMARK UNBOUND:                -3.814
REMARK SMILES CCCCCCCCCCCCCCCCCCCCCCCCCCCC(=O)[O-]
REMARK SMILES IDX 15 1 16 2 17 3 18 4 19 5 20 6 21 7 22 8 23 9 24 10 25 11
REMARK SMILES IDX 26 12 27 13 28 14 29 15 30 16 14 17 13 18 12 19 11 20 10 21
REMARK SMILES IDX 9 22 8 23 7 24 6 25 5 26 4 27 3 28 2 29 1 30
REMARK H PARENT
REMARK Flexibility Score: inf
ROOT
ATOM      1  C   UNL     1       1.008  44.895   8.815  1.00  0.00     0.000 C 
ENDROOT
BRANCH   1   2
ATOM      2  C   UNL     1       0.056  45.234   9.974  1.00  0.00     0.000 C 
BRANCH   2   3
ATOM      3  C   UNL     1      -0.917  46.375   9.626  1.00  0.00     0.000 C 
BRANCH   3   4
ATOM      4  C   UNL     1      -0.464  47.176   8.393  1.00  0.00     0.000 C 
BRANCH   4   5
ATOM      5  C   UNL     1      -0.208  48.660   8.711  1.00  0.00     0.000 C 
BRANCH   5   6
ATOM      6  C   UNL     1      -0.208  49.540   7.450  1.00  0.00     0.000 C 
BRANCH   6   7
ATOM      7  C   UNL     1       1.050  50.419   7.337  1.00  0.00     0.000 C 
BRANCH   7   8
ATOM      8  C   UNL     1       2.203  49.906   8.216  1.00  0.00     0.000 C 
BRANCH   8   9
ATOM      9  C   UNL     1       3.190  49.019   7.435  1.00  0.00     0.000 C 
BRANCH   9  10
ATOM     10  C   UNL     1       3.350  47.622   8.053  1.00  0.00     0.000 C 
BRANCH  10  11
ATOM     11  C   UNL     1       3.146  47.624   9.576  1.00  0.00     0.000 C 
BRANCH  11  12
ATOM     12  C   UNL     1       4.473  47.614  10.352  1.00  0.00     0.006 C 
BRANCH  12  13
ATOM     13  C   UNL     1       5.588  46.865   9.609  1.00  0.00     0.053 C 
BRANCH  13  14
ATOM     14  C   UNL     1       6.726  47.789   9.308  1.00  0.00     0.041 C 
ATOM     15  O   UNL     1       7.914  47.401   9.467  1.00  0.00    -0.550 OA
ATOM     16  O   UNL     1       6.478  49.092   8.897  1.00  0.00    -0.550 OA
ENDBRANCH  13  14
ENDBRANCH  12  13
ENDBRANCH  11  12
ENDBRANCH  10  11
ENDBRANCH   9  10
ENDBRANCH   8   9
ENDBRANCH   7   8
ENDBRANCH   6   7
ENDBRANCH   5   6
ENDBRANCH   4   5
ENDBRANCH   3   4
ENDBRANCH   2   3
ENDBRANCH   1   2
BRANCH   1  17
ATOM     17  C   UNL     1       1.153  43.380   8.592  1.00  0.00     0.000 C 
BRANCH  17  18
ATOM     18  C   UNL     1       2.599  42.885   8.765  1.00  0.00     0.000 C 
BRANCH  18  19
ATOM     19  C   UNL     1       3.517  43.887   9.497  1.00  0.00     0.000 C 
BRANCH  19  20
ATOM     20  C   UNL     1       4.174  43.271  10.743  1.00  0.00     0.000 C 
BRANCH  20  21
ATOM     21  C   UNL     1       3.668  43.893  12.057  1.00  0.00     0.000 C 
BRANCH  21  22
ATOM     22  C   UNL     1       2.139  43.873  12.250  1.00  0.00    -0.000 C 
BRANCH  22  23
ATOM     23  C   UNL     1       1.480  42.478  12.276  1.00  0.00    -0.000 C 
BRANCH  23  24
ATOM     24  C   UNL     1       0.218  42.380  13.159  1.00  0.00    -0.000 C 
BRANCH  24  25
ATOM     25  C   UNL     1      -0.122  40.935  13.566  1.00  0.00    -0.000 C 
BRANCH  25  26
ATOM     26  C   UNL     1       1.124  40.101  13.906  1.00  0.00    -0.000 C 
BRANCH  26  27
ATOM     27  C   UNL     1       1.285  38.814  13.072  1.00  0.00    -0.000 C 
BRANCH  27  28
ATOM     28  C   UNL     1       2.742  38.538  12.640  1.00  0.00    -0.000 C 
BRANCH  28  29
ATOM     29  C   UNL     1       3.558  39.831  12.502  1.00  0.00    -0.003 C 
ATOM     30  C   UNL     1       4.834  39.772  13.335  1.00  0.00     0.004 C 
ENDBRANCH  28  29
ENDBRANCH  27  28
ENDBRANCH  26  27
ENDBRANCH  25  26
ENDBRANCH  24  25
ENDBRANCH  23  24
ENDBRANCH  22  23
ENDBRANCH  21  22
ENDBRANCH  20  21
ENDBRANCH  19  20
ENDBRANCH  18  19
ENDBRANCH  17  18
ENDBRANCH   1  17
TORSDOF 26
ENDMDL
MODEL 5
REMARK VINA RESULT:    -4.715      2.875      8.662
REMARK INTER + INTRA:         -15.694
REMARK INTER:                 -12.249
REMARK INTRA:                  -3.445
REMARK UNBOUND:                -3.814
REMARK SMILES CCCCCCCCCCCCCCCCCCCCCCCCCCCC(=O)[O-]
REMARK SMILES IDX 15 1 16 2 17 3 18 4 19 5 20 6 21 7 22 8 23 9 24 10 25 11
REMARK SMILES IDX 26 12 27 13 28 14 29 15 30 16 14 17 13 18 12 19 11 20 10 21
REMARK SMILES IDX 9 22 8 23 7 24 6 25 5 26 4 27 3 28 2 29 1 30
REMARK H PARENT
REMARK Flexibility Score: inf
ROOT
ATOM      1  C   UNL     1       4.682  46.834   8.730  1.00  0.00     0.000 C 
ENDROOT
BRANCH   1   2
ATOM      2  C   UNL     1       3.585  45.968   9.371  1.00  0.00     0.000 C 
BRANCH   2   3
ATOM      3  C   UNL     1       3.883  45.631  10.843  1.00  0.00     0.000 C 
BRANCH   3   4
ATOM      4  C   UNL     1       3.915  44.116  11.104  1.00  0.00     0.000 C 
BRANCH   4   5
ATOM      5  C   UNL     1       2.658  43.397  10.582  1.00  0.00     0.000 C 
BRANCH   5   6
ATOM      6  C   UNL     1       1.405  43.729  11.408  1.00  0.00     0.000 C 
BRANCH   6   7
ATOM      7  C   UNL     1       1.194  42.760  12.585  1.00  0.00     0.000 C 
BRANCH   7   8
ATOM      8  C   UNL     1      -0.295  42.498  12.867  1.00  0.00     0.000 C 
BRANCH   8   9
ATOM      9  C   UNL     1      -0.516  41.272  13.772  1.00  0.00     0.000 C 
BRANCH   9  10
ATOM     10  C   UNL     1       0.786  40.515  14.075  1.00  0.00     0.000 C 
BRANCH  10  11
ATOM     11  C   UNL     1       0.825  39.125  13.419  1.00  0.00     0.000 C 
BRANCH  11  12
ATOM     12  C   UNL     1       2.192  38.805  12.793  1.00  0.00     0.006 C 
BRANCH  12  13
ATOM     13  C   UNL     1       2.926  40.058  12.298  1.00  0.00     0.053 C 
BRANCH  13  14
ATOM     14  C   UNL     1       4.311  40.109  12.862  1.00  0.00     0.041 C 
ATOM     15  O   UNL     1       5.092  41.043  12.538  1.00  0.00    -0.550 OA
ATOM     16  O   UNL     1       4.758  39.102  13.707  1.00  0.00    -0.550 OA
ENDBRANCH  13  14
ENDBRANCH  12  13
ENDBRANCH  11  12
ENDBRANCH  10  11
ENDBRANCH   9  10
ENDBRANCH   8   9
ENDBRANCH   7   8
ENDBRANCH   6   7
ENDBRANCH   5   6
ENDBRANCH   4   5
ENDBRANCH   3   4
ENDBRANCH   2   3
ENDBRANCH   1   2
BRANCH   1  17
ATOM     17  C   UNL     1       5.728  47.316   9.749  1.00  0.00     0.000 C 
BRANCH  17  18
ATOM     18  C   UNL     1       6.806  48.216   9.122  1.00  0.00     0.000 C 
BRANCH  18  19
ATOM     19  C   UNL     1       6.400  49.703   9.034  1.00  0.00     0.000 C 
BRANCH  19  20
ATOM     20  C   UNL     1       5.428  50.107  10.155  1.00  0.00     0.000 C 
BRANCH  20  21
ATOM     21  C   UNL     1       4.080  50.625   9.621  1.00  0.00     0.000 C 
BRANCH  21  22
ATOM     22  C   UNL     1       3.961  50.692   8.086  1.00  0.00    -0.000 C 
BRANCH  22  23
ATOM     23  C   UNL     1       2.843  49.834   7.458  1.00  0.00    -0.000 C 
BRANCH  23  24
ATOM     24  C   UNL     1       1.431  50.449   7.552  1.00  0.00    -0.000 C 
BRANCH  24  25
ATOM     25  C   UNL     1       0.320  49.391   7.683  1.00  0.00    -0.000 C 
BRANCH  25  26
ATOM     26  C   UNL     1       0.869  47.971   7.901  1.00  0.00    -0.000 C 
BRANCH  26  27
ATOM     27  C   UNL     1       0.438  47.311   9.226  1.00  0.00    -0.000 C 
BRANCH  27  28
ATOM     28  C   UNL     1      -0.476  46.082   9.032  1.00  0.00    -0.000 C 
BRANCH  28  29
ATOM     29  C   UNL     1      -0.267  45.416   7.665  1.00  0.00    -0.003 C 
ATOM     30  C   UNL     1       0.470  44.088   7.803  1.00  0.00     0.004 C 
ENDBRANCH  28  29
ENDBRANCH  27  28
ENDBRANCH  26  27
ENDBRANCH  25  26
ENDBRANCH  24  25
ENDBRANCH  23  24
ENDBRANCH  22  23
ENDBRANCH  21  22
ENDBRANCH  20  21
ENDBRANCH  19  20
ENDBRANCH  18  19
ENDBRANCH  17  18
ENDBRANCH   1  17
TORSDOF 26
ENDMDL
MODEL 6
REMARK VINA RESULT:    -4.703      2.235      4.292
REMARK INTER + INTRA:         -15.664
REMARK INTER:                 -12.041
REMARK INTRA:                  -3.624
REMARK UNBOUND:                -3.814
REMARK SMILES CCCCCCCCCCCCCCCCCCCCCCCCCCCC(=O)[O-]
REMARK SMILES IDX 15 1 16 2 17 3 18 4 19 5 20 6 21 7 22 8 23 9 24 10 25 11
REMARK SMILES IDX 26 12 27 13 28 14 29 15 30 16 14 17 13 18 12 19 11 20 10 21
REMARK SMILES IDX 9 22 8 23 7 24 6 25 5 26 4 27 3 28 2 29 1 30
REMARK H PARENT
REMARK Flexibility Score: inf
ROOT
ATOM      1  C   UNL     1       3.985  43.460   9.103  1.00  0.00     0.000 C 
ENDROOT
BRANCH   1   2
ATOM      2  C   UNL     1       2.625  42.910   8.642  1.00  0.00     0.000 C 
BRANCH   2   3
ATOM      3  C   UNL     1       1.473  43.902   8.885  1.00  0.00     0.000 C 
BRANCH   3   4
ATOM      4  C   UNL     1       0.484  43.951   7.709  1.00  0.00     0.000 C 
BRANCH   4   5
ATOM      5  C   UNL     1      -0.302  45.274   7.649  1.00  0.00     0.000 C 
BRANCH   5   6
ATOM      6  C   UNL     1      -0.261  46.043   8.979  1.00  0.00     0.000 C 
BRANCH   6   7
ATOM      7  C   UNL     1       0.319  47.461   8.830  1.00  0.00     0.000 C 
BRANCH   7   8
ATOM      8  C   UNL     1       1.325  47.562   7.671  1.00  0.00     0.000 C 
BRANCH   8   9
ATOM      9  C   UNL     1       2.290  48.752   7.831  1.00  0.00     0.000 C 
BRANCH   9  10
ATOM     10  C   UNL     1       2.535  49.124   9.301  1.00  0.00     0.000 C 
BRANCH  10  11
ATOM     11  C   UNL     1       3.363  50.411   9.453  1.00  0.00     0.000 C 
BRANCH  11  12
ATOM     12  C   UNL     1       4.639  50.199  10.283  1.00  0.00     0.006 C 
BRANCH  12  13
ATOM     13  C   UNL     1       5.078  48.730  10.332  1.00  0.00     0.053 C 
BRANCH  13  14
ATOM     14  C   UNL     1       6.197  48.486   9.368  1.00  0.00     0.041 C 
ATOM     15  O   UNL     1       6.750  47.356   9.314  1.00  0.00    -0.550 OA
ATOM     16  O   UNL     1       6.662  49.518   8.564  1.00  0.00    -0.550 OA
ENDBRANCH  13  14
ENDBRANCH  12  13
ENDBRANCH  11  12
ENDBRANCH  10  11
ENDBRANCH   9  10
ENDBRANCH   8   9
ENDBRANCH   7   8
ENDBRANCH   6   7
ENDBRANCH   5   6
ENDBRANCH   4   5
ENDBRANCH   3   4
ENDBRANCH   2   3
ENDBRANCH   1   2
BRANCH   1  17
ATOM     17  C   UNL     1       3.931  44.957   9.451  1.00  0.00     0.000 C 
BRANCH  17  18
ATOM     18  C   UNL     1       4.326  45.248  10.909  1.00  0.00     0.000 C 
BRANCH  18  19
ATOM     19  C   UNL     1       4.195  44.027  11.844  1.00  0.00     0.000 C 
BRANCH  19  20
ATOM     20  C   UNL     1       2.860  44.019  12.607  1.00  0.00     0.000 C 
BRANCH  20  21
ATOM     21  C   UNL     1       1.917  42.889  12.154  1.00  0.00     0.000 C 
BRANCH  21  22
ATOM     22  C   UNL     1       0.412  43.203  12.260  1.00  0.00    -0.000 C 
BRANCH  22  23
ATOM     23  C   UNL     1      -0.376  42.381  13.301  1.00  0.00    -0.000 C 
BRANCH  23  24
ATOM     24  C   UNL     1       0.464  41.332  14.060  1.00  0.00    -0.000 C 
BRANCH  24  25
ATOM     25  C   UNL     1      -0.089  39.902  13.920  1.00  0.00    -0.000 C 
BRANCH  25  26
ATOM     26  C   UNL     1       0.923  38.927  13.295  1.00  0.00    -0.000 C 
BRANCH  26  27
ATOM     27  C   UNL     1       2.240  39.579  12.829  1.00  0.00    -0.000 C 
BRANCH  27  28
ATOM     28  C   UNL     1       3.381  38.564  12.598  1.00  0.00    -0.000 C 
BRANCH  28  29
ATOM     29  C   UNL     1       4.737  39.101  13.078  1.00  0.00    -0.003 C 
ATOM     30  C   UNL     1       4.859  40.600  12.830  1.00  0.00     0.004 C 
ENDBRANCH  28  29
ENDBRANCH  27  28
ENDBRANCH  26  27
ENDBRANCH  25  26
ENDBRANCH  24  25
ENDBRANCH  23  24
ENDBRANCH  22  23
ENDBRANCH  21  22
ENDBRANCH  20  21
ENDBRANCH  19  20
ENDBRANCH  18  19
ENDBRANCH  17  18
ENDBRANCH   1  17
TORSDOF 26
ENDMDL
MODEL 7
REMARK VINA RESULT:    -4.611      2.827      8.369
REMARK INTER + INTRA:         -15.432
REMARK INTER:                 -12.525
REMARK INTRA:                  -2.907
REMARK UNBOUND:                -3.814
REMARK SMILES CCCCCCCCCCCCCCCCCCCCCCCCCCCC(=O)[O-]
REMARK SMILES IDX 15 1 16 2 17 3 18 4 19 5 20 6 21 7 22 8 23 9 24 10 25 11
REMARK SMILES IDX 26 12 27 13 28 14 29 15 30 16 14 17 13 18 12 19 11 20 10 21
REMARK SMILES IDX 9 22 8 23 7 24 6 25 5 26 4 27 3 28 2 29 1 30
REMARK H PARENT
REMARK Flexibility Score: inf
ROOT
ATOM      1  C   UNL     1       1.122  43.261   8.260  1.00  0.00     0.000 C 
ENDROOT
BRANCH   1   2
ATOM      2  C   UNL     1       2.427  42.891   8.985  1.00  0.00     0.000 C 
BRANCH   2   3
ATOM      3  C   UNL     1       3.243  44.128   9.402  1.00  0.00     0.000 C 
BRANCH   3   4
ATOM      4  C   UNL     1       4.047  43.893  10.691  1.00  0.00     0.000 C 
BRANCH   4   5
ATOM      5  C   UNL     1       3.174  43.962  11.956  1.00  0.00     0.000 C 
BRANCH   5   6
ATOM      6  C   UNL     1       1.797  44.593  11.688  1.00  0.00     0.000 C 
BRANCH   6   7
ATOM      7  C   UNL     1       0.633  43.634  11.996  1.00  0.00     0.000 C 
BRANCH   7   8
ATOM      8  C   UNL     1       1.111  42.318  12.631  1.00  0.00     0.000 C 
BRANCH   8   9
ATOM      9  C   UNL     1       0.001  41.612  13.431  1.00  0.00     0.000 C 
BRANCH   9  10
ATOM     10  C   UNL     1       0.361  40.164  13.796  1.00  0.00     0.000 C 
BRANCH  10  11
ATOM     11  C   UNL     1       1.852  39.855  13.582  1.00  0.00     0.000 C 
BRANCH  11  12
ATOM     12  C   UNL     1       2.079  38.576  12.761  1.00  0.00     0.006 C 
BRANCH  12  13
ATOM     13  C   UNL     1       3.530  38.430  12.281  1.00  0.00     0.053 C 
BRANCH  13  14
ATOM     14  C   UNL     1       4.398  39.469  12.919  1.00  0.00     0.041 C 
ATOM     15  O   UNL     1       5.062  39.192  13.952  1.00  0.00    -0.550 OA
ATOM     16  O   UNL     1       4.437  40.757  12.401  1.00  0.00    -0.550 OA
ENDBRANCH  13  14
ENDBRANCH  12  13
ENDBRANCH  11  12
ENDBRANCH  10  11
ENDBRANCH   9  10
ENDBRANCH   8   9
ENDBRANCH   7   8
ENDBRANCH   6   7
ENDBRANCH   5   6
ENDBRANCH   4   5
ENDBRANCH   3   4
ENDBRANCH   2   3
ENDBRANCH   1   2
BRANCH   1  17
ATOM     17  C   UNL     1       0.700  44.719   8.509  1.00  0.00     0.000 C 
BRANCH  17  18
ATOM     18  C   UNL     1      -0.059  45.335   7.320  1.00  0.00     0.000 C 
BRANCH  18  19
ATOM     19  C   UNL     1      -0.147  46.875   7.369  1.00  0.00     0.000 C 
BRANCH  19  20
ATOM     20  C   UNL     1       1.137  47.514   7.924  1.00  0.00     0.000 C 
BRANCH  20  21
ATOM     21  C   UNL     1       1.152  49.047   7.783  1.00  0.00     0.000 C 
BRANCH  21  22
ATOM     22  C   UNL     1       2.550  49.685   7.661  1.00  0.00    -0.000 C 
BRANCH  22  23
ATOM     23  C   UNL     1       2.991  50.575   8.842  1.00  0.00    -0.000 C 
BRANCH  23  24
ATOM     24  C   UNL     1       2.643  50.011  10.236  1.00  0.00    -0.000 C 
BRANCH  24  25
ATOM     25  C   UNL     1       3.796  49.210  10.867  1.00  0.00    -0.000 C 
BRANCH  25  26
ATOM     26  C   UNL     1       3.786  47.726  10.461  1.00  0.00    -0.000 C 
BRANCH  26  27
ATOM     27  C   UNL     1       4.625  47.397   9.210  1.00  0.00    -0.000 C 
BRANCH  27  28
ATOM     28  C   UNL     1       6.070  46.962   9.536  1.00  0.00    -0.000 C 
BRANCH  28  29
ATOM     29  C   UNL     1       7.055  48.138   9.476  1.00  0.00    -0.003 C 
ATOM     30  C   UNL     1       6.493  49.290   8.652  1.00  0.00     0.004 C 
ENDBRANCH  28  29
ENDBRANCH  27  28
ENDBRANCH  26  27
ENDBRANCH  25  26
ENDBRANCH  24  25
ENDBRANCH  23  24
ENDBRANCH  22  23
ENDBRANCH  21  22
ENDBRANCH  20  21
ENDBRANCH  19  20
ENDBRANCH  18  19
ENDBRANCH  17  18
ENDBRANCH   1  17
TORSDOF 26
ENDMDL
MODEL 8
REMARK VINA RESULT:    -4.551      1.552      2.376
REMARK INTER + INTRA:         -15.283
REMARK INTER:                 -11.794
REMARK INTRA:                  -3.489
REMARK UNBOUND:                -3.814
REMARK SMILES CCCCCCCCCCCCCCCCCCCCCCCCCCCC(=O)[O-]
REMARK SMILES IDX 15 1 16 2 17 3 18 4 19 5 20 6 21 7 22 8 23 9 24 10 25 11
REMARK SMILES IDX 26 12 27 13 28 14 29 15 30 16 14 17 13 18 12 19 11 20 10 21
REMARK SMILES IDX 9 22 8 23 7 24 6 25 5 26 4 27 3 28 2 29 1 30
REMARK H PARENT
REMARK Flexibility Score: inf
ROOT
ATOM      1  C   UNL     1       4.338  46.557   9.496  1.00  0.00     0.000 C 
ENDROOT
BRANCH   1   2
ATOM      2  C   UNL     1       3.390  47.517  10.233  1.00  0.00     0.000 C 
BRANCH   2   3
ATOM      3  C   UNL     1       4.121  48.745  10.806  1.00  0.00     0.000 C 
BRANCH   3   4
ATOM      4  C   UNL     1       5.420  49.061  10.046  1.00  0.00     0.000 C 
BRANCH   4   5
ATOM      5  C   UNL     1       5.556  50.553   9.697  1.00  0.00     0.000 C 
BRANCH   5   6
ATOM      6  C   UNL     1       5.173  50.854   8.239  1.00  0.00     0.000 C 
BRANCH   6   7
ATOM      7  C   UNL     1       3.668  51.125   8.062  1.00  0.00     0.000 C 
BRANCH   7   8
ATOM      8  C   UNL     1       2.926  49.927   7.446  1.00  0.00     0.000 C 
BRANCH   8   9
ATOM      9  C   UNL     1       1.399  50.121   7.437  1.00  0.00     0.000 C 
BRANCH   9  10
ATOM     10  C   UNL     1       0.649  48.963   8.113  1.00  0.00     0.000 C 
BRANCH  10  11
ATOM     11  C   UNL     1       1.142  47.586   7.640  1.00  0.00     0.000 C 
BRANCH  11  12
ATOM     12  C   UNL     1      -0.007  46.669   7.188  1.00  0.00     0.006 C 
BRANCH  12  13
ATOM     13  C   UNL     1      -0.679  45.941   8.360  1.00  0.00     0.053 C 
BRANCH  13  14
ATOM     14  C   UNL     1       0.332  45.157   9.137  1.00  0.00     0.041 C 
ATOM     15  O   UNL     1       0.606  45.479  10.323  1.00  0.00    -0.550 OA
ATOM     16  O   UNL     1       1.006  44.101   8.538  1.00  0.00    -0.550 OA
ENDBRANCH  13  14
ENDBRANCH  12  13
ENDBRANCH  11  12
ENDBRANCH  10  11
ENDBRANCH   9  10
ENDBRANCH   8   9
ENDBRANCH   7   8
ENDBRANCH   6   7
ENDBRANCH   5   6
ENDBRANCH   4   5
ENDBRANCH   3   4
ENDBRANCH   2   3
ENDBRANCH   1   2
BRANCH   1  17
ATOM     17  C   UNL     1       4.330  45.139  10.095  1.00  0.00     0.000 C 
BRANCH  17  18
ATOM     18  C   UNL     1       3.871  45.111  11.563  1.00  0.00     0.000 C 
BRANCH  18  19
ATOM     19  C   UNL     1       4.075  43.745  12.252  1.00  0.00     0.000 C 
BRANCH  19  20
ATOM     20  C   UNL     1       3.561  42.578  11.392  1.00  0.00     0.000 C 
BRANCH  20  21
ATOM     21  C   UNL     1       2.025  42.471  11.385  1.00  0.00     0.000 C 
BRANCH  21  22
ATOM     22  C   UNL     1       1.328  42.887  12.695  1.00  0.00    -0.000 C 
BRANCH  22  23
ATOM     23  C   UNL     1      -0.135  42.427  12.857  1.00  0.00    -0.000 C 
BRANCH  23  24
ATOM     24  C   UNL     1      -0.394  41.525  14.083  1.00  0.00    -0.000 C 
BRANCH  24  25
ATOM     25  C   UNL     1       0.677  40.433  14.264  1.00  0.00    -0.000 C 
BRANCH  25  26
ATOM     26  C   UNL     1       0.492  39.248  13.301  1.00  0.00    -0.000 C 
BRANCH  26  27
ATOM     27  C   UNL     1       1.784  38.470  12.983  1.00  0.00    -0.000 C 
BRANCH  27  28
ATOM     28  C   UNL     1       2.899  39.348  12.375  1.00  0.00    -0.000 C 
BRANCH  28  29
ATOM     29  C   UNL     1       4.299  38.858  12.766  1.00  0.00    -0.003 C 
ATOM     30  C   UNL     1       5.064  39.925  13.541  1.00  0.00     0.004 C 
ENDBRANCH  28  29
ENDBRANCH  27  28
ENDBRANCH  26  27
ENDBRANCH  25  26
ENDBRANCH  24  25
ENDBRANCH  23  24
ENDBRANCH  22  23
ENDBRANCH  21  22
ENDBRANCH  20  21
ENDBRANCH  19  20
ENDBRANCH  18  19
ENDBRANCH  17  18
ENDBRANCH   1  17
TORSDOF 26
ENDMDL
MODEL 9
REMARK VINA RESULT:    -4.468      2.860      8.811
REMARK INTER + INTRA:         -15.073
REMARK INTER:                 -11.443
REMARK INTRA:                  -3.630
REMARK UNBOUND:                -3.814
REMARK SMILES CCCCCCCCCCCCCCCCCCCCCCCCCCCC(=O)[O-]
REMARK SMILES IDX 15 1 16 2 17 3 18 4 19 5 20 6 21 7 22 8 23 9 24 10 25 11
REMARK SMILES IDX 26 12 27 13 28 14 29 15 30 16 14 17 13 18 12 19 11 20 10 21
REMARK SMILES IDX 9 22 8 23 7 24 6 25 5 26 4 27 3 28 2 29 1 30
REMARK H PARENT
REMARK Flexibility Score: inf
ROOT
ATOM      1  C   UNL     1       3.472  46.505   9.203  1.00  0.00     0.000 C 
ENDROOT
BRANCH   1   2
ATOM      2  C   UNL     1       4.647  45.864   9.959  1.00  0.00     0.000 C 
BRANCH   2   3
ATOM      3  C   UNL     1       4.335  44.433  10.432  1.00  0.00     0.000 C 
BRANCH   3   4
ATOM      4  C   UNL     1       3.548  43.628   9.385  1.00  0.00     0.000 C 
BRANCH   4   5
ATOM      5  C   UNL     1       2.436  42.767  10.010  1.00  0.00     0.000 C 
BRANCH   5   6
ATOM      6  C   UNL     1       1.550  43.564  10.980  1.00  0.00     0.000 C 
BRANCH   6   7
ATOM      7  C   UNL     1       1.518  42.957  12.394  1.00  0.00     0.000 C 
BRANCH   7   8
ATOM      8  C   UNL     1       0.104  42.520  12.811  1.00  0.00     0.000 C 
BRANCH   8   9
ATOM      9  C   UNL     1       0.112  41.596  14.043  1.00  0.00     0.000 C 
BRANCH   9  10
ATOM     10  C   UNL     1      -0.558  40.239  13.773  1.00  0.00     0.000 C 
BRANCH  10  11
ATOM     11  C   UNL     1       0.438  39.179  13.278  1.00  0.00     0.000 C 
BRANCH  11  12
ATOM     12  C   UNL     1       1.890  39.504  13.662  1.00  0.00     0.006 C 
BRANCH  12  13
ATOM     13  C   UNL     1       2.859  39.376  12.480  1.00  0.00     0.053 C 
BRANCH  13  14
ATOM     14  C   UNL     1       4.194  39.954  12.833  1.00  0.00     0.041 C 
ATOM     15  O   UNL     1       4.519  41.096  12.413  1.00  0.00    -0.550 OA
ATOM     16  O   UNL     1       5.098  39.214  13.583  1.00  0.00    -0.550 OA
ENDBRANCH  13  14
ENDBRANCH  12  13
ENDBRANCH  11  12
ENDBRANCH  10  11
ENDBRANCH   9  10
ENDBRANCH   8   9
ENDBRANCH   7   8
ENDBRANCH   6   7
ENDBRANCH   5   6
ENDBRANCH   4   5
ENDBRANCH   3   4
ENDBRANCH   2   3
ENDBRANCH   1   2
BRANCH   1  17
ATOM     17  C   UNL     1       2.407  47.088  10.147  1.00  0.00     0.000 C 
BRANCH  17  18
ATOM     18  C   UNL     1       0.969  46.783   9.692  1.00  0.00     0.000 C 
BRANCH  18  19
ATOM     19  C   UNL     1       0.882  46.169   8.279  1.00  0.00     0.000 C 
BRANCH  19  20
ATOM     20  C   UNL     1       0.229  47.127   7.268  1.00  0.00     0.000 C 
BRANCH  20  21
ATOM     21  C   UNL     1      -0.503  48.302   7.943  1.00  0.00     0.000 C 
BRANCH  21  22
ATOM     22  C   UNL     1       0.383  49.512   8.300  1.00  0.00    -0.000 C 
BRANCH  22  23
ATOM     23  C   UNL     1       0.523  50.591   7.207  1.00  0.00    -0.000 C 
BRANCH  23  24
ATOM     24  C   UNL     1       1.972  51.055   6.944  1.00  0.00    -0.000 C 
BRANCH  24  25
ATOM     25  C   UNL     1       3.017  49.966   7.248  1.00  0.00    -0.000 C 
BRANCH  25  26
ATOM     26  C   UNL     1       4.179  50.479   8.115  1.00  0.00    -0.000 C 
BRANCH  26  27
ATOM     27  C   UNL     1       3.897  50.486   9.631  1.00  0.00    -0.000 C 
BRANCH  27  28
ATOM     28  C   UNL     1       4.942  49.704  10.456  1.00  0.00    -0.000 C 
BRANCH  28  29
ATOM     29  C   UNL     1       6.352  49.822   9.861  1.00  0.00    -0.003 C 
ATOM     30  C   UNL     1       6.814  48.497   9.265  1.00  0.00     0.004 C 
ENDBRANCH  28  29
ENDBRANCH  27  28
ENDBRANCH  26  27
ENDBRANCH  25  26
ENDBRANCH  24  25
ENDBRANCH  23  24
ENDBRANCH  22  23
ENDBRANCH  21  22
ENDBRANCH  20  21
ENDBRANCH  19  20
ENDBRANCH  18  19
ENDBRANCH  17  18
ENDBRANCH   1  17
TORSDOF 26
ENDMDL
