MODEL 1
REMARK VINA RESULT:    -3.665      0.000      0.000
REMARK INTER + INTRA:          -9.016
REMARK INTER:                  -6.665
REMARK INTRA:                  -2.350
REMARK UNBOUND:                -2.350
REMARK SMILES CCCCCCCCCCCCCCCC(=O)[O-]
REMARK SMILES IDX 9 1 10 2 11 3 12 4 13 5 14 6 15 7 16 8 17 9 18 10 8 11 7 12
REMARK SMILES IDX 6 13 5 14 4 15 3 16 2 17 1 18
REMARK H PARENT
REMARK Flexibility Score: inf
ROOT
ATOM      1  C   UNL     1     -21.997   8.398  18.480  1.00  0.00     0.000 C 
ENDROOT
BRANCH   1   2
ATOM      2  C   UNL     1     -22.288   8.298  19.989  1.00  0.00     0.000 C 
BRANCH   2   3
ATOM      3  C   UNL     1     -23.756   8.010  20.356  1.00  0.00     0.000 C 
BRANCH   3   4
ATOM      4  C   UNL     1     -23.934   6.694  21.132  1.00  0.00     0.000 C 
BRANCH   4   5
ATOM      5  C   UNL     1     -22.646   5.851  21.186  1.00  0.00     0.000 C 
BRANCH   5   6
ATOM      6  C   UNL     1     -22.660   4.569  20.328  1.00  0.00     0.006 C 
BRANCH   6   7
ATOM      7  C   UNL     1     -21.284   3.916  20.128  1.00  0.00     0.053 C 
BRANCH   7   8
ATOM      8  C   UNL     1     -21.150   2.640  20.903  1.00  0.00     0.041 C 
ATOM      9  O   UNL     1     -20.805   1.579  20.320  1.00  0.00    -0.550 OA
ATOM     10  O   UNL     1     -21.371   2.632  22.273  1.00  0.00    -0.550 OA
ENDBRANCH   7   8
ENDBRANCH   6   7
ENDBRANCH   5   6
ENDBRANCH   4   5
ENDBRANCH   3   4
ENDBRANCH   2   3
ENDBRANCH   1   2
BRANCH   1  11
ATOM     11  C   UNL     1     -22.469   7.167  17.693  1.00  0.00     0.000 C 
BRANCH  11  12
ATOM     12  C   UNL     1     -21.278   6.304  17.257  1.00  0.00    -0.000 C 
BRANCH  12  13
ATOM     13  C   UNL     1     -20.523   6.953  16.091  1.00  0.00    -0.000 C 
BRANCH  13  14
ATOM     14  C   UNL     1     -19.004   6.836  16.286  1.00  0.00    -0.000 C 
BRANCH  14  15
ATOM     15  C   UNL     1     -18.625   6.019  17.531  1.00  0.00    -0.000 C 
BRANCH  15  16
ATOM     16  C   UNL     1     -17.736   6.808  18.508  1.00  0.00    -0.000 C 
BRANCH  16  17
ATOM     17  C   UNL     1     -18.556   7.636  19.509  1.00  0.00    -0.003 C 
ATOM     18  C   UNL     1     -19.043   6.814  20.702  1.00  0.00     0.004 C 
ENDBRANCH  16  17
ENDBRANCH  15  16
ENDBRANCH  14  15
ENDBRANCH  13  14
ENDBRANCH  12  13
ENDBRANCH  11  12
ENDBRANCH   1  11
TORSDOF 14
ENDMDL
MODEL 2
REMARK VINA RESULT:    -3.615      1.286      2.328
REMARK INTER + INTRA:          -8.923
REMARK INTER:                  -6.846
REMARK INTRA:                  -2.077
REMARK UNBOUND:                -2.350
REMARK SMILES CCCCCCCCCCCCCCCC(=O)[O-]
REMARK SMILES IDX 9 1 10 2 11 3 12 4 13 5 14 6 15 7 16 8 17 9 18 10 8 11 7 12
REMARK SMILES IDX 6 13 5 14 4 15 3 16 2 17 1 18
REMARK H PARENT
REMARK Flexibility Score: inf
ROOT
ATOM      1  C   UNL     1     -23.753   7.796  19.565  1.00  0.00     0.000 C 
ENDROOT
BRANCH   1   2
ATOM      2  C   UNL     1     -23.985   7.355  21.022  1.00  0.00     0.000 C 
BRANCH   2   3
ATOM      3  C   UNL     1     -23.444   5.957  21.379  1.00  0.00     0.000 C 
BRANCH   3   4
ATOM      4  C   UNL     1     -21.920   5.938  21.584  1.00  0.00     0.000 C 
BRANCH   4   5
ATOM      5  C   UNL     1     -21.182   5.112  20.514  1.00  0.00     0.000 C 
BRANCH   5   6
ATOM      6  C   UNL     1     -21.963   3.901  19.961  1.00  0.00     0.006 C 
BRANCH   6   7
ATOM      7  C   UNL     1     -21.596   2.554  20.603  1.00  0.00     0.053 C 
BRANCH   7   8
ATOM      8  C   UNL     1     -22.746   1.959  21.356  1.00  0.00     0.041 C 
ATOM      9  O   UNL     1     -23.189   2.528  22.388  1.00  0.00    -0.550 OA
ATOM     10  O   UNL     1     -23.352   0.797  20.898  1.00  0.00    -0.550 OA
ENDBRANCH   7   8
ENDBRANCH   6   7
ENDBRANCH   5   6
ENDBRANCH   4   5
ENDBRANCH   3   4
ENDBRANCH   2   3
ENDBRANCH   1   2
BRANCH   1  11
ATOM     11  C   UNL     1     -22.497   8.662  19.391  1.00  0.00     0.000 C 
BRANCH  11  12
ATOM     12  C   UNL     1     -21.683   8.211  18.172  1.00  0.00    -0.000 C 
BRANCH  12  13
ATOM     13  C   UNL     1     -22.363   7.037  17.457  1.00  0.00    -0.000 C 
BRANCH  13  14
ATOM     14  C   UNL     1     -21.327   6.137  16.768  1.00  0.00    -0.000 C 
BRANCH  14  15
ATOM     15  C   UNL     1     -20.285   6.935  15.968  1.00  0.00    -0.000 C 
BRANCH  15  16
ATOM     16  C   UNL     1     -18.855   6.403  16.165  1.00  0.00    -0.000 C 
BRANCH  16  17
ATOM     17  C   UNL     1     -18.372   6.540  17.618  1.00  0.00    -0.003 C 
ATOM     18  C   UNL     1     -18.100   5.191  18.283  1.00  0.00     0.004 C 
ENDBRANCH  16  17
ENDBRANCH  15  16
ENDBRANCH  14  15
ENDBRANCH  13  14
ENDBRANCH  12  13
ENDBRANCH  11  12
ENDBRANCH   1  11
TORSDOF 14
ENDMDL
MODEL 3
REMARK VINA RESULT:    -3.607      1.350      2.815
REMARK INTER + INTRA:          -8.910
REMARK INTER:                  -6.734
REMARK INTRA:                  -2.176
REMARK UNBOUND:                -2.350
REMARK SMILES CCCCCCCCCCCCCCCC(=O)[O-]
REMARK SMILES IDX 9 1 10 2 11 3 12 4 13 5 14 6 15 7 16 8 17 9 18 10 8 11 7 12
REMARK SMILES IDX 6 13 5 14 4 15 3 16 2 17 1 18
REMARK H PARENT
REMARK Flexibility Score: inf
ROOT
ATOM      1  C   UNL     1     -21.559   6.556  17.246  1.00  0.00     0.000 C 
ENDROOT
BRANCH   1   2
ATOM      2  C   UNL     1     -22.448   7.638  17.889  1.00  0.00     0.000 C 
BRANCH   2   3
ATOM      3  C   UNL     1     -21.739   8.548  18.910  1.00  0.00     0.000 C 
BRANCH   3   4
ATOM      4  C   UNL     1     -22.088   8.201  20.367  1.00  0.00     0.000 C 
BRANCH   4   5
ATOM      5  C   UNL     1     -23.605   8.180  20.631  1.00  0.00     0.000 C 
BRANCH   5   6
ATOM      6  C   UNL     1     -24.164   6.842  21.159  1.00  0.00     0.006 C 
BRANCH   6   7
ATOM      7  C   UNL     1     -23.219   5.642  20.991  1.00  0.00     0.053 C 
BRANCH   7   8
ATOM      8  C   UNL     1     -23.640   4.474  21.830  1.00  0.00     0.041 C 
ATOM      9  O   UNL     1     -23.363   3.301  21.466  1.00  0.00    -0.550 OA
ATOM     10  O   UNL     1     -24.306   4.683  23.030  1.00  0.00    -0.550 OA
ENDBRANCH   7   8
ENDBRANCH   6   7
ENDBRANCH   5   6
ENDBRANCH   4   5
ENDBRANCH   3   4
ENDBRANCH   2   3
ENDBRANCH   1   2
BRANCH   1  11
ATOM     11  C   UNL     1     -20.586   7.120  16.201  1.00  0.00     0.000 C 
BRANCH  11  12
ATOM     12  C   UNL     1     -19.340   6.234  16.075  1.00  0.00    -0.000 C 
BRANCH  12  13
ATOM     13  C   UNL     1     -18.230   6.705  17.023  1.00  0.00    -0.000 C 
BRANCH  13  14
ATOM     14  C   UNL     1     -18.123   5.784  18.247  1.00  0.00    -0.000 C 
BRANCH  14  15
ATOM     15  C   UNL     1     -18.580   6.466  19.546  1.00  0.00    -0.000 C 
BRANCH  15  16
ATOM     16  C   UNL     1     -19.544   5.591  20.366  1.00  0.00    -0.000 C 
BRANCH  16  17
ATOM     17  C   UNL     1     -20.107   4.416  19.551  1.00  0.00    -0.003 C 
ATOM     18  C   UNL     1     -19.899   3.066  20.236  1.00  0.00     0.004 C 
ENDBRANCH  16  17
ENDBRANCH  15  16
ENDBRANCH  14  15
ENDBRANCH  13  14
ENDBRANCH  12  13
ENDBRANCH  11  12
ENDBRANCH   1  11
TORSDOF 14
ENDMDL
MODEL 4
REMARK VINA RESULT:    -3.588      2.449      4.853
REMARK INTER + INTRA:          -8.875
REMARK INTER:                  -6.661
REMARK INTRA:                  -2.214
REMARK UNBOUND:                -2.350
REMARK SMILES CCCCCCCCCCCCCCCC(=O)[O-]
REMARK SMILES IDX 9 1 10 2 11 3 12 4 13 5 14 6 15 7 16 8 17 9 18 10 8 11 7 12
REMARK SMILES IDX 6 13 5 14 4 15 3 16 2 17 1 18
REMARK H PARENT
REMARK Flexibility Score: inf
ROOT
ATOM      1  C   UNL     1     -22.028   8.160  20.279  1.00  0.00     0.000 C 
ENDROOT
BRANCH   1   2
ATOM      2  C   UNL     1     -21.440   8.327  18.865  1.00  0.00     0.000 C 
BRANCH   2   3
ATOM      3  C   UNL     1     -22.189   7.575  17.749  1.00  0.00     0.000 C 
BRANCH   3   4
ATOM      4  C   UNL     1     -21.399   6.376  17.198  1.00  0.00     0.000 C 
BRANCH   4   5
ATOM      5  C   UNL     1     -20.546   6.736  15.967  1.00  0.00     0.000 C 
BRANCH   5   6
ATOM      6  C   UNL     1     -19.026   6.812  16.218  1.00  0.00     0.006 C 
BRANCH   6   7
ATOM      7  C   UNL     1     -18.522   5.934  17.373  1.00  0.00     0.053 C 
BRANCH   7   8
ATOM      8  C   UNL     1     -17.498   6.639  18.210  1.00  0.00     0.041 C 
ATOM      9  O   UNL     1     -16.273   6.413  18.034  1.00  0.00    -0.550 OA
ATOM     10  O   UNL     1     -17.897   7.571  19.159  1.00  0.00    -0.550 OA
ENDBRANCH   7   8
ENDBRANCH   6   7
ENDBRANCH   5   6
ENDBRANCH   4   5
ENDBRANCH   3   4
ENDBRANCH   2   3
ENDBRANCH   1   2
BRANCH   1  11
ATOM     11  C   UNL     1     -23.559   8.054  20.284  1.00  0.00     0.000 C 
BRANCH  11  12
ATOM     12  C   UNL     1     -24.021   6.815  21.062  1.00  0.00    -0.000 C 
BRANCH  12  13
ATOM     13  C   UNL     1     -22.840   5.888  21.376  1.00  0.00    -0.000 C 
BRANCH  13  14
ATOM     14  C   UNL     1     -22.917   4.599  20.545  1.00  0.00    -0.000 C 
BRANCH  14  15
ATOM     15  C   UNL     1     -21.553   4.174  19.979  1.00  0.00    -0.000 C 
BRANCH  15  16
ATOM     16  C   UNL     1     -20.380   4.905  20.654  1.00  0.00    -0.000 C 
BRANCH  16  17
ATOM     17  C   UNL     1     -19.071   4.103  20.586  1.00  0.00    -0.003 C 
ATOM     18  C   UNL     1     -19.271   2.684  20.054  1.00  0.00     0.004 C 
ENDBRANCH  16  17
ENDBRANCH  15  16
ENDBRANCH  14  15
ENDBRANCH  13  14
ENDBRANCH  12  13
ENDBRANCH  11  12
ENDBRANCH   1  11
TORSDOF 14
ENDMDL
MODEL 5
REMARK VINA RESULT:    -3.532      2.450      5.486
REMARK INTER + INTRA:          -8.774
REMARK INTER:                  -7.217
REMARK INTRA:                  -1.557
REMARK UNBOUND:                -2.350
REMARK SMILES CCCCCCCCCCCCCCCC(=O)[O-]
REMARK SMILES IDX 9 1 10 2 11 3 12 4 13 5 14 6 15 7 16 8 17 9 18 10 8 11 7 12
REMARK SMILES IDX 6 13 5 14 4 15 3 16 2 17 1 18
REMARK H PARENT
REMARK Flexibility Score: inf
ROOT
ATOM      1  C   UNL     1     -22.988   7.986  20.575  1.00  0.00     0.000 C 
ENDROOT
BRANCH   1   2
ATOM      2  C   UNL     1     -23.080   8.503  19.126  1.00  0.00     0.000 C 
BRANCH   2   3
ATOM      3  C   UNL     1     -22.010   7.953  18.164  1.00  0.00     0.000 C 
BRANCH   3   4
ATOM      4  C   UNL     1     -22.401   6.603  17.540  1.00  0.00     0.000 C 
BRANCH   4   5
ATOM      5  C   UNL     1     -21.445   6.164  16.415  1.00  0.00     0.000 C 
BRANCH   5   6
ATOM      6  C   UNL     1     -20.322   7.166  16.075  1.00  0.00     0.006 C 
BRANCH   6   7
ATOM      7  C   UNL     1     -18.903   6.580  16.130  1.00  0.00     0.053 C 
BRANCH   7   8
ATOM      8  C   UNL     1     -18.402   6.450  17.536  1.00  0.00     0.041 C 
ATOM      9  O   UNL     1     -17.915   5.361  17.937  1.00  0.00    -0.550 OA
ATOM     10  O   UNL     1     -18.441   7.542  18.392  1.00  0.00    -0.550 OA
ENDBRANCH   7   8
ENDBRANCH   6   7
ENDBRANCH   5   6
ENDBRANCH   4   5
ENDBRANCH   3   4
ENDBRANCH   2   3
ENDBRANCH   1   2
BRANCH   1  11
ATOM     11  C   UNL     1     -24.249   7.238  21.028  1.00  0.00     0.000 C 
BRANCH  11  12
ATOM     12  C   UNL     1     -23.908   5.818  21.494  1.00  0.00    -0.000 C 
BRANCH  12  13
ATOM     13  C   UNL     1     -22.453   5.461  21.162  1.00  0.00    -0.000 C 
BRANCH  13  14
ATOM     14  C   UNL     1     -22.385   4.257  20.211  1.00  0.00    -0.000 C 
BRANCH  14  15
ATOM     15  C   UNL     1     -21.831   2.994  20.891  1.00  0.00    -0.000 C 
BRANCH  15  16
ATOM     16  C   UNL     1     -22.910   1.921  21.114  1.00  0.00    -0.000 C 
BRANCH  16  17
ATOM     17  C   UNL     1     -23.375   1.851  22.577  1.00  0.00    -0.003 C 
ATOM     18  C   UNL     1     -24.870   2.127  22.738  1.00  0.00     0.004 C 
ENDBRANCH  16  17
ENDBRANCH  15  16
ENDBRANCH  14  15
ENDBRANCH  13  14
ENDBRANCH  12  13
ENDBRANCH  11  12
ENDBRANCH   1  11
TORSDOF 14
ENDMDL
MODEL 6
REMARK VINA RESULT:    -3.499      2.168      2.686
REMARK INTER + INTRA:          -8.713
REMARK INTER:                  -6.778
REMARK INTRA:                  -1.934
REMARK UNBOUND:                -2.350
REMARK SMILES CCCCCCCCCCCCCCCC(=O)[O-]
REMARK SMILES IDX 9 1 10 2 11 3 12 4 13 5 14 6 15 7 16 8 17 9 18 10 8 11 7 12
REMARK SMILES IDX 6 13 5 14 4 15 3 16 2 17 1 18
REMARK H PARENT
REMARK Flexibility Score: inf
ROOT
ATOM      1  C   UNL     1     -22.100   8.065  18.392  1.00  0.00     0.000 C 
ENDROOT
BRANCH   1   2
ATOM      2  C   UNL     1     -22.160   7.925  19.926  1.00  0.00     0.000 C 
BRANCH   2   3
ATOM      3  C   UNL     1     -23.559   8.102  20.546  1.00  0.00     0.000 C 
BRANCH   3   4
ATOM      4  C   UNL     1     -24.155   6.784  21.068  1.00  0.00     0.000 C 
BRANCH   4   5
ATOM      5  C   UNL     1     -23.113   5.656  21.175  1.00  0.00     0.000 C 
BRANCH   5   6
ATOM      6  C   UNL     1     -23.606   4.367  21.866  1.00  0.00     0.006 C 
BRANCH   6   7
ATOM      7  C   UNL     1     -23.832   4.498  23.380  1.00  0.00     0.053 C 
BRANCH   7   8
ATOM      8  C   UNL     1     -25.244   4.175  23.767  1.00  0.00     0.041 C 
ATOM      9  O   UNL     1     -26.067   5.101  23.988  1.00  0.00    -0.550 OA
ATOM     10  O   UNL     1     -25.658   2.852  23.847  1.00  0.00    -0.550 OA
ENDBRANCH   7   8
ENDBRANCH   6   7
ENDBRANCH   5   6
ENDBRANCH   4   5
ENDBRANCH   3   4
ENDBRANCH   2   3
ENDBRANCH   1   2
BRANCH   1  11
ATOM     11  C   UNL     1     -22.554   6.798  17.655  1.00  0.00     0.000 C 
BRANCH  11  12
ATOM     12  C   UNL     1     -21.390   6.163  16.885  1.00  0.00    -0.000 C 
BRANCH  12  13
ATOM     13  C   UNL     1     -20.535   7.233  16.195  1.00  0.00    -0.000 C 
BRANCH  13  14
ATOM     14  C   UNL     1     -19.043   6.871  16.258  1.00  0.00    -0.000 C 
BRANCH  14  15
ATOM     15  C   UNL     1     -18.693   6.005  17.478  1.00  0.00    -0.000 C 
BRANCH  15  16
ATOM     16  C   UNL     1     -18.240   6.842  18.687  1.00  0.00    -0.000 C 
BRANCH  16  17
ATOM     17  C   UNL     1     -18.913   6.398  19.995  1.00  0.00    -0.003 C 
ATOM     18  C   UNL     1     -19.601   5.039  19.876  1.00  0.00     0.004 C 
ENDBRANCH  16  17
ENDBRANCH  15  16
ENDBRANCH  14  15
ENDBRANCH  13  14
ENDBRANCH  12  13
ENDBRANCH  11  12
ENDBRANCH   1  11
TORSDOF 14
ENDMDL
MODEL 7
REMARK VINA RESULT:    -3.436      2.296      5.089
REMARK INTER + INTRA:          -8.598
REMARK INTER:                  -6.489
REMARK INTRA:                  -2.109
REMARK UNBOUND:                -2.350
REMARK SMILES CCCCCCCCCCCCCCCC(=O)[O-]
REMARK SMILES IDX 9 1 10 2 11 3 12 4 13 5 14 6 15 7 16 8 17 9 18 10 8 11 7 12
REMARK SMILES IDX 6 13 5 14 4 15 3 16 2 17 1 18
REMARK H PARENT
REMARK Flexibility Score: inf
ROOT
ATOM      1  C   UNL     1     -21.190   3.953  20.060  1.00  0.00     0.000 C 
ENDROOT
BRANCH   1   2
ATOM      2  C   UNL     1     -21.184   2.452  20.407  1.00  0.00     0.000 C 
BRANCH   2   3
ATOM      3  C   UNL     1     -21.326   2.125  21.906  1.00  0.00     0.000 C 
BRANCH   3   4
ATOM      4  C   UNL     1     -22.266   0.938  22.175  1.00  0.00     0.000 C 
BRANCH   4   5
ATOM      5  C   UNL     1     -23.576   1.017  21.369  1.00  0.00     0.000 C 
BRANCH   5   6
ATOM      6  C   UNL     1     -24.605   2.046  21.881  1.00  0.00     0.006 C 
BRANCH   6   7
ATOM      7  C   UNL     1     -24.641   2.211  23.408  1.00  0.00     0.053 C 
BRANCH   7   8
ATOM      8  C   UNL     1     -24.447   3.638  23.823  1.00  0.00     0.041 C 
ATOM      9  O   UNL     1     -25.413   4.444  23.789  1.00  0.00    -0.550 OA
ATOM     10  O   UNL     1     -23.209   4.067  24.283  1.00  0.00    -0.550 OA
ENDBRANCH   7   8
ENDBRANCH   6   7
ENDBRANCH   5   6
ENDBRANCH   4   5
ENDBRANCH   3   4
ENDBRANCH   2   3
ENDBRANCH   1   2
BRANCH   1  11
ATOM     11  C   UNL     1     -22.578   4.596  20.192  1.00  0.00     0.000 C 
BRANCH  11  12
ATOM     12  C   UNL     1     -22.571   5.706  21.249  1.00  0.00    -0.000 C 
BRANCH  12  13
ATOM     13  C   UNL     1     -23.922   6.432  21.296  1.00  0.00    -0.000 C 
BRANCH  13  14
ATOM     14  C   UNL     1     -23.902   7.690  20.415  1.00  0.00    -0.000 C 
BRANCH  14  15
ATOM     15  C   UNL     1     -22.503   8.316  20.304  1.00  0.00    -0.000 C 
BRANCH  15  16
ATOM     16  C   UNL     1     -22.131   8.679  18.856  1.00  0.00    -0.000 C 
BRANCH  16  17
ATOM     17  C   UNL     1     -22.411   7.531  17.873  1.00  0.00    -0.003 C 
ATOM     18  C   UNL     1     -21.154   6.740  17.511  1.00  0.00     0.004 C 
ENDBRANCH  16  17
ENDBRANCH  15  16
ENDBRANCH  14  15
ENDBRANCH  13  14
ENDBRANCH  12  13
ENDBRANCH  11  12
ENDBRANCH   1  11
TORSDOF 14
ENDMDL
MODEL 8
REMARK VINA RESULT:    -3.432      1.167      4.337
REMARK INTER + INTRA:          -8.592
REMARK INTER:                  -6.425
REMARK INTRA:                  -2.167
REMARK UNBOUND:                -2.350
REMARK SMILES CCCCCCCCCCCCCCCC(=O)[O-]
REMARK SMILES IDX 9 1 10 2 11 3 12 4 13 5 14 6 15 7 16 8 17 9 18 10 8 11 7 12
REMARK SMILES IDX 6 13 5 14 4 15 3 16 2 17 1 18
REMARK H PARENT
REMARK Flexibility Score: inf
ROOT
ATOM      1  C   UNL     1     -20.486   7.222  16.250  1.00  0.00     0.000 C 
ENDROOT
BRANCH   1   2
ATOM      2  C   UNL     1     -18.991   6.853  16.202  1.00  0.00     0.000 C 
BRANCH   2   3
ATOM      3  C   UNL     1     -18.473   6.056  17.413  1.00  0.00     0.000 C 
BRANCH   3   4
ATOM      4  C   UNL     1     -18.495   6.867  18.720  1.00  0.00     0.000 C 
BRANCH   4   5
ATOM      5  C   UNL     1     -18.699   5.988  19.968  1.00  0.00     0.000 C 
BRANCH   5   6
ATOM      6  C   UNL     1     -19.695   4.822  19.797  1.00  0.00     0.006 C 
BRANCH   6   7
ATOM      7  C   UNL     1     -19.487   3.654  20.773  1.00  0.00     0.053 C 
BRANCH   7   8
ATOM      8  C   UNL     1     -19.260   2.357  20.057  1.00  0.00     0.041 C 
ATOM      9  O   UNL     1     -20.034   1.384  20.250  1.00  0.00    -0.550 OA
ATOM     10  O   UNL     1     -18.215   2.236  19.151  1.00  0.00    -0.550 OA
ENDBRANCH   7   8
ENDBRANCH   6   7
ENDBRANCH   5   6
ENDBRANCH   4   5
ENDBRANCH   3   4
ENDBRANCH   2   3
ENDBRANCH   1   2
BRANCH   1  11
ATOM     11  C   UNL     1     -21.358   6.119  16.866  1.00  0.00     0.000 C 
BRANCH  11  12
ATOM     12  C   UNL     1     -22.547   6.720  17.627  1.00  0.00    -0.000 C 
BRANCH  12  13
ATOM     13  C   UNL     1     -22.147   8.016  18.343  1.00  0.00    -0.000 C 
BRANCH  13  14
ATOM     14  C   UNL     1     -22.154   7.829  19.867  1.00  0.00    -0.000 C 
BRANCH  14  15
ATOM     15  C   UNL     1     -23.546   8.036  20.485  1.00  0.00    -0.000 C 
BRANCH  15  16
ATOM     16  C   UNL     1     -24.093   6.761  21.150  1.00  0.00    -0.000 C 
BRANCH  16  17
ATOM     17  C   UNL     1     -22.981   5.763  21.510  1.00  0.00    -0.003 C 
ATOM     18  C   UNL     1     -23.177   4.395  20.856  1.00  0.00     0.004 C 
ENDBRANCH  16  17
ENDBRANCH  15  16
ENDBRANCH  14  15
ENDBRANCH  13  14
ENDBRANCH  12  13
ENDBRANCH  11  12
ENDBRANCH   1  11
TORSDOF 14
ENDMDL
MODEL 9
REMARK VINA RESULT:    -3.416      2.275      4.801
REMARK INTER + INTRA:          -8.563
REMARK INTER:                  -5.951
REMARK INTRA:                  -2.612
REMARK UNBOUND:                -2.350
REMARK SMILES CCCCCCCCCCCCCCCC(=O)[O-]
REMARK SMILES IDX 9 1 10 2 11 3 12 4 13 5 14 6 15 7 16 8 17 9 18 10 8 11 7 12
REMARK SMILES IDX 6 13 5 14 4 15 3 16 2 17 1 18
REMARK H PARENT
REMARK Flexibility Score: inf
ROOT
ATOM      1  C   UNL     1     -22.067   8.340  18.476  1.00  0.00     0.000 C 
ENDROOT
BRANCH   1   2
ATOM      2  C   UNL     1     -22.459   7.179  17.542  1.00  0.00     0.000 C 
BRANCH   2   3
ATOM      3  C   UNL     1     -21.306   6.239  17.144  1.00  0.00     0.000 C 
BRANCH   3   4
ATOM      4  C   UNL     1     -20.501   6.752  15.939  1.00  0.00     0.000 C 
BRANCH   4   5
ATOM      5  C   UNL     1     -18.990   6.839  16.220  1.00  0.00     0.000 C 
BRANCH   5   6
ATOM      6  C   UNL     1     -18.591   6.774  17.709  1.00  0.00     0.006 C 
BRANCH   6   7
ATOM      7  C   UNL     1     -17.893   5.472  18.129  1.00  0.00     0.053 C 
BRANCH   7   8
ATOM      8  C   UNL     1     -16.865   5.704  19.195  1.00  0.00     0.041 C 
ATOM      9  O   UNL     1     -16.463   6.871  19.443  1.00  0.00    -0.550 OA
ATOM     10  O   UNL     1     -16.380   4.636  19.938  1.00  0.00    -0.550 OA
ENDBRANCH   7   8
ENDBRANCH   6   7
ENDBRANCH   5   6
ENDBRANCH   4   5
ENDBRANCH   3   4
ENDBRANCH   2   3
ENDBRANCH   1   2
BRANCH   1  11
ATOM     11  C   UNL     1     -22.907   8.391  19.759  1.00  0.00     0.000 C 
BRANCH  11  12
ATOM     12  C   UNL     1     -22.013   8.336  21.004  1.00  0.00    -0.000 C 
BRANCH  12  13
ATOM     13  C   UNL     1     -20.529   8.387  20.621  1.00  0.00    -0.000 C 
BRANCH  13  14
ATOM     14  C   UNL     1     -19.785   7.144  21.131  1.00  0.00    -0.000 C 
BRANCH  14  15
ATOM     15  C   UNL     1     -20.733   5.985  21.478  1.00  0.00    -0.000 C 
BRANCH  15  16
ATOM     16  C   UNL     1     -20.561   4.779  20.539  1.00  0.00    -0.000 C 
BRANCH  16  17
ATOM     17  C   UNL     1     -21.905   4.208  20.063  1.00  0.00    -0.003 C 
ATOM     18  C   UNL     1     -23.099   4.790  20.820  1.00  0.00     0.004 C 
ENDBRANCH  16  17
ENDBRANCH  15  16
ENDBRANCH  14  15
ENDBRANCH  13  14
ENDBRANCH  12  13
ENDBRANCH  11  12
ENDBRANCH   1  11
TORSDOF 14
ENDMDL
