MODEL 1
REMARK VINA RESULT:    -6.381      0.000      0.000
REMARK INTER + INTRA:          -7.632
REMARK INTER:                  -7.500
REMARK INTRA:                  -0.133
REMARK UNBOUND:                -0.133
REMARK SMILES O=C([O-])C=Cc1ccc(O)c(O)c1
REMARK SMILES IDX 6 1 13 2 7 3 11 4 8 5 9 6 5 7 4 8 2 9 1 10 3 11 12 12 10 14
REMARK H PARENT 12 13 10 15
REMARK Flexibility Score: inf
ROOT
ATOM      1  C   UNL     1     129.879 133.265 111.040  1.00  0.00    -0.022 A 
ATOM      2  C   UNL     1     130.780 132.674 110.140  1.00  0.00     0.058 A 
ATOM      3  C   UNL     1     130.173 133.231 112.415  1.00  0.00     0.012 A 
ATOM      4  C   UNL     1     131.968 132.082 110.587  1.00  0.00     0.157 A 
ATOM      5  C   UNL     1     131.356 132.643 112.869  1.00  0.00     0.051 A 
ATOM      6  C   UNL     1     132.261 132.070 111.971  1.00  0.00     0.157 A 
ENDROOT
BRANCH   1   7
ATOM      7  C   UNL     1     128.632 133.866 110.505  1.00  0.00     0.010 C 
ATOM      8  C   UNL     1     128.207 133.703 109.243  1.00  0.00     0.025 C 
BRANCH   8   9
ATOM      9  C   UNL     1     126.958 134.306 108.751  1.00  0.00     0.064 C 
ATOM     10  O   UNL     1     125.837 133.942 109.197  1.00  0.00    -0.545 OA
ATOM     11  O   UNL     1     127.015 135.295 107.778  1.00  0.00    -0.545 OA
ENDBRANCH   8   9
ENDBRANCH   1   7
BRANCH   4  12
ATOM     12  O   UNL     1     132.819 131.524 109.631  1.00  0.00    -0.504 OA
ATOM     13  H   UNL     1     133.631 131.992 109.256  1.00  0.00     0.293 HD
ENDBRANCH   4  12
BRANCH   6  14
ATOM     14  O   UNL     1     133.427 131.502 112.491  1.00  0.00    -0.504 OA
ATOM     15  H   UNL     1     133.793 130.605 112.207  1.00  0.00     0.293 HD
ENDBRANCH   6  14
TORSDOF 4
ENDMDL
MODEL 2
REMARK VINA RESULT:    -6.376      4.785      5.804
REMARK INTER + INTRA:          -7.627
REMARK INTER:                  -7.497
REMARK INTRA:                  -0.130
REMARK UNBOUND:                -0.133
REMARK SMILES O=C([O-])C=Cc1ccc(O)c(O)c1
REMARK SMILES IDX 6 1 13 2 7 3 11 4 8 5 9 6 5 7 4 8 2 9 1 10 3 11 12 12 10 14
REMARK H PARENT 12 13 10 15
REMARK Flexibility Score: inf
ROOT
ATOM      1  C   UNL     1     126.446 134.601 109.154  1.00  0.00    -0.022 A 
ATOM      2  C   UNL     1     126.673 135.959 108.881  1.00  0.00     0.058 A 
ATOM      3  C   UNL     1     127.224 133.637 108.486  1.00  0.00     0.012 A 
ATOM      4  C   UNL     1     127.670 136.363 107.983  1.00  0.00     0.157 A 
ATOM      5  C   UNL     1     128.219 134.030 107.590  1.00  0.00     0.051 A 
ATOM      6  C   UNL     1     128.456 135.384 107.332  1.00  0.00     0.157 A 
ENDROOT
BRANCH   1   7
ATOM      7  C   UNL     1     125.369 134.238 110.106  1.00  0.00     0.010 C 
ATOM      8  C   UNL     1     125.027 134.985 111.167  1.00  0.00     0.025 C 
BRANCH   8   9
ATOM      9  C   UNL     1     123.943 134.598 112.085  1.00  0.00     0.064 C 
ATOM     10  O   UNL     1     124.132 133.748 112.995  1.00  0.00    -0.545 OA
ATOM     11  O   UNL     1     122.691 135.182 111.946  1.00  0.00    -0.545 OA
ENDBRANCH   8   9
ENDBRANCH   1   7
BRANCH   4  12
ATOM     12  O   UNL     1     127.842 137.732 107.771  1.00  0.00    -0.504 OA
ATOM     13  H   UNL     1     127.683 138.190 106.886  1.00  0.00     0.293 HD
ENDBRANCH   4  12
BRANCH   6  14
ATOM     14  O   UNL     1     129.470 135.709 106.427  1.00  0.00    -0.504 OA
ATOM     15  H   UNL     1     129.401 136.449 105.744  1.00  0.00     0.293 HD
ENDBRANCH   6  14
TORSDOF 4
ENDMDL
MODEL 3
REMARK VINA RESULT:    -6.349      5.781      7.594
REMARK INTER + INTRA:          -7.596
REMARK INTER:                  -7.465
REMARK INTRA:                  -0.130
REMARK UNBOUND:                -0.133
REMARK SMILES O=C([O-])C=Cc1ccc(O)c(O)c1
REMARK SMILES IDX 6 1 13 2 7 3 11 4 8 5 9 6 5 7 4 8 2 9 1 10 3 11 12 12 10 14
REMARK H PARENT 12 13 10 15
REMARK Flexibility Score: inf
ROOT
ATOM      1  C   UNL     1     136.506 134.635 113.907  1.00  0.00    -0.022 A 
ATOM      2  C   UNL     1     137.616 134.458 113.067  1.00  0.00     0.058 A 
ATOM      3  C   UNL     1     136.720 134.805 115.287  1.00  0.00     0.012 A 
ATOM      4  C   UNL     1     138.921 134.477 113.576  1.00  0.00     0.157 A 
ATOM      5  C   UNL     1     138.018 134.824 115.802  1.00  0.00     0.051 A 
ATOM      6  C   UNL     1     139.124 134.666 114.962  1.00  0.00     0.157 A 
ENDROOT
BRANCH   1   7
ATOM      7  C   UNL     1     135.149 134.595 113.309  1.00  0.00     0.010 C 
ATOM      8  C   UNL     1     134.762 133.692 112.396  1.00  0.00     0.025 C 
BRANCH   8   9
ATOM      9  C   UNL     1     133.402 133.676 111.832  1.00  0.00     0.064 C 
ATOM     10  O   UNL     1     133.146 133.062 110.762  1.00  0.00    -0.545 OA
ATOM     11  O   UNL     1     132.382 134.348 112.493  1.00  0.00    -0.545 OA
ENDBRANCH   8   9
ENDBRANCH   1   7
BRANCH   4  12
ATOM     12  O   UNL     1     139.975 134.304 112.676  1.00  0.00    -0.504 OA
ATOM     13  H   UNL     1     140.402 133.413 112.471  1.00  0.00     0.293 HD
ENDBRANCH   4  12
BRANCH   6  14
ATOM     14  O   UNL     1     140.395 134.698 115.543  1.00  0.00    -0.504 OA
ATOM     15  H   UNL     1     141.055 135.451 115.413  1.00  0.00     0.293 HD
ENDBRANCH   6  14
TORSDOF 4
ENDMDL
MODEL 4
REMARK VINA RESULT:    -6.263      1.689      6.043
REMARK INTER + INTRA:          -7.495
REMARK INTER:                  -7.367
REMARK INTRA:                  -0.128
REMARK UNBOUND:                -0.133
REMARK SMILES O=C([O-])C=Cc1ccc(O)c(O)c1
REMARK SMILES IDX 6 1 13 2 7 3 11 4 8 5 9 6 5 7 4 8 2 9 1 10 3 11 12 12 10 14
REMARK H PARENT 12 13 10 15
REMARK Flexibility Score: inf
ROOT
ATOM      1  C   UNL     1     128.471 134.124 109.257  1.00  0.00    -0.022 A 
ATOM      2  C   UNL     1     128.831 134.692 108.024  1.00  0.00     0.058 A 
ATOM      3  C   UNL     1     127.296 134.567 109.890  1.00  0.00     0.012 A 
ATOM      4  C   UNL     1     128.029 135.664 107.412  1.00  0.00     0.157 A 
ATOM      5  C   UNL     1     126.491 135.535 109.286  1.00  0.00     0.051 A 
ATOM      6  C   UNL     1     126.841 136.088 108.051  1.00  0.00     0.157 A 
ENDROOT
BRANCH   1   7
ATOM      7  C   UNL     1     129.368 133.107 109.859  1.00  0.00     0.010 C 
ATOM      8  C   UNL     1     130.176 133.348 110.902  1.00  0.00     0.025 C 
BRANCH   8   9
ATOM      9  C   UNL     1     131.044 132.310 111.481  1.00  0.00     0.064 C 
ATOM     10  O   UNL     1     131.869 131.678 110.769  1.00  0.00    -0.545 OA
ATOM     11  O   UNL     1     130.953 132.023 112.836  1.00  0.00    -0.545 OA
ENDBRANCH   8   9
ENDBRANCH   1   7
BRANCH   4  12
ATOM     12  O   UNL     1     128.448 136.175 106.182  1.00  0.00    -0.504 OA
ATOM     13  H   UNL     1     129.383 136.073 105.817  1.00  0.00     0.293 HD
ENDBRANCH   4  12
BRANCH   6  14
ATOM     14  O   UNL     1     125.989 137.050 107.501  1.00  0.00    -0.504 OA
ATOM     15  H   UNL     1     125.132 137.359 107.935  1.00  0.00     0.293 HD
ENDBRANCH   6  14
TORSDOF 4
ENDMDL
MODEL 5
REMARK VINA RESULT:    -6.153      2.074      5.775
REMARK INTER + INTRA:          -7.366
REMARK INTER:                  -7.235
REMARK INTRA:                  -0.131
REMARK UNBOUND:                -0.133
REMARK SMILES O=C([O-])C=Cc1ccc(O)c(O)c1
REMARK SMILES IDX 6 1 13 2 7 3 11 4 8 5 9 6 5 7 4 8 2 9 1 10 3 11 12 12 10 14
REMARK H PARENT 12 13 10 15
REMARK Flexibility Score: inf
ROOT
ATOM      1  C   UNL     1     129.680 133.116 109.364  1.00  0.00    -0.022 A 
ATOM      2  C   UNL     1     129.777 134.515 109.312  1.00  0.00     0.058 A 
ATOM      3  C   UNL     1     129.114 132.435 108.270  1.00  0.00     0.012 A 
ATOM      4  C   UNL     1     129.347 135.232 108.188  1.00  0.00     0.157 A 
ATOM      5  C   UNL     1     128.684 133.142 107.145  1.00  0.00     0.051 A 
ATOM      6  C   UNL     1     128.797 134.534 107.088  1.00  0.00     0.157 A 
ENDROOT
BRANCH   1   7
ATOM      7  C   UNL     1     130.142 132.416 110.587  1.00  0.00     0.010 C 
ATOM      8  C   UNL     1     131.130 132.865 111.375  1.00  0.00     0.025 C 
BRANCH   8   9
ATOM      9  C   UNL     1     131.555 132.149 112.590  1.00  0.00     0.064 C 
ATOM     10  O   UNL     1     131.750 132.761 113.673  1.00  0.00    -0.545 OA
ATOM     11  O   UNL     1     131.742 130.774 112.540  1.00  0.00    -0.545 OA
ENDBRANCH   8   9
ENDBRANCH   1   7
BRANCH   4  12
ATOM     12  O   UNL     1     129.485 136.621 108.207  1.00  0.00    -0.504 OA
ATOM     13  H   UNL     1     129.143 137.232 107.480  1.00  0.00     0.293 HD
ENDBRANCH   4  12
BRANCH   6  14
ATOM     14  O   UNL     1     128.350 135.179 105.931  1.00  0.00    -0.504 OA
ATOM     15  H   UNL     1     128.479 134.816 104.998  1.00  0.00     0.293 HD
ENDBRANCH   6  14
TORSDOF 4
ENDMDL
MODEL 6
REMARK VINA RESULT:    -6.052      9.024     11.146
REMARK INTER + INTRA:          -7.246
REMARK INTER:                  -7.119
REMARK INTRA:                  -0.127
REMARK UNBOUND:                -0.133
REMARK SMILES O=C([O-])C=Cc1ccc(O)c(O)c1
REMARK SMILES IDX 6 1 13 2 7 3 11 4 8 5 9 6 5 7 4 8 2 9 1 10 3 11 12 12 10 14
REMARK H PARENT 12 13 10 15
REMARK Flexibility Score: inf
ROOT
ATOM      1  C   UNL     1     130.547 134.876 120.666  1.00  0.00    -0.022 A 
ATOM      2  C   UNL     1     130.334 136.211 121.046  1.00  0.00     0.058 A 
ATOM      3  C   UNL     1     130.557 133.881 121.661  1.00  0.00     0.012 A 
ATOM      4  C   UNL     1     130.108 136.557 122.385  1.00  0.00     0.157 A 
ATOM      5  C   UNL     1     130.332 134.218 122.997  1.00  0.00     0.051 A 
ATOM      6  C   UNL     1     130.103 135.545 123.373  1.00  0.00     0.157 A 
ENDROOT
BRANCH   1   7
ATOM      7  C   UNL     1     130.791 134.575 119.234  1.00  0.00     0.010 C 
ATOM      8  C   UNL     1     131.930 134.875 118.593  1.00  0.00     0.025 C 
BRANCH   8   9
ATOM      9  C   UNL     1     132.141 134.551 117.172  1.00  0.00     0.064 C 
ATOM     10  O   UNL     1     131.300 134.882 116.295  1.00  0.00    -0.545 OA
ATOM     11  O   UNL     1     133.289 133.868 116.792  1.00  0.00    -0.545 OA
ENDBRANCH   8   9
ENDBRANCH   1   7
BRANCH   4  12
ATOM     12  O   UNL     1     129.895 137.904 122.684  1.00  0.00    -0.504 OA
ATOM     13  H   UNL     1     129.202 138.480 122.229  1.00  0.00     0.293 HD
ENDBRANCH   4  12
BRANCH   6  14
ATOM     14  O   UNL     1     129.882 135.812 124.726  1.00  0.00    -0.504 OA
ATOM     15  H   UNL     1     129.062 135.513 125.233  1.00  0.00     0.293 HD
ENDBRANCH   6  14
TORSDOF 4
ENDMDL
MODEL 7
REMARK VINA RESULT:    -6.013      1.627      6.226
REMARK INTER + INTRA:          -7.200
REMARK INTER:                  -7.070
REMARK INTRA:                  -0.131
REMARK UNBOUND:                -0.133
REMARK SMILES O=C([O-])C=Cc1ccc(O)c(O)c1
REMARK SMILES IDX 6 1 13 2 7 3 11 4 8 5 9 6 5 7 4 8 2 9 1 10 3 11 12 12 10 14
REMARK H PARENT 12 13 10 15
REMARK Flexibility Score: inf
ROOT
ATOM      1  C   UNL     1     128.927 134.369 109.153  1.00  0.00    -0.022 A 
ATOM      2  C   UNL     1     127.587 134.245 109.554  1.00  0.00     0.058 A 
ATOM      3  C   UNL     1     129.259 135.337 108.188  1.00  0.00     0.012 A 
ATOM      4  C   UNL     1     126.593 135.082 109.031  1.00  0.00     0.157 A 
ATOM      5  C   UNL     1     128.274 136.175 107.662  1.00  0.00     0.051 A 
ATOM      6  C   UNL     1     126.943 136.063 108.074  1.00  0.00     0.157 A 
ENDROOT
BRANCH   1   7
ATOM      7  C   UNL     1     129.932 133.446 109.736  1.00  0.00     0.010 C 
ATOM      8  C   UNL     1     129.986 133.129 111.038  1.00  0.00     0.025 C 
BRANCH   8   9
ATOM      9  C   UNL     1     130.991 132.199 111.580  1.00  0.00     0.064 C 
ATOM     10  O   UNL     1     131.824 131.628 110.826  1.00  0.00    -0.545 OA
ATOM     11  O   UNL     1     131.023 131.948 112.945  1.00  0.00    -0.545 OA
ENDBRANCH   8   9
ENDBRANCH   1   7
BRANCH   4  12
ATOM     12  O   UNL     1     125.285 134.904 109.486  1.00  0.00    -0.504 OA
ATOM     13  H   UNL     1     124.480 135.360 109.081  1.00  0.00     0.293 HD
ENDBRANCH   4  12
BRANCH   6  14
ATOM     14  O   UNL     1     126.008 136.935 107.510  1.00  0.00    -0.504 OA
ATOM     15  H   UNL     1     125.570 137.694 108.012  1.00  0.00     0.293 HD
ENDBRANCH   6  14
TORSDOF 4
ENDMDL
MODEL 8
REMARK VINA RESULT:    -5.843      2.867      5.299
REMARK INTER + INTRA:          -7.001
REMARK INTER:                  -6.873
REMARK INTRA:                  -0.128
REMARK UNBOUND:                -0.133
REMARK SMILES O=C([O-])C=Cc1ccc(O)c(O)c1
REMARK SMILES IDX 6 1 13 2 7 3 11 4 8 5 9 6 5 7 4 8 2 9 1 10 3 11 12 12 10 14
REMARK H PARENT 12 13 10 15
REMARK Flexibility Score: inf
ROOT
ATOM      1  C   UNL     1     129.841 133.639 110.515  1.00  0.00    -0.022 A 
ATOM      2  C   UNL     1     129.795 134.950 110.017  1.00  0.00     0.058 A 
ATOM      3  C   UNL     1     129.624 132.569 109.627  1.00  0.00     0.012 A 
ATOM      4  C   UNL     1     129.565 135.203 108.658  1.00  0.00     0.157 A 
ATOM      5  C   UNL     1     129.395 132.812 108.272  1.00  0.00     0.051 A 
ATOM      6  C   UNL     1     129.366 134.118 107.773  1.00  0.00     0.157 A 
ENDROOT
BRANCH   1   7
ATOM      7  C   UNL     1     130.077 133.437 111.966  1.00  0.00     0.010 C 
ATOM      8  C   UNL     1     129.294 133.948 112.927  1.00  0.00     0.025 C 
BRANCH   8   9
ATOM      9  C   UNL     1     129.554 133.717 114.358  1.00  0.00     0.064 C 
ATOM     10  O   UNL     1     130.692 133.926 114.857  1.00  0.00    -0.545 OA
ATOM     11  O   UNL     1     128.526 133.261 115.173  1.00  0.00    -0.545 OA
ENDBRANCH   8   9
ENDBRANCH   1   7
BRANCH   4  12
ATOM     12  O   UNL     1     129.544 136.534 108.237  1.00  0.00    -0.504 OA
ATOM     13  H   UNL     1     128.757 136.967 107.776  1.00  0.00     0.293 HD
ENDBRANCH   4  12
BRANCH   6  14
ATOM     14  O   UNL     1     129.135 134.291 106.406  1.00  0.00    -0.504 OA
ATOM     15  H   UNL     1     128.407 134.878 106.027  1.00  0.00     0.293 HD
ENDBRANCH   6  14
TORSDOF 4
ENDMDL
MODEL 9
REMARK VINA RESULT:    -5.801      4.184      5.665
REMARK INTER + INTRA:          -6.952
REMARK INTER:                  -6.824
REMARK INTRA:                  -0.128
REMARK UNBOUND:                -0.133
REMARK SMILES O=C([O-])C=Cc1ccc(O)c(O)c1
REMARK SMILES IDX 6 1 13 2 7 3 11 4 8 5 9 6 5 7 4 8 2 9 1 10 3 11 12 12 10 14
REMARK H PARENT 12 13 10 15
REMARK Flexibility Score: inf
ROOT
ATOM      1  C   UNL     1     126.370 134.496 110.002  1.00  0.00    -0.022 A 
ATOM      2  C   UNL     1     127.134 135.173 110.964  1.00  0.00     0.058 A 
ATOM      3  C   UNL     1     125.050 134.127 110.321  1.00  0.00     0.012 A 
ATOM      4  C   UNL     1     126.598 135.507 112.214  1.00  0.00     0.157 A 
ATOM      5  C   UNL     1     124.508 134.455 111.565  1.00  0.00     0.051 A 
ATOM      6  C   UNL     1     125.264 135.145 112.517  1.00  0.00     0.157 A 
ENDROOT
BRANCH   1   7
ATOM      7  C   UNL     1     126.999 134.163 108.700  1.00  0.00     0.010 C 
ATOM      8  C   UNL     1     127.826 133.123 108.516  1.00  0.00     0.025 C 
BRANCH   8   9
ATOM      9  C   UNL     1     128.423 132.815 107.205  1.00  0.00     0.064 C 
ATOM     10  O   UNL     1     128.695 131.631 106.875  1.00  0.00    -0.545 OA
ATOM     11  O   UNL     1     128.688 133.849 106.317  1.00  0.00    -0.545 OA
ENDBRANCH   8   9
ENDBRANCH   1   7
BRANCH   4  12
ATOM     12  O   UNL     1     127.417 136.190 113.116  1.00  0.00    -0.504 OA
ATOM     13  H   UNL     1     128.119 136.861 112.843  1.00  0.00     0.293 HD
ENDBRANCH   4  12
BRANCH   6  14
ATOM     14  O   UNL     1     124.659 135.445 113.740  1.00  0.00    -0.504 OA
ATOM     15  H   UNL     1     123.692 135.250 113.954  1.00  0.00     0.293 HD
ENDBRANCH   6  14
TORSDOF 4
ENDMDL
