MODEL 1
REMARK VINA RESULT:    45.522      0.000      0.000
REMARK INTER + INTRA:          49.976
REMARK INTER:                  49.514
REMARK INTRA:                   0.462
REMARK UNBOUND:                 0.462
REMARK SMILES CC1(C)CC[C@@]2(C(=O)[O-])CC[C@]3(C)C(=CC[C@@H]4[C@@]5(C)CC[C@@H](O)C(C)(C)[C@H]5CC[C@@]43C)[C@H]2C1
REMARK SMILES IDX 6 1 5 2 10 3 32 4 4 5 11 6 14 7 33 8 2 9 12 10 15 11 1 12
REMARK SMILES IDX 3 13 13 14 30 15 16 16 17 17 29 18 31 19 18 20 28 21 27 22
REMARK SMILES IDX 20 23 19 24 24 25 21 26 22 27 25 28 26 29 7 30 8 31 9 32
REMARK SMILES IDX 23 33
REMARK H PARENT 23 34
REMARK Flexibility Score: inf
ROOT
ATOM      1  C   UNL     1      46.054 -56.056 314.390  1.00  0.00     0.017 C 
ATOM      2  C   UNL     1      45.803 -56.791 313.031  1.00  0.00     0.014 C 
ATOM      3  C   UNL     1      45.907 -57.097 315.522  1.00  0.00     0.014 C 
ATOM      4  C   UNL     1      47.505 -55.457 314.465  1.00  0.00     0.028 C 
ATOM      5  C   UNL     1      46.620 -56.184 311.887  1.00  0.00     0.007 C 
ATOM      6  C   UNL     1      45.998 -56.478 316.914  1.00  0.00     0.013 C 
ATOM      7  C   UNL     1      48.027 -55.229 315.893  1.00  0.00    -0.064 C 
ATOM      8  C   UNL     1      48.491 -56.343 313.651  1.00  0.00     0.015 C 
ATOM      9  C   UNL     1      48.150 -56.356 312.126  1.00  0.00    -0.035 C 
ATOM     10  C   UNL     1      47.217 -55.501 317.168  1.00  0.00    -0.006 C 
ATOM     11  C   UNL     1      49.212 -54.609 316.014  1.00  0.00    -0.027 C 
ATOM     12  C   UNL     1      48.626 -57.695 311.517  1.00  0.00     0.011 C 
ATOM     13  C   UNL     1      48.900 -55.210 311.410  1.00  0.00     0.011 C 
ATOM     14  C   UNL     1      46.620 -54.113 317.569  1.00  0.00     0.017 C 
ATOM     15  C   UNL     1      48.176 -56.058 318.336  1.00  0.00    -0.020 C 
ATOM     16  C   UNL     1      50.042 -54.623 317.260  1.00  0.00     0.032 C 
ATOM     17  C   UNL     1      49.376 -55.064 318.614  1.00  0.00     0.006 C 
ATOM     18  C   UNL     1      48.823 -57.397 317.883  1.00  0.00     0.008 C 
ATOM     19  C   UNL     1      47.298 -56.279 319.620  1.00  0.00     0.012 C 
ATOM     20  C   UNL     1      50.510 -55.557 319.663  1.00  0.00    -0.025 C 
ATOM     21  C   UNL     1      49.811 -57.984 318.893  1.00  0.00     0.005 C 
ATOM     22  C   UNL     1      50.973 -57.049 319.364  1.00  0.00     0.003 C 
ATOM     23  C   UNL     1      50.079 -55.395 321.172  1.00  0.00     0.010 C 
ATOM     24  C   UNL     1      51.726 -54.566 319.497  1.00  0.00     0.012 C 
ATOM     25  C   UNL     1      51.761 -57.738 320.568  1.00  0.00    -0.006 C 
ATOM     26  C   UNL     1      49.773 -56.694 321.932  1.00  0.00     0.033 C 
ATOM     27  C   UNL     1      50.906 -57.745 321.897  1.00  0.00     0.120 C 
ATOM     28  C   UNL     1      53.108 -57.012 320.850  1.00  0.00     0.014 C 
ATOM     29  C   UNL     1      52.179 -59.189 320.176  1.00  0.00     0.014 C 
ENDROOT
BRANCH   1  30
ATOM     30  C   UNL     1      44.995 -54.964 314.519  1.00  0.00     0.048 C 
ATOM     31  O   UNL     1      44.155 -55.002 315.458  1.00  0.00    -0.550 OA
ATOM     32  O   UNL     1      44.878 -53.959 313.561  1.00  0.00    -0.550 OA
ENDBRANCH   1  30
BRANCH  27  33
ATOM     33  O   UNL     1      50.332 -59.012 322.125  1.00  0.00    -0.393 OA
ATOM     34  H   UNL     1      49.965 -59.011 323.047  1.00  0.00     0.210 HD
ENDBRANCH  27  33
TORSDOF 2
ENDMDL
MODEL 2
REMARK VINA RESULT:    46.435      1.763      7.693
REMARK INTER + INTRA:          50.969
REMARK INTER:                  51.181
REMARK INTRA:                  -0.211
REMARK UNBOUND:                 0.462
REMARK SMILES CC1(C)CC[C@@]2(C(=O)[O-])CC[C@]3(C)C(=CC[C@@H]4[C@@]5(C)CC[C@@H](O)C(C)(C)[C@H]5CC[C@@]43C)[C@H]2C1
REMARK SMILES IDX 6 1 5 2 10 3 32 4 4 5 11 6 14 7 33 8 2 9 12 10 15 11 1 12
REMARK SMILES IDX 3 13 13 14 30 15 16 16 17 17 29 18 31 19 18 20 28 21 27 22
REMARK SMILES IDX 20 23 19 24 24 25 21 26 22 27 25 28 26 29 7 30 8 31 9 32
REMARK SMILES IDX 23 33
REMARK H PARENT 23 34
REMARK Flexibility Score: inf
ROOT
ATOM      1  C   UNL     1      51.970 -58.265 319.839  1.00  0.00     0.017 C 
ATOM      2  C   UNL     1      53.022 -59.422 319.767  1.00  0.00     0.014 C 
ATOM      3  C   UNL     1      52.270 -57.284 318.684  1.00  0.00     0.014 C 
ATOM      4  C   UNL     1      50.506 -58.803 319.652  1.00  0.00     0.028 C 
ATOM      5  C   UNL     1      52.451 -60.754 320.259  1.00  0.00     0.007 C 
ATOM      6  C   UNL     1      51.392 -56.036 318.722  1.00  0.00     0.013 C 
ATOM      7  C   UNL     1      49.499 -57.753 319.156  1.00  0.00    -0.064 C 
ATOM      8  C   UNL     1      50.508 -60.049 318.720  1.00  0.00     0.015 C 
ATOM      9  C   UNL     1      51.292 -61.249 319.343  1.00  0.00    -0.035 C 
ATOM     10  C   UNL     1      49.838 -56.277 318.899  1.00  0.00    -0.006 C 
ATOM     11  C   UNL     1      48.211 -58.127 319.094  1.00  0.00    -0.027 C 
ATOM     12  C   UNL     1      51.865 -62.120 318.202  1.00  0.00     0.011 C 
ATOM     13  C   UNL     1      50.332 -62.125 320.179  1.00  0.00     0.011 C 
ATOM     14  C   UNL     1      49.401 -55.532 320.202  1.00  0.00     0.017 C 
ATOM     15  C   UNL     1      49.014 -55.723 317.632  1.00  0.00    -0.020 C 
ATOM     16  C   UNL     1      47.162 -57.398 318.313  1.00  0.00     0.032 C 
ATOM     17  C   UNL     1      47.457 -55.933 317.825  1.00  0.00     0.006 C 
ATOM     18  C   UNL     1      49.403 -56.533 316.363  1.00  0.00     0.008 C 
ATOM     19  C   UNL     1      49.374 -54.205 317.446  1.00  0.00     0.012 C 
ATOM     20  C   UNL     1      46.503 -55.558 316.568  1.00  0.00    -0.025 C 
ATOM     21  C   UNL     1      48.626 -56.135 315.108  1.00  0.00     0.005 C 
ATOM     22  C   UNL     1      47.066 -56.161 315.208  1.00  0.00     0.003 C 
ATOM     23  C   UNL     1      46.236 -54.009 316.426  1.00  0.00     0.010 C 
ATOM     24  C   UNL     1      45.086 -56.170 316.890  1.00  0.00     0.012 C 
ATOM     25  C   UNL     1      46.432 -55.508 313.897  1.00  0.00    -0.006 C 
ATOM     26  C   UNL     1      46.924 -53.308 315.246  1.00  0.00     0.033 C 
ATOM     27  C   UNL     1      46.643 -53.943 313.865  1.00  0.00     0.120 C 
ATOM     28  C   UNL     1      44.908 -55.805 313.799  1.00  0.00     0.014 C 
ATOM     29  C   UNL     1      47.038 -56.171 312.621  1.00  0.00     0.014 C 
ENDROOT
BRANCH   1  30
ATOM     30  C   UNL     1      52.141 -57.578 321.191  1.00  0.00     0.048 C 
ATOM     31  O   UNL     1      51.325 -57.801 322.125  1.00  0.00    -0.550 OA
ATOM     32  O   UNL     1      53.143 -56.631 321.395  1.00  0.00    -0.550 OA
ENDBRANCH   1  30
BRANCH  27  33
ATOM     33  O   UNL     1      47.699 -53.590 313.000  1.00  0.00    -0.393 OA
ATOM     34  H   UNL     1      47.296 -53.295 312.143  1.00  0.00     0.210 HD
ENDBRANCH  27  33
TORSDOF 2
ENDMDL
