MODEL 1
REMARK VINA RESULT:    -3.272      0.000      0.000
REMARK INTER + INTRA:         -11.223
REMARK INTER:                  -7.479
REMARK INTRA:                  -3.744
REMARK UNBOUND:                -3.744
REMARK SMILES CCCCCCCCCCCCCCCCCCCCCCCC(=O)[O-]
REMARK SMILES IDX 13 1 14 2 15 3 16 4 17 5 18 6 19 7 20 8 21 9 22 10 23 11
REMARK SMILES IDX 24 12 25 13 26 14 12 15 11 16 10 17 9 18 8 19 7 20 6 21 5 22
REMARK SMILES IDX 4 23 3 24 2 25 1 26
REMARK H PARENT
REMARK Flexibility Score: inf
ROOT
ATOM      1  C   UNL     1      13.953  -1.223 203.359  1.00  0.00     0.000 C 
ENDROOT
BRANCH   1   2
ATOM      2  C   UNL     1      12.759  -1.919 204.031  1.00  0.00     0.000 C 
BRANCH   2   3
ATOM      3  C   UNL     1      11.411  -1.497 203.418  1.00  0.00     0.000 C 
BRANCH   3   4
ATOM      4  C   UNL     1      11.128  -2.197 202.079  1.00  0.00     0.000 C 
BRANCH   4   5
ATOM      5  C   UNL     1      10.941  -1.201 200.920  1.00  0.00     0.000 C 
BRANCH   5   6
ATOM      6  C   UNL     1       9.899  -1.678 199.895  1.00  0.00     0.000 C 
BRANCH   6   7
ATOM      7  C   UNL     1       8.564  -0.927 200.020  1.00  0.00     0.000 C 
BRANCH   7   8
ATOM      8  C   UNL     1       8.800   0.579 200.207  1.00  0.00     0.000 C 
BRANCH   8   9
ATOM      9  C   UNL     1       7.776   1.235 201.152  1.00  0.00     0.000 C 
BRANCH   9  10
ATOM     10  C   UNL     1       8.381   2.144 202.242  1.00  0.00     0.006 C 
BRANCH  10  11
ATOM     11  C   UNL     1       9.754   1.689 202.762  1.00  0.00     0.053 C 
BRANCH  11  12
ATOM     12  C   UNL     1      10.799   2.747 202.584  1.00  0.00     0.041 C 
ATOM     13  O   UNL     1      10.929   3.659 203.443  1.00  0.00    -0.550 OA
ATOM     14  O   UNL     1      11.605   2.748 201.453  1.00  0.00    -0.550 OA
ENDBRANCH  11  12
ENDBRANCH  10  11
ENDBRANCH   9  10
ENDBRANCH   8   9
ENDBRANCH   7   8
ENDBRANCH   6   7
ENDBRANCH   5   6
ENDBRANCH   4   5
ENDBRANCH   3   4
ENDBRANCH   2   3
ENDBRANCH   1   2
BRANCH   1  15
ATOM     15  C   UNL     1      13.643   0.231 202.961  1.00  0.00     0.000 C 
BRANCH  15  16
ATOM     16  C   UNL     1      14.896   1.121 202.956  1.00  0.00     0.000 C 
BRANCH  16  17
ATOM     17  C   UNL     1      16.057   0.519 203.765  1.00  0.00     0.000 C 
BRANCH  17  18
ATOM     18  C   UNL     1      17.437   0.836 203.158  1.00  0.00    -0.000 C 
BRANCH  18  19
ATOM     19  C   UNL     1      18.123  -0.348 202.453  1.00  0.00    -0.000 C 
BRANCH  19  20
ATOM     20  C   UNL     1      17.602  -1.742 202.854  1.00  0.00    -0.000 C 
BRANCH  20  21
ATOM     21  C   UNL     1      17.631  -2.775 201.707  1.00  0.00    -0.000 C 
BRANCH  21  22
ATOM     22  C   UNL     1      16.230  -3.096 201.166  1.00  0.00    -0.000 C 
BRANCH  22  23
ATOM     23  C   UNL     1      15.761  -2.019 200.181  1.00  0.00    -0.000 C 
BRANCH  23  24
ATOM     24  C   UNL     1      14.278  -2.208 199.825  1.00  0.00    -0.000 C 
BRANCH  24  25
ATOM     25  C   UNL     1      13.821  -3.670 199.952  1.00  0.00    -0.003 C 
ATOM     26  C   UNL     1      12.658  -4.010 199.021  1.00  0.00     0.004 C 
ENDBRANCH  24  25
ENDBRANCH  23  24
ENDBRANCH  22  23
ENDBRANCH  21  22
ENDBRANCH  20  21
ENDBRANCH  19  20
ENDBRANCH  18  19
ENDBRANCH  17  18
ENDBRANCH  16  17
ENDBRANCH  15  16
ENDBRANCH   1  15
TORSDOF 22
ENDMDL
MODEL 2
REMARK VINA RESULT:    -3.268      2.167      4.563
REMARK INTER + INTRA:         -11.216
REMARK INTER:                  -6.649
REMARK INTRA:                  -4.568
REMARK UNBOUND:                -3.744
REMARK SMILES CCCCCCCCCCCCCCCCCCCCCCCC(=O)[O-]
REMARK SMILES IDX 13 1 14 2 15 3 16 4 17 5 18 6 19 7 20 8 21 9 22 10 23 11
REMARK SMILES IDX 24 12 25 13 26 14 12 15 11 16 10 17 9 18 8 19 7 20 6 21 5 22
REMARK SMILES IDX 4 23 3 24 2 25 1 26
REMARK H PARENT
REMARK Flexibility Score: inf
ROOT
ATOM      1  C   UNL     1      16.492   0.721 203.293  1.00  0.00     0.000 C 
ENDROOT
BRANCH   1   2
ATOM      2  C   UNL     1      15.430   1.833 203.311  1.00  0.00     0.000 C 
BRANCH   2   3
ATOM      3  C   UNL     1      14.984   2.242 201.895  1.00  0.00     0.000 C 
BRANCH   3   4
ATOM      4  C   UNL     1      13.794   3.215 201.911  1.00  0.00     0.000 C 
BRANCH   4   5
ATOM      5  C   UNL     1      13.429   3.678 203.333  1.00  0.00     0.000 C 
BRANCH   5   6
ATOM      6  C   UNL     1      11.921   3.577 203.617  1.00  0.00     0.000 C 
BRANCH   6   7
ATOM      7  C   UNL     1      11.145   2.935 202.457  1.00  0.00     0.000 C 
BRANCH   7   8
ATOM      8  C   UNL     1       9.695   2.637 202.868  1.00  0.00     0.000 C 
BRANCH   8   9
ATOM      9  C   UNL     1       9.207   1.256 202.394  1.00  0.00     0.000 C 
BRANCH   9  10
ATOM     10  C   UNL     1       8.116   1.287 201.304  1.00  0.00     0.006 C 
BRANCH  10  11
ATOM     11  C   UNL     1       8.126   0.077 200.356  1.00  0.00     0.053 C 
BRANCH  11  12
ATOM     12  C   UNL     1       7.545   0.411 199.016  1.00  0.00     0.041 C 
ATOM     13  O   UNL     1       6.604   1.241 198.923  1.00  0.00    -0.550 OA
ATOM     14  O   UNL     1       8.019  -0.222 197.874  1.00  0.00    -0.550 OA
ENDBRANCH  11  12
ENDBRANCH  10  11
ENDBRANCH   9  10
ENDBRANCH   8   9
ENDBRANCH   7   8
ENDBRANCH   6   7
ENDBRANCH   5   6
ENDBRANCH   4   5
ENDBRANCH   3   4
ENDBRANCH   2   3
ENDBRANCH   1   2
BRANCH   1  15
ATOM     15  C   UNL     1      16.966   0.378 201.870  1.00  0.00     0.000 C 
BRANCH  15  16
ATOM     16  C   UNL     1      16.629  -1.067 201.469  1.00  0.00     0.000 C 
BRANCH  16  17
ATOM     17  C   UNL     1      16.202  -1.932 202.666  1.00  0.00     0.000 C 
BRANCH  17  18
ATOM     18  C   UNL     1      15.000  -2.842 202.348  1.00  0.00    -0.000 C 
BRANCH  18  19
ATOM     19  C   UNL     1      13.805  -2.697 203.308  1.00  0.00    -0.000 C 
BRANCH  19  20
ATOM     20  C   UNL     1      13.508  -1.258 203.774  1.00  0.00    -0.000 C 
BRANCH  20  21
ATOM     21  C   UNL     1      12.344  -0.583 203.017  1.00  0.00    -0.000 C 
BRANCH  21  22
ATOM     22  C   UNL     1      11.512  -1.583 202.200  1.00  0.00    -0.000 C 
BRANCH  22  23
ATOM     23  C   UNL     1      11.582  -1.261 200.702  1.00  0.00    -0.000 C 
BRANCH  23  24
ATOM     24  C   UNL     1      12.396   0.018 200.453  1.00  0.00    -0.000 C 
BRANCH  24  25
ATOM     25  C   UNL     1      13.592  -0.215 199.517  1.00  0.00    -0.003 C 
ATOM     26  C   UNL     1      13.733  -1.674 199.086  1.00  0.00     0.004 C 
ENDBRANCH  24  25
ENDBRANCH  23  24
ENDBRANCH  22  23
ENDBRANCH  21  22
ENDBRANCH  20  21
ENDBRANCH  19  20
ENDBRANCH  18  19
ENDBRANCH  17  18
ENDBRANCH  16  17
ENDBRANCH  15  16
ENDBRANCH   1  15
TORSDOF 22
ENDMDL
MODEL 3
REMARK VINA RESULT:    -3.209      2.603      6.776
REMARK INTER + INTRA:         -11.080
REMARK INTER:                  -6.712
REMARK INTRA:                  -4.368
REMARK UNBOUND:                -3.744
REMARK SMILES CCCCCCCCCCCCCCCCCCCCCCCC(=O)[O-]
REMARK SMILES IDX 13 1 14 2 15 3 16 4 17 5 18 6 19 7 20 8 21 9 22 10 23 11
REMARK SMILES IDX 24 12 25 13 26 14 12 15 11 16 10 17 9 18 8 19 7 20 6 21 5 22
REMARK SMILES IDX 4 23 3 24 2 25 1 26
REMARK H PARENT
REMARK Flexibility Score: inf
ROOT
ATOM      1  C   UNL     1      13.939  -2.930 201.982  1.00  0.00     0.000 C 
ENDROOT
BRANCH   1   2
ATOM      2  C   UNL     1      13.995  -2.416 203.430  1.00  0.00     0.000 C 
BRANCH   2   3
ATOM      3  C   UNL     1      12.599  -2.101 203.996  1.00  0.00     0.000 C 
BRANCH   3   4
ATOM      4  C   UNL     1      11.536  -1.958 202.896  1.00  0.00     0.000 C 
BRANCH   4   5
ATOM      5  C   UNL     1      11.085  -0.499 202.697  1.00  0.00     0.000 C 
BRANCH   5   6
ATOM      6  C   UNL     1      12.060   0.305 201.822  1.00  0.00     0.000 C 
BRANCH   6   7
ATOM      7  C   UNL     1      12.921   1.279 202.640  1.00  0.00     0.000 C 
BRANCH   7   8
ATOM      8  C   UNL     1      14.377   1.265 202.151  1.00  0.00     0.000 C 
BRANCH   8   9
ATOM      9  C   UNL     1      15.369   1.806 203.197  1.00  0.00     0.000 C 
BRANCH   9  10
ATOM     10  C   UNL     1      16.803   1.250 203.087  1.00  0.00     0.006 C 
BRANCH  10  11
ATOM     11  C   UNL     1      16.979  -0.173 203.641  1.00  0.00     0.053 C 
BRANCH  11  12
ATOM     12  C   UNL     1      17.909  -0.991 202.798  1.00  0.00     0.041 C 
ATOM     13  O   UNL     1      18.207  -2.165 203.141  1.00  0.00    -0.550 OA
ATOM     14  O   UNL     1      18.474  -0.445 201.652  1.00  0.00    -0.550 OA
ENDBRANCH  11  12
ENDBRANCH  10  11
ENDBRANCH   9  10
ENDBRANCH   8   9
ENDBRANCH   7   8
ENDBRANCH   6   7
ENDBRANCH   5   6
ENDBRANCH   4   5
ENDBRANCH   3   4
ENDBRANCH   2   3
ENDBRANCH   1   2
BRANCH   1  15
ATOM     15  C   UNL     1      14.908  -2.181 201.050  1.00  0.00     0.000 C 
BRANCH  15  16
ATOM     16  C   UNL     1      14.368  -2.053 199.617  1.00  0.00     0.000 C 
BRANCH  16  17
ATOM     17  C   UNL     1      12.949  -2.626 199.462  1.00  0.00     0.000 C 
BRANCH  17  18
ATOM     18  C   UNL     1      11.956  -1.611 198.865  1.00  0.00    -0.000 C 
BRANCH  18  19
ATOM     19  C   UNL     1      10.478  -1.870 199.212  1.00  0.00    -0.000 C 
BRANCH  19  20
ATOM     20  C   UNL     1       9.586  -0.615 199.263  1.00  0.00    -0.000 C 
BRANCH  20  21
ATOM     21  C   UNL     1       8.291  -0.800 200.081  1.00  0.00    -0.000 C 
BRANCH  21  22
ATOM     22  C   UNL     1       7.485   0.501 200.216  1.00  0.00    -0.000 C 
BRANCH  22  23
ATOM     23  C   UNL     1       8.122   1.439 201.249  1.00  0.00    -0.000 C 
BRANCH  23  24
ATOM     24  C   UNL     1       8.533   2.770 200.602  1.00  0.00    -0.000 C 
BRANCH  24  25
ATOM     25  C   UNL     1      10.031   3.070 200.768  1.00  0.00    -0.003 C 
ATOM     26  C   UNL     1      10.804   2.981 199.453  1.00  0.00     0.004 C 
ENDBRANCH  24  25
ENDBRANCH  23  24
ENDBRANCH  22  23
ENDBRANCH  21  22
ENDBRANCH  20  21
ENDBRANCH  19  20
ENDBRANCH  18  19
ENDBRANCH  17  18
ENDBRANCH  16  17
ENDBRANCH  15  16
ENDBRANCH   1  15
TORSDOF 22
ENDMDL
MODEL 4
REMARK VINA RESULT:    -3.197      2.404      5.357
REMARK INTER + INTRA:         -11.054
REMARK INTER:                  -6.757
REMARK INTRA:                  -4.297
REMARK UNBOUND:                -3.744
REMARK SMILES CCCCCCCCCCCCCCCCCCCCCCCC(=O)[O-]
REMARK SMILES IDX 13 1 14 2 15 3 16 4 17 5 18 6 19 7 20 8 21 9 22 10 23 11
REMARK SMILES IDX 24 12 25 13 26 14 12 15 11 16 10 17 9 18 8 19 7 20 6 21 5 22
REMARK SMILES IDX 4 23 3 24 2 25 1 26
REMARK H PARENT
REMARK Flexibility Score: inf
ROOT
ATOM      1  C   UNL     1       9.103  -0.564 199.703  1.00  0.00     0.000 C 
ENDROOT
BRANCH   1   2
ATOM      2  C   UNL     1       8.929   0.917 200.075  1.00  0.00     0.000 C 
BRANCH   2   3
ATOM      3  C   UNL     1       7.786   1.140 201.082  1.00  0.00     0.000 C 
BRANCH   3   4
ATOM      4  C   UNL     1       8.222   1.982 202.292  1.00  0.00     0.000 C 
BRANCH   4   5
ATOM      5  C   UNL     1       9.341   2.981 201.943  1.00  0.00     0.000 C 
BRANCH   5   6
ATOM      6  C   UNL     1      10.465   2.996 202.991  1.00  0.00     0.000 C 
BRANCH   6   7
ATOM      7  C   UNL     1      11.864   3.002 202.355  1.00  0.00     0.000 C 
BRANCH   7   8
ATOM      8  C   UNL     1      12.929   3.415 203.382  1.00  0.00     0.000 C 
BRANCH   8   9
ATOM      9  C   UNL     1      14.367   3.231 202.863  1.00  0.00     0.000 C 
BRANCH   9  10
ATOM     10  C   UNL     1      15.010   1.866 203.187  1.00  0.00     0.006 C 
BRANCH  10  11
ATOM     11  C   UNL     1      16.214   1.502 202.304  1.00  0.00     0.053 C 
BRANCH  11  12
ATOM     12  C   UNL     1      17.288   0.806 203.082  1.00  0.00     0.041 C 
ATOM     13  O   UNL     1      16.986  -0.055 203.949  1.00  0.00    -0.550 OA
ATOM     14  O   UNL     1      18.623   1.134 202.875  1.00  0.00    -0.550 OA
ENDBRANCH  11  12
ENDBRANCH  10  11
ENDBRANCH   9  10
ENDBRANCH   8   9
ENDBRANCH   7   8
ENDBRANCH   6   7
ENDBRANCH   5   6
ENDBRANCH   4   5
ENDBRANCH   3   4
ENDBRANCH   2   3
ENDBRANCH   1   2
BRANCH   1  15
ATOM     15  C   UNL     1       9.953  -1.336 200.726  1.00  0.00     0.000 C 
BRANCH  15  16
ATOM     16  C   UNL     1      10.992  -0.443 201.423  1.00  0.00     0.000 C 
BRANCH  16  17
ATOM     17  C   UNL     1      11.145  -0.764 202.919  1.00  0.00     0.000 C 
BRANCH  17  18
ATOM     18  C   UNL     1      12.610  -0.725 203.392  1.00  0.00    -0.000 C 
BRANCH  18  19
ATOM     19  C   UNL     1      13.090  -1.995 204.121  1.00  0.00    -0.000 C 
BRANCH  19  20
ATOM     20  C   UNL     1      14.090  -2.864 203.335  1.00  0.00    -0.000 C 
BRANCH  20  21
ATOM     21  C   UNL     1      14.528  -2.252 201.987  1.00  0.00    -0.000 C 
BRANCH  21  22
ATOM     22  C   UNL     1      13.938  -2.998 200.780  1.00  0.00    -0.000 C 
BRANCH  22  23
ATOM     23  C   UNL     1      13.731  -2.048 199.594  1.00  0.00    -0.000 C 
BRANCH  23  24
ATOM     24  C   UNL     1      14.396  -0.688 199.858  1.00  0.00    -0.000 C 
BRANCH  24  25
ATOM     25  C   UNL     1      13.956   0.390 198.855  1.00  0.00    -0.003 C 
ATOM     26  C   UNL     1      13.466   1.667 199.534  1.00  0.00     0.004 C 
ENDBRANCH  24  25
ENDBRANCH  23  24
ENDBRANCH  22  23
ENDBRANCH  21  22
ENDBRANCH  20  21
ENDBRANCH  19  20
ENDBRANCH  18  19
ENDBRANCH  17  18
ENDBRANCH  16  17
ENDBRANCH  15  16
ENDBRANCH   1  15
TORSDOF 22
ENDMDL
MODEL 5
REMARK VINA RESULT:    -3.188      2.096      3.860
REMARK INTER + INTRA:         -11.032
REMARK INTER:                  -6.657
REMARK INTRA:                  -4.375
REMARK UNBOUND:                -3.744
REMARK SMILES CCCCCCCCCCCCCCCCCCCCCCCC(=O)[O-]
REMARK SMILES IDX 13 1 14 2 15 3 16 4 17 5 18 6 19 7 20 8 21 9 22 10 23 11
REMARK SMILES IDX 24 12 25 13 26 14 12 15 11 16 10 17 9 18 8 19 7 20 6 21 5 22
REMARK SMILES IDX 4 23 3 24 2 25 1 26
REMARK H PARENT
REMARK Flexibility Score: inf
ROOT
ATOM      1  C   UNL     1      14.879  -1.336 202.015  1.00  0.00     0.000 C 
ENDROOT
BRANCH   1   2
ATOM      2  C   UNL     1      14.580  -2.505 202.968  1.00  0.00     0.000 C 
BRANCH   2   3
ATOM      3  C   UNL     1      13.523  -2.143 204.028  1.00  0.00     0.000 C 
BRANCH   3   4
ATOM      4  C   UNL     1      12.602  -0.999 203.574  1.00  0.00     0.000 C 
BRANCH   4   5
ATOM      5  C   UNL     1      11.170  -1.478 203.271  1.00  0.00     0.000 C 
BRANCH   5   6
ATOM      6  C   UNL     1      11.088  -2.310 201.981  1.00  0.00     0.000 C 
BRANCH   6   7
ATOM      7  C   UNL     1      11.051  -1.436 200.718  1.00  0.00     0.000 C 
BRANCH   7   8
ATOM      8  C   UNL     1       9.602  -1.123 200.311  1.00  0.00     0.000 C 
BRANCH   8   9
ATOM      9  C   UNL     1       9.339   0.384 200.135  1.00  0.00     0.000 C 
BRANCH   9  10
ATOM     10  C   UNL     1       8.175   0.946 200.976  1.00  0.00     0.006 C 
BRANCH  10  11
ATOM     11  C   UNL     1       8.602   1.610 202.294  1.00  0.00     0.053 C 
BRANCH  11  12
ATOM     12  C   UNL     1       8.395   3.094 202.267  1.00  0.00     0.041 C 
ATOM     13  O   UNL     1       9.159   3.828 201.586  1.00  0.00    -0.550 OA
ATOM     14  O   UNL     1       7.380   3.670 203.021  1.00  0.00    -0.550 OA
ENDBRANCH  11  12
ENDBRANCH  10  11
ENDBRANCH   9  10
ENDBRANCH   8   9
ENDBRANCH   7   8
ENDBRANCH   6   7
ENDBRANCH   5   6
ENDBRANCH   4   5
ENDBRANCH   3   4
ENDBRANCH   2   3
ENDBRANCH   1   2
BRANCH   1  15
ATOM     15  C   UNL     1      16.336  -0.852 202.111  1.00  0.00     0.000 C 
BRANCH  15  16
ATOM     16  C   UNL     1      16.610  -0.061 203.399  1.00  0.00     0.000 C 
BRANCH  16  17
ATOM     17  C   UNL     1      15.610   1.087 203.617  1.00  0.00     0.000 C 
BRANCH  17  18
ATOM     18  C   UNL     1      15.755   2.212 202.576  1.00  0.00    -0.000 C 
BRANCH  18  19
ATOM     19  C   UNL     1      14.583   3.211 202.533  1.00  0.00    -0.000 C 
BRANCH  19  20
ATOM     20  C   UNL     1      13.243   2.675 203.075  1.00  0.00    -0.000 C 
BRANCH  20  21
ATOM     21  C   UNL     1      12.276   2.183 201.978  1.00  0.00    -0.000 C 
BRANCH  21  22
ATOM     22  C   UNL     1      12.602   2.769 200.596  1.00  0.00    -0.000 C 
BRANCH  22  23
ATOM     23  C   UNL     1      12.661   1.667 199.531  1.00  0.00    -0.000 C 
BRANCH  23  24
ATOM     24  C   UNL     1      14.042   0.993 199.514  1.00  0.00    -0.000 C 
BRANCH  24  25
ATOM     25  C   UNL     1      14.964   1.561 198.425  1.00  0.00    -0.003 C 
ATOM     26  C   UNL     1      15.923   2.626 198.955  1.00  0.00     0.004 C 
ENDBRANCH  24  25
ENDBRANCH  23  24
ENDBRANCH  22  23
ENDBRANCH  21  22
ENDBRANCH  20  21
ENDBRANCH  19  20
ENDBRANCH  18  19
ENDBRANCH  17  18
ENDBRANCH  16  17
ENDBRANCH  15  16
ENDBRANCH   1  15
TORSDOF 22
ENDMDL
MODEL 6
REMARK VINA RESULT:    -3.174     14.911     18.482
REMARK INTER + INTRA:         -11.001
REMARK INTER:                  -7.100
REMARK INTRA:                  -3.901
REMARK UNBOUND:                -3.744
REMARK SMILES CCCCCCCCCCCCCCCCCCCCCCCC(=O)[O-]
REMARK SMILES IDX 13 1 14 2 15 3 16 4 17 5 18 6 19 7 20 8 21 9 22 10 23 11
REMARK SMILES IDX 24 12 25 13 26 14 12 15 11 16 10 17 9 18 8 19 7 20 6 21 5 22
REMARK SMILES IDX 4 23 3 24 2 25 1 26
REMARK H PARENT
REMARK Flexibility Score: inf
ROOT
ATOM      1  C   UNL     1      17.402  -7.741 185.614  1.00  0.00     0.000 C 
ENDROOT
BRANCH   1   2
ATOM      2  C   UNL     1      17.428  -8.602 184.340  1.00  0.00     0.000 C 
BRANCH   2   3
ATOM      3  C   UNL     1      16.052  -9.210 184.014  1.00  0.00     0.000 C 
BRANCH   3   4
ATOM      4  C   UNL     1      15.992 -10.719 184.300  1.00  0.00     0.000 C 
BRANCH   4   5
ATOM      5  C   UNL     1      14.841 -11.093 185.253  1.00  0.00     0.000 C 
BRANCH   5   6
ATOM      6  C   UNL     1      14.400  -9.915 186.136  1.00  0.00     0.000 C 
BRANCH   6   7
ATOM      7  C   UNL     1      15.084  -9.921 187.512  1.00  0.00     0.000 C 
BRANCH   7   8
ATOM      8  C   UNL     1      14.757  -8.639 188.291  1.00  0.00     0.000 C 
BRANCH   8   9
ATOM      9  C   UNL     1      15.770  -8.341 189.412  1.00  0.00     0.000 C 
BRANCH   9  10
ATOM     10  C   UNL     1      16.237  -6.873 189.498  1.00  0.00     0.006 C 
BRANCH  10  11
ATOM     11  C   UNL     1      17.333  -6.613 190.544  1.00  0.00     0.053 C 
BRANCH  11  12
ATOM     12  C   UNL     1      18.703  -6.873 189.997  1.00  0.00     0.041 C 
ATOM     13  O   UNL     1      19.289  -7.959 190.247  1.00  0.00    -0.550 OA
ATOM     14  O   UNL     1      19.348  -5.903 189.241  1.00  0.00    -0.550 OA
ENDBRANCH  11  12
ENDBRANCH  10  11
ENDBRANCH   9  10
ENDBRANCH   8   9
ENDBRANCH   7   8
ENDBRANCH   6   7
ENDBRANCH   5   6
ENDBRANCH   4   5
ENDBRANCH   3   4
ENDBRANCH   2   3
ENDBRANCH   1   2
BRANCH   1  15
ATOM     15  C   UNL     1      18.383  -8.243 186.687  1.00  0.00     0.000 C 
BRANCH  15  16
ATOM     16  C   UNL     1      19.183  -9.472 186.227  1.00  0.00     0.000 C 
BRANCH  16  17
ATOM     17  C   UNL     1      19.939 -10.155 187.379  1.00  0.00     0.000 C 
BRANCH  17  18
ATOM     18  C   UNL     1      19.485 -11.608 187.614  1.00  0.00    -0.000 C 
BRANCH  18  19
ATOM     19  C   UNL     1      18.022 -11.900 187.232  1.00  0.00    -0.000 C 
BRANCH  19  20
ATOM     20  C   UNL     1      17.801 -13.190 186.417  1.00  0.00    -0.000 C 
BRANCH  20  21
ATOM     21  C   UNL     1      18.664 -14.381 186.884  1.00  0.00    -0.000 C 
BRANCH  21  22
ATOM     22  C   UNL     1      17.860 -15.685 186.997  1.00  0.00    -0.000 C 
BRANCH  22  23
ATOM     23  C   UNL     1      16.369 -15.395 187.210  1.00  0.00    -0.000 C 
BRANCH  23  24
ATOM     24  C   UNL     1      15.958 -15.679 188.663  1.00  0.00    -0.000 C 
BRANCH  24  25
ATOM     25  C   UNL     1      14.851 -14.735 189.159  1.00  0.00    -0.003 C 
ATOM     26  C   UNL     1      14.642 -13.531 188.242  1.00  0.00     0.004 C 
ENDBRANCH  24  25
ENDBRANCH  23  24
ENDBRANCH  22  23
ENDBRANCH  21  22
ENDBRANCH  20  21
ENDBRANCH  19  20
ENDBRANCH  18  19
ENDBRANCH  17  18
ENDBRANCH  16  17
ENDBRANCH  15  16
ENDBRANCH   1  15
TORSDOF 22
ENDMDL
MODEL 7
REMARK VINA RESULT:    -3.147      2.975      6.349
REMARK INTER + INTRA:         -10.940
REMARK INTER:                  -6.092
REMARK INTRA:                  -4.848
REMARK UNBOUND:                -3.744
REMARK SMILES CCCCCCCCCCCCCCCCCCCCCCCC(=O)[O-]
REMARK SMILES IDX 13 1 14 2 15 3 16 4 17 5 18 6 19 7 20 8 21 9 22 10 23 11
REMARK SMILES IDX 24 12 25 13 26 14 12 15 11 16 10 17 9 18 8 19 7 20 6 21 5 22
REMARK SMILES IDX 4 23 3 24 2 25 1 26
REMARK H PARENT
REMARK Flexibility Score: inf
ROOT
ATOM      1  C   UNL     1      12.398  -0.788 199.799  1.00  0.00     0.000 C 
ENDROOT
BRANCH   1   2
ATOM      2  C   UNL     1      10.980  -1.316 200.073  1.00  0.00     0.000 C 
BRANCH   2   3
ATOM      3  C   UNL     1      10.674  -1.428 201.577  1.00  0.00     0.000 C 
BRANCH   3   4
ATOM      4  C   UNL     1      11.745  -2.226 202.338  1.00  0.00     0.000 C 
BRANCH   4   5
ATOM      5  C   UNL     1      11.930  -1.735 203.786  1.00  0.00     0.000 C 
BRANCH   5   6
ATOM      6  C   UNL     1      13.400  -1.440 204.125  1.00  0.00     0.000 C 
BRANCH   6   7
ATOM      7  C   UNL     1      14.363  -1.897 203.019  1.00  0.00     0.000 C 
BRANCH   7   8
ATOM      8  C   UNL     1      15.216  -0.722 202.517  1.00  0.00     0.000 C 
BRANCH   8   9
ATOM      9  C   UNL     1      15.938   0.026 203.653  1.00  0.00     0.000 C 
BRANCH   9  10
ATOM     10  C   UNL     1      16.948   1.097 203.192  1.00  0.00     0.006 C 
BRANCH  10  11
ATOM     11  C   UNL     1      18.419   0.657 203.258  1.00  0.00     0.053 C 
BRANCH  11  12
ATOM     12  C   UNL     1      18.945   0.258 201.914  1.00  0.00     0.041 C 
ATOM     13  O   UNL     1      18.589  -0.831 201.392  1.00  0.00    -0.550 OA
ATOM     14  O   UNL     1      19.856   1.072 201.252  1.00  0.00    -0.550 OA
ENDBRANCH  11  12
ENDBRANCH  10  11
ENDBRANCH   9  10
ENDBRANCH   8   9
ENDBRANCH   7   8
ENDBRANCH   6   7
ENDBRANCH   5   6
ENDBRANCH   4   5
ENDBRANCH   3   4
ENDBRANCH   2   3
ENDBRANCH   1   2
BRANCH   1  15
ATOM     15  C   UNL     1      12.466   0.102 198.546  1.00  0.00     0.000 C 
BRANCH  15  16
ATOM     16  C   UNL     1      13.299   1.374 198.771  1.00  0.00     0.000 C 
BRANCH  16  17
ATOM     17  C   UNL     1      14.740   1.070 199.214  1.00  0.00     0.000 C 
BRANCH  17  18
ATOM     18  C   UNL     1      15.314   2.143 200.160  1.00  0.00    -0.000 C 
BRANCH  18  19
ATOM     19  C   UNL     1      14.282   3.153 200.696  1.00  0.00    -0.000 C 
BRANCH  19  20
ATOM     20  C   UNL     1      14.453   3.543 202.177  1.00  0.00    -0.000 C 
BRANCH  20  21
ATOM     21  C   UNL     1      13.403   2.913 203.116  1.00  0.00    -0.000 C 
BRANCH  21  22
ATOM     22  C   UNL     1      12.597   1.796 202.436  1.00  0.00    -0.000 C 
BRANCH  22  23
ATOM     23  C   UNL     1      11.096   2.113 202.451  1.00  0.00    -0.000 C 
BRANCH  23  24
ATOM     24  C   UNL     1      10.703   2.962 201.233  1.00  0.00    -0.000 C 
BRANCH  24  25
ATOM     25  C   UNL     1       9.823   2.193 200.235  1.00  0.00    -0.003 C 
ATOM     26  C   UNL     1       8.616   1.530 200.896  1.00  0.00     0.004 C 
ENDBRANCH  24  25
ENDBRANCH  23  24
ENDBRANCH  22  23
ENDBRANCH  21  22
ENDBRANCH  20  21
ENDBRANCH  19  20
ENDBRANCH  18  19
ENDBRANCH  17  18
ENDBRANCH  16  17
ENDBRANCH  15  16
ENDBRANCH   1  15
TORSDOF 22
ENDMDL
MODEL 8
REMARK VINA RESULT:    -3.137      2.717      5.248
REMARK INTER + INTRA:         -10.916
REMARK INTER:                  -6.795
REMARK INTRA:                  -4.121
REMARK UNBOUND:                -3.744
REMARK SMILES CCCCCCCCCCCCCCCCCCCCCCCC(=O)[O-]
REMARK SMILES IDX 13 1 14 2 15 3 16 4 17 5 18 6 19 7 20 8 21 9 22 10 23 11
REMARK SMILES IDX 24 12 25 13 26 14 12 15 11 16 10 17 9 18 8 19 7 20 6 21 5 22
REMARK SMILES IDX 4 23 3 24 2 25 1 26
REMARK H PARENT
REMARK Flexibility Score: inf
ROOT
ATOM      1  C   UNL     1      12.806  -0.385 199.438  1.00  0.00     0.000 C 
ENDROOT
BRANCH   1   2
ATOM      2  C   UNL     1      12.699   0.837 200.364  1.00  0.00     0.000 C 
BRANCH   2   3
ATOM      3  C   UNL     1      11.559   1.787 199.955  1.00  0.00     0.000 C 
BRANCH   3   4
ATOM      4  C   UNL     1      11.039   2.625 201.134  1.00  0.00     0.000 C 
BRANCH   4   5
ATOM      5  C   UNL     1      10.827   1.785 202.407  1.00  0.00     0.000 C 
BRANCH   5   6
ATOM      6  C   UNL     1       9.395   1.236 202.519  1.00  0.00     0.000 C 
BRANCH   6   7
ATOM      7  C   UNL     1       8.348   2.197 201.937  1.00  0.00     0.000 C 
BRANCH   7   8
ATOM      8  C   UNL     1       7.375   1.451 201.011  1.00  0.00     0.000 C 
BRANCH   8   9
ATOM      9  C   UNL     1       8.027   0.258 200.289  1.00  0.00     0.000 C 
BRANCH   9  10
ATOM     10  C   UNL     1       8.315   0.478 198.790  1.00  0.00     0.006 C 
BRANCH  10  11
ATOM     11  C   UNL     1       8.498  -0.814 197.979  1.00  0.00     0.053 C 
BRANCH  11  12
ATOM     12  C   UNL     1       7.714  -0.790 196.702  1.00  0.00     0.041 C 
ATOM     13  O   UNL     1       7.360   0.308 196.198  1.00  0.00    -0.550 OA
ATOM     14  O   UNL     1       7.345  -1.980 196.088  1.00  0.00    -0.550 OA
ENDBRANCH  11  12
ENDBRANCH  10  11
ENDBRANCH   9  10
ENDBRANCH   8   9
ENDBRANCH   7   8
ENDBRANCH   6   7
ENDBRANCH   5   6
ENDBRANCH   4   5
ENDBRANCH   3   4
ENDBRANCH   2   3
ENDBRANCH   1   2
BRANCH   1  15
ATOM     15  C   UNL     1      11.617  -1.349 199.592  1.00  0.00     0.000 C 
BRANCH  15  16
ATOM     16  C   UNL     1      11.771  -2.286 200.801  1.00  0.00     0.000 C 
BRANCH  16  17
ATOM     17  C   UNL     1      10.741  -2.004 201.907  1.00  0.00     0.000 C 
BRANCH  17  18
ATOM     18  C   UNL     1      11.384  -1.849 203.298  1.00  0.00    -0.000 C 
BRANCH  18  19
ATOM     19  C   UNL     1      12.855  -1.393 203.285  1.00  0.00    -0.000 C 
BRANCH  19  20
ATOM     20  C   UNL     1      13.895  -2.526 203.386  1.00  0.00    -0.000 C 
BRANCH  20  21
ATOM     21  C   UNL     1      15.266  -2.175 202.771  1.00  0.00    -0.000 C 
BRANCH  21  22
ATOM     22  C   UNL     1      15.419  -0.673 202.487  1.00  0.00    -0.000 C 
BRANCH  22  23
ATOM     23  C   UNL     1      16.488  -0.048 203.391  1.00  0.00    -0.000 C 
BRANCH  23  24
ATOM     24  C   UNL     1      16.528   1.478 203.221  1.00  0.00    -0.000 C 
BRANCH  24  25
ATOM     25  C   UNL     1      15.383   2.005 202.341  1.00  0.00    -0.003 C 
ATOM     26  C   UNL     1      14.370   2.840 203.122  1.00  0.00     0.004 C 
ENDBRANCH  24  25
ENDBRANCH  23  24
ENDBRANCH  22  23
ENDBRANCH  21  22
ENDBRANCH  20  21
ENDBRANCH  19  20
ENDBRANCH  18  19
ENDBRANCH  17  18
ENDBRANCH  16  17
ENDBRANCH  15  16
ENDBRANCH   1  15
TORSDOF 22
ENDMDL
MODEL 9
REMARK VINA RESULT:    -3.125      2.655      6.987
REMARK INTER + INTRA:         -10.888
REMARK INTER:                  -6.453
REMARK INTRA:                  -4.435
REMARK UNBOUND:                -3.744
REMARK SMILES CCCCCCCCCCCCCCCCCCCCCCCC(=O)[O-]
REMARK SMILES IDX 13 1 14 2 15 3 16 4 17 5 18 6 19 7 20 8 21 9 22 10 23 11
REMARK SMILES IDX 24 12 25 13 26 14 12 15 11 16 10 17 9 18 8 19 7 20 6 21 5 22
REMARK SMILES IDX 4 23 3 24 2 25 1 26
REMARK H PARENT
REMARK Flexibility Score: inf
ROOT
ATOM      1  C   UNL     1      12.250   2.248 201.051  1.00  0.00     0.000 C 
ENDROOT
BRANCH   1   2
ATOM      2  C   UNL     1      12.634   0.908 200.402  1.00  0.00     0.000 C 
BRANCH   2   3
ATOM      3  C   UNL     1      11.498   0.324 199.543  1.00  0.00     0.000 C 
BRANCH   3   4
ATOM      4  C   UNL     1      11.309  -1.185 199.765  1.00  0.00     0.000 C 
BRANCH   4   5
ATOM      5  C   UNL     1      10.476  -1.498 201.022  1.00  0.00     0.000 C 
BRANCH   5   6
ATOM      6  C   UNL     1      11.279  -2.265 202.085  1.00  0.00     0.000 C 
BRANCH   6   7
ATOM      7  C   UNL     1      11.405  -1.486 203.404  1.00  0.00     0.000 C 
BRANCH   7   8
ATOM      8  C   UNL     1      12.760  -1.760 204.073  1.00  0.00     0.000 C 
BRANCH   8   9
ATOM      9  C   UNL     1      13.958  -1.432 203.163  1.00  0.00     0.000 C 
BRANCH   9  10
ATOM     10  C   UNL     1      14.631  -0.071 203.434  1.00  0.00     0.006 C 
BRANCH  10  11
ATOM     11  C   UNL     1      15.696   0.331 202.401  1.00  0.00     0.053 C 
BRANCH  11  12
ATOM     12  C   UNL     1      17.084   0.213 202.953  1.00  0.00     0.041 C 
ATOM     13  O   UNL     1      17.813   1.235 203.058  1.00  0.00    -0.550 OA
ATOM     14  O   UNL     1      17.586  -1.030 203.320  1.00  0.00    -0.550 OA
ENDBRANCH  11  12
ENDBRANCH  10  11
ENDBRANCH   9  10
ENDBRANCH   8   9
ENDBRANCH   7   8
ENDBRANCH   6   7
ENDBRANCH   5   6
ENDBRANCH   4   5
ENDBRANCH   3   4
ENDBRANCH   2   3
ENDBRANCH   1   2
BRANCH   1  15
ATOM     15  C   UNL     1      11.660   2.075 202.461  1.00  0.00     0.000 C 
BRANCH  15  16
ATOM     16  C   UNL     1      10.198   2.543 202.550  1.00  0.00     0.000 C 
BRANCH  16  17
ATOM     17  C   UNL     1       9.204   1.374 202.650  1.00  0.00     0.000 C 
BRANCH  17  18
ATOM     18  C   UNL     1       8.166   1.372 201.512  1.00  0.00    -0.000 C 
BRANCH  18  19
ATOM     19  C   UNL     1       8.527   2.258 200.304  1.00  0.00    -0.000 C 
BRANCH  19  20
ATOM     20  C   UNL     1       7.325   2.807 199.511  1.00  0.00    -0.000 C 
BRANCH  20  21
ATOM     21  C   UNL     1       7.121   2.133 198.137  1.00  0.00    -0.000 C 
BRANCH  21  22
ATOM     22  C   UNL     1       8.446   1.711 197.484  1.00  0.00    -0.000 C 
BRANCH  22  23
ATOM     23  C   UNL     1       8.247   0.490 196.577  1.00  0.00    -0.000 C 
BRANCH  23  24
ATOM     24  C   UNL     1       8.694  -0.798 197.285  1.00  0.00    -0.000 C 
BRANCH  24  25
ATOM     25  C   UNL     1       7.509  -1.640 197.785  1.00  0.00    -0.003 C 
ATOM     26  C   UNL     1       7.266  -1.489 199.286  1.00  0.00     0.004 C 
ENDBRANCH  24  25
ENDBRANCH  23  24
ENDBRANCH  22  23
ENDBRANCH  21  22
ENDBRANCH  20  21
ENDBRANCH  19  20
ENDBRANCH  18  19
ENDBRANCH  17  18
ENDBRANCH  16  17
ENDBRANCH  15  16
ENDBRANCH   1  15
TORSDOF 22
ENDMDL
