MODEL 1
REMARK VINA RESULT:    -1.518      0.000      0.000
REMARK INTER + INTRA:          -2.048
REMARK INTER:                  -1.784
REMARK INTRA:                  -0.264
REMARK UNBOUND:                -0.264
REMARK SMILES O=c1cc(-c2ccc(O)c(O)c2)oc2cc(O)cc(O)c12
REMARK SMILES IDX 4 1 3 2 2 3 1 4 21 5 19 6 18 7 16 8 15 9 14 10 13 11 5 12
REMARK SMILES IDX 6 13 7 14 8 15 12 16 10 17 9 18 11 20 20 22 17 24
REMARK H PARENT 9 19 11 21 20 23 17 25
REMARK Flexibility Score: inf
ROOT
ATOM      1  C   UNL     1      13.019 -12.825  28.898  1.00  0.00     0.138 A 
ATOM      2  C   UNL     1      13.164 -13.320  27.592  1.00  0.00     0.100 A 
ATOM      3  C   UNL     1      13.862 -14.509  27.380  1.00  0.00     0.197 A 
ATOM      4  O   UNL     1      13.985 -14.945  26.204  1.00  0.00    -0.289 OA
ATOM      5  C   UNL     1      14.409 -15.199  28.480  1.00  0.00     0.107 A 
ATOM      6  C   UNL     1      15.132 -16.409  28.355  1.00  0.00     0.134 A 
ATOM      7  C   UNL     1      15.641 -17.037  29.501  1.00  0.00     0.093 A 
ATOM      8  C   UNL     1      15.442 -16.480  30.767  1.00  0.00     0.123 A 
ATOM      9  C   UNL     1      14.728 -15.284  30.898  1.00  0.00     0.094 A 
ATOM     10  C   UNL     1      14.214 -14.642  29.768  1.00  0.00     0.146 A 
ATOM     11  O   UNL     1      13.541 -13.506  29.916  1.00  0.00    -0.456 OA
ENDROOT
BRANCH   1  12
ATOM     12  C   UNL     1      12.286 -11.565  29.183  1.00  0.00     0.021 A 
ATOM     13  C   UNL     1      12.953 -10.399  29.602  1.00  0.00     0.016 A 
ATOM     14  C   UNL     1      12.236  -9.232  29.874  1.00  0.00     0.051 A 
ATOM     15  C   UNL     1      10.845  -9.206  29.737  1.00  0.00     0.157 A 
ATOM     16  C   UNL     1      10.885 -11.538  29.061  1.00  0.00     0.062 A 
ATOM     17  C   UNL     1      10.164 -10.366  29.331  1.00  0.00     0.158 A 
BRANCH  15  18
ATOM     18  O   UNL     1      10.157  -8.025  30.014  1.00  0.00    -0.504 OA
ATOM     19  H   UNL     1      10.564  -7.283  30.570  1.00  0.00     0.293 HD
ENDBRANCH  15  18
BRANCH  17  20
ATOM     20  O   UNL     1       8.777 -10.349  29.198  1.00  0.00    -0.504 OA
ATOM     21  H   UNL     1       8.261 -11.172  28.907  1.00  0.00     0.293 HD
ENDBRANCH  17  20
ENDBRANCH   1  12
BRANCH   6  22
ATOM     22  O   UNL     1      15.347 -16.989  27.104  1.00  0.00    -0.507 OA
ATOM     23  H   UNL     1      14.590 -17.135  26.447  1.00  0.00     0.293 HD
ENDBRANCH   6  22
BRANCH   8  24
ATOM     24  O   UNL     1      15.957 -17.125  31.890  1.00  0.00    -0.508 OA
ATOM     25  H   UNL     1      15.498 -17.932  32.294  1.00  0.00     0.293 HD
ENDBRANCH   8  24
TORSDOF 5
ENDMDL
MODEL 2
REMARK VINA RESULT:     0.654      4.439      5.882
REMARK INTER + INTRA:           0.504
REMARK INTER:                   0.796
REMARK INTRA:                  -0.292
REMARK UNBOUND:                -0.264
REMARK SMILES O=c1cc(-c2ccc(O)c(O)c2)oc2cc(O)cc(O)c12
REMARK SMILES IDX 4 1 3 2 2 3 1 4 21 5 19 6 18 7 16 8 15 9 14 10 13 11 5 12
REMARK SMILES IDX 6 13 7 14 8 15 12 16 10 17 9 18 11 20 20 22 17 24
REMARK H PARENT 9 19 11 21 20 23 17 25
REMARK Flexibility Score: inf
ROOT
ATOM      1  C   UNL     1      13.741  -9.351  26.906  1.00  0.00     0.138 A 
ATOM      2  C   UNL     1      12.657  -9.027  27.739  1.00  0.00     0.100 A 
ATOM      3  C   UNL     1      12.246  -9.934  28.716  1.00  0.00     0.197 A 
ATOM      4  O   UNL     1      11.273  -9.633  29.458  1.00  0.00    -0.289 OA
ATOM      5  C   UNL     1      12.924 -11.161  28.856  1.00  0.00     0.107 A 
ATOM      6  C   UNL     1      12.571 -12.137  29.817  1.00  0.00     0.134 A 
ATOM      7  C   UNL     1      13.301 -13.332  29.897  1.00  0.00     0.093 A 
ATOM      8  C   UNL     1      14.374 -13.570  29.034  1.00  0.00     0.123 A 
ATOM      9  C   UNL     1      14.728 -12.609  28.080  1.00  0.00     0.094 A 
ATOM     10  C   UNL     1      14.013 -11.412  27.985  1.00  0.00     0.146 A 
ATOM     11  O   UNL     1      14.366 -10.515  27.071  1.00  0.00    -0.456 OA
ENDROOT
BRANCH   1  12
ATOM     12  C   UNL     1      14.224  -8.424  25.851  1.00  0.00     0.021 A 
ATOM     13  C   UNL     1      14.406  -7.051  26.100  1.00  0.00     0.016 A 
ATOM     14  C   UNL     1      14.851  -6.200  25.085  1.00  0.00     0.051 A 
ATOM     15  C   UNL     1      15.117  -6.700  23.807  1.00  0.00     0.157 A 
ATOM     16  C   UNL     1      14.478  -8.919  24.560  1.00  0.00     0.062 A 
ATOM     17  C   UNL     1      14.927  -8.066  23.541  1.00  0.00     0.158 A 
BRANCH  15  18
ATOM     18  O   UNL     1      15.561  -5.826  22.816  1.00  0.00    -0.504 OA
ATOM     19  H   UNL     1      15.123  -4.928  22.654  1.00  0.00     0.293 HD
ENDBRANCH  15  18
BRANCH  17  20
ATOM     20  O   UNL     1      15.184  -8.570  22.267  1.00  0.00    -0.504 OA
ATOM     21  H   UNL     1      15.250  -9.567  22.093  1.00  0.00     0.293 HD
ENDBRANCH  17  20
ENDBRANCH   1  12
BRANCH   6  22
ATOM     22  O   UNL     1      11.505 -11.928  30.693  1.00  0.00    -0.507 OA
ATOM     23  H   UNL     1      11.651 -11.777  31.684  1.00  0.00     0.293 HD
ENDBRANCH   6  22
BRANCH   8  24
ATOM     24  O   UNL     1      15.083 -14.765  29.133  1.00  0.00    -0.508 OA
ATOM     25  H   UNL     1      15.472 -15.078  30.015  1.00  0.00     0.293 HD
ENDBRANCH   8  24
TORSDOF 5
ENDMDL
