MODEL 1
REMARK VINA RESULT:    -5.223      0.000      0.000
REMARK INTER + INTRA:         -16.474
REMARK INTER:                 -13.163
REMARK INTRA:                  -3.311
REMARK UNBOUND:                -3.311
REMARK SMILES CCCCCCCCCCCCCCCCCCCCCCCCCCCC(=O)[O-]
REMARK SMILES IDX 15 1 16 2 17 3 18 4 19 5 20 6 21 7 22 8 23 9 24 10 25 11
REMARK SMILES IDX 26 12 27 13 28 14 29 15 30 16 14 17 13 18 12 19 11 20 10 21
REMARK SMILES IDX 9 22 8 23 7 24 6 25 5 26 4 27 3 28 2 29 1 30
REMARK H PARENT
REMARK Flexibility Score: inf
ROOT
ATOM      1  C   UNL     1      -6.211   1.675  -8.943  1.00  0.00     0.000 C 
ENDROOT
BRANCH   1   2
ATOM      2  C   UNL     1      -6.950   0.329  -8.868  1.00  0.00     0.000 C 
BRANCH   2   3
ATOM      3  C   UNL     1      -5.994  -0.875  -8.925  1.00  0.00     0.000 C 
BRANCH   3   4
ATOM      4  C   UNL     1      -6.209  -1.731 -10.185  1.00  0.00     0.000 C 
BRANCH   4   5
ATOM      5  C   UNL     1      -7.089  -1.024 -11.231  1.00  0.00     0.000 C 
BRANCH   5   6
ATOM      6  C   UNL     1      -8.012  -1.996 -11.985  1.00  0.00     0.000 C 
BRANCH   6   7
ATOM      7  C   UNL     1      -7.248  -3.168 -12.623  1.00  0.00     0.000 C 
BRANCH   7   8
ATOM      8  C   UNL     1      -8.133  -4.007 -13.563  1.00  0.00     0.000 C 
BRANCH   8   9
ATOM      9  C   UNL     1      -8.140  -3.540 -15.032  1.00  0.00     0.000 C 
BRANCH   9  10
ATOM     10  C   UNL     1      -9.399  -3.924 -15.833  1.00  0.00     0.000 C 
BRANCH  10  11
ATOM     11  C   UNL     1     -10.678  -4.015 -14.973  1.00  0.00     0.000 C 
BRANCH  11  12
ATOM     12  C   UNL     1     -11.453  -5.317 -15.219  1.00  0.00     0.006 C 
BRANCH  12  13
ATOM     13  C   UNL     1     -11.423  -6.216 -13.980  1.00  0.00     0.053 C 
BRANCH  13  14
ATOM     14  C   UNL     1     -10.581  -7.426 -14.231  1.00  0.00     0.041 C 
ATOM     15  O   UNL     1     -10.934  -8.550 -13.785  1.00  0.00    -0.550 OA
ATOM     16  O   UNL     1      -9.418  -7.319 -14.985  1.00  0.00    -0.550 OA
ENDBRANCH  13  14
ENDBRANCH  12  13
ENDBRANCH  11  12
ENDBRANCH  10  11
ENDBRANCH   9  10
ENDBRANCH   8   9
ENDBRANCH   7   8
ENDBRANCH   6   7
ENDBRANCH   5   6
ENDBRANCH   4   5
ENDBRANCH   3   4
ENDBRANCH   2   3
ENDBRANCH   1   2
BRANCH   1  17
ATOM     17  C   UNL     1      -6.733   2.577 -10.075  1.00  0.00     0.000 C 
BRANCH  17  18
ATOM     18  C   UNL     1      -5.726   2.699 -11.238  1.00  0.00     0.000 C 
BRANCH  18  19
ATOM     19  C   UNL     1      -4.677   1.575 -11.262  1.00  0.00     0.000 C 
BRANCH  19  20
ATOM     20  C   UNL     1      -3.235   2.103 -11.173  1.00  0.00     0.000 C 
BRANCH  20  21
ATOM     21  C   UNL     1      -2.194   0.973 -11.174  1.00  0.00     0.000 C 
BRANCH  21  22
ATOM     22  C   UNL     1      -2.837  -0.416 -11.049  1.00  0.00    -0.000 C 
BRANCH  22  23
ATOM     23  C   UNL     1      -2.619  -1.237 -12.329  1.00  0.00    -0.000 C 
BRANCH  23  24
ATOM     24  C   UNL     1      -3.937  -1.702 -12.971  1.00  0.00    -0.000 C 
BRANCH  24  25
ATOM     25  C   UNL     1      -3.778  -2.733 -14.105  1.00  0.00    -0.000 C 
BRANCH  25  26
ATOM     26  C   UNL     1      -4.599  -2.399 -15.370  1.00  0.00    -0.000 C 
BRANCH  26  27
ATOM     27  C   UNL     1      -3.787  -2.597 -16.661  1.00  0.00    -0.000 C 
BRANCH  27  28
ATOM     28  C   UNL     1      -3.425  -1.268 -17.345  1.00  0.00    -0.000 C 
BRANCH  28  29
ATOM     29  C   UNL     1      -2.114  -1.335 -18.156  1.00  0.00    -0.003 C 
ATOM     30  C   UNL     1      -2.308  -2.017 -19.510  1.00  0.00     0.004 C 
ENDBRANCH  28  29
ENDBRANCH  27  28
ENDBRANCH  26  27
ENDBRANCH  25  26
ENDBRANCH  24  25
ENDBRANCH  23  24
ENDBRANCH  22  23
ENDBRANCH  21  22
ENDBRANCH  20  21
ENDBRANCH  19  20
ENDBRANCH  18  19
ENDBRANCH  17  18
ENDBRANCH   1  17
TORSDOF 26
ENDMDL
MODEL 2
REMARK VINA RESULT:    -5.134      2.814      6.776
REMARK INTER + INTRA:         -16.250
REMARK INTER:                 -11.603
REMARK INTRA:                  -4.646
REMARK UNBOUND:                -3.311
REMARK SMILES CCCCCCCCCCCCCCCCCCCCCCCCCCCC(=O)[O-]
REMARK SMILES IDX 15 1 16 2 17 3 18 4 19 5 20 6 21 7 22 8 23 9 24 10 25 11
REMARK SMILES IDX 26 12 27 13 28 14 29 15 30 16 14 17 13 18 12 19 11 20 10 21
REMARK SMILES IDX 9 22 8 23 7 24 6 25 5 26 4 27 3 28 2 29 1 30
REMARK H PARENT
REMARK Flexibility Score: inf
ROOT
ATOM      1  C   UNL     1     -11.418  -6.072 -13.978  1.00  0.00     0.000 C 
ENDROOT
BRANCH   1   2
ATOM      2  C   UNL     1     -11.525  -5.395 -15.353  1.00  0.00     0.000 C 
BRANCH   2   3
ATOM      3  C   UNL     1     -10.954  -3.966 -15.356  1.00  0.00     0.000 C 
BRANCH   3   4
ATOM      4  C   UNL     1      -9.736  -3.826 -16.285  1.00  0.00     0.000 C 
BRANCH   4   5
ATOM      5  C   UNL     1      -8.403  -3.977 -15.530  1.00  0.00     0.000 C 
BRANCH   5   6
ATOM      6  C   UNL     1      -8.522  -3.628 -14.038  1.00  0.00     0.000 C 
BRANCH   6   7
ATOM      7  C   UNL     1      -7.674  -2.408 -13.642  1.00  0.00     0.000 C 
BRANCH   7   8
ATOM      8  C   UNL     1      -8.098  -1.808 -12.288  1.00  0.00     0.000 C 
BRANCH   8   9
ATOM      9  C   UNL     1      -6.930  -1.386 -11.375  1.00  0.00     0.000 C 
BRANCH   9  10
ATOM     10  C   UNL     1      -6.368  -2.504 -10.476  1.00  0.00     0.000 C 
BRANCH  10  11
ATOM     11  C   UNL     1      -5.245  -3.329 -11.139  1.00  0.00     0.000 C 
BRANCH  11  12
ATOM     12  C   UNL     1      -5.649  -4.794 -11.356  1.00  0.00     0.006 C 
BRANCH  12  13
ATOM     13  C   UNL     1      -6.985  -5.101 -10.675  1.00  0.00     0.053 C 
BRANCH  13  14
ATOM     14  C   UNL     1      -6.844  -6.265  -9.745  1.00  0.00     0.041 C 
ATOM     15  O   UNL     1      -6.609  -7.416 -10.199  1.00  0.00    -0.550 OA
ATOM     16  O   UNL     1      -6.945  -6.074  -8.372  1.00  0.00    -0.550 OA
ENDBRANCH  13  14
ENDBRANCH  12  13
ENDBRANCH  11  12
ENDBRANCH  10  11
ENDBRANCH   9  10
ENDBRANCH   8   9
ENDBRANCH   7   8
ENDBRANCH   6   7
ENDBRANCH   5   6
ENDBRANCH   4   5
ENDBRANCH   3   4
ENDBRANCH   2   3
ENDBRANCH   1   2
BRANCH   1  17
ATOM     17  C   UNL     1     -10.727  -7.446 -14.045  1.00  0.00     0.000 C 
BRANCH  17  18
ATOM     18  C   UNL     1      -9.279  -7.349 -14.570  1.00  0.00     0.000 C 
BRANCH  18  19
ATOM     19  C   UNL     1      -8.230  -7.201 -13.454  1.00  0.00     0.000 C 
BRANCH  19  20
ATOM     20  C   UNL     1      -6.794  -7.429 -13.953  1.00  0.00     0.000 C 
BRANCH  20  21
ATOM     21  C   UNL     1      -6.635  -7.114 -15.449  1.00  0.00     0.000 C 
BRANCH  21  22
ATOM     22  C   UNL     1      -5.163  -7.012 -15.873  1.00  0.00    -0.000 C 
BRANCH  22  23
ATOM     23  C   UNL     1      -4.442  -5.906 -15.087  1.00  0.00    -0.000 C 
BRANCH  23  24
ATOM     24  C   UNL     1      -4.808  -4.494 -15.574  1.00  0.00    -0.000 C 
BRANCH  24  25
ATOM     25  C   UNL     1      -4.406  -3.354 -14.619  1.00  0.00    -0.000 C 
BRANCH  25  26
ATOM     26  C   UNL     1      -4.146  -2.008 -15.330  1.00  0.00    -0.000 C 
BRANCH  26  27
ATOM     27  C   UNL     1      -3.951  -2.178 -16.846  1.00  0.00    -0.000 C 
BRANCH  27  28
ATOM     28  C   UNL     1      -2.613  -1.601 -17.341  1.00  0.00    -0.000 C 
BRANCH  28  29
ATOM     29  C   UNL     1      -1.817  -2.580 -18.229  1.00  0.00    -0.003 C 
ATOM     30  C   UNL     1      -1.448  -1.966 -19.579  1.00  0.00     0.004 C 
ENDBRANCH  28  29
ENDBRANCH  27  28
ENDBRANCH  26  27
ENDBRANCH  25  26
ENDBRANCH  24  25
ENDBRANCH  23  24
ENDBRANCH  22  23
ENDBRANCH  21  22
ENDBRANCH  20  21
ENDBRANCH  19  20
ENDBRANCH  18  19
ENDBRANCH  17  18
ENDBRANCH   1  17
TORSDOF 26
ENDMDL
MODEL 3
REMARK VINA RESULT:    -5.108      1.533      2.094
REMARK INTER + INTRA:         -16.182
REMARK INTER:                 -12.952
REMARK INTRA:                  -3.230
REMARK UNBOUND:                -3.311
REMARK SMILES CCCCCCCCCCCCCCCCCCCCCCCCCCCC(=O)[O-]
REMARK SMILES IDX 15 1 16 2 17 3 18 4 19 5 20 6 21 7 22 8 23 9 24 10 25 11
REMARK SMILES IDX 26 12 27 13 28 14 29 15 30 16 14 17 13 18 12 19 11 20 10 21
REMARK SMILES IDX 9 22 8 23 7 24 6 25 5 26 4 27 3 28 2 29 1 30
REMARK H PARENT
REMARK Flexibility Score: inf
ROOT
ATOM      1  C   UNL     1      -7.053   0.857  -8.877  1.00  0.00     0.000 C 
ENDROOT
BRANCH   1   2
ATOM      2  C   UNL     1      -7.027  -0.207  -9.985  1.00  0.00     0.000 C 
BRANCH   2   3
ATOM      3  C   UNL     1      -5.982  -1.307  -9.726  1.00  0.00     0.000 C 
BRANCH   3   4
ATOM      4  C   UNL     1      -6.298  -2.603 -10.491  1.00  0.00     0.000 C 
BRANCH   4   5
ATOM      5  C   UNL     1      -5.272  -3.716 -10.208  1.00  0.00     0.000 C 
BRANCH   5   6
ATOM      6  C   UNL     1      -5.932  -5.046  -9.813  1.00  0.00     0.000 C 
BRANCH   6   7
ATOM      7  C   UNL     1      -7.248  -5.305 -10.566  1.00  0.00     0.000 C 
BRANCH   7   8
ATOM      8  C   UNL     1      -7.030  -6.050 -11.896  1.00  0.00     0.000 C 
BRANCH   8   9
ATOM      9  C   UNL     1      -8.015  -5.669 -13.018  1.00  0.00     0.000 C 
BRANCH   9  10
ATOM     10  C   UNL     1      -7.642  -4.402 -13.812  1.00  0.00     0.000 C 
BRANCH  10  11
ATOM     11  C   UNL     1      -8.862  -3.565 -14.254  1.00  0.00     0.000 C 
BRANCH  11  12
ATOM     12  C   UNL     1      -9.261  -3.844 -15.710  1.00  0.00     0.006 C 
BRANCH  12  13
ATOM     13  C   UNL     1     -10.784  -3.850 -15.870  1.00  0.00     0.053 C 
BRANCH  13  14
ATOM     14  C   UNL     1     -11.393  -4.938 -15.044  1.00  0.00     0.041 C 
ATOM     15  O   UNL     1     -11.030  -6.134 -15.200  1.00  0.00    -0.550 OA
ATOM     16  O   UNL     1     -12.344  -4.628 -14.078  1.00  0.00    -0.550 OA
ENDBRANCH  13  14
ENDBRANCH  12  13
ENDBRANCH  11  12
ENDBRANCH  10  11
ENDBRANCH   9  10
ENDBRANCH   8   9
ENDBRANCH   7   8
ENDBRANCH   6   7
ENDBRANCH   5   6
ENDBRANCH   4   5
ENDBRANCH   3   4
ENDBRANCH   2   3
ENDBRANCH   1   2
BRANCH   1  17
ATOM     17  C   UNL     1      -6.280   2.132  -9.260  1.00  0.00     0.000 C 
BRANCH  17  18
ATOM     18  C   UNL     1      -6.195   2.329 -10.788  1.00  0.00     0.000 C 
BRANCH  18  19
ATOM     19  C   UNL     1      -4.785   2.101 -11.358  1.00  0.00     0.000 C 
BRANCH  19  20
ATOM     20  C   UNL     1      -3.791   1.589 -10.302  1.00  0.00     0.000 C 
BRANCH  20  21
ATOM     21  C   UNL     1      -2.534   0.967 -10.931  1.00  0.00     0.000 C 
BRANCH  21  22
ATOM     22  C   UNL     1      -2.661  -0.552 -11.113  1.00  0.00    -0.000 C 
BRANCH  22  23
ATOM     23  C   UNL     1      -1.808  -1.035 -12.296  1.00  0.00    -0.000 C 
BRANCH  23  24
ATOM     24  C   UNL     1      -2.573  -1.980 -13.237  1.00  0.00    -0.000 C 
BRANCH  24  25
ATOM     25  C   UNL     1      -4.105  -1.817 -13.215  1.00  0.00    -0.000 C 
BRANCH  25  26
ATOM     26  C   UNL     1      -4.782  -2.104 -14.573  1.00  0.00    -0.000 C 
BRANCH  26  27
ATOM     27  C   UNL     1      -3.767  -2.501 -15.658  1.00  0.00    -0.000 C 
BRANCH  27  28
ATOM     28  C   UNL     1      -3.903  -1.656 -16.937  1.00  0.00    -0.000 C 
BRANCH  28  29
ATOM     29  C   UNL     1      -2.548  -1.317 -17.593  1.00  0.00    -0.003 C 
ATOM     30  C   UNL     1      -2.274  -2.171 -18.829  1.00  0.00     0.004 C 
ENDBRANCH  28  29
ENDBRANCH  27  28
ENDBRANCH  26  27
ENDBRANCH  25  26
ENDBRANCH  24  25
ENDBRANCH  23  24
ENDBRANCH  22  23
ENDBRANCH  21  22
ENDBRANCH  20  21
ENDBRANCH  19  20
ENDBRANCH  18  19
ENDBRANCH  17  18
ENDBRANCH   1  17
TORSDOF 26
ENDMDL
MODEL 4
REMARK VINA RESULT:    -5.088      3.404      7.784
REMARK INTER + INTRA:         -16.131
REMARK INTER:                 -11.770
REMARK INTRA:                  -4.361
REMARK UNBOUND:                -3.311
REMARK SMILES CCCCCCCCCCCCCCCCCCCCCCCCCCCC(=O)[O-]
REMARK SMILES IDX 15 1 16 2 17 3 18 4 19 5 20 6 21 7 22 8 23 9 24 10 25 11
REMARK SMILES IDX 26 12 27 13 28 14 29 15 30 16 14 17 13 18 12 19 11 20 10 21
REMARK SMILES IDX 9 22 8 23 7 24 6 25 5 26 4 27 3 28 2 29 1 30
REMARK H PARENT
REMARK Flexibility Score: inf
ROOT
ATOM      1  C   UNL     1      -9.056  -3.490 -14.227  1.00  0.00     0.000 C 
ENDROOT
BRANCH   1   2
ATOM      2  C   UNL     1      -7.798  -2.758 -13.735  1.00  0.00     0.000 C 
BRANCH   2   3
ATOM      3  C   UNL     1      -8.045  -1.953 -12.447  1.00  0.00     0.000 C 
BRANCH   3   4
ATOM      4  C   UNL     1      -6.795  -1.880 -11.555  1.00  0.00     0.000 C 
BRANCH   4   5
ATOM      5  C   UNL     1      -6.989  -0.942 -10.350  1.00  0.00     0.000 C 
BRANCH   5   6
ATOM      6  C   UNL     1      -5.936  -1.160  -9.252  1.00  0.00     0.000 C 
BRANCH   6   7
ATOM      7  C   UNL     1      -4.725  -1.973  -9.741  1.00  0.00     0.000 C 
BRANCH   7   8
ATOM      8  C   UNL     1      -3.384  -1.288  -9.417  1.00  0.00     0.000 C 
BRANCH   8   9
ATOM      9  C   UNL     1      -2.677  -0.650 -10.628  1.00  0.00     0.000 C 
BRANCH   9  10
ATOM     10  C   UNL     1      -3.570   0.245 -11.509  1.00  0.00     0.000 C 
BRANCH  10  11
ATOM     11  C   UNL     1      -3.476   1.747 -11.165  1.00  0.00     0.000 C 
BRANCH  11  12
ATOM     12  C   UNL     1      -4.610   2.203 -10.235  1.00  0.00     0.006 C 
BRANCH  12  13
ATOM     13  C   UNL     1      -5.931   2.324 -10.999  1.00  0.00     0.053 C 
BRANCH  13  14
ATOM     14  C   UNL     1      -6.972   2.978 -10.147  1.00  0.00     0.041 C 
ATOM     15  O   UNL     1      -7.291   2.477  -9.037  1.00  0.00    -0.550 OA
ATOM     16  O   UNL     1      -7.570   4.161 -10.566  1.00  0.00    -0.550 OA
ENDBRANCH  13  14
ENDBRANCH  12  13
ENDBRANCH  11  12
ENDBRANCH  10  11
ENDBRANCH   9  10
ENDBRANCH   8   9
ENDBRANCH   7   8
ENDBRANCH   6   7
ENDBRANCH   5   6
ENDBRANCH   4   5
ENDBRANCH   3   4
ENDBRANCH   2   3
ENDBRANCH   1   2
BRANCH   1  17
ATOM     17  C   UNL     1      -8.957  -3.916 -15.702  1.00  0.00     0.000 C 
BRANCH  17  18
ATOM     18  C   UNL     1      -9.721  -5.226 -15.987  1.00  0.00     0.000 C 
BRANCH  18  19
ATOM     19  C   UNL     1     -10.590  -5.698 -14.808  1.00  0.00     0.000 C 
BRANCH  19  20
ATOM     20  C   UNL     1     -10.100  -7.023 -14.201  1.00  0.00     0.000 C 
BRANCH  20  21
ATOM     21  C   UNL     1      -8.664  -7.368 -14.626  1.00  0.00     0.000 C 
BRANCH  21  22
ATOM     22  C   UNL     1      -7.623  -6.914 -13.593  1.00  0.00    -0.000 C 
BRANCH  22  23
ATOM     23  C   UNL     1      -6.407  -6.278 -14.283  1.00  0.00    -0.000 C 
BRANCH  23  24
ATOM     24  C   UNL     1      -5.514  -5.490 -13.311  1.00  0.00    -0.000 C 
BRANCH  24  25
ATOM     25  C   UNL     1      -4.324  -4.762 -13.967  1.00  0.00    -0.000 C 
BRANCH  25  26
ATOM     26  C   UNL     1      -3.968  -3.419 -13.294  1.00  0.00    -0.000 C 
BRANCH  26  27
ATOM     27  C   UNL     1      -4.192  -2.220 -14.231  1.00  0.00    -0.000 C 
BRANCH  27  28
ATOM     28  C   UNL     1      -4.531  -2.646 -15.670  1.00  0.00    -0.000 C 
BRANCH  28  29
ATOM     29  C   UNL     1      -3.660  -1.947 -16.735  1.00  0.00    -0.003 C 
ATOM     30  C   UNL     1      -3.318  -2.874 -17.901  1.00  0.00     0.004 C 
ENDBRANCH  28  29
ENDBRANCH  27  28
ENDBRANCH  26  27
ENDBRANCH  25  26
ENDBRANCH  24  25
ENDBRANCH  23  24
ENDBRANCH  22  23
ENDBRANCH  21  22
ENDBRANCH  20  21
ENDBRANCH  19  20
ENDBRANCH  18  19
ENDBRANCH  17  18
ENDBRANCH   1  17
TORSDOF 26
ENDMDL
MODEL 5
REMARK VINA RESULT:    -5.082      3.278      7.239
REMARK INTER + INTRA:         -16.117
REMARK INTER:                 -12.988
REMARK INTRA:                  -3.129
REMARK UNBOUND:                -3.311
REMARK SMILES CCCCCCCCCCCCCCCCCCCCCCCCCCCC(=O)[O-]
REMARK SMILES IDX 15 1 16 2 17 3 18 4 19 5 20 6 21 7 22 8 23 9 24 10 25 11
REMARK SMILES IDX 26 12 27 13 28 14 29 15 30 16 14 17 13 18 12 19 11 20 10 21
REMARK SMILES IDX 9 22 8 23 7 24 6 25 5 26 4 27 3 28 2 29 1 30
REMARK H PARENT
REMARK Flexibility Score: inf
ROOT
ATOM      1  C   UNL     1      -6.018   2.397 -10.389  1.00  0.00     0.000 C 
ENDROOT
BRANCH   1   2
ATOM      2  C   UNL     1      -4.750   2.030 -11.175  1.00  0.00     0.000 C 
BRANCH   2   3
ATOM      3  C   UNL     1      -3.505   1.926 -10.276  1.00  0.00     0.000 C 
BRANCH   3   4
ATOM      4  C   UNL     1      -2.696   0.646 -10.545  1.00  0.00     0.000 C 
BRANCH   4   5
ATOM      5  C   UNL     1      -3.348  -0.602  -9.922  1.00  0.00     0.000 C 
BRANCH   5   6
ATOM      6  C   UNL     1      -3.460  -1.771 -10.913  1.00  0.00     0.000 C 
BRANCH   6   7
ATOM      7  C   UNL     1      -3.474  -1.309 -12.380  1.00  0.00     0.000 C 
BRANCH   7   8
ATOM      8  C   UNL     1      -3.726  -2.468 -13.362  1.00  0.00     0.000 C 
BRANCH   8   9
ATOM      9  C   UNL     1      -4.262  -2.040 -14.742  1.00  0.00     0.000 C 
BRANCH   9  10
ATOM     10  C   UNL     1      -4.746  -3.195 -15.641  1.00  0.00     0.000 C 
BRANCH  10  11
ATOM     11  C   UNL     1      -3.843  -3.447 -16.867  1.00  0.00     0.000 C 
BRANCH  11  12
ATOM     12  C   UNL     1      -3.265  -2.146 -17.442  1.00  0.00     0.006 C 
BRANCH  12  13
ATOM     13  C   UNL     1      -1.988  -2.419 -18.242  1.00  0.00     0.053 C 
BRANCH  13  14
ATOM     14  C   UNL     1      -1.079  -1.233 -18.200  1.00  0.00     0.041 C 
ATOM     15  O   UNL     1      -0.065  -1.183 -18.946  1.00  0.00    -0.550 OA
ATOM     16  O   UNL     1      -1.367  -0.166 -17.358  1.00  0.00    -0.550 OA
ENDBRANCH  13  14
ENDBRANCH  12  13
ENDBRANCH  11  12
ENDBRANCH  10  11
ENDBRANCH   9  10
ENDBRANCH   8   9
ENDBRANCH   7   8
ENDBRANCH   6   7
ENDBRANCH   5   6
ENDBRANCH   4   5
ENDBRANCH   3   4
ENDBRANCH   2   3
ENDBRANCH   1   2
BRANCH   1  17
ATOM     17  C   UNL     1      -6.037   1.790  -8.974  1.00  0.00     0.000 C 
BRANCH  17  18
ATOM     18  C   UNL     1      -7.120   0.702  -8.818  1.00  0.00     0.000 C 
BRANCH  18  19
ATOM     19  C   UNL     1      -6.744  -0.637  -9.475  1.00  0.00     0.000 C 
BRANCH  19  20
ATOM     20  C   UNL     1      -7.226  -0.742 -10.931  1.00  0.00     0.000 C 
BRANCH  20  21
ATOM     21  C   UNL     1      -7.303  -2.197 -11.421  1.00  0.00     0.000 C 
BRANCH  21  22
ATOM     22  C   UNL     1      -8.100  -2.334 -12.726  1.00  0.00    -0.000 C 
BRANCH  22  23
ATOM     23  C   UNL     1      -7.632  -3.557 -13.528  1.00  0.00    -0.000 C 
BRANCH  23  24
ATOM     24  C   UNL     1      -8.349  -3.693 -14.882  1.00  0.00    -0.000 C 
BRANCH  24  25
ATOM     25  C   UNL     1      -8.720  -5.135 -15.278  1.00  0.00    -0.000 C 
BRANCH  25  26
ATOM     26  C   UNL     1      -9.447  -5.919 -14.165  1.00  0.00    -0.000 C 
BRANCH  26  27
ATOM     27  C   UNL     1     -10.897  -6.263 -14.545  1.00  0.00    -0.000 C 
BRANCH  27  28
ATOM     28  C   UNL     1     -11.874  -5.108 -14.265  1.00  0.00    -0.000 C 
BRANCH  28  29
ATOM     29  C   UNL     1     -12.406  -4.433 -15.547  1.00  0.00    -0.003 C 
ATOM     30  C   UNL     1     -13.729  -3.704 -15.310  1.00  0.00     0.004 C 
ENDBRANCH  28  29
ENDBRANCH  27  28
ENDBRANCH  26  27
ENDBRANCH  25  26
ENDBRANCH  24  25
ENDBRANCH  23  24
ENDBRANCH  22  23
ENDBRANCH  21  22
ENDBRANCH  20  21
ENDBRANCH  19  20
ENDBRANCH  18  19
ENDBRANCH  17  18
ENDBRANCH   1  17
TORSDOF 26
ENDMDL
MODEL 6
REMARK VINA RESULT:    -5.022      4.273      7.843
REMARK INTER + INTRA:         -15.967
REMARK INTER:                 -10.073
REMARK INTRA:                  -5.894
REMARK UNBOUND:                -3.311
REMARK SMILES CCCCCCCCCCCCCCCCCCCCCCCCCCCC(=O)[O-]
REMARK SMILES IDX 15 1 16 2 17 3 18 4 19 5 20 6 21 7 22 8 23 9 24 10 25 11
REMARK SMILES IDX 26 12 27 13 28 14 29 15 30 16 14 17 13 18 12 19 11 20 10 21
REMARK SMILES IDX 9 22 8 23 7 24 6 25 5 26 4 27 3 28 2 29 1 30
REMARK H PARENT
REMARK Flexibility Score: inf
ROOT
ATOM      1  C   UNL     1      -8.061  -1.725 -12.015  1.00  0.00     0.000 C 
ENDROOT
BRANCH   1   2
ATOM      2  C   UNL     1      -6.868  -0.959 -11.423  1.00  0.00     0.000 C 
BRANCH   2   3
ATOM      3  C   UNL     1      -6.788  -1.078  -9.891  1.00  0.00     0.000 C 
BRANCH   3   4
ATOM      4  C   UNL     1      -7.287   0.191  -9.180  1.00  0.00     0.000 C 
BRANCH   4   5
ATOM      5  C   UNL     1      -6.204   0.830  -8.292  1.00  0.00     0.000 C 
BRANCH   5   6
ATOM      6  C   UNL     1      -5.749   2.204  -8.807  1.00  0.00     0.000 C 
BRANCH   6   7
ATOM      7  C   UNL     1      -6.332   2.546 -10.188  1.00  0.00     0.000 C 
BRANCH   7   8
ATOM      8  C   UNL     1      -5.290   2.425 -11.315  1.00  0.00     0.000 C 
BRANCH   8   9
ATOM      9  C   UNL     1      -3.908   1.911 -10.865  1.00  0.00     0.000 C 
BRANCH   9  10
ATOM     10  C   UNL     1      -3.563   0.481 -11.324  1.00  0.00     0.000 C 
BRANCH  10  11
ATOM     11  C   UNL     1      -2.487  -0.207 -10.455  1.00  0.00     0.000 C 
BRANCH  11  12
ATOM     12  C   UNL     1      -3.025  -0.610  -9.075  1.00  0.00     0.006 C 
BRANCH  12  13
ATOM     13  C   UNL     1      -2.058  -0.189  -7.965  1.00  0.00     0.053 C 
BRANCH  13  14
ATOM     14  C   UNL     1      -2.512   1.086  -7.328  1.00  0.00     0.041 C 
ATOM     15  O   UNL     1      -2.130   2.195  -7.786  1.00  0.00    -0.550 OA
ATOM     16  O   UNL     1      -3.383   1.051  -6.246  1.00  0.00    -0.550 OA
ENDBRANCH  13  14
ENDBRANCH  12  13
ENDBRANCH  11  12
ENDBRANCH  10  11
ENDBRANCH   9  10
ENDBRANCH   8   9
ENDBRANCH   7   8
ENDBRANCH   6   7
ENDBRANCH   5   6
ENDBRANCH   4   5
ENDBRANCH   3   4
ENDBRANCH   2   3
ENDBRANCH   1   2
BRANCH   1  17
ATOM     17  C   UNL     1      -7.639  -3.024 -12.724  1.00  0.00     0.000 C 
BRANCH  17  18
ATOM     18  C   UNL     1      -7.386  -2.813 -14.232  1.00  0.00     0.000 C 
BRANCH  18  19
ATOM     19  C   UNL     1      -6.043  -3.388 -14.715  1.00  0.00     0.000 C 
BRANCH  19  20
ATOM     20  C   UNL     1      -4.947  -2.316 -14.838  1.00  0.00     0.000 C 
BRANCH  20  21
ATOM     21  C   UNL     1      -4.074  -2.220 -13.576  1.00  0.00     0.000 C 
BRANCH  21  22
ATOM     22  C   UNL     1      -3.969  -3.560 -12.835  1.00  0.00    -0.000 C 
BRANCH  22  23
ATOM     23  C   UNL     1      -4.208  -3.374 -11.329  1.00  0.00    -0.000 C 
BRANCH  23  24
ATOM     24  C   UNL     1      -4.681  -4.662 -10.636  1.00  0.00    -0.000 C 
BRANCH  24  25
ATOM     25  C   UNL     1      -6.025  -4.543  -9.891  1.00  0.00    -0.000 C 
BRANCH  25  26
ATOM     26  C   UNL     1      -6.994  -5.713 -10.163  1.00  0.00    -0.000 C 
BRANCH  26  27
ATOM     27  C   UNL     1      -6.470  -6.663 -11.254  1.00  0.00    -0.000 C 
BRANCH  27  28
ATOM     28  C   UNL     1      -7.318  -6.620 -12.537  1.00  0.00    -0.000 C 
BRANCH  28  29
ATOM     29  C   UNL     1      -6.482  -6.756 -13.827  1.00  0.00    -0.003 C 
ATOM     30  C   UNL     1      -4.999  -6.977 -13.533  1.00  0.00     0.004 C 
ENDBRANCH  28  29
ENDBRANCH  27  28
ENDBRANCH  26  27
ENDBRANCH  25  26
ENDBRANCH  24  25
ENDBRANCH  23  24
ENDBRANCH  22  23
ENDBRANCH  21  22
ENDBRANCH  20  21
ENDBRANCH  19  20
ENDBRANCH  18  19
ENDBRANCH  17  18
ENDBRANCH   1  17
TORSDOF 26
ENDMDL
MODEL 7
REMARK VINA RESULT:    -4.968      1.598      6.096
REMARK INTER + INTRA:         -15.829
REMARK INTER:                 -11.677
REMARK INTRA:                  -4.152
REMARK UNBOUND:                -3.311
REMARK SMILES CCCCCCCCCCCCCCCCCCCCCCCCCCCC(=O)[O-]
REMARK SMILES IDX 15 1 16 2 17 3 18 4 19 5 20 6 21 7 22 8 23 9 24 10 25 11
REMARK SMILES IDX 26 12 27 13 28 14 29 15 30 16 14 17 13 18 12 19 11 20 10 21
REMARK SMILES IDX 9 22 8 23 7 24 6 25 5 26 4 27 3 28 2 29 1 30
REMARK H PARENT
REMARK Flexibility Score: inf
ROOT
ATOM      1  C   UNL     1      -0.476  -1.774 -16.673  1.00  0.00     0.000 C 
ENDROOT
BRANCH   1   2
ATOM      2  C   UNL     1      -1.345  -1.082 -17.734  1.00  0.00     0.000 C 
BRANCH   2   3
ATOM      3  C   UNL     1      -2.182  -2.077 -18.556  1.00  0.00     0.000 C 
BRANCH   3   4
ATOM      4  C   UNL     1      -3.350  -2.665 -17.746  1.00  0.00     0.000 C 
BRANCH   4   5
ATOM      5  C   UNL     1      -3.952  -1.647 -16.760  1.00  0.00     0.000 C 
BRANCH   5   6
ATOM      6  C   UNL     1      -4.715  -2.317 -15.607  1.00  0.00     0.000 C 
BRANCH   6   7
ATOM      7  C   UNL     1      -4.094  -3.658 -15.181  1.00  0.00     0.000 C 
BRANCH   7   8
ATOM      8  C   UNL     1      -5.155  -4.738 -14.899  1.00  0.00     0.000 C 
BRANCH   8   9
ATOM      9  C   UNL     1      -6.589  -4.357 -15.315  1.00  0.00     0.000 C 
BRANCH   9  10
ATOM     10  C   UNL     1      -7.616  -4.334 -14.166  1.00  0.00     0.000 C 
BRANCH  10  11
ATOM     11  C   UNL     1      -8.898  -3.539 -14.496  1.00  0.00     0.000 C 
BRANCH  11  12
ATOM     12  C   UNL     1      -9.480  -3.915 -15.866  1.00  0.00     0.006 C 
BRANCH  12  13
ATOM     13  C   UNL     1     -11.011  -3.903 -15.835  1.00  0.00     0.053 C 
BRANCH  13  14
ATOM     14  C   UNL     1     -11.524  -4.939 -14.885  1.00  0.00     0.041 C 
ATOM     15  O   UNL     1     -12.342  -4.622 -13.982  1.00  0.00    -0.550 OA
ATOM     16  O   UNL     1     -11.120  -6.262 -15.015  1.00  0.00    -0.550 OA
ENDBRANCH  13  14
ENDBRANCH  12  13
ENDBRANCH  11  12
ENDBRANCH  10  11
ENDBRANCH   9  10
ENDBRANCH   8   9
ENDBRANCH   7   8
ENDBRANCH   6   7
ENDBRANCH   5   6
ENDBRANCH   4   5
ENDBRANCH   3   4
ENDBRANCH   2   3
ENDBRANCH   1   2
BRANCH   1  17
ATOM     17  C   UNL     1      -0.522  -1.062 -15.309  1.00  0.00     0.000 C 
BRANCH  17  18
ATOM     18  C   UNL     1      -1.149  -1.943 -14.208  1.00  0.00     0.000 C 
BRANCH  18  19
ATOM     19  C   UNL     1      -1.517  -1.163 -12.934  1.00  0.00     0.000 C 
BRANCH  19  20
ATOM     20  C   UNL     1      -3.002  -1.303 -12.559  1.00  0.00     0.000 C 
BRANCH  20  21
ATOM     21  C   UNL     1      -3.203  -2.037 -11.224  1.00  0.00     0.000 C 
BRANCH  21  22
ATOM     22  C   UNL     1      -4.596  -2.673 -11.110  1.00  0.00    -0.000 C 
BRANCH  22  23
ATOM     23  C   UNL     1      -5.600  -1.962 -12.030  1.00  0.00    -0.000 C 
BRANCH  23  24
ATOM     24  C   UNL     1      -6.757  -1.308 -11.257  1.00  0.00    -0.000 C 
BRANCH  24  25
ATOM     25  C   UNL     1      -6.413  -0.867  -9.821  1.00  0.00    -0.000 C 
BRANCH  25  26
ATOM     26  C   UNL     1      -7.158   0.405  -9.364  1.00  0.00    -0.000 C 
BRANCH  26  27
ATOM     27  C   UNL     1      -6.286   1.666  -9.480  1.00  0.00    -0.000 C 
BRANCH  27  28
ATOM     28  C   UNL     1      -4.823   1.346  -9.834  1.00  0.00    -0.000 C 
BRANCH  28  29
ATOM     29  C   UNL     1      -4.387   1.912 -11.201  1.00  0.00    -0.003 C 
ATOM     30  C   UNL     1      -2.881   2.169 -11.267  1.00  0.00     0.004 C 
ENDBRANCH  28  29
ENDBRANCH  27  28
ENDBRANCH  26  27
ENDBRANCH  25  26
ENDBRANCH  24  25
ENDBRANCH  23  24
ENDBRANCH  22  23
ENDBRANCH  21  22
ENDBRANCH  20  21
ENDBRANCH  19  20
ENDBRANCH  18  19
ENDBRANCH  17  18
ENDBRANCH   1  17
TORSDOF 26
ENDMDL
MODEL 8
REMARK VINA RESULT:    -4.961      2.770      4.579
REMARK INTER + INTRA:         -15.812
REMARK INTER:                 -11.536
REMARK INTRA:                  -4.276
REMARK UNBOUND:                -3.311
REMARK SMILES CCCCCCCCCCCCCCCCCCCCCCCCCCCC(=O)[O-]
REMARK SMILES IDX 15 1 16 2 17 3 18 4 19 5 20 6 21 7 22 8 23 9 24 10 25 11
REMARK SMILES IDX 26 12 27 13 28 14 29 15 30 16 14 17 13 18 12 19 11 20 10 21
REMARK SMILES IDX 9 22 8 23 7 24 6 25 5 26 4 27 3 28 2 29 1 30
REMARK H PARENT
REMARK Flexibility Score: inf
ROOT
ATOM      1  C   UNL     1      -7.178   0.347  -8.632  1.00  0.00     0.000 C 
ENDROOT
BRANCH   1   2
ATOM      2  C   UNL     1      -6.620  -0.805  -9.482  1.00  0.00     0.000 C 
BRANCH   2   3
ATOM      3  C   UNL     1      -7.008  -0.686 -10.967  1.00  0.00     0.000 C 
BRANCH   3   4
ATOM      4  C   UNL     1      -7.718  -1.947 -11.487  1.00  0.00     0.000 C 
BRANCH   4   5
ATOM      5  C   UNL     1      -7.695  -2.042 -13.023  1.00  0.00     0.000 C 
BRANCH   5   6
ATOM      6  C   UNL     1      -8.101  -3.432 -13.538  1.00  0.00     0.000 C 
BRANCH   6   7
ATOM      7  C   UNL     1      -6.993  -4.110 -14.361  1.00  0.00     0.000 C 
BRANCH   7   8
ATOM      8  C   UNL     1      -7.063  -5.647 -14.293  1.00  0.00     0.000 C 
BRANCH   8   9
ATOM      9  C   UNL     1      -8.098  -6.203 -13.297  1.00  0.00     0.000 C 
BRANCH   9  10
ATOM     10  C   UNL     1      -8.838  -7.471 -13.764  1.00  0.00     0.000 C 
BRANCH  10  11
ATOM     11  C   UNL     1      -9.641  -7.276 -15.068  1.00  0.00     0.000 C 
BRANCH  11  12
ATOM     12  C   UNL     1     -10.216  -5.858 -15.191  1.00  0.00     0.006 C 
BRANCH  12  13
ATOM     13  C   UNL     1     -11.562  -5.747 -14.472  1.00  0.00     0.053 C 
BRANCH  13  14
ATOM     14  C   UNL     1     -12.323  -4.555 -14.963  1.00  0.00     0.041 C 
ATOM     15  O   UNL     1     -11.882  -3.874 -15.926  1.00  0.00    -0.550 OA
ATOM     16  O   UNL     1     -13.535  -4.214 -14.375  1.00  0.00    -0.550 OA
ENDBRANCH  13  14
ENDBRANCH  12  13
ENDBRANCH  11  12
ENDBRANCH  10  11
ENDBRANCH   9  10
ENDBRANCH   8   9
ENDBRANCH   7   8
ENDBRANCH   6   7
ENDBRANCH   5   6
ENDBRANCH   4   5
ENDBRANCH   3   4
ENDBRANCH   2   3
ENDBRANCH   1   2
BRANCH   1  17
ATOM     17  C   UNL     1      -6.606   1.717  -9.037  1.00  0.00     0.000 C 
BRANCH  17  18
ATOM     18  C   UNL     1      -5.378   2.113  -8.191  1.00  0.00     0.000 C 
BRANCH  18  19
ATOM     19  C   UNL     1      -4.046   1.995  -8.951  1.00  0.00     0.000 C 
BRANCH  19  20
ATOM     20  C   UNL     1      -4.216   2.120 -10.475  1.00  0.00     0.000 C 
BRANCH  20  21
ATOM     21  C   UNL     1      -3.738   0.867 -11.225  1.00  0.00     0.000 C 
BRANCH  21  22
ATOM     22  C   UNL     1      -2.846  -0.030 -10.355  1.00  0.00    -0.000 C 
BRANCH  22  23
ATOM     23  C   UNL     1      -3.158  -1.514 -10.599  1.00  0.00    -0.000 C 
BRANCH  23  24
ATOM     24  C   UNL     1      -3.780  -1.774 -11.981  1.00  0.00    -0.000 C 
BRANCH  24  25
ATOM     25  C   UNL     1      -4.255  -3.221 -12.217  1.00  0.00    -0.000 C 
BRANCH  25  26
ATOM     26  C   UNL     1      -4.362  -4.061 -10.926  1.00  0.00    -0.000 C 
BRANCH  26  27
ATOM     27  C   UNL     1      -5.617  -4.948 -10.910  1.00  0.00    -0.000 C 
BRANCH  27  28
ATOM     28  C   UNL     1      -6.273  -5.024  -9.520  1.00  0.00    -0.000 C 
BRANCH  28  29
ATOM     29  C   UNL     1      -6.694  -6.454  -9.120  1.00  0.00    -0.003 C 
ATOM     30  C   UNL     1      -7.569  -6.470  -7.867  1.00  0.00     0.004 C 
ENDBRANCH  28  29
ENDBRANCH  27  28
ENDBRANCH  26  27
ENDBRANCH  25  26
ENDBRANCH  24  25
ENDBRANCH  23  24
ENDBRANCH  22  23
ENDBRANCH  21  22
ENDBRANCH  20  21
ENDBRANCH  19  20
ENDBRANCH  18  19
ENDBRANCH  17  18
ENDBRANCH   1  17
TORSDOF 26
ENDMDL
MODEL 9
REMARK VINA RESULT:    -4.948      2.125      5.895
REMARK INTER + INTRA:         -15.780
REMARK INTER:                 -10.680
REMARK INTRA:                  -5.100
REMARK UNBOUND:                -3.311
REMARK SMILES CCCCCCCCCCCCCCCCCCCCCCCCCCCC(=O)[O-]
REMARK SMILES IDX 15 1 16 2 17 3 18 4 19 5 20 6 21 7 22 8 23 9 24 10 25 11
REMARK SMILES IDX 26 12 27 13 28 14 29 15 30 16 14 17 13 18 12 19 11 20 10 21
REMARK SMILES IDX 9 22 8 23 7 24 6 25 5 26 4 27 3 28 2 29 1 30
REMARK H PARENT
REMARK Flexibility Score: inf
ROOT
ATOM      1  C   UNL     1      -4.007  -2.550 -16.301  1.00  0.00     0.000 C 
ENDROOT
BRANCH   1   2
ATOM      2  C   UNL     1      -4.764  -2.038 -15.066  1.00  0.00     0.000 C 
BRANCH   2   3
ATOM      3  C   UNL     1      -4.963  -3.128 -13.998  1.00  0.00     0.000 C 
BRANCH   3   4
ATOM      4  C   UNL     1      -4.082  -4.363 -14.255  1.00  0.00     0.000 C 
BRANCH   4   5
ATOM      5  C   UNL     1      -3.529  -4.969 -12.952  1.00  0.00     0.000 C 
BRANCH   5   6
ATOM      6  C   UNL     1      -3.960  -4.185 -11.702  1.00  0.00     0.000 C 
BRANCH   6   7
ATOM      7  C   UNL     1      -4.871  -5.003 -10.771  1.00  0.00     0.000 C 
BRANCH   7   8
ATOM      8  C   UNL     1      -5.266  -6.363 -11.377  1.00  0.00     0.000 C 
BRANCH   8   9
ATOM      9  C   UNL     1      -6.776  -6.544 -11.626  1.00  0.00     0.000 C 
BRANCH   9  10
ATOM     10  C   UNL     1      -7.463  -5.371 -12.352  1.00  0.00     0.000 C 
BRANCH  10  11
ATOM     11  C   UNL     1      -8.264  -5.799 -13.601  1.00  0.00     0.000 C 
BRANCH  11  12
ATOM     12  C   UNL     1      -7.744  -5.130 -14.882  1.00  0.00     0.006 C 
BRANCH  12  13
ATOM     13  C   UNL     1      -8.510  -3.837 -15.176  1.00  0.00     0.053 C 
BRANCH  13  14
ATOM     14  C   UNL     1      -9.561  -4.075 -16.214  1.00  0.00     0.041 C 
ATOM     15  O   UNL     1     -10.233  -3.112 -16.669  1.00  0.00    -0.550 OA
ATOM     16  O   UNL     1      -9.778  -5.358 -16.702  1.00  0.00    -0.550 OA
ENDBRANCH  13  14
ENDBRANCH  12  13
ENDBRANCH  11  12
ENDBRANCH  10  11
ENDBRANCH   9  10
ENDBRANCH   8   9
ENDBRANCH   7   8
ENDBRANCH   6   7
ENDBRANCH   5   6
ENDBRANCH   4   5
ENDBRANCH   3   4
ENDBRANCH   2   3
ENDBRANCH   1   2
BRANCH   1  17
ATOM     17  C   UNL     1      -3.654  -1.425 -17.291  1.00  0.00     0.000 C 
BRANCH  17  18
ATOM     18  C   UNL     1      -2.801  -1.930 -18.473  1.00  0.00     0.000 C 
BRANCH  18  19
ATOM     19  C   UNL     1      -1.334  -1.468 -18.412  1.00  0.00     0.000 C 
BRANCH  19  20
ATOM     20  C   UNL     1      -1.072  -0.469 -17.273  1.00  0.00     0.000 C 
BRANCH  20  21
ATOM     21  C   UNL     1      -0.122  -1.034 -16.204  1.00  0.00     0.000 C 
BRANCH  21  22
ATOM     22  C   UNL     1      -0.615  -0.754 -14.777  1.00  0.00    -0.000 C 
BRANCH  22  23
ATOM     23  C   UNL     1      -1.142  -2.037 -14.117  1.00  0.00    -0.000 C 
BRANCH  23  24
ATOM     24  C   UNL     1      -1.318  -1.897 -12.596  1.00  0.00    -0.000 C 
BRANCH  24  25
ATOM     25  C   UNL     1      -1.884  -0.542 -12.130  1.00  0.00    -0.000 C 
BRANCH  25  26
ATOM     26  C   UNL     1      -2.994  -0.663 -11.065  1.00  0.00    -0.000 C 
BRANCH  26  27
ATOM     27  C   UNL     1      -4.398  -0.463 -11.660  1.00  0.00    -0.000 C 
BRANCH  27  28
ATOM     28  C   UNL     1      -5.485  -0.312 -10.581  1.00  0.00    -0.000 C 
BRANCH  28  29
ATOM     29  C   UNL     1      -6.346  -1.579 -10.399  1.00  0.00    -0.003 C 
ATOM     30  C   UNL     1      -7.392  -1.730 -11.502  1.00  0.00     0.004 C 
ENDBRANCH  28  29
ENDBRANCH  27  28
ENDBRANCH  26  27
ENDBRANCH  25  26
ENDBRANCH  24  25
ENDBRANCH  23  24
ENDBRANCH  22  23
ENDBRANCH  21  22
ENDBRANCH  20  21
ENDBRANCH  19  20
ENDBRANCH  18  19
ENDBRANCH  17  18
ENDBRANCH   1  17
TORSDOF 26
ENDMDL
