MODEL 1
REMARK VINA RESULT:    -4.051      0.000      0.000
REMARK INTER + INTRA:         -10.299
REMARK INTER:                  -7.840
REMARK INTRA:                  -2.458
REMARK UNBOUND:                -2.458
REMARK SMILES CCCCCCCCCCCCCCCCCC(=O)[O-]
REMARK SMILES IDX 10 1 11 2 12 3 13 4 14 5 15 6 16 7 17 8 18 9 19 10 20 11
REMARK SMILES IDX 9 12 8 13 7 14 6 15 5 16 4 17 3 18 2 19 1 20
REMARK H PARENT
REMARK Flexibility Score: inf
ROOT
ATOM      1  C   UNL     1     -10.166  15.828   0.804  1.00  0.00     0.000 C 
ENDROOT
BRANCH   1   2
ATOM      2  C   UNL     1      -9.500  16.875  -0.113  1.00  0.00     0.000 C 
BRANCH   2   3
ATOM      3  C   UNL     1      -9.781  16.656  -1.613  1.00  0.00     0.000 C 
BRANCH   3   4
ATOM      4  C   UNL     1     -10.254  15.238  -1.981  1.00  0.00     0.000 C 
BRANCH   4   5
ATOM      5  C   UNL     1      -9.447  14.559  -3.104  1.00  0.00     0.000 C 
BRANCH   5   6
ATOM      6  C   UNL     1      -8.678  15.550  -4.005  1.00  0.00     0.000 C 
BRANCH   6   7
ATOM      7  C   UNL     1      -7.572  14.858  -4.819  1.00  0.00     0.006 C 
BRANCH   7   8
ATOM      8  C   UNL     1      -7.393  15.485  -6.209  1.00  0.00     0.053 C 
BRANCH   8   9
ATOM      9  C   UNL     1      -7.578  14.480  -7.303  1.00  0.00     0.041 C 
ATOM     10  O   UNL     1      -7.075  13.331  -7.200  1.00  0.00    -0.550 OA
ATOM     11  O   UNL     1      -8.331  14.803  -8.425  1.00  0.00    -0.550 OA
ENDBRANCH   8   9
ENDBRANCH   7   8
ENDBRANCH   6   7
ENDBRANCH   5   6
ENDBRANCH   4   5
ENDBRANCH   3   4
ENDBRANCH   2   3
ENDBRANCH   1   2
BRANCH   1  12
ATOM     12  C   UNL     1      -9.920  16.117   2.293  1.00  0.00     0.000 C 
BRANCH  12  13
ATOM     13  C   UNL     1      -9.778  17.623   2.547  1.00  0.00    -0.000 C 
BRANCH  13  14
ATOM     14  C   UNL     1      -8.488  17.929   3.320  1.00  0.00    -0.000 C 
BRANCH  14  15
ATOM     15  C   UNL     1      -7.381  16.899   3.045  1.00  0.00    -0.000 C 
BRANCH  15  16
ATOM     16  C   UNL     1      -6.495  17.289   1.849  1.00  0.00    -0.000 C 
BRANCH  16  17
ATOM     17  C   UNL     1      -5.774  16.069   1.236  1.00  0.00    -0.000 C 
BRANCH  17  18
ATOM     18  C   UNL     1      -6.608  14.772   1.281  1.00  0.00    -0.000 C 
BRANCH  18  19
ATOM     19  C   UNL     1      -6.913  14.158  -0.095  1.00  0.00    -0.003 C 
ATOM     20  C   UNL     1      -6.211  14.890  -1.238  1.00  0.00     0.004 C 
ENDBRANCH  18  19
ENDBRANCH  17  18
ENDBRANCH  16  17
ENDBRANCH  15  16
ENDBRANCH  14  15
ENDBRANCH  13  14
ENDBRANCH  12  13
ENDBRANCH   1  12
TORSDOF 16
ENDMDL
MODEL 2
REMARK VINA RESULT:    -3.970      4.507      8.192
REMARK INTER + INTRA:         -10.141
REMARK INTER:                  -8.406
REMARK INTRA:                  -1.736
REMARK UNBOUND:                -2.458
REMARK SMILES CCCCCCCCCCCCCCCCCC(=O)[O-]
REMARK SMILES IDX 10 1 11 2 12 3 13 4 14 5 15 6 16 7 17 8 18 9 19 10 20 11
REMARK SMILES IDX 9 12 8 13 7 14 6 15 5 16 4 17 3 18 2 19 1 20
REMARK H PARENT
REMARK Flexibility Score: inf
ROOT
ATOM      1  C   UNL     1      -8.750  16.432  -3.072  1.00  0.00     0.000 C 
ENDROOT
BRANCH   1   2
ATOM      2  C   UNL     1      -9.071  17.363  -1.883  1.00  0.00     0.000 C 
BRANCH   2   3
ATOM      3  C   UNL     1      -9.862  16.676  -0.753  1.00  0.00     0.000 C 
BRANCH   3   4
ATOM      4  C   UNL     1      -9.060  16.422   0.536  1.00  0.00     0.000 C 
BRANCH   4   5
ATOM      5  C   UNL     1      -7.531  16.519   0.376  1.00  0.00     0.000 C 
BRANCH   5   6
ATOM      6  C   UNL     1      -6.756  16.364   1.703  1.00  0.00     0.000 C 
BRANCH   6   7
ATOM      7  C   UNL     1      -6.473  17.720   2.372  1.00  0.00     0.006 C 
BRANCH   7   8
ATOM      8  C   UNL     1      -7.112  17.828   3.764  1.00  0.00     0.053 C 
BRANCH   8   9
ATOM      9  C   UNL     1      -6.870  19.167   4.387  1.00  0.00     0.041 C 
ATOM     10  O   UNL     1      -6.088  19.279   5.365  1.00  0.00    -0.550 OA
ATOM     11  O   UNL     1      -7.490  20.298   3.869  1.00  0.00    -0.550 OA
ENDBRANCH   8   9
ENDBRANCH   7   8
ENDBRANCH   6   7
ENDBRANCH   5   6
ENDBRANCH   4   5
ENDBRANCH   3   4
ENDBRANCH   2   3
ENDBRANCH   1   2
BRANCH   1  12
ATOM     12  C   UNL     1      -9.336  15.025  -2.884  1.00  0.00     0.000 C 
BRANCH  12  13
ATOM     13  C   UNL     1      -8.267  13.947  -3.104  1.00  0.00    -0.000 C 
BRANCH  13  14
ATOM     14  C   UNL     1      -6.972  14.564  -3.650  1.00  0.00    -0.000 C 
BRANCH  14  15
ATOM     15  C   UNL     1      -6.646  14.080  -5.072  1.00  0.00    -0.000 C 
BRANCH  15  16
ATOM     16  C   UNL     1      -7.247  14.990  -6.158  1.00  0.00    -0.000 C 
BRANCH  16  17
ATOM     17  C   UNL     1      -7.407  14.257  -7.508  1.00  0.00    -0.000 C 
BRANCH  17  18
ATOM     18  C   UNL     1      -8.846  13.775  -7.783  1.00  0.00    -0.000 C 
BRANCH  18  19
ATOM     19  C   UNL     1      -9.923  14.444  -6.912  1.00  0.00    -0.003 C 
ATOM     20  C   UNL     1     -10.641  13.453  -5.995  1.00  0.00     0.004 C 
ENDBRANCH  18  19
ENDBRANCH  17  18
ENDBRANCH  16  17
ENDBRANCH  15  16
ENDBRANCH  14  15
ENDBRANCH  13  14
ENDBRANCH  12  13
ENDBRANCH   1  12
TORSDOF 16
ENDMDL
MODEL 3
REMARK VINA RESULT:    -3.946      1.364      2.423
REMARK INTER + INTRA:         -10.094
REMARK INTER:                  -7.215
REMARK INTRA:                  -2.880
REMARK UNBOUND:                -2.458
REMARK SMILES CCCCCCCCCCCCCCCCCC(=O)[O-]
REMARK SMILES IDX 10 1 11 2 12 3 13 4 14 5 15 6 16 7 17 8 18 9 19 10 20 11
REMARK SMILES IDX 9 12 8 13 7 14 6 15 5 16 4 17 3 18 2 19 1 20
REMARK H PARENT
REMARK Flexibility Score: inf
ROOT
ATOM      1  C   UNL     1      -9.900  16.501  -0.829  1.00  0.00     0.000 C 
ENDROOT
BRANCH   1   2
ATOM      2  C   UNL     1      -9.110  17.306  -1.883  1.00  0.00     0.000 C 
BRANCH   2   3
ATOM      3  C   UNL     1      -8.559  16.446  -3.037  1.00  0.00     0.000 C 
BRANCH   3   4
ATOM      4  C   UNL     1      -9.200  15.052  -3.166  1.00  0.00     0.000 C 
BRANCH   4   5
ATOM      5  C   UNL     1      -8.364  14.026  -3.954  1.00  0.00     0.000 C 
BRANCH   5   6
ATOM      6  C   UNL     1      -6.863  14.380  -4.037  1.00  0.00     0.000 C 
BRANCH   6   7
ATOM      7  C   UNL     1      -6.344  14.376  -5.485  1.00  0.00     0.006 C 
BRANCH   7   8
ATOM      8  C   UNL     1      -7.265  15.151  -6.437  1.00  0.00     0.053 C 
BRANCH   8   9
ATOM      9  C   UNL     1      -7.701  14.312  -7.598  1.00  0.00     0.041 C 
ATOM     10  O   UNL     1      -7.465  13.077  -7.611  1.00  0.00    -0.550 OA
ATOM     11  O   UNL     1      -8.391  14.892  -8.656  1.00  0.00    -0.550 OA
ENDBRANCH   8   9
ENDBRANCH   7   8
ENDBRANCH   6   7
ENDBRANCH   5   6
ENDBRANCH   4   5
ENDBRANCH   3   4
ENDBRANCH   2   3
ENDBRANCH   1   2
BRANCH   1  12
ATOM     12  C   UNL     1      -9.427  16.795   0.603  1.00  0.00     0.000 C 
BRANCH  12  13
ATOM     13  C   UNL     1      -9.876  15.693   1.571  1.00  0.00    -0.000 C 
BRANCH  13  14
ATOM     14  C   UNL     1      -9.650  14.303   0.960  1.00  0.00    -0.000 C 
BRANCH  14  15
ATOM     15  C   UNL     1      -8.771  13.407   1.847  1.00  0.00    -0.000 C 
BRANCH  15  16
ATOM     16  C   UNL     1      -7.747  12.595   1.035  1.00  0.00    -0.000 C 
BRANCH  16  17
ATOM     17  C   UNL     1      -7.518  13.188  -0.372  1.00  0.00    -0.000 C 
BRANCH  17  18
ATOM     18  C   UNL     1      -6.145  13.869  -0.540  1.00  0.00    -0.000 C 
BRANCH  18  19
ATOM     19  C   UNL     1      -6.164  15.399  -0.381  1.00  0.00    -0.003 C 
ATOM     20  C   UNL     1      -5.850  15.849   1.046  1.00  0.00     0.004 C 
ENDBRANCH  18  19
ENDBRANCH  17  18
ENDBRANCH  16  17
ENDBRANCH  15  16
ENDBRANCH  14  15
ENDBRANCH  13  14
ENDBRANCH  12  13
ENDBRANCH   1  12
TORSDOF 16
ENDMDL
MODEL 4
REMARK VINA RESULT:    -3.932      1.152      2.919
REMARK INTER + INTRA:         -10.068
REMARK INTER:                  -7.940
REMARK INTRA:                  -2.129
REMARK UNBOUND:                -2.458
REMARK SMILES CCCCCCCCCCCCCCCCCC(=O)[O-]
REMARK SMILES IDX 10 1 11 2 12 3 13 4 14 5 15 6 16 7 17 8 18 9 19 10 20 11
REMARK SMILES IDX 9 12 8 13 7 14 6 15 5 16 4 17 3 18 2 19 1 20
REMARK H PARENT
REMARK Flexibility Score: inf
ROOT
ATOM      1  C   UNL     1      -9.954  16.669   0.444  1.00  0.00     0.000 C 
ENDROOT
BRANCH   1   2
ATOM      2  C   UNL     1     -10.111  16.456  -1.077  1.00  0.00     0.000 C 
BRANCH   2   3
ATOM      3  C   UNL     1      -9.106  17.262  -1.924  1.00  0.00     0.000 C 
BRANCH   3   4
ATOM      4  C   UNL     1      -8.413  16.460  -3.040  1.00  0.00     0.000 C 
BRANCH   4   5
ATOM      5  C   UNL     1      -9.016  15.068  -3.307  1.00  0.00     0.000 C 
BRANCH   5   6
ATOM      6  C   UNL     1      -8.940  14.632  -4.787  1.00  0.00     0.000 C 
BRANCH   6   7
ATOM      7  C   UNL     1      -8.163  15.641  -5.651  1.00  0.00     0.006 C 
BRANCH   7   8
ATOM      8  C   UNL     1      -7.600  15.002  -6.928  1.00  0.00     0.053 C 
BRANCH   8   9
ATOM      9  C   UNL     1      -6.859  13.734  -6.638  1.00  0.00     0.041 C 
ATOM     10  O   UNL     1      -7.312  12.631  -7.040  1.00  0.00    -0.550 OA
ATOM     11  O   UNL     1      -5.655  13.772  -5.947  1.00  0.00    -0.550 OA
ENDBRANCH   8   9
ENDBRANCH   7   8
ENDBRANCH   6   7
ENDBRANCH   5   6
ENDBRANCH   4   5
ENDBRANCH   3   4
ENDBRANCH   2   3
ENDBRANCH   1   2
BRANCH   1  12
ATOM     12  C   UNL     1      -9.759  15.346   1.200  1.00  0.00     0.000 C 
BRANCH  12  13
ATOM     13  C   UNL     1      -8.944  14.349   0.367  1.00  0.00    -0.000 C 
BRANCH  13  14
ATOM     14  C   UNL     1      -7.484  14.306   0.840  1.00  0.00    -0.000 C 
BRANCH  14  15
ATOM     15  C   UNL     1      -6.598  15.326   0.107  1.00  0.00    -0.000 C 
BRANCH  15  16
ATOM     16  C   UNL     1      -5.743  16.167   1.071  1.00  0.00    -0.000 C 
BRANCH  16  17
ATOM     17  C   UNL     1      -6.556  17.302   1.730  1.00  0.00    -0.000 C 
BRANCH  17  18
ATOM     18  C   UNL     1      -6.414  17.354   3.264  1.00  0.00    -0.000 C 
BRANCH  18  19
ATOM     19  C   UNL     1      -7.320  18.385   3.958  1.00  0.00    -0.003 C 
ATOM     20  C   UNL     1      -8.752  18.367   3.425  1.00  0.00     0.004 C 
ENDBRANCH  18  19
ENDBRANCH  17  18
ENDBRANCH  16  17
ENDBRANCH  15  16
ENDBRANCH  14  15
ENDBRANCH  13  14
ENDBRANCH  12  13
ENDBRANCH   1  12
TORSDOF 16
ENDMDL
MODEL 5
REMARK VINA RESULT:    -3.929      3.512      7.736
REMARK INTER + INTRA:         -10.062
REMARK INTER:                  -7.910
REMARK INTRA:                  -2.152
REMARK UNBOUND:                -2.458
REMARK SMILES CCCCCCCCCCCCCCCCCC(=O)[O-]
REMARK SMILES IDX 10 1 11 2 12 3 13 4 14 5 15 6 16 7 17 8 18 9 19 10 20 11
REMARK SMILES IDX 9 12 8 13 7 14 6 15 5 16 4 17 3 18 2 19 1 20
REMARK H PARENT
REMARK Flexibility Score: inf
ROOT
ATOM      1  C   UNL     1      -9.917  13.970  -3.769  1.00  0.00     0.000 C 
ENDROOT
BRANCH   1   2
ATOM      2  C   UNL     1      -8.942  14.696  -2.816  1.00  0.00     0.000 C 
BRANCH   2   3
ATOM      3  C   UNL     1      -8.695  16.172  -3.187  1.00  0.00     0.000 C 
BRANCH   3   4
ATOM      4  C   UNL     1      -8.934  17.173  -2.043  1.00  0.00     0.000 C 
BRANCH   4   5
ATOM      5  C   UNL     1     -10.146  16.855  -1.146  1.00  0.00     0.000 C 
BRANCH   5   6
ATOM      6  C   UNL     1      -9.812  16.830   0.362  1.00  0.00     0.000 C 
BRANCH   6   7
ATOM      7  C   UNL     1      -8.519  16.051   0.658  1.00  0.00     0.006 C 
BRANCH   7   8
ATOM      8  C   UNL     1      -7.850  16.505   1.963  1.00  0.00     0.053 C 
BRANCH   8   9
ATOM      9  C   UNL     1      -6.469  17.032   1.728  1.00  0.00     0.041 C 
ATOM     10  O   UNL     1      -6.130  18.151   2.193  1.00  0.00    -0.550 OA
ATOM     11  O   UNL     1      -5.546  16.275   1.018  1.00  0.00    -0.550 OA
ENDBRANCH   8   9
ENDBRANCH   7   8
ENDBRANCH   6   7
ENDBRANCH   5   6
ENDBRANCH   4   5
ENDBRANCH   3   4
ENDBRANCH   2   3
ENDBRANCH   1   2
BRANCH   1  12
ATOM     12  C   UNL     1      -9.315  12.678  -4.343  1.00  0.00     0.000 C 
BRANCH  12  13
ATOM     13  C   UNL     1      -9.870  12.384  -5.743  1.00  0.00    -0.000 C 
BRANCH  13  14
ATOM     14  C   UNL     1     -10.831  13.493  -6.194  1.00  0.00    -0.000 C 
BRANCH  14  15
ATOM     15  C   UNL     1     -10.269  14.318  -7.362  1.00  0.00    -0.000 C 
BRANCH  15  16
ATOM     16  C   UNL     1      -9.019  13.678  -7.991  1.00  0.00    -0.000 C 
BRANCH  16  17
ATOM     17  C   UNL     1      -7.786  14.603  -7.907  1.00  0.00    -0.000 C 
BRANCH  17  18
ATOM     18  C   UNL     1      -7.594  15.252  -6.521  1.00  0.00    -0.000 C 
BRANCH  18  19
ATOM     19  C   UNL     1      -6.447  14.655  -5.688  1.00  0.00    -0.003 C 
ATOM     20  C   UNL     1      -6.042  13.257  -6.154  1.00  0.00     0.004 C 
ENDBRANCH  18  19
ENDBRANCH  17  18
ENDBRANCH  16  17
ENDBRANCH  15  16
ENDBRANCH  14  15
ENDBRANCH  13  14
ENDBRANCH  12  13
ENDBRANCH   1  12
TORSDOF 16
ENDMDL
MODEL 6
REMARK VINA RESULT:    -3.929      1.679      3.755
REMARK INTER + INTRA:         -10.061
REMARK INTER:                  -7.575
REMARK INTRA:                  -2.487
REMARK UNBOUND:                -2.458
REMARK SMILES CCCCCCCCCCCCCCCCCC(=O)[O-]
REMARK SMILES IDX 10 1 11 2 12 3 13 4 14 5 15 6 16 7 17 8 18 9 19 10 20 11
REMARK SMILES IDX 9 12 8 13 7 14 6 15 5 16 4 17 3 18 2 19 1 20
REMARK H PARENT
REMARK Flexibility Score: inf
ROOT
ATOM      1  C   UNL     1      -9.594  14.639  -3.611  1.00  0.00     0.000 C 
ENDROOT
BRANCH   1   2
ATOM      2  C   UNL     1      -8.985  13.278  -4.013  1.00  0.00     0.000 C 
BRANCH   2   3
ATOM      3  C   UNL     1      -9.942  12.385  -4.827  1.00  0.00     0.000 C 
BRANCH   3   4
ATOM      4  C   UNL     1     -11.004  13.148  -5.638  1.00  0.00     0.000 C 
BRANCH   4   5
ATOM      5  C   UNL     1     -10.683  13.308  -7.136  1.00  0.00     0.000 C 
BRANCH   5   6
ATOM      6  C   UNL     1     -10.094  14.689  -7.501  1.00  0.00     0.000 C 
BRANCH   6   7
ATOM      7  C   UNL     1      -8.715  14.573  -8.173  1.00  0.00     0.006 C 
BRANCH   7   8
ATOM      8  C   UNL     1      -7.564  14.830  -7.190  1.00  0.00     0.053 C 
BRANCH   8   9
ATOM      9  C   UNL     1      -6.857  13.565  -6.815  1.00  0.00     0.041 C 
ATOM     10  O   UNL     1      -7.301  12.453  -7.201  1.00  0.00    -0.550 OA
ATOM     11  O   UNL     1      -5.692  13.616  -6.060  1.00  0.00    -0.550 OA
ENDBRANCH   8   9
ENDBRANCH   7   8
ENDBRANCH   6   7
ENDBRANCH   5   6
ENDBRANCH   4   5
ENDBRANCH   3   4
ENDBRANCH   2   3
ENDBRANCH   1   2
BRANCH   1  12
ATOM     12  C   UNL     1      -8.562  15.776  -3.662  1.00  0.00     0.000 C 
BRANCH  12  13
ATOM     13  C   UNL     1      -8.781  16.773  -2.517  1.00  0.00    -0.000 C 
BRANCH  13  14
ATOM     14  C   UNL     1      -9.688  16.171  -1.434  1.00  0.00    -0.000 C 
BRANCH  14  15
ATOM     15  C   UNL     1      -9.536  16.882  -0.080  1.00  0.00    -0.000 C 
BRANCH  15  16
ATOM     16  C   UNL     1      -8.649  16.097   0.903  1.00  0.00    -0.000 C 
BRANCH  16  17
ATOM     17  C   UNL     1      -7.176  16.554   0.848  1.00  0.00    -0.000 C 
BRANCH  17  18
ATOM     18  C   UNL     1      -6.183  15.408   0.571  1.00  0.00    -0.000 C 
BRANCH  18  19
ATOM     19  C   UNL     1      -6.125  14.949  -0.896  1.00  0.00    -0.003 C 
ATOM     20  C   UNL     1      -6.650  13.527  -1.092  1.00  0.00     0.004 C 
ENDBRANCH  18  19
ENDBRANCH  17  18
ENDBRANCH  16  17
ENDBRANCH  15  16
ENDBRANCH  14  15
ENDBRANCH  13  14
ENDBRANCH  12  13
ENDBRANCH   1  12
TORSDOF 16
ENDMDL
MODEL 7
REMARK VINA RESULT:    -3.877      4.192      7.718
REMARK INTER + INTRA:          -9.961
REMARK INTER:                  -7.561
REMARK INTRA:                  -2.400
REMARK UNBOUND:                -2.458
REMARK SMILES CCCCCCCCCCCCCCCCCC(=O)[O-]
REMARK SMILES IDX 10 1 11 2 12 3 13 4 14 5 15 6 16 7 17 8 18 9 19 10 20 11
REMARK SMILES IDX 9 12 8 13 7 14 6 15 5 16 4 17 3 18 2 19 1 20
REMARK H PARENT
REMARK Flexibility Score: inf
ROOT
ATOM      1  C   UNL     1      -8.663  16.351  -3.037  1.00  0.00     0.000 C 
ENDROOT
BRANCH   1   2
ATOM      2  C   UNL     1      -8.969  17.368  -1.916  1.00  0.00     0.000 C 
BRANCH   2   3
ATOM      3  C   UNL     1      -9.836  16.794  -0.777  1.00  0.00     0.000 C 
BRANCH   3   4
ATOM      4  C   UNL     1      -9.164  16.788   0.607  1.00  0.00     0.000 C 
BRANCH   4   5
ATOM      5  C   UNL     1      -8.364  15.512   0.932  1.00  0.00     0.000 C 
BRANCH   5   6
ATOM      6  C   UNL     1      -6.968  15.789   1.532  1.00  0.00     0.000 C 
BRANCH   6   7
ATOM      7  C   UNL     1      -6.667  17.295   1.630  1.00  0.00     0.006 C 
BRANCH   7   8
ATOM      8  C   UNL     1      -6.436  17.750   3.078  1.00  0.00     0.053 C 
BRANCH   8   9
ATOM      9  C   UNL     1      -7.509  18.682   3.548  1.00  0.00     0.041 C 
ATOM     10  O   UNL     1      -8.708  18.301   3.585  1.00  0.00    -0.550 OA
ATOM     11  O   UNL     1      -7.182  19.964   3.971  1.00  0.00    -0.550 OA
ENDBRANCH   8   9
ENDBRANCH   7   8
ENDBRANCH   6   7
ENDBRANCH   5   6
ENDBRANCH   4   5
ENDBRANCH   3   4
ENDBRANCH   2   3
ENDBRANCH   1   2
BRANCH   1  12
ATOM     12  C   UNL     1      -7.572  15.348  -2.631  1.00  0.00     0.000 C 
BRANCH  12  13
ATOM     13  C   UNL     1      -8.128  13.919  -2.577  1.00  0.00    -0.000 C 
BRANCH  13  14
ATOM     14  C   UNL     1      -9.543  13.860  -3.168  1.00  0.00    -0.000 C 
BRANCH  14  15
ATOM     15  C   UNL     1      -9.649  12.875  -4.343  1.00  0.00    -0.000 C 
BRANCH  15  16
ATOM     16  C   UNL     1     -10.315  13.501  -5.581  1.00  0.00    -0.000 C 
BRANCH  16  17
ATOM     17  C   UNL     1      -9.298  13.788  -6.706  1.00  0.00    -0.000 C 
BRANCH  17  18
ATOM     18  C   UNL     1      -8.534  15.115  -6.524  1.00  0.00    -0.000 C 
BRANCH  18  19
ATOM     19  C   UNL     1      -7.023  14.958  -6.284  1.00  0.00    -0.003 C 
ATOM     20  C   UNL     1      -6.555  13.507  -6.391  1.00  0.00     0.004 C 
ENDBRANCH  18  19
ENDBRANCH  17  18
ENDBRANCH  16  17
ENDBRANCH  15  16
ENDBRANCH  14  15
ENDBRANCH  13  14
ENDBRANCH  12  13
ENDBRANCH   1  12
TORSDOF 16
ENDMDL
MODEL 8
REMARK VINA RESULT:    -3.852      1.733      3.939
REMARK INTER + INTRA:          -9.913
REMARK INTER:                  -7.884
REMARK INTRA:                  -2.030
REMARK UNBOUND:                -2.458
REMARK SMILES CCCCCCCCCCCCCCCCCC(=O)[O-]
REMARK SMILES IDX 10 1 11 2 12 3 13 4 14 5 15 6 16 7 17 8 18 9 19 10 20 11
REMARK SMILES IDX 9 12 8 13 7 14 6 15 5 16 4 17 3 18 2 19 1 20
REMARK H PARENT
REMARK Flexibility Score: inf
ROOT
ATOM      1  C   UNL     1      -8.062  14.798  -3.018  1.00  0.00     0.000 C 
ENDROOT
BRANCH   1   2
ATOM      2  C   UNL     1      -8.871  13.565  -3.475  1.00  0.00     0.000 C 
BRANCH   2   3
ATOM      3  C   UNL     1     -10.093  13.914  -4.348  1.00  0.00     0.000 C 
BRANCH   3   4
ATOM      4  C   UNL     1     -10.349  12.946  -5.517  1.00  0.00     0.000 C 
BRANCH   4   5
ATOM      5  C   UNL     1     -10.269  13.586  -6.917  1.00  0.00     0.000 C 
BRANCH   5   6
ATOM      6  C   UNL     1      -9.404  14.864  -6.966  1.00  0.00     0.000 C 
BRANCH   6   7
ATOM      7  C   UNL     1      -8.005  14.597  -7.550  1.00  0.00     0.006 C 
BRANCH   7   8
ATOM      8  C   UNL     1      -6.908  14.643  -6.478  1.00  0.00     0.053 C 
BRANCH   8   9
ATOM      9  C   UNL     1      -6.249  13.311  -6.296  1.00  0.00     0.041 C 
ATOM     10  O   UNL     1      -4.994  13.228  -6.243  1.00  0.00    -0.550 OA
ATOM     11  O   UNL     1      -7.021  12.165  -6.159  1.00  0.00    -0.550 OA
ENDBRANCH   8   9
ENDBRANCH   7   8
ENDBRANCH   6   7
ENDBRANCH   5   6
ENDBRANCH   4   5
ENDBRANCH   3   4
ENDBRANCH   2   3
ENDBRANCH   1   2
BRANCH   1  12
ATOM     12  C   UNL     1      -8.702  16.117  -3.477  1.00  0.00     0.000 C 
BRANCH  12  13
ATOM     13  C   UNL     1      -8.887  17.081  -2.299  1.00  0.00    -0.000 C 
BRANCH  13  14
ATOM     14  C   UNL     1      -9.693  16.419  -1.172  1.00  0.00    -0.000 C 
BRANCH  14  15
ATOM     15  C   UNL     1      -9.220  16.857   0.224  1.00  0.00    -0.000 C 
BRANCH  15  16
ATOM     16  C   UNL     1      -8.070  15.985   0.758  1.00  0.00    -0.000 C 
BRANCH  16  17
ATOM     17  C   UNL     1      -6.824  16.823   1.118  1.00  0.00    -0.000 C 
BRANCH  17  18
ATOM     18  C   UNL     1      -6.473  16.797   2.619  1.00  0.00    -0.000 C 
BRANCH  18  19
ATOM     19  C   UNL     1      -6.442  18.178   3.295  1.00  0.00    -0.003 C 
ATOM     20  C   UNL     1      -7.830  18.664   3.711  1.00  0.00     0.004 C 
ENDBRANCH  18  19
ENDBRANCH  17  18
ENDBRANCH  16  17
ENDBRANCH  15  16
ENDBRANCH  14  15
ENDBRANCH  13  14
ENDBRANCH  12  13
ENDBRANCH   1  12
TORSDOF 16
ENDMDL
MODEL 9
REMARK VINA RESULT:    -3.842      1.575      3.788
REMARK INTER + INTRA:          -9.894
REMARK INTER:                  -7.209
REMARK INTRA:                  -2.685
REMARK UNBOUND:                -2.458
REMARK SMILES CCCCCCCCCCCCCCCCCC(=O)[O-]
REMARK SMILES IDX 10 1 11 2 12 3 13 4 14 5 15 6 16 7 17 8 18 9 19 10 20 11
REMARK SMILES IDX 9 12 8 13 7 14 6 15 5 16 4 17 3 18 2 19 1 20
REMARK H PARENT
REMARK Flexibility Score: inf
ROOT
ATOM      1  C   UNL     1      -7.205  15.218  -2.388  1.00  0.00     0.000 C 
ENDROOT
BRANCH   1   2
ATOM      2  C   UNL     1      -7.402  13.751  -1.947  1.00  0.00     0.000 C 
BRANCH   2   3
ATOM      3  C   UNL     1      -8.223  12.908  -2.943  1.00  0.00     0.000 C 
BRANCH   3   4
ATOM      4  C   UNL     1      -7.387  12.017  -3.879  1.00  0.00     0.000 C 
BRANCH   4   5
ATOM      5  C   UNL     1      -7.429  12.421  -5.365  1.00  0.00     0.000 C 
BRANCH   5   6
ATOM      6  C   UNL     1      -6.372  13.479  -5.751  1.00  0.00     0.000 C 
BRANCH   6   7
ATOM      7  C   UNL     1      -7.013  14.796  -6.221  1.00  0.00     0.006 C 
BRANCH   7   8
ATOM      8  C   UNL     1      -8.544  14.707  -6.292  1.00  0.00     0.053 C 
BRANCH   8   9
ATOM      9  C   UNL     1      -9.021  14.384  -7.673  1.00  0.00     0.041 C 
ATOM     10  O   UNL     1      -8.367  14.770  -8.676  1.00  0.00    -0.550 OA
ATOM     11  O   UNL     1     -10.176  13.632  -7.853  1.00  0.00    -0.550 OA
ENDBRANCH   8   9
ENDBRANCH   7   8
ENDBRANCH   6   7
ENDBRANCH   5   6
ENDBRANCH   4   5
ENDBRANCH   3   4
ENDBRANCH   2   3
ENDBRANCH   1   2
BRANCH   1  12
ATOM     12  C   UNL     1      -8.500  15.841  -2.931  1.00  0.00     0.000 C 
BRANCH  12  13
ATOM     13  C   UNL     1      -8.795  17.183  -2.251  1.00  0.00    -0.000 C 
BRANCH  13  14
ATOM     14  C   UNL     1      -9.995  17.063  -1.301  1.00  0.00    -0.000 C 
BRANCH  14  15
ATOM     15  C   UNL     1     -10.580  15.642  -1.271  1.00  0.00    -0.000 C 
BRANCH  15  16
ATOM     16  C   UNL     1     -10.545  15.018   0.136  1.00  0.00    -0.000 C 
BRANCH  16  17
ATOM     17  C   UNL     1      -9.721  15.867   1.127  1.00  0.00    -0.000 C 
BRANCH  17  18
ATOM     18  C   UNL     1      -8.256  15.406   1.266  1.00  0.00    -0.000 C 
BRANCH  18  19
ATOM     19  C   UNL     1      -7.214  16.528   1.117  1.00  0.00    -0.003 C 
ATOM     20  C   UNL     1      -5.778  16.004   1.114  1.00  0.00     0.004 C 
ENDBRANCH  18  19
ENDBRANCH  17  18
ENDBRANCH  16  17
ENDBRANCH  15  16
ENDBRANCH  14  15
ENDBRANCH  13  14
ENDBRANCH  12  13
ENDBRANCH   1  12
TORSDOF 16
ENDMDL
