MODEL 1
REMARK VINA RESULT:    -5.760      0.000      0.000
REMARK INTER + INTRA:          -8.255
REMARK INTER:                  -8.454
REMARK INTRA:                   0.199
REMARK UNBOUND:                 0.199
REMARK SMILES O=c1c(O[C@H]2O[C@@H](CO)[C@H](O)[C@H](O)[C@@H]2O)c(-c2ccc(O)c(O)c2)oc2cc(O)cc(O)c12
REMARK SMILES IDX 4 1 3 2 16 3 25 4 2 5 26 6 1 7 33 8 27 9 31 10 28 11 30 12
REMARK SMILES IDX 17 13 18 14 19 15 20 16 24 17 22 18 21 19 23 21 32 23 29 25
REMARK SMILES IDX 5 27 14 28 6 29 12 30 7 31 10 32 15 33 13 35 8 37 9 38 11 40
REMARK H PARENT 21 20 23 22 32 24 29 26 15 34 13 36 9 39 11 41
REMARK Flexibility Score: inf
ROOT
ATOM      1  O   UNL     1     109.554 110.289 114.088  1.00  0.00    -0.454 OA
ENDROOT
BRANCH   1   2
ATOM      2  C   UNL     1     110.448 110.218 113.013  1.00  0.00     0.214 A 
ATOM      3  C   UNL     1     111.842 110.185 113.212  1.00  0.00     0.180 A 
ATOM      4  O   UNL     1     112.650 110.058 112.168  1.00  0.00    -0.452 OA
ATOM      5  C   UNL     1     109.947 110.183 111.708  1.00  0.00     0.239 A 
ATOM      6  C   UNL     1     112.220 109.980 110.915  1.00  0.00     0.146 A 
ATOM      7  O   UNL     1     108.708 110.319 111.540  1.00  0.00    -0.285 OA
ATOM      8  C   UNL     1     110.833 110.016 110.616  1.00  0.00     0.111 A 
ATOM      9  C   UNL     1     113.164 109.878 109.890  1.00  0.00     0.094 A 
ATOM     10  C   UNL     1     110.427 109.904 109.252  1.00  0.00     0.134 A 
ATOM     11  C   UNL     1     112.760 109.824 108.559  1.00  0.00     0.123 A 
ATOM     12  C   UNL     1     111.399 109.841 108.246  1.00  0.00     0.093 A 
BRANCH   3  13
ATOM     13  C   UNL     1     112.452 110.308 114.556  1.00  0.00     0.025 A 
ATOM     14  C   UNL     1     113.094 111.499 114.918  1.00  0.00     0.016 A 
ATOM     15  C   UNL     1     113.672 111.632 116.181  1.00  0.00     0.051 A 
ATOM     16  C   UNL     1     113.610 110.588 117.110  1.00  0.00     0.157 A 
ATOM     17  C   UNL     1     112.363 109.266 115.494  1.00  0.00     0.062 A 
ATOM     18  C   UNL     1     112.939 109.390 116.764  1.00  0.00     0.158 A 
BRANCH  16  19
ATOM     19  O   UNL     1     114.216 110.781 118.353  1.00  0.00    -0.504 OA
ATOM     20  H   UNL     1     114.983 111.418 118.513  1.00  0.00     0.293 HD
ENDBRANCH  16  19
BRANCH  18  21
ATOM     21  O   UNL     1     112.820 108.313 117.642  1.00  0.00    -0.504 OA
ATOM     22  H   UNL     1     113.602 107.864 118.098  1.00  0.00     0.293 HD
ENDBRANCH  18  21
ENDBRANCH   3  13
BRANCH  10  23
ATOM     23  O   UNL     1     109.094 109.823 108.835  1.00  0.00    -0.507 OA
ATOM     24  H   UNL     1     108.626 108.974 108.558  1.00  0.00     0.293 HD
ENDBRANCH  10  23
BRANCH  11  25
ATOM     25  O   UNL     1     113.720 109.744 107.552  1.00  0.00    -0.508 OA
ATOM     26  H   UNL     1     113.671 109.037 106.828  1.00  0.00     0.293 HD
ENDBRANCH  11  25
ENDBRANCH   1   2
BRANCH   1  27
ATOM     27  C   UNL     1     108.768 111.450 114.368  1.00  0.00     0.339 C 
ATOM     28  C   UNL     1     109.639 112.719 114.401  1.00  0.00     0.214 C 
ATOM     29  O   UNL     1     108.012 111.275 115.559  1.00  0.00    -0.332 OA
ATOM     30  C   UNL     1     110.550 112.701 115.642  1.00  0.00     0.180 C 
ATOM     31  C   UNL     1     108.793 111.237 116.750  1.00  0.00     0.179 C 
ATOM     32  C   UNL     1     109.722 112.466 116.911  1.00  0.00     0.177 C 
BRANCH  28  33
ATOM     33  O   UNL     1     108.803 113.850 114.411  1.00  0.00    -0.384 OA
ATOM     34  H   UNL     1     109.395 114.647 114.448  1.00  0.00     0.211 HD
ENDBRANCH  28  33
BRANCH  30  35
ATOM     35  O   UNL     1     111.258 113.910 115.754  1.00  0.00    -0.387 OA
ATOM     36  H   UNL     1     112.221 113.688 115.653  1.00  0.00     0.211 HD
ENDBRANCH  30  35
BRANCH  31  37
ATOM     37  C   UNL     1     109.524 109.896 116.951  1.00  0.00     0.191 C 
BRANCH  37  38
ATOM     38  O   UNL     1     110.077 109.843 118.237  1.00  0.00    -0.394 OA
ATOM     39  H   UNL     1     109.344 109.560 118.842  1.00  0.00     0.210 HD
ENDBRANCH  37  38
ENDBRANCH  31  37
BRANCH  32  40
ATOM     40  O   UNL     1     108.952 113.610 117.191  1.00  0.00    -0.387 OA
ATOM     41  H   UNL     1     108.880 113.675 118.180  1.00  0.00     0.211 HD
ENDBRANCH  32  40
ENDBRANCH   1  27
TORSDOF 12
ENDMDL
MODEL 2
REMARK VINA RESULT:    -5.744      2.008      4.568
REMARK INTER + INTRA:          -8.231
REMARK INTER:                  -8.378
REMARK INTRA:                   0.147
REMARK UNBOUND:                 0.199
REMARK SMILES O=c1c(O[C@H]2O[C@@H](CO)[C@H](O)[C@H](O)[C@@H]2O)c(-c2ccc(O)c(O)c2)oc2cc(O)cc(O)c12
REMARK SMILES IDX 4 1 3 2 16 3 25 4 2 5 26 6 1 7 33 8 27 9 31 10 28 11 30 12
REMARK SMILES IDX 17 13 18 14 19 15 20 16 24 17 22 18 21 19 23 21 32 23 29 25
REMARK SMILES IDX 5 27 14 28 6 29 12 30 7 31 10 32 15 33 13 35 8 37 9 38 11 40
REMARK H PARENT 21 20 23 22 32 24 29 26 15 34 13 36 9 39 11 41
REMARK Flexibility Score: inf
ROOT
ATOM      1  O   UNL     1     112.723 111.954 114.089  1.00  0.00    -0.454 OA
ENDROOT
BRANCH   1   2
ATOM      2  C   UNL     1     111.834 112.034 113.010  1.00  0.00     0.214 A 
ATOM      3  C   UNL     1     110.440 112.083 113.203  1.00  0.00     0.180 A 
ATOM      4  O   UNL     1     109.638 112.218 112.156  1.00  0.00    -0.452 OA
ATOM      5  C   UNL     1     112.341 112.063 111.707  1.00  0.00     0.239 A 
ATOM      6  C   UNL     1     110.074 112.290 110.904  1.00  0.00     0.146 A 
ATOM      7  O   UNL     1     113.579 111.913 111.544  1.00  0.00    -0.285 OA
ATOM      8  C   UNL     1     111.462 112.239 110.611  1.00  0.00     0.111 A 
ATOM      9  C   UNL     1     109.135 112.402 109.875  1.00  0.00     0.094 A 
ATOM     10  C   UNL     1     111.874 112.346 109.249  1.00  0.00     0.134 A 
ATOM     11  C   UNL     1     109.545 112.452 108.546  1.00  0.00     0.123 A 
ATOM     12  C   UNL     1     110.907 112.419 108.239  1.00  0.00     0.093 A 
BRANCH   3  13
ATOM     13  C   UNL     1     109.823 111.967 114.544  1.00  0.00     0.025 A 
ATOM     14  C   UNL     1     109.159 110.787 114.901  1.00  0.00     0.016 A 
ATOM     15  C   UNL     1     108.574 110.661 116.162  1.00  0.00     0.051 A 
ATOM     16  C   UNL     1     108.652 111.701 117.094  1.00  0.00     0.157 A 
ATOM     17  C   UNL     1     109.928 113.005 115.486  1.00  0.00     0.062 A 
ATOM     18  C   UNL     1     109.345 112.888 116.753  1.00  0.00     0.158 A 
BRANCH  16  19
ATOM     19  O   UNL     1     108.037 111.516 118.334  1.00  0.00    -0.504 OA
ATOM     20  H   UNL     1     108.224 110.734 118.945  1.00  0.00     0.293 HD
ENDBRANCH  16  19
BRANCH  18  21
ATOM     21  O   UNL     1     109.481 113.961 117.635  1.00  0.00    -0.504 OA
ATOM     22  H   UNL     1     109.154 113.953 118.591  1.00  0.00     0.293 HD
ENDBRANCH  18  21
ENDBRANCH   3  13
BRANCH  10  23
ATOM     23  O   UNL     1     113.210 112.412 108.837  1.00  0.00    -0.507 OA
ATOM     24  H   UNL     1     114.001 112.136 109.398  1.00  0.00     0.293 HD
ENDBRANCH  10  23
BRANCH  11  25
ATOM     25  O   UNL     1     108.590 112.541 107.535  1.00  0.00    -0.508 OA
ATOM     26  H   UNL     1     108.830 112.382 106.564  1.00  0.00     0.293 HD
ENDBRANCH  11  25
ENDBRANCH   1   2
BRANCH   1  27
ATOM     27  C   UNL     1     113.495 110.784 114.373  1.00  0.00     0.339 C 
ATOM     28  C   UNL     1     112.607 109.527 114.413  1.00  0.00     0.214 C 
ATOM     29  O   UNL     1     114.255 110.955 115.561  1.00  0.00    -0.332 OA
ATOM     30  C   UNL     1     111.699 109.562 115.655  1.00  0.00     0.180 C 
ATOM     31  C   UNL     1     113.476 111.008 116.754  1.00  0.00     0.179 C 
ATOM     32  C   UNL     1     112.532 109.792 116.922  1.00  0.00     0.177 C 
BRANCH  28  33
ATOM     33  O   UNL     1     113.429 108.385 114.427  1.00  0.00    -0.384 OA
ATOM     34  H   UNL     1     113.314 107.934 113.549  1.00  0.00     0.211 HD
ENDBRANCH  28  33
BRANCH  30  35
ATOM     35  O   UNL     1     110.976 108.363 115.774  1.00  0.00    -0.387 OA
ATOM     36  H   UNL     1     110.368 108.471 116.552  1.00  0.00     0.211 HD
ENDBRANCH  30  35
BRANCH  31  37
ATOM     37  C   UNL     1     112.763 112.360 116.949  1.00  0.00     0.191 C 
BRANCH  37  38
ATOM     38  O   UNL     1     112.248 112.443 118.250  1.00  0.00    -0.394 OA
ATOM     39  H   UNL     1     112.652 113.253 118.656  1.00  0.00     0.210 HD
ENDBRANCH  37  38
ENDBRANCH  31  37
BRANCH  32  40
ATOM     40  O   UNL     1     113.287 108.640 117.206  1.00  0.00    -0.387 OA
ATOM     41  H   UNL     1     114.176 108.763 116.781  1.00  0.00     0.211 HD
ENDBRANCH  32  40
ENDBRANCH   1  27
TORSDOF 12
ENDMDL
MODEL 3
REMARK VINA RESULT:    -5.637      3.305      6.662
REMARK INTER + INTRA:          -8.074
REMARK INTER:                  -8.352
REMARK INTRA:                   0.278
REMARK UNBOUND:                 0.199
REMARK SMILES O=c1c(O[C@H]2O[C@@H](CO)[C@H](O)[C@H](O)[C@@H]2O)c(-c2ccc(O)c(O)c2)oc2cc(O)cc(O)c12
REMARK SMILES IDX 4 1 3 2 16 3 25 4 2 5 26 6 1 7 33 8 27 9 31 10 28 11 30 12
REMARK SMILES IDX 17 13 18 14 19 15 20 16 24 17 22 18 21 19 23 21 32 23 29 25
REMARK SMILES IDX 5 27 14 28 6 29 12 30 7 31 10 32 15 33 13 35 8 37 9 38 11 40
REMARK H PARENT 21 20 23 22 32 24 29 26 15 34 13 36 9 39 11 41
REMARK Flexibility Score: inf
ROOT
ATOM      1  O   UNL     1     112.691 112.020 109.244  1.00  0.00    -0.454 OA
ENDROOT
BRANCH   1   2
ATOM      2  C   UNL     1     111.801 112.066 108.163  1.00  0.00     0.214 A 
ATOM      3  C   UNL     1     110.406 112.058 108.353  1.00  0.00     0.180 A 
ATOM      4  O   UNL     1     109.601 112.162 107.304  1.00  0.00    -0.452 OA
ATOM      5  C   UNL     1     112.310 112.115 106.861  1.00  0.00     0.239 A 
ATOM      6  C   UNL     1     110.037 112.254 106.053  1.00  0.00     0.146 A 
ATOM      7  O   UNL     1     113.553 112.016 106.700  1.00  0.00    -0.285 OA
ATOM      8  C   UNL     1     111.426 112.258 105.763  1.00  0.00     0.111 A 
ATOM      9  C   UNL     1     109.096 112.329 105.022  1.00  0.00     0.094 A 
ATOM     10  C   UNL     1     111.837 112.382 104.402  1.00  0.00     0.134 A 
ATOM     11  C   UNL     1     109.507 112.396 103.694  1.00  0.00     0.123 A 
ATOM     12  C   UNL     1     110.870 112.418 103.390  1.00  0.00     0.093 A 
BRANCH   3  13
ATOM     13  C   UNL     1     109.791 111.917 109.692  1.00  0.00     0.025 A 
ATOM     14  C   UNL     1     109.166 110.714 110.043  1.00  0.00     0.016 A 
ATOM     15  C   UNL     1     108.583 110.563 111.303  1.00  0.00     0.051 A 
ATOM     16  C   UNL     1     108.626 111.602 112.239  1.00  0.00     0.157 A 
ATOM     17  C   UNL     1     109.861 112.953 110.639  1.00  0.00     0.062 A 
ATOM     18  C   UNL     1     109.280 112.812 111.904  1.00  0.00     0.158 A 
BRANCH  16  19
ATOM     19  O   UNL     1     108.016 111.391 113.477  1.00  0.00    -0.504 OA
ATOM     20  H   UNL     1     107.017 111.404 113.624  1.00  0.00     0.293 HD
ENDBRANCH  16  19
BRANCH  18  21
ATOM     21  O   UNL     1     109.379 113.885 112.791  1.00  0.00    -0.504 OA
ATOM     22  H   UNL     1     110.231 114.153 113.263  1.00  0.00     0.293 HD
ENDBRANCH  18  21
ENDBRANCH   3  13
BRANCH  10  23
ATOM     23  O   UNL     1     113.170 112.502 103.993  1.00  0.00    -0.507 OA
ATOM     24  H   UNL     1     113.840 113.141 104.390  1.00  0.00     0.293 HD
ENDBRANCH  10  23
BRANCH  11  25
ATOM     25  O   UNL     1     108.552 112.449 102.681  1.00  0.00    -0.508 OA
ATOM     26  H   UNL     1     108.628 113.106 101.914  1.00  0.00     0.293 HD
ENDBRANCH  11  25
ENDBRANCH   1   2
BRANCH   1  27
ATOM     27  C   UNL     1     113.500 110.877 109.534  1.00  0.00     0.339 C 
ATOM     28  C   UNL     1     112.660 109.588 109.555  1.00  0.00     0.214 C 
ATOM     29  O   UNL     1     114.236 111.070 110.734  1.00  0.00    -0.332 OA
ATOM     30  C   UNL     1     111.732 109.583 110.783  1.00  0.00     0.180 C 
ATOM     31  C   UNL     1     113.439 111.089 111.915  1.00  0.00     0.179 C 
ATOM     32  C   UNL     1     112.538 109.838 112.063  1.00  0.00     0.177 C 
BRANCH  28  33
ATOM     33  O   UNL     1     113.522 108.478 109.576  1.00  0.00    -0.384 OA
ATOM     34  H   UNL     1     114.451 108.831 109.556  1.00  0.00     0.211 HD
ENDBRANCH  28  33
BRANCH  30  35
ATOM     35  O   UNL     1     111.052 108.358 110.886  1.00  0.00    -0.387 OA
ATOM     36  H   UNL     1     110.565 108.373 111.751  1.00  0.00     0.211 HD
ENDBRANCH  30  35
BRANCH  31  37
ATOM     37  C   UNL     1     112.673 112.412 112.106  1.00  0.00     0.191 C 
BRANCH  37  38
ATOM     38  O   UNL     1     112.203 112.504 113.423  1.00  0.00    -0.394 OA
ATOM     39  H   UNL     1     111.251 112.777 113.358  1.00  0.00     0.210 HD
ENDBRANCH  37  38
ENDBRANCH  31  37
BRANCH  32  40
ATOM     40  O   UNL     1     113.331 108.713 112.354  1.00  0.00    -0.387 OA
ATOM     41  H   UNL     1     113.552 108.282 111.487  1.00  0.00     0.211 HD
ENDBRANCH  32  40
ENDBRANCH   1  27
TORSDOF 12
ENDMDL
MODEL 4
REMARK VINA RESULT:    -5.631      3.199      4.872
REMARK INTER + INTRA:          -8.066
REMARK INTER:                  -8.352
REMARK INTRA:                   0.287
REMARK UNBOUND:                 0.199
REMARK SMILES O=c1c(O[C@H]2O[C@@H](CO)[C@H](O)[C@H](O)[C@@H]2O)c(-c2ccc(O)c(O)c2)oc2cc(O)cc(O)c12
REMARK SMILES IDX 4 1 3 2 16 3 25 4 2 5 26 6 1 7 33 8 27 9 31 10 28 11 30 12
REMARK SMILES IDX 17 13 18 14 19 15 20 16 24 17 22 18 21 19 23 21 32 23 29 25
REMARK SMILES IDX 5 27 14 28 6 29 12 30 7 31 10 32 15 33 13 35 8 37 9 38 11 40
REMARK H PARENT 21 20 23 22 32 24 29 26 15 34 13 36 9 39 11 41
REMARK Flexibility Score: inf
ROOT
ATOM      1  O   UNL     1     109.559 110.254 109.224  1.00  0.00    -0.454 OA
ENDROOT
BRANCH   1   2
ATOM      2  C   UNL     1     110.447 110.198 108.143  1.00  0.00     0.214 A 
ATOM      3  C   UNL     1     111.842 110.190 108.332  1.00  0.00     0.180 A 
ATOM      4  O   UNL     1     112.645 110.077 107.282  1.00  0.00    -0.452 OA
ATOM      5  C   UNL     1     109.937 110.152 106.841  1.00  0.00     0.239 A 
ATOM      6  C   UNL     1     112.207 109.990 106.032  1.00  0.00     0.146 A 
ATOM      7  O   UNL     1     108.694 110.265 106.682  1.00  0.00    -0.285 OA
ATOM      8  C   UNL     1     110.817 110.000 105.743  1.00  0.00     0.111 A 
ATOM      9  C   UNL     1     113.146 109.904 105.000  1.00  0.00     0.094 A 
ATOM     10  C   UNL     1     110.404 109.879 104.382  1.00  0.00     0.134 A 
ATOM     11  C   UNL     1     112.733 109.840 103.672  1.00  0.00     0.123 A 
ATOM     12  C   UNL     1     111.369 109.832 103.369  1.00  0.00     0.093 A 
BRANCH   3  13
ATOM     13  C   UNL     1     112.460 110.327 109.670  1.00  0.00     0.025 A 
ATOM     14  C   UNL     1     113.085 111.529 110.025  1.00  0.00     0.016 A 
ATOM     15  C   UNL     1     113.670 111.674 111.284  1.00  0.00     0.051 A 
ATOM     16  C   UNL     1     113.631 110.631 112.216  1.00  0.00     0.157 A 
ATOM     17  C   UNL     1     112.394 109.285 110.612  1.00  0.00     0.062 A 
ATOM     18  C   UNL     1     112.977 109.422 111.877  1.00  0.00     0.158 A 
BRANCH  16  19
ATOM     19  O   UNL     1     114.243 110.837 113.454  1.00  0.00    -0.504 OA
ATOM     20  H   UNL     1     113.985 111.572 114.096  1.00  0.00     0.293 HD
ENDBRANCH  16  19
BRANCH  18  21
ATOM     21  O   UNL     1     112.882 108.344 112.759  1.00  0.00    -0.504 OA
ATOM     22  H   UNL     1     112.113 107.689 112.771  1.00  0.00     0.293 HD
ENDBRANCH  18  21
ENDBRANCH   3  13
BRANCH  10  23
ATOM     23  O   UNL     1     109.070 109.773 103.975  1.00  0.00    -0.507 OA
ATOM     24  H   UNL     1     108.294 109.573 104.586  1.00  0.00     0.293 HD
ENDBRANCH  10  23
BRANCH  11  25
ATOM     25  O   UNL     1     113.687 109.776 102.658  1.00  0.00    -0.508 OA
ATOM     26  H   UNL     1     114.224 110.590 102.385  1.00  0.00     0.293 HD
ENDBRANCH  11  25
ENDBRANCH   1   2
BRANCH   1  27
ATOM     27  C   UNL     1     108.763 111.405 109.515  1.00  0.00     0.339 C 
ATOM     28  C   UNL     1     109.620 112.683 109.550  1.00  0.00     0.214 C 
ATOM     29  O   UNL     1     108.015 111.215 110.709  1.00  0.00    -0.332 OA
ATOM     30  C   UNL     1     110.538 112.668 110.786  1.00  0.00     0.180 C 
ATOM     31  C   UNL     1     108.803 111.179 111.895  1.00  0.00     0.179 C 
ATOM     32  C   UNL     1     109.719 112.417 112.058  1.00  0.00     0.177 C 
BRANCH  28  33
ATOM     33  O   UNL     1     108.772 113.804 109.572  1.00  0.00    -0.384 OA
ATOM     34  H   UNL     1     108.688 114.122 108.634  1.00  0.00     0.211 HD
ENDBRANCH  28  33
BRANCH  30  35
ATOM     35  O   UNL     1     111.233 113.884 110.901  1.00  0.00    -0.387 OA
ATOM     36  H   UNL     1     110.574 114.563 111.202  1.00  0.00     0.211 HD
ENDBRANCH  30  35
BRANCH  31  37
ATOM     37  C   UNL     1     109.549 109.844 112.085  1.00  0.00     0.191 C 
BRANCH  37  38
ATOM     38  O   UNL     1     110.129 109.800 113.359  1.00  0.00    -0.394 OA
ATOM     39  H   UNL     1     110.232 108.839 113.583  1.00  0.00     0.210 HD
ENDBRANCH  37  38
ENDBRANCH  31  37
BRANCH  32  40
ATOM     40  O   UNL     1     108.939 113.550 112.349  1.00  0.00    -0.387 OA
ATOM     41  H   UNL     1     109.470 114.346 112.082  1.00  0.00     0.211 HD
ENDBRANCH  32  40
ENDBRANCH   1  27
TORSDOF 12
ENDMDL
MODEL 5
REMARK VINA RESULT:    -5.576      1.996      7.348
REMARK INTER + INTRA:          -7.985
REMARK INTER:                  -8.499
REMARK INTRA:                   0.514
REMARK UNBOUND:                 0.199
REMARK SMILES O=c1c(O[C@H]2O[C@@H](CO)[C@H](O)[C@H](O)[C@@H]2O)c(-c2ccc(O)c(O)c2)oc2cc(O)cc(O)c12
REMARK SMILES IDX 4 1 3 2 16 3 25 4 2 5 26 6 1 7 33 8 27 9 31 10 28 11 30 12
REMARK SMILES IDX 17 13 18 14 19 15 20 16 24 17 22 18 21 19 23 21 32 23 29 25
REMARK SMILES IDX 5 27 14 28 6 29 12 30 7 31 10 32 15 33 13 35 8 37 9 38 11 40
REMARK H PARENT 21 20 23 22 32 24 29 26 15 34 13 36 9 39 11 41
REMARK Flexibility Score: inf
ROOT
ATOM      1  O   UNL     1     109.557 112.177 110.717  1.00  0.00    -0.454 OA
ENDROOT
BRANCH   1   2
ATOM      2  C   UNL     1     110.464 112.038 111.775  1.00  0.00     0.214 A 
ATOM      3  C   UNL     1     111.837 111.822 111.548  1.00  0.00     0.180 A 
ATOM      4  O   UNL     1     112.669 111.754 112.579  1.00  0.00    -0.452 OA
ATOM      5  C   UNL     1     109.995 112.110 113.091  1.00  0.00     0.239 A 
ATOM      6  C   UNL     1     112.278 111.859 113.843  1.00  0.00     0.146 A 
ATOM      7  O   UNL     1     108.755 112.198 113.280  1.00  0.00    -0.285 OA
ATOM      8  C   UNL     1     110.912 112.067 114.169  1.00  0.00     0.111 A 
ATOM      9  C   UNL     1     113.239 111.743 114.851  1.00  0.00     0.094 A 
ATOM     10  C   UNL     1     110.553 112.195 115.545  1.00  0.00     0.134 A 
ATOM     11  C   UNL     1     112.870 111.816 116.191  1.00  0.00     0.123 A 
ATOM     12  C   UNL     1     111.533 112.037 116.532  1.00  0.00     0.093 A 
BRANCH   3  13
ATOM     13  C   UNL     1     112.395 111.644 110.188  1.00  0.00     0.025 A 
ATOM     14  C   UNL     1     112.388 112.719 109.291  1.00  0.00     0.016 A 
ATOM     15  C   UNL     1     112.913 112.568 108.006  1.00  0.00     0.051 A 
ATOM     16  C   UNL     1     113.466 111.349 107.598  1.00  0.00     0.157 A 
ATOM     17  C   UNL     1     112.974 110.426 109.793  1.00  0.00     0.062 A 
ATOM     18  C   UNL     1     113.504 110.265 108.508  1.00  0.00     0.158 A 
BRANCH  16  19
ATOM     19  O   UNL     1     113.966 111.261 106.297  1.00  0.00    -0.504 OA
ATOM     20  H   UNL     1     114.800 110.751 106.047  1.00  0.00     0.293 HD
ENDBRANCH  16  19
BRANCH  18  21
ATOM     21  O   UNL     1     114.055 109.025 108.180  1.00  0.00    -0.504 OA
ATOM     22  H   UNL     1     113.565 108.305 107.670  1.00  0.00     0.293 HD
ENDBRANCH  18  21
ENDBRANCH   3  13
BRANCH  10  23
ATOM     23  O   UNL     1     109.263 112.503 115.993  1.00  0.00    -0.507 OA
ATOM     24  H   UNL     1     108.414 112.309 115.485  1.00  0.00     0.293 HD
ENDBRANCH  10  23
BRANCH  11  25
ATOM     25  O   UNL     1     113.842 111.677 117.180  1.00  0.00    -0.508 OA
ATOM     26  H   UNL     1     114.481 112.430 117.405  1.00  0.00     0.293 HD
ENDBRANCH  11  25
ENDBRANCH   1   2
BRANCH   1  27
ATOM     27  C   UNL     1     108.681 111.125 110.303  1.00  0.00     0.339 C 
ATOM     28  C   UNL     1     109.472 109.872 109.886  1.00  0.00     0.214 C 
ATOM     29  O   UNL     1     107.794 111.575 109.288  1.00  0.00    -0.332 OA
ATOM     30  C   UNL     1     110.222 110.136 108.568  1.00  0.00     0.180 C 
ATOM     31  C   UNL     1     108.423 111.852 108.039  1.00  0.00     0.179 C 
ATOM     32  C   UNL     1     109.257 110.664 107.499  1.00  0.00     0.177 C 
BRANCH  28  33
ATOM     33  O   UNL     1     108.581 108.793 109.746  1.00  0.00    -0.384 OA
ATOM     34  H   UNL     1     108.146 108.659 110.629  1.00  0.00     0.211 HD
ENDBRANCH  28  33
BRANCH  30  35
ATOM     35  O   UNL     1     110.844 108.963 108.108  1.00  0.00    -0.387 OA
ATOM     36  H   UNL     1     110.743 108.955 107.120  1.00  0.00     0.211 HD
ENDBRANCH  30  35
BRANCH  31  37
ATOM     37  C   UNL     1     109.195 113.185 108.034  1.00  0.00     0.191 C 
BRANCH  37  38
ATOM     38  O   UNL     1     109.683 113.447 106.747  1.00  0.00    -0.394 OA
ATOM     39  H   UNL     1     110.665 113.306 106.790  1.00  0.00     0.210 HD
ENDBRANCH  37  38
ENDBRANCH  31  37
BRANCH  32  40
ATOM     40  O   UNL     1     108.398 109.630 107.086  1.00  0.00    -0.387 OA
ATOM     41  H   UNL     1     108.924 108.788 107.110  1.00  0.00     0.211 HD
ENDBRANCH  32  40
ENDBRANCH   1  27
TORSDOF 12
ENDMDL
MODEL 6
REMARK VINA RESULT:    -5.490      2.198      8.126
REMARK INTER + INTRA:          -7.858
REMARK INTER:                  -7.827
REMARK INTRA:                  -0.031
REMARK UNBOUND:                 0.199
REMARK SMILES O=c1c(O[C@H]2O[C@@H](CO)[C@H](O)[C@H](O)[C@@H]2O)c(-c2ccc(O)c(O)c2)oc2cc(O)cc(O)c12
REMARK SMILES IDX 4 1 3 2 16 3 25 4 2 5 26 6 1 7 33 8 27 9 31 10 28 11 30 12
REMARK SMILES IDX 17 13 18 14 19 15 20 16 24 17 22 18 21 19 23 21 32 23 29 25
REMARK SMILES IDX 5 27 14 28 6 29 12 30 7 31 10 32 15 33 13 35 8 37 9 38 11 40
REMARK H PARENT 21 20 23 22 32 24 29 26 15 34 13 36 9 39 11 41
REMARK Flexibility Score: inf
ROOT
ATOM      1  O   UNL     1     112.532 109.904 110.220  1.00  0.00    -0.454 OA
ENDROOT
BRANCH   1   2
ATOM      2  C   UNL     1     111.647 110.023 111.300  1.00  0.00     0.214 A 
ATOM      3  C   UNL     1     110.277 110.284 111.107  1.00  0.00     0.180 A 
ATOM      4  O   UNL     1     109.465 110.331 112.155  1.00  0.00    -0.452 OA
ATOM      5  C   UNL     1     112.136 109.884 112.603  1.00  0.00     0.239 A 
ATOM      6  C   UNL     1     109.875 110.164 113.407  1.00  0.00     0.146 A 
ATOM      7  O   UNL     1     113.377 109.756 112.765  1.00  0.00    -0.285 OA
ATOM      8  C   UNL     1     111.240 109.907 113.699  1.00  0.00     0.111 A 
ATOM      9  C   UNL     1     108.935 110.264 114.436  1.00  0.00     0.094 A 
ATOM     10  C   UNL     1     111.620 109.713 115.061  1.00  0.00     0.134 A 
ATOM     11  C   UNL     1     109.325 110.126 115.765  1.00  0.00     0.123 A 
ATOM     12  C   UNL     1     110.661 109.856 116.072  1.00  0.00     0.093 A 
BRANCH   3  13
ATOM     13  C   UNL     1     109.700 110.533 109.766  1.00  0.00     0.025 A 
ATOM     14  C   UNL     1     108.973 111.707 109.533  1.00  0.00     0.016 A 
ATOM     15  C   UNL     1     108.424 111.957 108.274  1.00  0.00     0.051 A 
ATOM     16  C   UNL     1     108.602 111.051 107.223  1.00  0.00     0.157 A 
ATOM     17  C   UNL     1     109.905 109.632 108.707  1.00  0.00     0.062 A 
ATOM     18  C   UNL     1     109.360 109.875 107.441  1.00  0.00     0.158 A 
BRANCH  16  19
ATOM     19  O   UNL     1     108.020 111.356 105.991  1.00  0.00    -0.504 OA
ATOM     20  H   UNL     1     107.023 111.408 105.835  1.00  0.00     0.293 HD
ENDBRANCH  16  19
BRANCH  18  21
ATOM     21  O   UNL     1     109.595 108.934 106.438  1.00  0.00    -0.504 OA
ATOM     22  H   UNL     1     108.866 108.444 105.939  1.00  0.00     0.293 HD
ENDBRANCH  18  21
ENDBRANCH   3  13
BRANCH  10  23
ATOM     23  O   UNL     1     112.908 109.353 115.472  1.00  0.00    -0.507 OA
ATOM     24  H   UNL     1     113.219 109.316 116.431  1.00  0.00     0.293 HD
ENDBRANCH  10  23
BRANCH  11  25
ATOM     25  O   UNL     1     108.375 110.250 116.777  1.00  0.00    -0.508 OA
ATOM     26  H   UNL     1     107.480 109.778 116.724  1.00  0.00     0.293 HD
ENDBRANCH  11  25
ENDBRANCH   1   2
BRANCH   1  27
ATOM     27  C   UNL     1     113.444 110.939 109.847  1.00  0.00     0.339 C 
ATOM     28  C   UNL     1     112.699 112.232 109.471  1.00  0.00     0.214 C 
ATOM     29  O   UNL     1     114.322 110.496 108.821  1.00  0.00    -0.332 OA
ATOM     30  C   UNL     1     111.948 112.040 108.141  1.00  0.00     0.180 C 
ATOM     31  C   UNL     1     113.691 110.284 107.561  1.00  0.00     0.179 C 
ATOM     32  C   UNL     1     112.900 111.517 107.059  1.00  0.00     0.177 C 
BRANCH  28  33
ATOM     33  O   UNL     1     113.625 113.285 109.373  1.00  0.00    -0.384 OA
ATOM     34  H   UNL     1     113.368 113.962 110.054  1.00  0.00     0.211 HD
ENDBRANCH  28  33
BRANCH  30  35
ATOM     35  O   UNL     1     111.367 113.248 107.720  1.00  0.00    -0.387 OA
ATOM     36  H   UNL     1     111.459 113.280 106.732  1.00  0.00     0.211 HD
ENDBRANCH  30  35
BRANCH  31  37
ATOM     37  C   UNL     1     112.875 108.978 107.505  1.00  0.00     0.191 C 
BRANCH  37  38
ATOM     38  O   UNL     1     112.500 108.708 106.183  1.00  0.00    -0.394 OA
ATOM     39  H   UNL     1     112.304 107.736 106.144  1.00  0.00     0.210 HD
ENDBRANCH  37  38
ENDBRANCH  31  37
BRANCH  32  40
ATOM     40  O   UNL     1     113.796 112.536 106.686  1.00  0.00    -0.387 OA
ATOM     41  H   UNL     1     113.591 113.325 107.254  1.00  0.00     0.211 HD
ENDBRANCH  32  40
ENDBRANCH   1  27
TORSDOF 12
ENDMDL
MODEL 7
REMARK VINA RESULT:    -5.436      1.210      1.741
REMARK INTER + INTRA:          -7.780
REMARK INTER:                  -8.899
REMARK INTRA:                   1.119
REMARK UNBOUND:                 0.199
REMARK SMILES O=c1c(O[C@H]2O[C@@H](CO)[C@H](O)[C@H](O)[C@@H]2O)c(-c2ccc(O)c(O)c2)oc2cc(O)cc(O)c12
REMARK SMILES IDX 4 1 3 2 16 3 25 4 2 5 26 6 1 7 33 8 27 9 31 10 28 11 30 12
REMARK SMILES IDX 17 13 18 14 19 15 20 16 24 17 22 18 21 19 23 21 32 23 29 25
REMARK SMILES IDX 5 27 14 28 6 29 12 30 7 31 10 32 15 33 13 35 8 37 9 38 11 40
REMARK H PARENT 21 20 23 22 32 24 29 26 15 34 13 36 9 39 11 41
REMARK Flexibility Score: inf
ROOT
ATOM      1  O   UNL     1     109.383 110.377 113.086  1.00  0.00    -0.454 OA
ENDROOT
BRANCH   1   2
ATOM      2  C   UNL     1     110.247 110.396 111.984  1.00  0.00     0.214 A 
ATOM      3  C   UNL     1     111.645 110.447 112.142  1.00  0.00     0.180 A 
ATOM      4  O   UNL     1     112.427 110.404 111.071  1.00  0.00    -0.452 OA
ATOM      5  C   UNL     1     109.709 110.367 110.693  1.00  0.00     0.239 A 
ATOM      6  C   UNL     1     111.965 110.334 109.829  1.00  0.00     0.146 A 
ATOM      7  O   UNL     1     108.459 110.427 110.565  1.00  0.00    -0.285 OA
ATOM      8  C   UNL     1     110.570 110.289 109.572  1.00  0.00     0.111 A 
ATOM      9  C   UNL     1     112.882 110.324 108.775  1.00  0.00     0.094 A 
ATOM     10  C   UNL     1     110.131 110.191 108.217  1.00  0.00     0.134 A 
ATOM     11  C   UNL     1     112.442 110.282 107.455  1.00  0.00     0.123 A 
ATOM     12  C   UNL     1     111.073 110.220 107.182  1.00  0.00     0.093 A 
BRANCH   3  13
ATOM     13  C   UNL     1     112.287 110.571 113.470  1.00  0.00     0.025 A 
ATOM     14  C   UNL     1     112.207 109.508 114.379  1.00  0.00     0.016 A 
ATOM     15  C   UNL     1     112.809 109.607 115.635  1.00  0.00     0.051 A 
ATOM     16  C   UNL     1     113.512 110.760 116.001  1.00  0.00     0.157 A 
ATOM     17  C   UNL     1     113.015 111.720 113.823  1.00  0.00     0.062 A 
ATOM     18  C   UNL     1     113.622 111.829 115.079  1.00  0.00     0.158 A 
BRANCH  16  19
ATOM     19  O   UNL     1     114.082 110.800 117.275  1.00  0.00    -0.504 OA
ATOM     20  H   UNL     1     114.643 110.057 117.666  1.00  0.00     0.293 HD
ENDBRANCH  16  19
BRANCH  18  21
ATOM     21  O   UNL     1     114.322 113.002 115.366  1.00  0.00    -0.504 OA
ATOM     22  H   UNL     1     114.215 113.865 114.852  1.00  0.00     0.293 HD
ENDBRANCH  18  21
ENDBRANCH   3  13
BRANCH  10  23
ATOM     23  O   UNL     1     108.793 110.036 107.836  1.00  0.00    -0.507 OA
ATOM     24  H   UNL     1     108.384 110.416 106.997  1.00  0.00     0.293 HD
ENDBRANCH  10  23
BRANCH  11  25
ATOM     25  O   UNL     1     113.374 110.294 106.419  1.00  0.00    -0.508 OA
ATOM     26  H   UNL     1     113.192 110.778 105.548  1.00  0.00     0.293 HD
ENDBRANCH  11  25
ENDBRANCH   1   2
BRANCH   1  27
ATOM     27  C   UNL     1     108.662 111.532 113.526  1.00  0.00     0.339 C 
ATOM     28  C   UNL     1     109.605 112.728 113.748  1.00  0.00     0.214 C 
ATOM     29  O   UNL     1     107.878 111.232 114.673  1.00  0.00    -0.332 OA
ATOM     30  C   UNL     1     110.494 112.477 114.979  1.00  0.00     0.180 C 
ATOM     31  C   UNL     1     108.637 110.976 115.851  1.00  0.00     0.179 C 
ATOM     32  C   UNL     1     109.634 112.111 116.195  1.00  0.00     0.177 C 
BRANCH  28  33
ATOM     33  O   UNL     1     108.836 113.893 113.916  1.00  0.00    -0.384 OA
ATOM     34  H   UNL     1     109.387 114.653 113.589  1.00  0.00     0.211 HD
ENDBRANCH  28  33
BRANCH  30  35
ATOM     35  O   UNL     1     111.269 113.612 115.270  1.00  0.00    -0.387 OA
ATOM     36  H   UNL     1     111.788 113.822 114.449  1.00  0.00     0.211 HD
ENDBRANCH  30  35
BRANCH  31  37
ATOM     37  C   UNL     1     109.286 109.579 115.861  1.00  0.00     0.191 C 
BRANCH  37  38
ATOM     38  O   UNL     1     108.557 108.709 115.040  1.00  0.00    -0.394 OA
ATOM     39  H   UNL     1     107.604 108.826 115.291  1.00  0.00     0.210 HD
ENDBRANCH  37  38
ENDBRANCH  31  37
BRANCH  32  40
ATOM     40  O   UNL     1     108.928 113.246 116.633  1.00  0.00    -0.387 OA
ATOM     41  H   UNL     1     109.333 113.525 117.496  1.00  0.00     0.211 HD
ENDBRANCH  32  40
ENDBRANCH   1  27
TORSDOF 12
ENDMDL
MODEL 8
REMARK VINA RESULT:    -5.306      2.274      7.495
REMARK INTER + INTRA:          -7.589
REMARK INTER:                  -7.490
REMARK INTRA:                  -0.099
REMARK UNBOUND:                 0.199
REMARK SMILES O=c1c(O[C@H]2O[C@@H](CO)[C@H](O)[C@H](O)[C@@H]2O)c(-c2ccc(O)c(O)c2)oc2cc(O)cc(O)c12
REMARK SMILES IDX 4 1 3 2 16 3 25 4 2 5 26 6 1 7 33 8 27 9 31 10 28 11 30 12
REMARK SMILES IDX 17 13 18 14 19 15 20 16 24 17 22 18 21 19 23 21 32 23 29 25
REMARK SMILES IDX 5 27 14 28 6 29 12 30 7 31 10 32 15 33 13 35 8 37 9 38 11 40
REMARK H PARENT 21 20 23 22 32 24 29 26 15 34 13 36 9 39 11 41
REMARK Flexibility Score: inf
ROOT
ATOM      1  O   UNL     1     112.516 109.912 115.149  1.00  0.00    -0.454 OA
ENDROOT
BRANCH   1   2
ATOM      2  C   UNL     1     111.616 110.042 116.214  1.00  0.00     0.214 A 
ATOM      3  C   UNL     1     110.251 110.312 116.000  1.00  0.00     0.180 A 
ATOM      4  O   UNL     1     109.424 110.369 117.036  1.00  0.00    -0.452 OA
ATOM      5  C   UNL     1     112.085 109.906 117.525  1.00  0.00     0.239 A 
ATOM      6  C   UNL     1     109.814 110.205 118.294  1.00  0.00     0.146 A 
ATOM      7  O   UNL     1     113.322 109.770 117.707  1.00  0.00    -0.285 OA
ATOM      8  C   UNL     1     111.172 109.940 118.608  1.00  0.00     0.111 A 
ATOM      9  C   UNL     1     108.859 110.316 119.309  1.00  0.00     0.094 A 
ATOM     10  C   UNL     1     111.530 109.749 119.977  1.00  0.00     0.134 A 
ATOM     11  C   UNL     1     109.228 110.181 120.644  1.00  0.00     0.123 A 
ATOM     12  C   UNL     1     110.557 109.904 120.972  1.00  0.00     0.093 A 
BRANCH   3  13
ATOM     13  C   UNL     1     109.696 110.558 114.650  1.00  0.00     0.025 A 
ATOM     14  C   UNL     1     108.990 111.741 114.397  1.00  0.00     0.016 A 
ATOM     15  C   UNL     1     108.462 111.990 113.129  1.00  0.00     0.051 A 
ATOM     16  C   UNL     1     108.640 111.073 112.088  1.00  0.00     0.157 A 
ATOM     17  C   UNL     1     109.901 109.647 113.601  1.00  0.00     0.062 A 
ATOM     18  C   UNL     1     109.377 109.887 112.325  1.00  0.00     0.158 A 
BRANCH  16  19
ATOM     19  O   UNL     1     108.079 111.377 110.846  1.00  0.00    -0.504 OA
ATOM     20  H   UNL     1     108.252 112.235 110.343  1.00  0.00     0.293 HD
ENDBRANCH  16  19
BRANCH  18  21
ATOM     21  O   UNL     1     109.611 108.934 111.333  1.00  0.00    -0.504 OA
ATOM     22  H   UNL     1     109.427 109.083 110.351  1.00  0.00     0.293 HD
ENDBRANCH  18  21
ENDBRANCH   3  13
BRANCH  10  23
ATOM     23  O   UNL     1     112.809 109.382 120.409  1.00  0.00    -0.507 OA
ATOM     24  H   UNL     1     113.665 109.590 119.919  1.00  0.00     0.293 HD
ENDBRANCH  10  23
BRANCH  11  25
ATOM     25  O   UNL     1     108.263 110.316 121.641  1.00  0.00    -0.508 OA
ATOM     26  H   UNL     1     108.223 109.681 122.428  1.00  0.00     0.293 HD
ENDBRANCH  11  25
ENDBRANCH   1   2
BRANCH   1  27
ATOM     27  C   UNL     1     113.444 110.938 114.788  1.00  0.00     0.339 C 
ATOM     28  C   UNL     1     112.716 112.236 114.392  1.00  0.00     0.214 C 
ATOM     29  O   UNL     1     114.336 110.482 113.780  1.00  0.00    -0.332 OA
ATOM     30  C   UNL     1     111.988 112.043 113.050  1.00  0.00     0.180 C 
ATOM     31  C   UNL     1     113.727 110.270 112.510  1.00  0.00     0.179 C 
ATOM     32  C   UNL     1     112.955 111.508 111.988  1.00  0.00     0.177 C 
BRANCH  28  33
ATOM     33  O   UNL     1     113.654 113.280 114.307  1.00  0.00    -0.384 OA
ATOM     34  H   UNL     1     113.229 114.008 113.780  1.00  0.00     0.211 HD
ENDBRANCH  28  33
BRANCH  30  35
ATOM     35  O   UNL     1     111.426 113.255 112.613  1.00  0.00    -0.387 OA
ATOM     36  H   UNL     1     110.550 113.346 113.074  1.00  0.00     0.211 HD
ENDBRANCH  30  35
BRANCH  31  37
ATOM     37  C   UNL     1     112.901 108.971 112.444  1.00  0.00     0.191 C 
BRANCH  37  38
ATOM     38  O   UNL     1     112.508 108.722 111.123  1.00  0.00    -0.394 OA
ATOM     39  H   UNL     1     113.110 109.262 110.549  1.00  0.00     0.210 HD
ENDBRANCH  37  38
ENDBRANCH  31  37
BRANCH  32  40
ATOM     40  O   UNL     1     113.866 112.517 111.627  1.00  0.00    -0.387 OA
ATOM     41  H   UNL     1     114.731 112.071 111.428  1.00  0.00     0.211 HD
ENDBRANCH  32  40
ENDBRANCH   1  27
TORSDOF 12
ENDMDL
MODEL 9
REMARK VINA RESULT:    -5.266      2.263      7.012
REMARK INTER + INTRA:          -7.530
REMARK INTER:                  -7.551
REMARK INTRA:                   0.020
REMARK UNBOUND:                 0.199
REMARK SMILES O=c1c(O[C@H]2O[C@@H](CO)[C@H](O)[C@H](O)[C@@H]2O)c(-c2ccc(O)c(O)c2)oc2cc(O)cc(O)c12
REMARK SMILES IDX 4 1 3 2 16 3 25 4 2 5 26 6 1 7 33 8 27 9 31 10 28 11 30 12
REMARK SMILES IDX 17 13 18 14 19 15 20 16 24 17 22 18 21 19 23 21 32 23 29 25
REMARK SMILES IDX 5 27 14 28 6 29 12 30 7 31 10 32 15 33 13 35 8 37 9 38 11 40
REMARK H PARENT 21 20 23 22 32 24 29 26 15 34 13 36 9 39 11 41
REMARK Flexibility Score: inf
ROOT
ATOM      1  O   UNL     1     109.736 112.368 115.136  1.00  0.00    -0.454 OA
ENDROOT
BRANCH   1   2
ATOM      2  C   UNL     1     110.631 112.229 116.204  1.00  0.00     0.214 A 
ATOM      3  C   UNL     1     111.994 111.943 115.994  1.00  0.00     0.180 A 
ATOM      4  O   UNL     1     112.817 111.878 117.032  1.00  0.00    -0.452 OA
ATOM      5  C   UNL     1     110.161 112.373 117.514  1.00  0.00     0.239 A 
ATOM      6  C   UNL     1     112.426 112.048 118.289  1.00  0.00     0.146 A 
ATOM      7  O   UNL     1     108.925 112.524 117.692  1.00  0.00    -0.285 OA
ATOM      8  C   UNL     1     111.070 112.330 118.598  1.00  0.00     0.111 A 
ATOM      9  C   UNL     1     113.377 111.928 119.306  1.00  0.00     0.094 A 
ATOM     10  C   UNL     1     110.711 112.527 119.966  1.00  0.00     0.134 A 
ATOM     11  C   UNL     1     113.006 112.069 120.640  1.00  0.00     0.123 A 
ATOM     12  C   UNL     1     111.679 112.362 120.964  1.00  0.00     0.093 A 
BRANCH   3  13
ATOM     13  C   UNL     1     112.550 111.688 114.645  1.00  0.00     0.025 A 
ATOM     14  C   UNL     1     113.238 110.495 114.395  1.00  0.00     0.016 A 
ATOM     15  C   UNL     1     113.766 110.238 113.128  1.00  0.00     0.051 A 
ATOM     16  C   UNL     1     113.606 111.158 112.087  1.00  0.00     0.157 A 
ATOM     17  C   UNL     1     112.362 112.603 113.596  1.00  0.00     0.062 A 
ATOM     18  C   UNL     1     112.887 112.355 112.322  1.00  0.00     0.158 A 
BRANCH  16  19
ATOM     19  O   UNL     1     114.166 110.845 110.847  1.00  0.00    -0.504 OA
ATOM     20  H   UNL     1     114.682 111.502 110.279  1.00  0.00     0.293 HD
ENDBRANCH  16  19
BRANCH  18  21
ATOM     21  O   UNL     1     112.670 113.311 111.329  1.00  0.00    -0.504 OA
ATOM     22  H   UNL     1     113.179 113.348 110.458  1.00  0.00     0.293 HD
ENDBRANCH  18  21
ENDBRANCH   3  13
BRANCH  10  23
ATOM     23  O   UNL     1     109.435 112.909 120.394  1.00  0.00    -0.507 OA
ATOM     24  H   UNL     1     108.984 113.780 120.160  1.00  0.00     0.293 HD
ENDBRANCH  10  23
BRANCH  11  25
ATOM     25  O   UNL     1     113.966 111.924 121.640  1.00  0.00    -0.508 OA
ATOM     26  H   UNL     1     114.542 112.702 121.938  1.00  0.00     0.293 HD
ENDBRANCH  11  25
ENDBRANCH   1   2
BRANCH   1  27
ATOM     27  C   UNL     1     108.803 111.349 114.768  1.00  0.00     0.339 C 
ATOM     28  C   UNL     1     109.524 110.046 114.380  1.00  0.00     0.214 C 
ATOM     29  O   UNL     1     107.923 111.811 113.753  1.00  0.00    -0.332 OA
ATOM     30  C   UNL     1     110.265 110.232 113.043  1.00  0.00     0.180 C 
ATOM     31  C   UNL     1     108.544 112.017 112.487  1.00  0.00     0.179 C 
ATOM     32  C   UNL     1     109.310 110.773 111.972  1.00  0.00     0.177 C 
BRANCH  28  33
ATOM     33  O   UNL     1     108.580 109.008 114.287  1.00  0.00    -0.384 OA
ATOM     34  H   UNL     1     108.218 109.027 113.361  1.00  0.00     0.211 HD
ENDBRANCH  28  33
BRANCH  30  35
ATOM     35  O   UNL     1     110.822 109.016 112.612  1.00  0.00    -0.387 OA
ATOM     36  H   UNL     1     110.338 108.758 111.783  1.00  0.00     0.211 HD
ENDBRANCH  30  35
BRANCH  31  37
ATOM     37  C   UNL     1     109.381 113.310 112.428  1.00  0.00     0.191 C 
BRANCH  37  38
ATOM     38  O   UNL     1     109.757 113.574 111.104  1.00  0.00    -0.394 OA
ATOM     39  H   UNL     1     109.001 113.272 110.536  1.00  0.00     0.210 HD
ENDBRANCH  37  38
ENDBRANCH  31  37
BRANCH  32  40
ATOM     40  O   UNL     1     108.395 109.771 111.605  1.00  0.00    -0.387 OA
ATOM     41  H   UNL     1     107.487 110.165 111.678  1.00  0.00     0.211 HD
ENDBRANCH  32  40
ENDBRANCH   1  27
TORSDOF 12
ENDMDL
