MODEL 1
REMARK VINA RESULT:    -8.003      0.000      0.000
REMARK INTER + INTRA:          -9.690
REMARK INTER:                  -9.406
REMARK INTRA:                  -0.284
REMARK UNBOUND:                -0.284
REMARK SMILES O=c1c(O)c(-c2ccc(O)cc2)oc2cc(O)cc(O)c12
REMARK SMILES IDX 5 1 3 2 2 3 1 4 21 5 19 6 18 7 16 8 15 9 14 10 13 11 6 12
REMARK SMILES IDX 7 13 8 14 9 15 12 16 11 17 10 18 4 20 20 22 17 24
REMARK H PARENT 10 19 4 21 20 23 17 25
REMARK Flexibility Score: inf
ROOT
ATOM      1  C   UNL     1     -24.699 -20.194 -13.365  1.00  0.00     0.180 A 
ATOM      2  C   UNL     1     -24.508 -21.288 -14.227  1.00  0.00     0.208 A 
ATOM      3  C   UNL     1     -24.259 -22.555 -13.674  1.00  0.00     0.238 A 
ATOM      4  O   UNL     1     -24.015 -23.513 -14.451  1.00  0.00    -0.285 OA
ATOM      5  C   UNL     1     -24.262 -22.723 -12.268  1.00  0.00     0.111 A 
ATOM      6  C   UNL     1     -24.065 -23.969 -11.599  1.00  0.00     0.134 A 
ATOM      7  C   UNL     1     -23.982 -23.998 -10.202  1.00  0.00     0.093 A 
ATOM      8  C   UNL     1     -24.151 -22.834  -9.446  1.00  0.00     0.123 A 
ATOM      9  C   UNL     1     -24.397 -21.623 -10.087  1.00  0.00     0.094 A 
ATOM     10  C   UNL     1     -24.447 -21.556 -11.481  1.00  0.00     0.146 A 
ATOM     11  O   UNL     1     -24.663 -20.377 -12.051  1.00  0.00    -0.452 OA
ENDROOT
BRANCH   1  12
ATOM     12  C   UNL     1     -24.951 -18.826 -13.873  1.00  0.00     0.021 A 
ATOM     13  C   UNL     1     -26.258 -18.348 -14.080  1.00  0.00     0.016 A 
ATOM     14  C   UNL     1     -26.469 -17.062 -14.583  1.00  0.00     0.047 A 
ATOM     15  C   UNL     1     -25.379 -16.241 -14.900  1.00  0.00     0.115 A 
ATOM     16  C   UNL     1     -23.864 -18.004 -14.213  1.00  0.00     0.016 A 
ATOM     17  C   UNL     1     -24.077 -16.717 -14.716  1.00  0.00     0.047 A 
BRANCH  15  18
ATOM     18  O   UNL     1     -25.577 -14.957 -15.402  1.00  0.00    -0.508 OA
ATOM     19  H   UNL     1     -26.175 -14.290 -14.928  1.00  0.00     0.293 HD
ENDBRANCH  15  18
ENDBRANCH   1  12
BRANCH   2  20
ATOM     20  O   UNL     1     -24.586 -21.115 -15.611  1.00  0.00    -0.502 OA
ATOM     21  H   UNL     1     -24.999 -20.292 -16.034  1.00  0.00     0.293 HD
ENDBRANCH   2  20
BRANCH   6  22
ATOM     22  O   UNL     1     -23.974 -25.202 -12.252  1.00  0.00    -0.507 OA
ATOM     23  H   UNL     1     -23.649 -26.058 -11.829  1.00  0.00     0.293 HD
ENDBRANCH   6  22
BRANCH   8  24
ATOM     24  O   UNL     1     -24.083 -22.875  -8.056  1.00  0.00    -0.508 OA
ATOM     25  H   UNL     1     -23.238 -22.619  -7.557  1.00  0.00     0.293 HD
ENDBRANCH   8  24
TORSDOF 5
ENDMDL
MODEL 2
REMARK VINA RESULT:    -7.853      5.362      8.315
REMARK INTER + INTRA:          -9.514
REMARK INTER:                  -9.301
REMARK INTRA:                  -0.213
REMARK UNBOUND:                -0.284
REMARK SMILES O=c1c(O)c(-c2ccc(O)cc2)oc2cc(O)cc(O)c12
REMARK SMILES IDX 5 1 3 2 2 3 1 4 21 5 19 6 18 7 16 8 15 9 14 10 13 11 6 12
REMARK SMILES IDX 7 13 8 14 9 15 12 16 11 17 10 18 4 20 20 22 17 24
REMARK H PARENT 10 19 4 21 20 23 17 25
REMARK Flexibility Score: inf
ROOT
ATOM      1  C   UNL     1     -22.099 -14.388 -11.397  1.00  0.00     0.180 A 
ATOM      2  C   UNL     1     -21.469 -13.848 -12.532  1.00  0.00     0.208 A 
ATOM      3  C   UNL     1     -21.867 -14.287 -13.805  1.00  0.00     0.238 A 
ATOM      4  O   UNL     1     -21.249 -13.855 -14.812  1.00  0.00    -0.285 OA
ATOM      5  C   UNL     1     -22.929 -15.216 -13.930  1.00  0.00     0.111 A 
ATOM      6  C   UNL     1     -23.445 -15.696 -15.173  1.00  0.00     0.134 A 
ATOM      7  C   UNL     1     -24.426 -16.695 -15.173  1.00  0.00     0.093 A 
ATOM      8  C   UNL     1     -24.954 -17.187 -13.976  1.00  0.00     0.123 A 
ATOM      9  C   UNL     1     -24.496 -16.686 -12.761  1.00  0.00     0.094 A 
ATOM     10  C   UNL     1     -23.490 -15.716 -12.727  1.00  0.00     0.146 A 
ATOM     11  O   UNL     1     -23.068 -15.283 -11.546  1.00  0.00    -0.452 OA
ENDROOT
BRANCH   1  12
ATOM     12  C   UNL     1     -21.724 -13.987 -10.022  1.00  0.00     0.021 A 
ATOM     13  C   UNL     1     -20.500 -14.380  -9.451  1.00  0.00     0.016 A 
ATOM     14  C   UNL     1     -20.180 -14.009  -8.142  1.00  0.00     0.047 A 
ATOM     15  C   UNL     1     -21.083 -13.255  -7.382  1.00  0.00     0.115 A 
ATOM     16  C   UNL     1     -22.633 -13.249  -9.245  1.00  0.00     0.016 A 
ATOM     17  C   UNL     1     -22.311 -12.879  -7.936  1.00  0.00     0.047 A 
BRANCH  15  18
ATOM     18  O   UNL     1     -20.775 -12.879  -6.076  1.00  0.00    -0.508 OA
ATOM     19  H   UNL     1     -19.871 -13.083  -5.666  1.00  0.00     0.293 HD
ENDBRANCH  15  18
ENDBRANCH   1  12
BRANCH   2  20
ATOM     20  O   UNL     1     -20.477 -12.875 -12.389  1.00  0.00    -0.502 OA
ATOM     21  H   UNL     1     -20.584 -12.075 -11.777  1.00  0.00     0.293 HD
ENDBRANCH   2  20
BRANCH   6  22
ATOM     22  O   UNL     1     -23.052 -15.211 -16.424  1.00  0.00    -0.507 OA
ATOM     23  H   UNL     1     -23.545 -15.374 -17.288  1.00  0.00     0.293 HD
ENDBRANCH   6  22
BRANCH   8  24
ATOM     24  O   UNL     1     -25.941 -18.169 -13.986  1.00  0.00    -0.508 OA
ATOM     25  H   UNL     1     -26.558 -18.311 -13.194  1.00  0.00     0.293 HD
ENDBRANCH   8  24
TORSDOF 5
ENDMDL
MODEL 3
REMARK VINA RESULT:    -7.414      1.320      2.929
REMARK INTER + INTRA:          -8.999
REMARK INTER:                  -8.739
REMARK INTRA:                  -0.260
REMARK UNBOUND:                -0.284
REMARK SMILES O=c1c(O)c(-c2ccc(O)cc2)oc2cc(O)cc(O)c12
REMARK SMILES IDX 5 1 3 2 2 3 1 4 21 5 19 6 18 7 16 8 15 9 14 10 13 11 6 12
REMARK SMILES IDX 7 13 8 14 9 15 12 16 11 17 10 18 4 20 20 22 17 24
REMARK H PARENT 10 19 4 21 20 23 17 25
REMARK Flexibility Score: inf
ROOT
ATOM      1  C   UNL     1     -24.974 -19.541 -13.152  1.00  0.00     0.180 A 
ATOM      2  C   UNL     1     -25.397 -19.646 -11.815  1.00  0.00     0.208 A 
ATOM      3  C   UNL     1     -25.339 -20.896 -11.179  1.00  0.00     0.238 A 
ATOM      4  O   UNL     1     -25.787 -20.998 -10.008  1.00  0.00    -0.285 OA
ATOM      5  C   UNL     1     -24.806 -22.013 -11.867  1.00  0.00     0.111 A 
ATOM      6  C   UNL     1     -24.659 -23.318 -11.305  1.00  0.00     0.134 A 
ATOM      7  C   UNL     1     -24.218 -24.373 -12.114  1.00  0.00     0.093 A 
ATOM      8  C   UNL     1     -23.861 -24.157 -13.448  1.00  0.00     0.123 A 
ATOM      9  C   UNL     1     -23.950 -22.877 -13.989  1.00  0.00     0.094 A 
ATOM     10  C   UNL     1     -24.422 -21.812 -13.219  1.00  0.00     0.146 A 
ATOM     11  O   UNL     1     -24.512 -20.614 -13.782  1.00  0.00    -0.452 OA
ENDROOT
BRANCH   1  12
ATOM     12  C   UNL     1     -25.020 -18.261 -13.895  1.00  0.00     0.021 A 
ATOM     13  C   UNL     1     -26.225 -17.757 -14.416  1.00  0.00     0.016 A 
ATOM     14  C   UNL     1     -26.238 -16.558 -15.136  1.00  0.00     0.047 A 
ATOM     15  C   UNL     1     -25.046 -15.856 -15.355  1.00  0.00     0.115 A 
ATOM     16  C   UNL     1     -23.827 -17.561 -14.139  1.00  0.00     0.016 A 
ATOM     17  C   UNL     1     -23.841 -16.363 -14.858  1.00  0.00     0.047 A 
BRANCH  15  18
ATOM     18  O   UNL     1     -25.046 -14.660 -16.070  1.00  0.00    -0.508 OA
ATOM     19  H   UNL     1     -25.372 -14.617 -17.029  1.00  0.00     0.293 HD
ENDBRANCH  15  18
ENDBRANCH   1  12
BRANCH   2  20
ATOM     20  O   UNL     1     -25.846 -18.515 -11.129  1.00  0.00    -0.502 OA
ATOM     21  H   UNL     1     -26.792 -18.432 -10.777  1.00  0.00     0.293 HD
ENDBRANCH   2  20
BRANCH   6  22
ATOM     22  O   UNL     1     -24.902 -23.625  -9.963  1.00  0.00    -0.507 OA
ATOM     23  H   UNL     1     -25.717 -23.340  -9.443  1.00  0.00     0.293 HD
ENDBRANCH   6  22
BRANCH   8  24
ATOM     24  O   UNL     1     -23.408 -25.209 -14.241  1.00  0.00    -0.508 OA
ATOM     25  H   UNL     1     -23.649 -25.275 -15.223  1.00  0.00     0.293 HD
ENDBRANCH   8  24
TORSDOF 5
ENDMDL
MODEL 4
REMARK VINA RESULT:    -7.369      2.522      7.498
REMARK INTER + INTRA:          -8.946
REMARK INTER:                  -8.650
REMARK INTRA:                  -0.296
REMARK UNBOUND:                -0.284
REMARK SMILES O=c1c(O)c(-c2ccc(O)cc2)oc2cc(O)cc(O)c12
REMARK SMILES IDX 5 1 3 2 2 3 1 4 21 5 19 6 18 7 16 8 15 9 14 10 13 11 6 12
REMARK SMILES IDX 7 13 8 14 9 15 12 16 11 17 10 18 4 20 20 22 17 24
REMARK H PARENT 10 19 4 21 20 23 17 25
REMARK Flexibility Score: inf
ROOT
ATOM      1  C   UNL     1     -24.524 -17.626 -13.877  1.00  0.00     0.180 A 
ATOM      2  C   UNL     1     -25.495 -16.839 -14.520  1.00  0.00     0.208 A 
ATOM      3  C   UNL     1     -25.157 -15.538 -14.926  1.00  0.00     0.238 A 
ATOM      4  O   UNL     1     -26.052 -14.814 -15.434  1.00  0.00    -0.285 OA
ATOM      5  C   UNL     1     -23.838 -15.060 -14.735  1.00  0.00     0.111 A 
ATOM      6  C   UNL     1     -23.373 -13.775 -15.148  1.00  0.00     0.134 A 
ATOM      7  C   UNL     1     -22.076 -13.369 -14.811  1.00  0.00     0.093 A 
ATOM      8  C   UNL     1     -21.205 -14.227 -14.132  1.00  0.00     0.123 A 
ATOM      9  C   UNL     1     -21.633 -15.502 -13.774  1.00  0.00     0.094 A 
ATOM     10  C   UNL     1     -22.934 -15.922 -14.061  1.00  0.00     0.146 A 
ATOM     11  O   UNL     1     -23.305 -17.138 -13.682  1.00  0.00    -0.452 OA
ENDROOT
BRANCH   1  12
ATOM     12  C   UNL     1     -24.809 -19.001 -13.407  1.00  0.00     0.021 A 
ATOM     13  C   UNL     1     -25.378 -19.242 -12.143  1.00  0.00     0.016 A 
ATOM     14  C   UNL     1     -25.614 -20.550 -11.712  1.00  0.00     0.047 A 
ATOM     15  C   UNL     1     -25.272 -21.634 -12.530  1.00  0.00     0.115 A 
ATOM     16  C   UNL     1     -24.449 -20.095 -14.211  1.00  0.00     0.016 A 
ATOM     17  C   UNL     1     -24.687 -21.403 -13.779  1.00  0.00     0.047 A 
BRANCH  15  18
ATOM     18  O   UNL     1     -25.504 -22.943 -12.112  1.00  0.00    -0.508 OA
ATOM     19  H   UNL     1     -26.132 -23.150 -11.344  1.00  0.00     0.293 HD
ENDBRANCH  15  18
ENDBRANCH   1  12
BRANCH   2  20
ATOM     20  O   UNL     1     -26.769 -17.358 -14.768  1.00  0.00    -0.502 OA
ATOM     21  H   UNL     1     -27.194 -18.061 -14.177  1.00  0.00     0.293 HD
ENDBRANCH   2  20
BRANCH   6  22
ATOM     22  O   UNL     1     -24.128 -12.875 -15.907  1.00  0.00    -0.507 OA
ATOM     23  H   UNL     1     -24.169 -11.880 -15.752  1.00  0.00     0.293 HD
ENDBRANCH   6  22
BRANCH   8  24
ATOM     24  O   UNL     1     -19.912 -13.821 -13.816  1.00  0.00    -0.508 OA
ATOM     25  H   UNL     1     -19.183 -14.491 -13.600  1.00  0.00     0.293 HD
ENDBRANCH   8  24
TORSDOF 5
ENDMDL
MODEL 5
REMARK VINA RESULT:    -7.274      4.493      7.333
REMARK INTER + INTRA:          -8.834
REMARK INTER:                  -8.560
REMARK INTRA:                  -0.275
REMARK UNBOUND:                -0.284
REMARK SMILES O=c1c(O)c(-c2ccc(O)cc2)oc2cc(O)cc(O)c12
REMARK SMILES IDX 5 1 3 2 2 3 1 4 21 5 19 6 18 7 16 8 15 9 14 10 13 11 6 12
REMARK SMILES IDX 7 13 8 14 9 15 12 16 11 17 10 18 4 20 20 22 17 24
REMARK H PARENT 10 19 4 21 20 23 17 25
REMARK Flexibility Score: inf
ROOT
ATOM      1  C   UNL     1     -23.273 -14.912 -11.836  1.00  0.00     0.180 A 
ATOM      2  C   UNL     1     -23.448 -14.168 -13.016  1.00  0.00     0.208 A 
ATOM      3  C   UNL     1     -24.172 -14.735 -14.077  1.00  0.00     0.238 A 
ATOM      4  O   UNL     1     -24.262 -14.093 -15.156  1.00  0.00    -0.285 OA
ATOM      5  C   UNL     1     -24.760 -16.014 -13.925  1.00  0.00     0.111 A 
ATOM      6  C   UNL     1     -25.552 -16.666 -14.919  1.00  0.00     0.134 A 
ATOM      7  C   UNL     1     -25.994 -17.977 -14.699  1.00  0.00     0.093 A 
ATOM      8  C   UNL     1     -25.725 -18.636 -13.496  1.00  0.00     0.123 A 
ATOM      9  C   UNL     1     -25.000 -17.987 -12.500  1.00  0.00     0.094 A 
ATOM     10  C   UNL     1     -24.513 -16.694 -12.705  1.00  0.00     0.146 A 
ATOM     11  O   UNL     1     -23.808 -16.123 -11.736  1.00  0.00    -0.452 OA
ENDROOT
BRANCH   1  12
ATOM     12  C   UNL     1     -22.510 -14.389 -10.680  1.00  0.00     0.021 A 
ATOM     13  C   UNL     1     -23.101 -13.525  -9.740  1.00  0.00     0.016 A 
ATOM     14  C   UNL     1     -22.352 -13.024  -8.671  1.00  0.00     0.047 A 
ATOM     15  C   UNL     1     -21.001 -13.368  -8.536  1.00  0.00     0.115 A 
ATOM     16  C   UNL     1     -21.149 -14.710 -10.548  1.00  0.00     0.016 A 
ATOM     17  C   UNL     1     -20.402 -14.209  -9.478  1.00  0.00     0.047 A 
BRANCH  15  18
ATOM     18  O   UNL     1     -20.245 -12.876  -7.474  1.00  0.00    -0.508 OA
ATOM     19  H   UNL     1     -20.659 -12.699  -6.566  1.00  0.00     0.293 HD
ENDBRANCH  15  18
ENDBRANCH   1  12
BRANCH   2  20
ATOM     20  O   UNL     1     -22.926 -12.876 -13.116  1.00  0.00    -0.502 OA
ATOM     21  H   UNL     1     -23.444 -12.111 -13.532  1.00  0.00     0.293 HD
ENDBRANCH   2  20
BRANCH   6  22
ATOM     22  O   UNL     1     -25.954 -16.068 -16.117  1.00  0.00    -0.507 OA
ATOM     23  H   UNL     1     -26.899 -15.794 -16.338  1.00  0.00     0.293 HD
ENDBRANCH   6  22
BRANCH   8  24
ATOM     24  O   UNL     1     -26.183 -19.933 -13.280  1.00  0.00    -0.508 OA
ATOM     25  H   UNL     1     -25.845 -20.493 -12.505  1.00  0.00     0.293 HD
ENDBRANCH   8  24
TORSDOF 5
ENDMDL
MODEL 6
REMARK VINA RESULT:    -7.268      2.078      2.453
REMARK INTER + INTRA:          -8.828
REMARK INTER:                  -8.539
REMARK INTRA:                  -0.289
REMARK UNBOUND:                -0.284
REMARK SMILES O=c1c(O)c(-c2ccc(O)cc2)oc2cc(O)cc(O)c12
REMARK SMILES IDX 5 1 3 2 2 3 1 4 21 5 19 6 18 7 16 8 15 9 14 10 13 11 6 12
REMARK SMILES IDX 7 13 8 14 9 15 12 16 11 17 10 18 4 20 20 22 17 24
REMARK H PARENT 10 19 4 21 20 23 17 25
REMARK Flexibility Score: inf
ROOT
ATOM      1  C   UNL     1     -25.177 -18.906 -13.351  1.00  0.00     0.180 A 
ATOM      2  C   UNL     1     -24.303 -19.907 -13.810  1.00  0.00     0.208 A 
ATOM      3  C   UNL     1     -24.464 -21.220 -13.339  1.00  0.00     0.238 A 
ATOM      4  O   UNL     1     -23.632 -22.094 -13.696  1.00  0.00    -0.285 OA
ATOM      5  C   UNL     1     -25.530 -21.528 -12.460  1.00  0.00     0.111 A 
ATOM      6  C   UNL     1     -25.815 -22.833 -11.955  1.00  0.00     0.134 A 
ATOM      7  C   UNL     1     -26.832 -23.001 -11.008  1.00  0.00     0.093 A 
ATOM      8  C   UNL     1     -27.617 -21.920 -10.594  1.00  0.00     0.123 A 
ATOM      9  C   UNL     1     -27.382 -20.654 -11.122  1.00  0.00     0.094 A 
ATOM     10  C   UNL     1     -26.349 -20.448 -12.040  1.00  0.00     0.146 A 
ATOM     11  O   UNL     1     -26.147 -19.219 -12.501  1.00  0.00    -0.452 OA
ENDROOT
BRANCH   1  12
ATOM     12  C   UNL     1     -25.062 -17.497 -13.790  1.00  0.00     0.021 A 
ATOM     13  C   UNL     1     -24.165 -16.606 -13.171  1.00  0.00     0.016 A 
ATOM     14  C   UNL     1     -24.093 -15.274 -13.587  1.00  0.00     0.047 A 
ATOM     15  C   UNL     1     -24.924 -14.810 -14.615  1.00  0.00     0.115 A 
ATOM     16  C   UNL     1     -25.907 -17.018 -14.805  1.00  0.00     0.016 A 
ATOM     17  C   UNL     1     -25.832 -15.685 -15.220  1.00  0.00     0.047 A 
BRANCH  15  18
ATOM     18  O   UNL     1     -24.860 -13.485 -15.039  1.00  0.00    -0.508 OA
ATOM     19  H   UNL     1     -25.699 -12.931 -15.171  1.00  0.00     0.293 HD
ENDBRANCH  15  18
ENDBRANCH   1  12
BRANCH   2  20
ATOM     20  O   UNL     1     -23.305 -19.597 -14.737  1.00  0.00    -0.502 OA
ATOM     21  H   UNL     1     -22.713 -18.780 -14.647  1.00  0.00     0.293 HD
ENDBRANCH   2  20
BRANCH   6  22
ATOM     22  O   UNL     1     -25.153 -23.994 -12.367  1.00  0.00    -0.507 OA
ATOM     23  H   UNL     1     -25.606 -24.849 -12.648  1.00  0.00     0.293 HD
ENDBRANCH   6  22
BRANCH   8  24
ATOM     24  O   UNL     1     -28.637 -22.099  -9.664  1.00  0.00    -0.508 OA
ATOM     25  H   UNL     1     -28.753 -22.973  -9.164  1.00  0.00     0.293 HD
ENDBRANCH   8  24
TORSDOF 5
ENDMDL
MODEL 7
REMARK VINA RESULT:    -6.993      2.225      3.490
REMARK INTER + INTRA:          -8.503
REMARK INTER:                  -8.246
REMARK INTRA:                  -0.257
REMARK UNBOUND:                -0.284
REMARK SMILES O=c1c(O)c(-c2ccc(O)cc2)oc2cc(O)cc(O)c12
REMARK SMILES IDX 5 1 3 2 2 3 1 4 21 5 19 6 18 7 16 8 15 9 14 10 13 11 6 12
REMARK SMILES IDX 7 13 8 14 9 15 12 16 11 17 10 18 4 20 20 22 17 24
REMARK H PARENT 10 19 4 21 20 23 17 25
REMARK Flexibility Score: inf
ROOT
ATOM      1  C   UNL     1     -25.767 -19.810 -11.416  1.00  0.00     0.180 A 
ATOM      2  C   UNL     1     -26.967 -19.794 -10.683  1.00  0.00     0.208 A 
ATOM      3  C   UNL     1     -27.194 -20.798  -9.727  1.00  0.00     0.238 A 
ATOM      4  O   UNL     1     -28.300 -20.821  -9.129  1.00  0.00    -0.285 OA
ATOM      5  C   UNL     1     -26.196 -21.771  -9.477  1.00  0.00     0.111 A 
ATOM      6  C   UNL     1     -26.301 -22.808  -8.500  1.00  0.00     0.134 A 
ATOM      7  C   UNL     1     -25.296 -23.779  -8.413  1.00  0.00     0.093 A 
ATOM      8  C   UNL     1     -24.159 -23.715  -9.225  1.00  0.00     0.123 A 
ATOM      9  C   UNL     1     -24.024 -22.676 -10.142  1.00  0.00     0.094 A 
ATOM     10  C   UNL     1     -25.027 -21.715 -10.279  1.00  0.00     0.146 A 
ATOM     11  O   UNL     1     -24.865 -20.755 -11.182  1.00  0.00    -0.452 OA
ENDROOT
BRANCH   1  12
ATOM     12  C   UNL     1     -25.462 -18.795 -12.450  1.00  0.00     0.021 A 
ATOM     13  C   UNL     1     -24.651 -17.680 -12.168  1.00  0.00     0.016 A 
ATOM     14  C   UNL     1     -24.399 -16.723 -13.154  1.00  0.00     0.047 A 
ATOM     15  C   UNL     1     -24.963 -16.858 -14.429  1.00  0.00     0.115 A 
ATOM     16  C   UNL     1     -26.042 -18.911 -13.724  1.00  0.00     0.016 A 
ATOM     17  C   UNL     1     -25.788 -17.952 -14.709  1.00  0.00     0.047 A 
BRANCH  15  18
ATOM     18  O   UNL     1     -24.718 -15.910 -15.420  1.00  0.00    -0.508 OA
ATOM     19  H   UNL     1     -25.137 -14.987 -15.385  1.00  0.00     0.293 HD
ENDBRANCH  15  18
ENDBRANCH   1  12
BRANCH   2  20
ATOM     20  O   UNL     1     -27.905 -18.780 -10.891  1.00  0.00    -0.502 OA
ATOM     21  H   UNL     1     -28.397 -18.329 -10.128  1.00  0.00     0.293 HD
ENDBRANCH   2  20
BRANCH   6  22
ATOM     22  O   UNL     1     -27.348 -22.914  -7.580  1.00  0.00    -0.507 OA
ATOM     23  H   UNL     1     -27.428 -23.630  -6.875  1.00  0.00     0.293 HD
ENDBRANCH   6  22
BRANCH   8  24
ATOM     24  O   UNL     1     -23.157 -24.676  -9.120  1.00  0.00    -0.508 OA
ATOM     25  H   UNL     1     -22.577 -24.927  -9.913  1.00  0.00     0.293 HD
ENDBRANCH   8  24
TORSDOF 5
ENDMDL
MODEL 8
REMARK VINA RESULT:    -6.901      3.865      7.224
REMARK INTER + INTRA:          -8.396
REMARK INTER:                  -8.257
REMARK INTRA:                  -0.139
REMARK UNBOUND:                -0.284
REMARK SMILES O=c1c(O)c(-c2ccc(O)cc2)oc2cc(O)cc(O)c12
REMARK SMILES IDX 5 1 3 2 2 3 1 4 21 5 19 6 18 7 16 8 15 9 14 10 13 11 6 12
REMARK SMILES IDX 7 13 8 14 9 15 12 16 11 17 10 18 4 20 20 22 17 24
REMARK H PARENT 10 19 4 21 20 23 17 25
REMARK Flexibility Score: inf
ROOT
ATOM      1  C   UNL     1     -22.556 -15.091 -13.504  1.00  0.00     0.180 A 
ATOM      2  C   UNL     1     -23.654 -14.259 -13.785  1.00  0.00     0.208 A 
ATOM      3  C   UNL     1     -24.860 -14.842 -14.206  1.00  0.00     0.238 A 
ATOM      4  O   UNL     1     -25.814 -14.087 -14.527  1.00  0.00    -0.285 OA
ATOM      5  C   UNL     1     -24.972 -16.251 -14.286  1.00  0.00     0.111 A 
ATOM      6  C   UNL     1     -26.159 -16.952 -14.658  1.00  0.00     0.134 A 
ATOM      7  C   UNL     1     -26.122 -18.344 -14.806  1.00  0.00     0.093 A 
ATOM      8  C   UNL     1     -24.957 -19.067 -14.535  1.00  0.00     0.123 A 
ATOM      9  C   UNL     1     -23.809 -18.397 -14.119  1.00  0.00     0.094 A 
ATOM     10  C   UNL     1     -23.804 -17.006 -13.999  1.00  0.00     0.146 A 
ATOM     11  O   UNL     1     -22.681 -16.407 -13.621  1.00  0.00    -0.452 OA
ENDROOT
BRANCH   1  12
ATOM     12  C   UNL     1     -21.248 -14.550 -13.070  1.00  0.00     0.021 A 
ATOM     13  C   UNL     1     -20.487 -13.711 -13.904  1.00  0.00     0.016 A 
ATOM     14  C   UNL     1     -19.244 -13.233 -13.481  1.00  0.00     0.047 A 
ATOM     15  C   UNL     1     -18.738 -13.598 -12.227  1.00  0.00     0.115 A 
ATOM     16  C   UNL     1     -20.723 -14.929 -11.823  1.00  0.00     0.016 A 
ATOM     17  C   UNL     1     -19.480 -14.449 -11.402  1.00  0.00     0.047 A 
BRANCH  15  18
ATOM     18  O   UNL     1     -17.500 -13.128 -11.794  1.00  0.00    -0.508 OA
ATOM     19  H   UNL     1     -17.012 -13.559 -11.017  1.00  0.00     0.293 HD
ENDBRANCH  15  18
ENDBRANCH   1  12
BRANCH   2  20
ATOM     20  O   UNL     1     -23.546 -12.875 -13.625  1.00  0.00    -0.502 OA
ATOM     21  H   UNL     1     -23.773 -12.409 -12.755  1.00  0.00     0.293 HD
ENDBRANCH   2  20
BRANCH   6  22
ATOM     22  O   UNL     1     -27.398 -16.338 -14.866  1.00  0.00    -0.507 OA
ATOM     23  H   UNL     1     -27.633 -15.399 -14.583  1.00  0.00     0.293 HD
ENDBRANCH   6  22
BRANCH   8  24
ATOM     24  O   UNL     1     -24.934 -20.453 -14.669  1.00  0.00    -0.508 OA
ATOM     25  H   UNL     1     -24.738 -21.059 -13.881  1.00  0.00     0.293 HD
ENDBRANCH   8  24
TORSDOF 5
ENDMDL
MODEL 9
REMARK VINA RESULT:    -6.643      3.005      7.418
REMARK INTER + INTRA:          -8.093
REMARK INTER:                  -7.796
REMARK INTRA:                  -0.296
REMARK UNBOUND:                -0.284
REMARK SMILES O=c1c(O)c(-c2ccc(O)cc2)oc2cc(O)cc(O)c12
REMARK SMILES IDX 5 1 3 2 2 3 1 4 21 5 19 6 18 7 16 8 15 9 14 10 13 11 6 12
REMARK SMILES IDX 7 13 8 14 9 15 12 16 11 17 10 18 4 20 20 22 17 24
REMARK H PARENT 10 19 4 21 20 23 17 25
REMARK Flexibility Score: inf
ROOT
ATOM      1  C   UNL     1     -26.469 -22.807 -10.508  1.00  0.00     0.180 A 
ATOM      2  C   UNL     1     -26.392 -21.424 -10.263  1.00  0.00     0.208 A 
ATOM      3  C   UNL     1     -25.889 -20.582 -11.268  1.00  0.00     0.238 A 
ATOM      4  O   UNL     1     -25.754 -19.357 -11.015  1.00  0.00    -0.285 OA
ATOM      5  C   UNL     1     -25.521 -21.124 -12.523  1.00  0.00     0.111 A 
ATOM      6  C   UNL     1     -25.041 -20.358 -13.629  1.00  0.00     0.134 A 
ATOM      7  C   UNL     1     -24.606 -21.014 -14.787  1.00  0.00     0.093 A 
ATOM      8  C   UNL     1     -24.694 -22.405 -14.903  1.00  0.00     0.123 A 
ATOM      9  C   UNL     1     -25.212 -23.155 -13.851  1.00  0.00     0.094 A 
ATOM     10  C   UNL     1     -25.617 -22.533 -12.668  1.00  0.00     0.146 A 
ATOM     11  O   UNL     1     -26.085 -23.289 -11.683  1.00  0.00    -0.452 OA
ENDROOT
BRANCH   1  12
ATOM     12  C   UNL     1     -26.974 -23.760  -9.493  1.00  0.00     0.021 A 
ATOM     13  C   UNL     1     -26.116 -24.345  -8.544  1.00  0.00     0.016 A 
ATOM     14  C   UNL     1     -26.613 -25.261  -7.613  1.00  0.00     0.047 A 
ATOM     15  C   UNL     1     -27.968 -25.615  -7.626  1.00  0.00     0.115 A 
ATOM     16  C   UNL     1     -28.327 -24.136  -9.513  1.00  0.00     0.016 A 
ATOM     17  C   UNL     1     -28.822 -25.052  -8.580  1.00  0.00     0.047 A 
BRANCH  15  18
ATOM     18  O   UNL     1     -28.475 -26.526  -6.702  1.00  0.00    -0.508 OA
ATOM     19  H   UNL     1     -28.542 -27.515  -6.915  1.00  0.00     0.293 HD
ENDBRANCH  15  18
ENDBRANCH   1  12
BRANCH   2  20
ATOM     20  O   UNL     1     -26.833 -20.900  -9.045  1.00  0.00    -0.502 OA
ATOM     21  H   UNL     1     -27.813 -20.863  -8.793  1.00  0.00     0.293 HD
ENDBRANCH   2  20
BRANCH   6  22
ATOM     22  O   UNL     1     -24.995 -18.961 -13.652  1.00  0.00    -0.507 OA
ATOM     23  H   UNL     1     -25.793 -18.354 -13.543  1.00  0.00     0.293 HD
ENDBRANCH   6  22
BRANCH   8  24
ATOM     24  O   UNL     1     -24.275 -23.047 -16.065  1.00  0.00    -0.508 OA
ATOM     25  H   UNL     1     -24.836 -23.038 -16.909  1.00  0.00     0.293 HD
ENDBRANCH   8  24
TORSDOF 5
ENDMDL
