MODEL 1
REMARK VINA RESULT:    -5.488      0.000      0.000
REMARK INTER + INTRA:          -6.742
REMARK INTER:                  -6.451
REMARK INTRA:                  -0.292
REMARK UNBOUND:                -0.292
REMARK SMILES O=c1cc(-c2ccc(O)c(O)c2)oc2cc(O)cc(O)c12
REMARK SMILES IDX 4 1 3 2 2 3 1 4 21 5 19 6 18 7 16 8 15 9 14 10 13 11 5 12
REMARK SMILES IDX 6 13 7 14 8 15 12 16 10 17 9 18 11 20 20 22 17 24
REMARK H PARENT 9 19 11 21 20 23 17 25
REMARK Flexibility Score: inf
ROOT
ATOM      1  C   UNL     1      -6.841  18.444  -9.264  1.00  0.00     0.138 A 
ATOM      2  C   UNL     1      -6.607  19.588 -10.037  1.00  0.00     0.100 A 
ATOM      3  C   UNL     1      -7.359  19.805 -11.193  1.00  0.00     0.197 A 
ATOM      4  O   UNL     1      -7.169  20.873 -11.833  1.00  0.00    -0.289 OA
ATOM      5  C   UNL     1      -8.328  18.854 -11.591  1.00  0.00     0.107 A 
ATOM      6  C   UNL     1      -9.124  18.950 -12.771  1.00  0.00     0.134 A 
ATOM      7  C   UNL     1     -10.134  18.007 -13.002  1.00  0.00     0.093 A 
ATOM      8  C   UNL     1     -10.334  16.939 -12.129  1.00  0.00     0.123 A 
ATOM      9  C   UNL     1      -9.525  16.804 -10.999  1.00  0.00     0.094 A 
ATOM     10  C   UNL     1      -8.533  17.749 -10.723  1.00  0.00     0.146 A 
ATOM     11  O   UNL     1      -7.794  17.593  -9.630  1.00  0.00    -0.456 OA
ENDROOT
BRANCH   1  12
ATOM     12  C   UNL     1      -6.070  18.163  -8.026  1.00  0.00     0.021 A 
ATOM     13  C   UNL     1      -5.997  16.846  -7.541  1.00  0.00     0.016 A 
ATOM     14  C   UNL     1      -5.271  16.555  -6.382  1.00  0.00     0.051 A 
ATOM     15  C   UNL     1      -4.599  17.573  -5.696  1.00  0.00     0.157 A 
ATOM     16  C   UNL     1      -5.379  19.180  -7.338  1.00  0.00     0.062 A 
ATOM     17  C   UNL     1      -4.650  18.887  -6.176  1.00  0.00     0.158 A 
BRANCH  15  18
ATOM     18  O   UNL     1      -3.876  17.287  -4.540  1.00  0.00    -0.504 OA
ATOM     19  H   UNL     1      -4.184  16.580  -3.883  1.00  0.00     0.293 HD
ENDBRANCH  15  18
BRANCH  17  20
ATOM     20  O   UNL     1      -3.969  19.896  -5.497  1.00  0.00    -0.504 OA
ATOM     21  H   UNL     1      -3.777  19.831  -4.504  1.00  0.00     0.293 HD
ENDBRANCH  17  20
ENDBRANCH   1  12
BRANCH   6  22
ATOM     22  O   UNL     1      -8.949  19.930 -13.754  1.00  0.00    -0.507 OA
ATOM     23  H   UNL     1      -9.372  20.845 -13.738  1.00  0.00     0.293 HD
ENDBRANCH   6  22
BRANCH   8  24
ATOM     24  O   UNL     1     -11.337  16.010 -12.397  1.00  0.00    -0.508 OA
ATOM     25  H   UNL     1     -11.435  15.584 -13.311  1.00  0.00     0.293 HD
ENDBRANCH   8  24
TORSDOF 5
ENDMDL
MODEL 2
REMARK VINA RESULT:    -5.390      1.380      1.799
REMARK INTER + INTRA:          -6.627
REMARK INTER:                  -6.353
REMARK INTRA:                  -0.273
REMARK UNBOUND:                -0.292
REMARK SMILES O=c1cc(-c2ccc(O)c(O)c2)oc2cc(O)cc(O)c12
REMARK SMILES IDX 4 1 3 2 2 3 1 4 21 5 19 6 18 7 16 8 15 9 14 10 13 11 5 12
REMARK SMILES IDX 6 13 7 14 8 15 12 16 10 17 9 18 11 20 20 22 17 24
REMARK H PARENT 9 19 11 21 20 23 17 25
REMARK Flexibility Score: inf
ROOT
ATOM      1  C   UNL     1      -7.833  18.343 -10.631  1.00  0.00     0.138 A 
ATOM      2  C   UNL     1      -7.357  19.275 -11.562  1.00  0.00     0.100 A 
ATOM      3  C   UNL     1      -8.146  19.617 -12.662  1.00  0.00     0.197 A 
ATOM      4  O   UNL     1      -7.718  20.503 -13.447  1.00  0.00    -0.289 OA
ATOM      5  C   UNL     1      -9.405  18.997 -12.844  1.00  0.00     0.107 A 
ATOM      6  C   UNL     1     -10.276  19.237 -13.948  1.00  0.00     0.134 A 
ATOM      7  C   UNL     1     -11.549  18.653 -13.963  1.00  0.00     0.093 A 
ATOM      8  C   UNL     1     -11.958  17.791 -12.946  1.00  0.00     0.123 A 
ATOM      9  C   UNL     1     -11.093  17.506 -11.889  1.00  0.00     0.094 A 
ATOM     10  C   UNL     1      -9.830  18.101 -11.827  1.00  0.00     0.146 A 
ATOM     11  O   UNL     1      -9.042  17.816 -10.797  1.00  0.00    -0.456 OA
ENDROOT
BRANCH   1  12
ATOM     12  C   UNL     1      -7.035  17.942  -9.445  1.00  0.00     0.021 A 
ATOM     13  C   UNL     1      -6.838  16.578  -9.172  1.00  0.00     0.016 A 
ATOM     14  C   UNL     1      -6.085  16.175  -8.066  1.00  0.00     0.051 A 
ATOM     15  C   UNL     1      -5.508  17.130  -7.220  1.00  0.00     0.157 A 
ATOM     16  C   UNL     1      -6.440  18.897  -8.597  1.00  0.00     0.062 A 
ATOM     17  C   UNL     1      -5.683  18.493  -7.488  1.00  0.00     0.158 A 
BRANCH  15  18
ATOM     18  O   UNL     1      -4.757  16.733  -6.115  1.00  0.00    -0.504 OA
ATOM     19  H   UNL     1      -3.922  17.233  -5.834  1.00  0.00     0.293 HD
ENDBRANCH  15  18
BRANCH  17  20
ATOM     20  O   UNL     1      -5.096  19.440  -6.650  1.00  0.00    -0.504 OA
ATOM     21  H   UNL     1      -4.093  19.476  -6.510  1.00  0.00     0.293 HD
ENDBRANCH  17  20
ENDBRANCH   1  12
BRANCH   6  22
ATOM     22  O   UNL     1      -9.933  20.014 -15.060  1.00  0.00    -0.507 OA
ATOM     23  H   UNL     1     -10.574  20.596 -15.577  1.00  0.00     0.293 HD
ENDBRANCH   6  22
BRANCH   8  24
ATOM     24  O   UNL     1     -13.225  17.216 -13.001  1.00  0.00    -0.508 OA
ATOM     25  H   UNL     1     -13.500  16.478 -12.363  1.00  0.00     0.293 HD
ENDBRANCH   8  24
TORSDOF 5
ENDMDL
MODEL 3
REMARK VINA RESULT:    -5.146      2.866      7.307
REMARK INTER + INTRA:          -6.339
REMARK INTER:                  -6.075
REMARK INTRA:                  -0.265
REMARK UNBOUND:                -0.292
REMARK SMILES O=c1cc(-c2ccc(O)c(O)c2)oc2cc(O)cc(O)c12
REMARK SMILES IDX 4 1 3 2 2 3 1 4 21 5 19 6 18 7 16 8 15 9 14 10 13 11 5 12
REMARK SMILES IDX 6 13 7 14 8 15 12 16 10 17 9 18 11 20 20 22 17 24
REMARK H PARENT 9 19 11 21 20 23 17 25
REMARK Flexibility Score: inf
ROOT
ATOM      1  C   UNL     1      -9.363  19.269 -12.113  1.00  0.00     0.138 A 
ATOM      2  C   UNL     1      -8.293  19.855 -12.804  1.00  0.00     0.100 A 
ATOM      3  C   UNL     1      -6.983  19.517 -12.462  1.00  0.00     0.197 A 
ATOM      4  O   UNL     1      -6.046  20.012 -13.141  1.00  0.00    -0.289 OA
ATOM      5  C   UNL     1      -6.744  18.611 -11.401  1.00  0.00     0.107 A 
ATOM      6  C   UNL     1      -5.451  18.225 -10.938  1.00  0.00     0.134 A 
ATOM      7  C   UNL     1      -5.336  17.231  -9.958  1.00  0.00     0.093 A 
ATOM      8  C   UNL     1      -6.467  16.656  -9.381  1.00  0.00     0.123 A 
ATOM      9  C   UNL     1      -7.739  17.065  -9.787  1.00  0.00     0.094 A 
ATOM     10  C   UNL     1      -7.885  18.028 -10.789  1.00  0.00     0.146 A 
ATOM     11  O   UNL     1      -9.112  18.380 -11.157  1.00  0.00    -0.456 OA
ENDROOT
BRANCH   1  12
ATOM     12  C   UNL     1     -10.775  19.593 -12.435  1.00  0.00     0.021 A 
ATOM     13  C   UNL     1     -11.382  20.711 -11.838  1.00  0.00     0.016 A 
ATOM     14  C   UNL     1     -12.708  21.042 -12.131  1.00  0.00     0.051 A 
ATOM     15  C   UNL     1     -13.446  20.267 -13.033  1.00  0.00     0.157 A 
ATOM     16  C   UNL     1     -11.520  18.826 -13.353  1.00  0.00     0.062 A 
ATOM     17  C   UNL     1     -12.850  19.158 -13.647  1.00  0.00     0.158 A 
BRANCH  15  18
ATOM     18  O   UNL     1     -14.768  20.591 -13.327  1.00  0.00    -0.504 OA
ATOM     19  H   UNL     1     -15.354  21.083 -12.661  1.00  0.00     0.293 HD
ENDBRANCH  15  18
BRANCH  17  20
ATOM     20  O   UNL     1     -13.584  18.396 -14.554  1.00  0.00    -0.504 OA
ATOM     21  H   UNL     1     -14.598  18.406 -14.558  1.00  0.00     0.293 HD
ENDBRANCH  17  20
ENDBRANCH   1  12
BRANCH   6  22
ATOM     22  O   UNL     1      -4.257  18.799 -11.387  1.00  0.00    -0.507 OA
ATOM     23  H   UNL     1      -4.127  19.779 -11.587  1.00  0.00     0.293 HD
ENDBRANCH   6  22
BRANCH   8  24
ATOM     24  O   UNL     1      -6.317  15.681  -8.397  1.00  0.00    -0.508 OA
ATOM     25  H   UNL     1      -5.420  15.500  -7.962  1.00  0.00     0.293 HD
ENDBRANCH   8  24
TORSDOF 5
ENDMDL
MODEL 4
REMARK VINA RESULT:    -5.139      1.657      6.821
REMARK INTER + INTRA:          -6.332
REMARK INTER:                  -6.048
REMARK INTRA:                  -0.284
REMARK UNBOUND:                -0.292
REMARK SMILES O=c1cc(-c2ccc(O)c(O)c2)oc2cc(O)cc(O)c12
REMARK SMILES IDX 4 1 3 2 2 3 1 4 21 5 19 6 18 7 16 8 15 9 14 10 13 11 5 12
REMARK SMILES IDX 6 13 7 14 8 15 12 16 10 17 9 18 11 20 20 22 17 24
REMARK H PARENT 9 19 11 21 20 23 17 25
REMARK Flexibility Score: inf
ROOT
ATOM      1  C   UNL     1      -8.300  18.533 -10.642  1.00  0.00     0.138 A 
ATOM      2  C   UNL     1      -7.504  19.616 -11.040  1.00  0.00     0.100 A 
ATOM      3  C   UNL     1      -6.307  19.875 -10.371  1.00  0.00     0.197 A 
ATOM      4  O   UNL     1      -5.584  20.817 -10.791  1.00  0.00    -0.289 OA
ATOM      5  C   UNL     1      -5.922  19.064  -9.278  1.00  0.00     0.107 A 
ATOM      6  C   UNL     1      -4.745  19.260  -8.496  1.00  0.00     0.134 A 
ATOM      7  C   UNL     1      -4.406  18.323  -7.511  1.00  0.00     0.093 A 
ATOM      8  C   UNL     1      -5.232  17.233  -7.239  1.00  0.00     0.123 A 
ATOM      9  C   UNL     1      -6.415  17.062  -7.961  1.00  0.00     0.094 A 
ATOM     10  C   UNL     1      -6.762  17.960  -8.974  1.00  0.00     0.146 A 
ATOM     11  O   UNL     1      -7.888  17.754  -9.647  1.00  0.00    -0.456 OA
ENDROOT
BRANCH   1  12
ATOM     12  C   UNL     1      -9.582  18.212 -11.318  1.00  0.00     0.021 A 
ATOM     13  C   UNL     1      -9.959  16.868 -11.483  1.00  0.00     0.016 A 
ATOM     14  C   UNL     1     -11.165  16.540 -12.109  1.00  0.00     0.051 A 
ATOM     15  C   UNL     1     -12.017  17.548 -12.571  1.00  0.00     0.157 A 
ATOM     16  C   UNL     1     -10.452  19.222 -11.773  1.00  0.00     0.062 A 
ATOM     17  C   UNL     1     -11.662  18.892 -12.400  1.00  0.00     0.158 A 
BRANCH  15  18
ATOM     18  O   UNL     1     -13.220  17.225 -13.197  1.00  0.00    -0.504 OA
ATOM     19  H   UNL     1     -13.312  17.239 -14.207  1.00  0.00     0.293 HD
ENDBRANCH  15  18
BRANCH  17  20
ATOM     20  O   UNL     1     -12.520  19.894 -12.851  1.00  0.00    -0.504 OA
ATOM     21  H   UNL     1     -12.225  20.862 -12.901  1.00  0.00     0.293 HD
ENDBRANCH  17  20
ENDBRANCH   1  12
BRANCH   6  22
ATOM     22  O   UNL     1      -3.893  20.362  -8.628  1.00  0.00    -0.507 OA
ATOM     23  H   UNL     1      -3.627  20.978  -7.876  1.00  0.00     0.293 HD
ENDBRANCH   6  22
BRANCH   8  24
ATOM     24  O   UNL     1      -4.872  16.330  -6.242  1.00  0.00    -0.508 OA
ATOM     25  H   UNL     1      -5.431  16.213  -5.405  1.00  0.00     0.293 HD
ENDBRANCH   8  24
TORSDOF 5
ENDMDL
MODEL 5
REMARK VINA RESULT:    -5.009      2.337      7.068
REMARK INTER + INTRA:          -6.180
REMARK INTER:                  -5.871
REMARK INTRA:                  -0.308
REMARK UNBOUND:                -0.292
REMARK SMILES O=c1cc(-c2ccc(O)c(O)c2)oc2cc(O)cc(O)c12
REMARK SMILES IDX 4 1 3 2 2 3 1 4 21 5 19 6 18 7 16 8 15 9 14 10 13 11 5 12
REMARK SMILES IDX 6 13 7 14 8 15 12 16 10 17 9 18 11 20 20 22 17 24
REMARK H PARENT 9 19 11 21 20 23 17 25
REMARK Flexibility Score: inf
ROOT
ATOM      1  C   UNL     1      -8.630  19.519 -10.254  1.00  0.00     0.138 A 
ATOM      2  C   UNL     1      -8.306  20.448  -9.257  1.00  0.00     0.100 A 
ATOM      3  C   UNL     1      -7.218  20.207  -8.416  1.00  0.00     0.197 A 
ATOM      4  O   UNL     1      -6.914  21.089  -7.571  1.00  0.00    -0.289 OA
ATOM      5  C   UNL     1      -6.471  19.014  -8.557  1.00  0.00     0.107 A 
ATOM      6  C   UNL     1      -5.368  18.643  -7.731  1.00  0.00     0.134 A 
ATOM      7  C   UNL     1      -4.631  17.492  -8.038  1.00  0.00     0.093 A 
ATOM      8  C   UNL     1      -4.994  16.668  -9.102  1.00  0.00     0.123 A 
ATOM      9  C   UNL     1      -6.104  16.991  -9.884  1.00  0.00     0.094 A 
ATOM     10  C   UNL     1      -6.838  18.152  -9.625  1.00  0.00     0.146 A 
ATOM     11  O   UNL     1      -7.879  18.432 -10.400  1.00  0.00    -0.456 OA
ENDROOT
BRANCH   1  12
ATOM     12  C   UNL     1      -9.776  19.725 -11.175  1.00  0.00     0.021 A 
ATOM     13  C   UNL     1     -10.862  20.516 -10.761  1.00  0.00     0.016 A 
ATOM     14  C   UNL     1     -11.950  20.731 -11.612  1.00  0.00     0.051 A 
ATOM     15  C   UNL     1     -11.965  20.170 -12.894  1.00  0.00     0.157 A 
ATOM     16  C   UNL     1      -9.793  19.175 -12.471  1.00  0.00     0.062 A 
ATOM     17  C   UNL     1     -10.883  19.393 -13.326  1.00  0.00     0.158 A 
BRANCH  15  18
ATOM     18  O   UNL     1     -13.048  20.381 -13.744  1.00  0.00    -0.504 OA
ATOM     19  H   UNL     1     -12.918  20.680 -14.704  1.00  0.00     0.293 HD
ENDBRANCH  15  18
BRANCH  17  20
ATOM     20  O   UNL     1     -10.897  18.845 -14.607  1.00  0.00    -0.504 OA
ATOM     21  H   UNL     1     -11.007  17.849 -14.758  1.00  0.00     0.293 HD
ENDBRANCH  17  20
ENDBRANCH   1  12
BRANCH   6  22
ATOM     22  O   UNL     1      -4.974  19.350  -6.591  1.00  0.00    -0.507 OA
ATOM     23  H   UNL     1      -4.548  18.939  -5.775  1.00  0.00     0.293 HD
ENDBRANCH   6  22
BRANCH   8  24
ATOM     24  O   UNL     1      -4.248  15.522  -9.370  1.00  0.00    -0.508 OA
ATOM     25  H   UNL     1      -3.400  15.559  -9.923  1.00  0.00     0.293 HD
ENDBRANCH   8  24
TORSDOF 5
ENDMDL
MODEL 6
REMARK VINA RESULT:    -4.870      1.873      7.350
REMARK INTER + INTRA:          -6.016
REMARK INTER:                  -5.735
REMARK INTRA:                  -0.281
REMARK UNBOUND:                -0.292
REMARK SMILES O=c1cc(-c2ccc(O)c(O)c2)oc2cc(O)cc(O)c12
REMARK SMILES IDX 4 1 3 2 2 3 1 4 21 5 19 6 18 7 16 8 15 9 14 10 13 11 5 12
REMARK SMILES IDX 6 13 7 14 8 15 12 16 10 17 9 18 11 20 20 22 17 24
REMARK H PARENT 9 19 11 21 20 23 17 25
REMARK Flexibility Score: inf
ROOT
ATOM      1  C   UNL     1      -8.167  18.782 -10.249  1.00  0.00     0.138 A 
ATOM      2  C   UNL     1      -7.607  17.498 -10.297  1.00  0.00     0.100 A 
ATOM      3  C   UNL     1      -6.563  17.168  -9.430  1.00  0.00     0.197 A 
ATOM      4  O   UNL     1      -6.123  15.989  -9.455  1.00  0.00    -0.289 OA
ATOM      5  C   UNL     1      -6.059  18.139  -8.534  1.00  0.00     0.107 A 
ATOM      6  C   UNL     1      -4.972  17.928  -7.634  1.00  0.00     0.134 A 
ATOM      7  C   UNL     1      -4.636  18.926  -6.711  1.00  0.00     0.093 A 
ATOM      8  C   UNL     1      -5.306  20.148  -6.696  1.00  0.00     0.123 A 
ATOM      9  C   UNL     1      -6.335  20.387  -7.608  1.00  0.00     0.094 A 
ATOM     10  C   UNL     1      -6.718  19.398  -8.518  1.00  0.00     0.146 A 
ATOM     11  O   UNL     1      -7.711  19.658  -9.359  1.00  0.00    -0.456 OA
ENDROOT
BRANCH   1  12
ATOM     12  C   UNL     1      -9.278  19.187 -11.147  1.00  0.00     0.021 A 
ATOM     13  C   UNL     1     -10.327  19.972 -10.639  1.00  0.00     0.016 A 
ATOM     14  C   UNL     1     -11.380  20.372 -11.466  1.00  0.00     0.051 A 
ATOM     15  C   UNL     1     -11.397  20.004 -12.816  1.00  0.00     0.157 A 
ATOM     16  C   UNL     1      -9.295  18.831 -12.510  1.00  0.00     0.062 A 
ATOM     17  C   UNL     1     -10.351  19.235 -13.340  1.00  0.00     0.158 A 
BRANCH  15  18
ATOM     18  O   UNL     1     -12.446  20.400 -13.643  1.00  0.00    -0.504 OA
ATOM     19  H   UNL     1     -12.509  21.345 -14.004  1.00  0.00     0.293 HD
ENDBRANCH  15  18
BRANCH  17  20
ATOM     20  O   UNL     1     -10.365  18.880 -14.688  1.00  0.00    -0.504 OA
ATOM     21  H   UNL     1      -9.507  18.713 -15.202  1.00  0.00     0.293 HD
ENDBRANCH  17  20
ENDBRANCH   1  12
BRANCH   6  22
ATOM     22  O   UNL     1      -4.180  16.775  -7.623  1.00  0.00    -0.507 OA
ATOM     23  H   UNL     1      -3.599  16.467  -8.387  1.00  0.00     0.293 HD
ENDBRANCH   6  22
BRANCH   8  24
ATOM     24  O   UNL     1      -4.935  21.125  -5.774  1.00  0.00    -0.508 OA
ATOM     25  H   UNL     1      -5.321  22.061  -5.808  1.00  0.00     0.293 HD
ENDBRANCH   8  24
TORSDOF 5
ENDMDL
MODEL 7
REMARK VINA RESULT:    -4.807      1.252      2.720
REMARK INTER + INTRA:          -5.942
REMARK INTER:                  -5.642
REMARK INTRA:                  -0.300
REMARK UNBOUND:                -0.292
REMARK SMILES O=c1cc(-c2ccc(O)c(O)c2)oc2cc(O)cc(O)c12
REMARK SMILES IDX 4 1 3 2 2 3 1 4 21 5 19 6 18 7 16 8 15 9 14 10 13 11 5 12
REMARK SMILES IDX 6 13 7 14 8 15 12 16 10 17 9 18 11 20 20 22 17 24
REMARK H PARENT 9 19 11 21 20 23 17 25
REMARK Flexibility Score: inf
ROOT
ATOM      1  C   UNL     1      -7.270  17.974  -9.721  1.00  0.00     0.138 A 
ATOM      2  C   UNL     1      -8.426  17.198  -9.876  1.00  0.00     0.100 A 
ATOM      3  C   UNL     1      -9.222  17.364 -11.011  1.00  0.00     0.197 A 
ATOM      4  O   UNL     1     -10.220  16.610 -11.152  1.00  0.00    -0.289 OA
ATOM      5  C   UNL     1      -8.872  18.335 -11.979  1.00  0.00     0.107 A 
ATOM      6  C   UNL     1      -9.630  18.620 -13.154  1.00  0.00     0.134 A 
ATOM      7  C   UNL     1      -9.124  19.521 -14.100  1.00  0.00     0.093 A 
ATOM      8  C   UNL     1      -7.921  20.192 -13.884  1.00  0.00     0.123 A 
ATOM      9  C   UNL     1      -7.198  19.961 -12.713  1.00  0.00     0.094 A 
ATOM     10  C   UNL     1      -7.659  19.042 -11.767  1.00  0.00     0.146 A 
ATOM     11  O   UNL     1      -6.935  18.840 -10.672  1.00  0.00    -0.456 OA
ENDROOT
BRANCH   1  12
ATOM     12  C   UNL     1      -6.388  17.838  -8.534  1.00  0.00     0.021 A 
ATOM     13  C   UNL     1      -6.178  16.568  -7.971  1.00  0.00     0.016 A 
ATOM     14  C   UNL     1      -5.346  16.413  -6.858  1.00  0.00     0.051 A 
ATOM     15  C   UNL     1      -4.703  17.523  -6.297  1.00  0.00     0.157 A 
ATOM     16  C   UNL     1      -5.727  18.948  -7.973  1.00  0.00     0.062 A 
ATOM     17  C   UNL     1      -4.892  18.792  -6.857  1.00  0.00     0.158 A 
BRANCH  15  18
ATOM     18  O   UNL     1      -3.875  17.373  -5.187  1.00  0.00    -0.504 OA
ATOM     19  H   UNL     1      -2.978  17.841  -5.127  1.00  0.00     0.293 HD
ENDBRANCH  15  18
BRANCH  17  20
ATOM     20  O   UNL     1      -4.241  19.893  -6.303  1.00  0.00    -0.504 OA
ATOM     21  H   UNL     1      -4.333  20.125  -5.321  1.00  0.00     0.293 HD
ENDBRANCH  17  20
ENDBRANCH   1  12
BRANCH   6  22
ATOM     22  O   UNL     1     -10.886  18.069 -13.426  1.00  0.00    -0.507 OA
ATOM     23  H   UNL     1     -11.110  17.519 -14.241  1.00  0.00     0.293 HD
ENDBRANCH   6  22
BRANCH   8  24
ATOM     24  O   UNL     1      -7.456  21.093 -14.839  1.00  0.00    -0.508 OA
ATOM     25  H   UNL     1      -7.339  20.825 -15.810  1.00  0.00     0.293 HD
ENDBRANCH   8  24
TORSDOF 5
ENDMDL
MODEL 8
REMARK VINA RESULT:    -4.708     21.248     22.507
REMARK INTER + INTRA:          -5.825
REMARK INTER:                  -5.529
REMARK INTRA:                  -0.296
REMARK UNBOUND:                -0.292
REMARK SMILES O=c1cc(-c2ccc(O)c(O)c2)oc2cc(O)cc(O)c12
REMARK SMILES IDX 4 1 3 2 2 3 1 4 21 5 19 6 18 7 16 8 15 9 14 10 13 11 5 12
REMARK SMILES IDX 6 13 7 14 8 15 12 16 10 17 9 18 11 20 20 22 17 24
REMARK H PARENT 9 19 11 21 20 23 17 25
REMARK Flexibility Score: inf
ROOT
ATOM      1  C   UNL     1     -21.540   1.073  -8.705  1.00  0.00     0.138 A 
ATOM      2  C   UNL     1     -22.759   1.051  -9.395  1.00  0.00     0.100 A 
ATOM      3  C   UNL     1     -22.762   1.028 -10.791  1.00  0.00     0.197 A 
ATOM      4  O   UNL     1     -23.871   0.946 -11.381  1.00  0.00    -0.289 OA
ATOM      5  C   UNL     1     -21.537   1.059 -11.497  1.00  0.00     0.107 A 
ATOM      6  C   UNL     1     -21.419   1.081 -12.919  1.00  0.00     0.134 A 
ATOM      7  C   UNL     1     -20.151   0.993 -13.508  1.00  0.00     0.093 A 
ATOM      8  C   UNL     1     -18.996   0.946 -12.729  1.00  0.00     0.123 A 
ATOM      9  C   UNL     1     -19.097   0.980 -11.337  1.00  0.00     0.094 A 
ATOM     10  C   UNL     1     -20.349   1.031 -10.719  1.00  0.00     0.146 A 
ATOM     11  O   UNL     1     -20.402   1.047  -9.392  1.00  0.00    -0.456 OA
ENDROOT
BRANCH   1  12
ATOM     12  C   UNL     1     -21.479   1.098  -7.222  1.00  0.00     0.021 A 
ATOM     13  C   UNL     1     -20.241   1.288  -6.584  1.00  0.00     0.016 A 
ATOM     14  C   UNL     1     -20.159   1.323  -5.189  1.00  0.00     0.051 A 
ATOM     15  C   UNL     1     -21.312   1.180  -4.410  1.00  0.00     0.157 A 
ATOM     16  C   UNL     1     -22.638   0.968  -6.431  1.00  0.00     0.062 A 
ATOM     17  C   UNL     1     -22.555   1.005  -5.032  1.00  0.00     0.158 A 
BRANCH  15  18
ATOM     18  O   UNL     1     -21.234   1.213  -3.019  1.00  0.00    -0.504 OA
ATOM     19  H   UNL     1     -22.063   1.309  -2.443  1.00  0.00     0.293 HD
ENDBRANCH  15  18
BRANCH  17  20
ATOM     20  O   UNL     1     -23.703   0.875  -4.252  1.00  0.00    -0.504 OA
ATOM     21  H   UNL     1     -24.278   0.041  -4.289  1.00  0.00     0.293 HD
ENDBRANCH  17  20
ENDBRANCH   1  12
BRANCH   6  22
ATOM     22  O   UNL     1     -22.504   1.212 -13.791  1.00  0.00    -0.507 OA
ATOM     23  H   UNL     1     -22.853   0.482 -14.392  1.00  0.00     0.293 HD
ENDBRANCH   6  22
BRANCH   8  24
ATOM     24  O   UNL     1     -17.751   0.875 -13.348  1.00  0.00    -0.508 OA
ATOM     25  H   UNL     1     -17.125   1.672 -13.375  1.00  0.00     0.293 HD
ENDBRANCH   8  24
TORSDOF 5
ENDMDL
MODEL 9
REMARK VINA RESULT:    -4.488      2.998      8.012
REMARK INTER + INTRA:          -5.566
REMARK INTER:                  -5.300
REMARK INTRA:                  -0.266
REMARK UNBOUND:                -0.292
REMARK SMILES O=c1cc(-c2ccc(O)c(O)c2)oc2cc(O)cc(O)c12
REMARK SMILES IDX 4 1 3 2 2 3 1 4 21 5 19 6 18 7 16 8 15 9 14 10 13 11 5 12
REMARK SMILES IDX 6 13 7 14 8 15 12 16 10 17 9 18 11 20 20 22 17 24
REMARK H PARENT 9 19 11 21 20 23 17 25
REMARK Flexibility Score: inf
ROOT
ATOM      1  C   UNL     1     -10.349  18.954 -11.838  1.00  0.00     0.138 A 
ATOM      2  C   UNL     1     -10.245  17.730 -11.164  1.00  0.00     0.100 A 
ATOM      3  C   UNL     1      -9.019  17.343 -10.620  1.00  0.00     0.197 A 
ATOM      4  O   UNL     1      -8.972  16.268  -9.967  1.00  0.00    -0.289 OA
ATOM      5  C   UNL     1      -7.885  18.175 -10.779  1.00  0.00     0.107 A 
ATOM      6  C   UNL     1      -6.577  17.864 -10.302  1.00  0.00     0.134 A 
ATOM      7  C   UNL     1      -5.556  18.817 -10.416  1.00  0.00     0.093 A 
ATOM      8  C   UNL     1      -5.781  20.042 -11.042  1.00  0.00     0.123 A 
ATOM      9  C   UNL     1      -7.044  20.335 -11.561  1.00  0.00     0.094 A 
ATOM     10  C   UNL     1      -8.091  19.419 -11.432  1.00  0.00     0.146 A 
ATOM     11  O   UNL     1      -9.281  19.741 -11.926  1.00  0.00    -0.456 OA
ENDROOT
BRANCH   1  12
ATOM     12  C   UNL     1     -11.627  19.414 -12.436  1.00  0.00     0.021 A 
ATOM     13  C   UNL     1     -12.235  20.585 -11.953  1.00  0.00     0.016 A 
ATOM     14  C   UNL     1     -13.435  21.043 -12.505  1.00  0.00     0.051 A 
ATOM     15  C   UNL     1     -14.041  20.344 -13.555  1.00  0.00     0.157 A 
ATOM     16  C   UNL     1     -12.236  18.723 -13.502  1.00  0.00     0.062 A 
ATOM     17  C   UNL     1     -13.439  19.183 -14.056  1.00  0.00     0.158 A 
BRANCH  15  18
ATOM     18  O   UNL     1     -15.238  20.796 -14.107  1.00  0.00    -0.504 OA
ATOM     19  H   UNL     1     -15.453  20.663 -15.088  1.00  0.00     0.293 HD
ENDBRANCH  15  18
BRANCH  17  20
ATOM     20  O   UNL     1     -14.040  18.496 -15.110  1.00  0.00    -0.504 OA
ATOM     21  H   UNL     1     -13.794  18.684 -16.075  1.00  0.00     0.293 HD
ENDBRANCH  17  20
ENDBRANCH   1  12
BRANCH   6  22
ATOM     22  O   UNL     1      -6.223  16.635  -9.736  1.00  0.00    -0.507 OA
ATOM     23  H   UNL     1      -6.797  16.107  -9.098  1.00  0.00     0.293 HD
ENDBRANCH   6  22
BRANCH   8  24
ATOM     24  O   UNL     1      -4.739  20.960 -11.151  1.00  0.00    -0.508 OA
ATOM     25  H   UNL     1      -4.720  21.655 -11.888  1.00  0.00     0.293 HD
ENDBRANCH   8  24
TORSDOF 5
ENDMDL
