MODEL 1
REMARK VINA RESULT:    -4.194      0.000      0.000
REMARK INTER + INTRA:         -15.438
REMARK INTER:                 -10.570
REMARK INTRA:                  -4.868
REMARK UNBOUND:                -4.868
REMARK SMILES CCCCCCCCCCCCCCCCCCCCCCCCCCCC(=O)[O-]
REMARK SMILES IDX 15 1 16 2 17 3 18 4 19 5 20 6 21 7 22 8 23 9 24 10 25 11
REMARK SMILES IDX 26 12 27 13 28 14 29 15 30 16 14 17 13 18 12 19 11 20 10 21
REMARK SMILES IDX 9 22 8 23 7 24 6 25 5 26 4 27 3 28 2 29 1 30
REMARK H PARENT
REMARK Flexibility Score: inf
ROOT
ATOM      1  C   UNL     1     -27.832 -48.075  33.468  1.00  0.00     0.000 C 
ENDROOT
BRANCH   1   2
ATOM      2  C   UNL     1     -27.591 -46.658  32.921  1.00  0.00     0.000 C 
BRANCH   2   3
ATOM      3  C   UNL     1     -28.858 -45.805  32.707  1.00  0.00     0.000 C 
BRANCH   3   4
ATOM      4  C   UNL     1     -28.905 -44.520  33.563  1.00  0.00     0.000 C 
BRANCH   4   5
ATOM      5  C   UNL     1     -30.249 -44.354  34.296  1.00  0.00     0.000 C 
BRANCH   5   6
ATOM      6  C   UNL     1     -31.401 -45.134  33.636  1.00  0.00     0.000 C 
BRANCH   6   7
ATOM      7  C   UNL     1     -32.642 -45.343  34.523  1.00  0.00     0.000 C 
BRANCH   7   8
ATOM      8  C   UNL     1     -33.872 -45.940  33.811  1.00  0.00     0.000 C 
BRANCH   8   9
ATOM      9  C   UNL     1     -34.537 -47.107  34.569  1.00  0.00     0.000 C 
BRANCH   9  10
ATOM     10  C   UNL     1     -34.949 -48.266  33.644  1.00  0.00     0.000 C 
BRANCH  10  11
ATOM     11  C   UNL     1     -34.493 -48.063  32.189  1.00  0.00     0.000 C 
BRANCH  11  12
ATOM     12  C   UNL     1     -35.661 -47.947  31.188  1.00  0.00     0.006 C 
BRANCH  12  13
ATOM     13  C   UNL     1     -35.350 -46.971  30.046  1.00  0.00     0.053 C 
BRANCH  13  14
ATOM     14  C   UNL     1     -36.132 -45.707  30.210  1.00  0.00     0.041 C 
ATOM     15  O   UNL     1     -35.826 -44.886  31.114  1.00  0.00    -0.550 OA
ATOM     16  O   UNL     1     -37.231 -45.460  29.396  1.00  0.00    -0.550 OA
ENDBRANCH  13  14
ENDBRANCH  12  13
ENDBRANCH  11  12
ENDBRANCH  10  11
ENDBRANCH   9  10
ENDBRANCH   8   9
ENDBRANCH   7   8
ENDBRANCH   6   7
ENDBRANCH   5   6
ENDBRANCH   4   5
ENDBRANCH   3   4
ENDBRANCH   2   3
ENDBRANCH   1   2
BRANCH   1  17
ATOM     17  C   UNL     1     -27.445 -48.286  34.945  1.00  0.00     0.000 C 
BRANCH  17  18
ATOM     18  C   UNL     1     -28.629 -48.677  35.853  1.00  0.00     0.000 C 
BRANCH  18  19
ATOM     19  C   UNL     1     -29.808 -47.693  35.742  1.00  0.00     0.000 C 
BRANCH  19  20
ATOM     20  C   UNL     1     -31.171 -48.404  35.800  1.00  0.00     0.000 C 
BRANCH  20  21
ATOM     21  C   UNL     1     -31.443 -49.249  34.544  1.00  0.00     0.000 C 
BRANCH  21  22
ATOM     22  C   UNL     1     -31.672 -50.738  34.862  1.00  0.00    -0.000 C 
BRANCH  22  23
ATOM     23  C   UNL     1     -30.960 -51.730  33.919  1.00  0.00    -0.000 C 
BRANCH  23  24
ATOM     24  C   UNL     1     -30.057 -51.084  32.855  1.00  0.00    -0.000 C 
BRANCH  24  25
ATOM     25  C   UNL     1     -28.620 -51.627  32.878  1.00  0.00    -0.000 C 
BRANCH  25  26
ATOM     26  C   UNL     1     -28.227 -52.069  34.294  1.00  0.00    -0.000 C 
BRANCH  26  27
ATOM     27  C   UNL     1     -26.719 -51.896  34.528  1.00  0.00    -0.000 C 
BRANCH  27  28
ATOM     28  C   UNL     1     -25.912 -51.831  33.219  1.00  0.00    -0.000 C 
BRANCH  28  29
ATOM     29  C   UNL     1     -25.017 -50.586  33.071  1.00  0.00    -0.003 C 
ATOM     30  C   UNL     1     -24.629 -50.295  31.621  1.00  0.00     0.004 C 
ENDBRANCH  28  29
ENDBRANCH  27  28
ENDBRANCH  26  27
ENDBRANCH  25  26
ENDBRANCH  24  25
ENDBRANCH  23  24
ENDBRANCH  22  23
ENDBRANCH  21  22
ENDBRANCH  20  21
ENDBRANCH  19  20
ENDBRANCH  18  19
ENDBRANCH  17  18
ENDBRANCH   1  17
TORSDOF 26
ENDMDL
MODEL 2
REMARK VINA RESULT:    -4.179      1.975      4.672
REMARK INTER + INTRA:         -15.398
REMARK INTER:                 -10.052
REMARK INTRA:                  -5.346
REMARK UNBOUND:                -4.868
REMARK SMILES CCCCCCCCCCCCCCCCCCCCCCCCCCCC(=O)[O-]
REMARK SMILES IDX 15 1 16 2 17 3 18 4 19 5 20 6 21 7 22 8 23 9 24 10 25 11
REMARK SMILES IDX 26 12 27 13 28 14 29 15 30 16 14 17 13 18 12 19 11 20 10 21
REMARK SMILES IDX 9 22 8 23 7 24 6 25 5 26 4 27 3 28 2 29 1 30
REMARK H PARENT
REMARK Flexibility Score: inf
ROOT
ATOM      1  C   UNL     1     -32.142 -48.820  32.758  1.00  0.00     0.000 C 
ENDROOT
BRANCH   1   2
ATOM      2  C   UNL     1     -31.152 -49.433  31.753  1.00  0.00     0.000 C 
BRANCH   2   3
ATOM      3  C   UNL     1     -29.893 -48.591  31.463  1.00  0.00     0.000 C 
BRANCH   3   4
ATOM      4  C   UNL     1     -28.632 -49.062  32.221  1.00  0.00     0.000 C 
BRANCH   4   5
ATOM      5  C   UNL     1     -27.369 -48.294  31.790  1.00  0.00     0.000 C 
BRANCH   5   6
ATOM      6  C   UNL     1     -27.677 -46.916  31.176  1.00  0.00     0.000 C 
BRANCH   6   7
ATOM      7  C   UNL     1     -27.345 -45.710  32.076  1.00  0.00     0.000 C 
BRANCH   7   8
ATOM      8  C   UNL     1     -27.991 -45.731  33.475  1.00  0.00     0.000 C 
BRANCH   8   9
ATOM      9  C   UNL     1     -29.239 -44.835  33.610  1.00  0.00     0.000 C 
BRANCH   9  10
ATOM     10  C   UNL     1     -30.504 -45.623  33.996  1.00  0.00     0.000 C 
BRANCH  10  11
ATOM     11  C   UNL     1     -31.727 -44.721  34.223  1.00  0.00     0.000 C 
BRANCH  11  12
ATOM     12  C   UNL     1     -33.038 -45.303  33.654  1.00  0.00     0.006 C 
BRANCH  12  13
ATOM     13  C   UNL     1     -33.778 -46.173  34.679  1.00  0.00     0.053 C 
BRANCH  13  14
ATOM     14  C   UNL     1     -35.012 -46.762  34.072  1.00  0.00     0.041 C 
ATOM     15  O   UNL     1     -35.104 -46.885  32.823  1.00  0.00    -0.550 OA
ATOM     16  O   UNL     1     -36.079 -47.126  34.883  1.00  0.00    -0.550 OA
ENDBRANCH  13  14
ENDBRANCH  12  13
ENDBRANCH  11  12
ENDBRANCH  10  11
ENDBRANCH   9  10
ENDBRANCH   8   9
ENDBRANCH   7   8
ENDBRANCH   6   7
ENDBRANCH   5   6
ENDBRANCH   4   5
ENDBRANCH   3   4
ENDBRANCH   2   3
ENDBRANCH   1   2
BRANCH   1  17
ATOM     17  C   UNL     1     -32.878 -49.831  33.660  1.00  0.00     0.000 C 
BRANCH  17  18
ATOM     18  C   UNL     1     -32.223 -50.030  35.042  1.00  0.00     0.000 C 
BRANCH  18  19
ATOM     19  C   UNL     1     -31.327 -48.845  35.446  1.00  0.00     0.000 C 
BRANCH  19  20
ATOM     20  C   UNL     1     -30.029 -49.302  36.135  1.00  0.00     0.000 C 
BRANCH  20  21
ATOM     21  C   UNL     1     -28.818 -48.447  35.725  1.00  0.00     0.000 C 
BRANCH  21  22
ATOM     22  C   UNL     1     -27.472 -49.115  36.063  1.00  0.00    -0.000 C 
BRANCH  22  23
ATOM     23  C   UNL     1     -26.273 -48.643  35.215  1.00  0.00    -0.000 C 
BRANCH  23  24
ATOM     24  C   UNL     1     -25.481 -49.766  34.523  1.00  0.00    -0.000 C 
BRANCH  24  25
ATOM     25  C   UNL     1     -26.017 -51.167  34.852  1.00  0.00    -0.000 C 
BRANCH  25  26
ATOM     26  C   UNL     1     -26.730 -51.777  33.638  1.00  0.00    -0.000 C 
BRANCH  26  27
ATOM     27  C   UNL     1     -27.732 -52.857  34.069  1.00  0.00    -0.000 C 
BRANCH  27  28
ATOM     28  C   UNL     1     -29.193 -52.473  33.772  1.00  0.00    -0.000 C 
BRANCH  28  29
ATOM     29  C   UNL     1     -30.248 -53.315  34.513  1.00  0.00    -0.003 C 
ATOM     30  C   UNL     1     -31.592 -53.367  33.786  1.00  0.00     0.004 C 
ENDBRANCH  28  29
ENDBRANCH  27  28
ENDBRANCH  26  27
ENDBRANCH  25  26
ENDBRANCH  24  25
ENDBRANCH  23  24
ENDBRANCH  22  23
ENDBRANCH  21  22
ENDBRANCH  20  21
ENDBRANCH  19  20
ENDBRANCH  18  19
ENDBRANCH  17  18
ENDBRANCH   1  17
TORSDOF 26
ENDMDL
MODEL 3
REMARK VINA RESULT:    -4.143      3.627      7.241
REMARK INTER + INTRA:         -15.309
REMARK INTER:                  -9.391
REMARK INTRA:                  -5.918
REMARK UNBOUND:                -4.868
REMARK SMILES CCCCCCCCCCCCCCCCCCCCCCCCCCCC(=O)[O-]
REMARK SMILES IDX 15 1 16 2 17 3 18 4 19 5 20 6 21 7 22 8 23 9 24 10 25 11
REMARK SMILES IDX 26 12 27 13 28 14 29 15 30 16 14 17 13 18 12 19 11 20 10 21
REMARK SMILES IDX 9 22 8 23 7 24 6 25 5 26 4 27 3 28 2 29 1 30
REMARK H PARENT
REMARK Flexibility Score: inf
ROOT
ATOM      1  C   UNL     1     -27.338 -46.341  31.633  1.00  0.00     0.000 C 
ENDROOT
BRANCH   1   2
ATOM      2  C   UNL     1     -27.802 -44.931  32.037  1.00  0.00     0.000 C 
BRANCH   2   3
ATOM      3  C   UNL     1     -28.172 -44.756  33.524  1.00  0.00     0.000 C 
BRANCH   3   4
ATOM      4  C   UNL     1     -29.312 -43.746  33.775  1.00  0.00     0.000 C 
BRANCH   4   5
ATOM      5  C   UNL     1     -30.516 -44.386  34.490  1.00  0.00     0.000 C 
BRANCH   5   6
ATOM      6  C   UNL     1     -30.380 -45.911  34.659  1.00  0.00     0.000 C 
BRANCH   6   7
ATOM      7  C   UNL     1     -30.783 -46.454  36.043  1.00  0.00     0.000 C 
BRANCH   7   8
ATOM      8  C   UNL     1     -32.020 -47.373  36.058  1.00  0.00     0.000 C 
BRANCH   8   9
ATOM      9  C   UNL     1     -31.694 -48.870  36.242  1.00  0.00     0.000 C 
BRANCH   9  10
ATOM     10  C   UNL     1     -30.213 -49.197  35.978  1.00  0.00     0.000 C 
BRANCH  10  11
ATOM     11  C   UNL     1     -29.967 -49.779  34.577  1.00  0.00     0.000 C 
BRANCH  11  12
ATOM     12  C   UNL     1     -28.788 -49.119  33.833  1.00  0.00     0.006 C 
BRANCH  12  13
ATOM     13  C   UNL     1     -27.789 -48.463  34.796  1.00  0.00     0.053 C 
BRANCH  13  14
ATOM     14  C   UNL     1     -26.542 -49.283  34.895  1.00  0.00     0.041 C 
ATOM     15  O   UNL     1     -26.435 -50.352  34.239  1.00  0.00    -0.550 OA
ATOM     16  O   UNL     1     -25.520 -48.893  35.751  1.00  0.00    -0.550 OA
ENDBRANCH  13  14
ENDBRANCH  12  13
ENDBRANCH  11  12
ENDBRANCH  10  11
ENDBRANCH   9  10
ENDBRANCH   8   9
ENDBRANCH   7   8
ENDBRANCH   6   7
ENDBRANCH   5   6
ENDBRANCH   4   5
ENDBRANCH   3   4
ENDBRANCH   2   3
ENDBRANCH   1   2
BRANCH   1  17
ATOM     17  C   UNL     1     -28.302 -47.113  30.710  1.00  0.00     0.000 C 
BRANCH  17  18
ATOM     18  C   UNL     1     -29.051 -46.221  29.700  1.00  0.00     0.000 C 
BRANCH  18  19
ATOM     19  C   UNL     1     -30.580 -46.334  29.833  1.00  0.00     0.000 C 
BRANCH  19  20
ATOM     20  C   UNL     1     -31.019 -46.685  31.265  1.00  0.00     0.000 C 
BRANCH  20  21
ATOM     21  C   UNL     1     -31.924 -47.927  31.312  1.00  0.00     0.000 C 
BRANCH  21  22
ATOM     22  C   UNL     1     -32.645 -48.093  32.662  1.00  0.00    -0.000 C 
BRANCH  22  23
ATOM     23  C   UNL     1     -34.186 -48.112  32.587  1.00  0.00    -0.000 C 
BRANCH  23  24
ATOM     24  C   UNL     1     -34.870 -46.765  32.877  1.00  0.00    -0.000 C 
BRANCH  24  25
ATOM     25  C   UNL     1     -33.900 -45.704  33.419  1.00  0.00    -0.000 C 
BRANCH  25  26
ATOM     26  C   UNL     1     -33.886 -44.465  32.514  1.00  0.00    -0.000 C 
BRANCH  26  27
ATOM     27  C   UNL     1     -34.767 -44.675  31.275  1.00  0.00    -0.000 C 
BRANCH  27  28
ATOM     28  C   UNL     1     -33.968 -44.654  29.959  1.00  0.00    -0.000 C 
BRANCH  28  29
ATOM     29  C   UNL     1     -34.608 -45.440  28.800  1.00  0.00    -0.003 C 
ATOM     30  C   UNL     1     -34.790 -46.925  29.111  1.00  0.00     0.004 C 
ENDBRANCH  28  29
ENDBRANCH  27  28
ENDBRANCH  26  27
ENDBRANCH  25  26
ENDBRANCH  24  25
ENDBRANCH  23  24
ENDBRANCH  22  23
ENDBRANCH  21  22
ENDBRANCH  20  21
ENDBRANCH  19  20
ENDBRANCH  18  19
ENDBRANCH  17  18
ENDBRANCH   1  17
TORSDOF 26
ENDMDL
MODEL 4
REMARK VINA RESULT:    -4.086      8.142     11.518
REMARK INTER + INTRA:         -15.166
REMARK INTER:                  -9.969
REMARK INTRA:                  -5.197
REMARK UNBOUND:                -4.868
REMARK SMILES CCCCCCCCCCCCCCCCCCCCCCCCCCCC(=O)[O-]
REMARK SMILES IDX 15 1 16 2 17 3 18 4 19 5 20 6 21 7 22 8 23 9 24 10 25 11
REMARK SMILES IDX 26 12 27 13 28 14 29 15 30 16 14 17 13 18 12 19 11 20 10 21
REMARK SMILES IDX 9 22 8 23 7 24 6 25 5 26 4 27 3 28 2 29 1 30
REMARK H PARENT
REMARK Flexibility Score: inf
ROOT
ATOM      1  C   UNL     1     -30.723 -48.621  25.887  1.00  0.00     0.000 C 
ENDROOT
BRANCH   1   2
ATOM      2  C   UNL     1     -30.810 -47.278  25.143  1.00  0.00     0.000 C 
BRANCH   2   3
ATOM      3  C   UNL     1     -29.556 -46.384  25.238  1.00  0.00     0.000 C 
BRANCH   3   4
ATOM      4  C   UNL     1     -28.690 -46.376  23.960  1.00  0.00     0.000 C 
BRANCH   4   5
ATOM      5  C   UNL     1     -27.441 -47.267  24.093  1.00  0.00     0.000 C 
BRANCH   5   6
ATOM      6  C   UNL     1     -27.714 -48.745  23.756  1.00  0.00     0.000 C 
BRANCH   6   7
ATOM      7  C   UNL     1     -27.524 -49.124  22.275  1.00  0.00     0.000 C 
BRANCH   7   8
ATOM      8  C   UNL     1     -28.744 -49.777  21.597  1.00  0.00     0.000 C 
BRANCH   8   9
ATOM      9  C   UNL     1     -30.104 -49.285  22.135  1.00  0.00     0.000 C 
BRANCH   9  10
ATOM     10  C   UNL     1     -30.958 -50.417  22.733  1.00  0.00     0.000 C 
BRANCH  10  11
ATOM     11  C   UNL     1     -30.439 -51.818  22.365  1.00  0.00     0.000 C 
BRANCH  11  12
ATOM     12  C   UNL     1     -30.144 -52.707  23.591  1.00  0.00     0.006 C 
BRANCH  12  13
ATOM     13  C   UNL     1     -29.123 -52.064  24.540  1.00  0.00     0.053 C 
BRANCH  13  14
ATOM     14  C   UNL     1     -27.782 -52.706  24.380  1.00  0.00     0.041 C 
ATOM     15  O   UNL     1     -27.321 -53.443  25.290  1.00  0.00    -0.550 OA
ATOM     16  O   UNL     1     -27.020 -52.448  23.247  1.00  0.00    -0.550 OA
ENDBRANCH  13  14
ENDBRANCH  12  13
ENDBRANCH  11  12
ENDBRANCH  10  11
ENDBRANCH   9  10
ENDBRANCH   8   9
ENDBRANCH   7   8
ENDBRANCH   6   7
ENDBRANCH   5   6
ENDBRANCH   4   5
ENDBRANCH   3   4
ENDBRANCH   2   3
ENDBRANCH   1   2
BRANCH   1  17
ATOM     17  C   UNL     1     -32.075 -49.223  26.321  1.00  0.00     0.000 C 
BRANCH  17  18
ATOM     18  C   UNL     1     -32.114 -50.764  26.285  1.00  0.00     0.000 C 
BRANCH  18  19
ATOM     19  C   UNL     1     -33.540 -51.314  26.103  1.00  0.00     0.000 C 
BRANCH  19  20
ATOM     20  C   UNL     1     -33.886 -51.565  24.625  1.00  0.00     0.000 C 
BRANCH  20  21
ATOM     21  C   UNL     1     -35.028 -50.662  24.130  1.00  0.00     0.000 C 
BRANCH  21  22
ATOM     22  C   UNL     1     -34.523 -49.379  23.444  1.00  0.00    -0.000 C 
BRANCH  22  23
ATOM     23  C   UNL     1     -34.946 -48.060  24.123  1.00  0.00    -0.000 C 
BRANCH  23  24
ATOM     24  C   UNL     1     -34.053 -46.848  23.806  1.00  0.00    -0.000 C 
BRANCH  24  25
ATOM     25  C   UNL     1     -34.228 -45.697  24.809  1.00  0.00    -0.000 C 
BRANCH  25  26
ATOM     26  C   UNL     1     -33.306 -44.523  24.457  1.00  0.00    -0.000 C 
BRANCH  26  27
ATOM     27  C   UNL     1     -32.926 -43.723  25.712  1.00  0.00    -0.000 C 
BRANCH  27  28
ATOM     28  C   UNL     1     -32.520 -44.621  26.895  1.00  0.00    -0.000 C 
BRANCH  28  29
ATOM     29  C   UNL     1     -33.319 -44.387  28.190  1.00  0.00    -0.003 C 
ATOM     30  C   UNL     1     -34.417 -43.335  28.035  1.00  0.00     0.004 C 
ENDBRANCH  28  29
ENDBRANCH  27  28
ENDBRANCH  26  27
ENDBRANCH  25  26
ENDBRANCH  24  25
ENDBRANCH  23  24
ENDBRANCH  22  23
ENDBRANCH  21  22
ENDBRANCH  20  21
ENDBRANCH  19  20
ENDBRANCH  18  19
ENDBRANCH  17  18
ENDBRANCH   1  17
TORSDOF 26
ENDMDL
MODEL 5
REMARK VINA RESULT:    -4.082      3.579      7.951
REMARK INTER + INTRA:         -15.153
REMARK INTER:                  -9.629
REMARK INTRA:                  -5.524
REMARK UNBOUND:                -4.868
REMARK SMILES CCCCCCCCCCCCCCCCCCCCCCCCCCCC(=O)[O-]
REMARK SMILES IDX 15 1 16 2 17 3 18 4 19 5 20 6 21 7 22 8 23 9 24 10 25 11
REMARK SMILES IDX 26 12 27 13 28 14 29 15 30 16 14 17 13 18 12 19 11 20 10 21
REMARK SMILES IDX 9 22 8 23 7 24 6 25 5 26 4 27 3 28 2 29 1 30
REMARK H PARENT
REMARK Flexibility Score: inf
ROOT
ATOM      1  C   UNL     1     -31.451 -50.567  32.452  1.00  0.00     0.000 C 
ENDROOT
BRANCH   1   2
ATOM      2  C   UNL     1     -30.525 -49.746  31.539  1.00  0.00     0.000 C 
BRANCH   2   3
ATOM      3  C   UNL     1     -29.235 -49.221  32.202  1.00  0.00     0.000 C 
BRANCH   3   4
ATOM      4  C   UNL     1     -29.340 -49.047  33.733  1.00  0.00     0.000 C 
BRANCH   4   5
ATOM      5  C   UNL     1     -27.968 -48.813  34.391  1.00  0.00     0.000 C 
BRANCH   5   6
ATOM      6  C   UNL     1     -27.915 -49.268  35.861  1.00  0.00     0.000 C 
BRANCH   6   7
ATOM      7  C   UNL     1     -29.178 -49.992  36.368  1.00  0.00     0.000 C 
BRANCH   7   8
ATOM      8  C   UNL     1     -29.094 -51.530  36.390  1.00  0.00     0.000 C 
BRANCH   8   9
ATOM      9  C   UNL     1     -30.107 -52.232  35.461  1.00  0.00     0.000 C 
BRANCH   9  10
ATOM     10  C   UNL     1     -29.432 -53.021  34.325  1.00  0.00     0.000 C 
BRANCH  10  11
ATOM     11  C   UNL     1     -27.927 -52.728  34.203  1.00  0.00     0.000 C 
BRANCH  11  12
ATOM     12  C   UNL     1     -27.486 -52.353  32.773  1.00  0.00     0.006 C 
BRANCH  12  13
ATOM     13  C   UNL     1     -25.961 -52.412  32.603  1.00  0.00     0.053 C 
BRANCH  13  14
ATOM     14  C   UNL     1     -25.328 -51.162  33.125  1.00  0.00     0.041 C 
ATOM     15  O   UNL     1     -24.805 -51.149  34.270  1.00  0.00    -0.550 OA
ATOM     16  O   UNL     1     -25.359 -49.999  32.366  1.00  0.00    -0.550 OA
ENDBRANCH  13  14
ENDBRANCH  12  13
ENDBRANCH  11  12
ENDBRANCH  10  11
ENDBRANCH   9  10
ENDBRANCH   8   9
ENDBRANCH   7   8
ENDBRANCH   6   7
ENDBRANCH   5   6
ENDBRANCH   4   5
ENDBRANCH   3   4
ENDBRANCH   2   3
ENDBRANCH   1   2
BRANCH   1  17
ATOM     17  C   UNL     1     -32.693 -49.819  32.976  1.00  0.00     0.000 C 
BRANCH  17  18
ATOM     18  C   UNL     1     -33.302 -50.434  34.252  1.00  0.00     0.000 C 
BRANCH  18  19
ATOM     19  C   UNL     1     -32.779 -49.768  35.537  1.00  0.00     0.000 C 
BRANCH  19  20
ATOM     20  C   UNL     1     -32.586 -48.251  35.372  1.00  0.00     0.000 C 
BRANCH  20  21
ATOM     21  C   UNL     1     -31.649 -47.661  36.440  1.00  0.00     0.000 C 
BRANCH  21  22
ATOM     22  C   UNL     1     -31.227 -46.213  36.132  1.00  0.00    -0.000 C 
BRANCH  22  23
ATOM     23  C   UNL     1     -30.353 -46.035  34.874  1.00  0.00    -0.000 C 
BRANCH  23  24
ATOM     24  C   UNL     1     -30.887 -45.023  33.846  1.00  0.00    -0.000 C 
BRANCH  24  25
ATOM     25  C   UNL     1     -32.072 -45.565  33.032  1.00  0.00    -0.000 C 
BRANCH  25  26
ATOM     26  C   UNL     1     -33.248 -44.580  33.058  1.00  0.00    -0.000 C 
BRANCH  26  27
ATOM     27  C   UNL     1     -34.541 -45.249  32.572  1.00  0.00    -0.000 C 
BRANCH  27  28
ATOM     28  C   UNL     1     -34.433 -46.784  32.501  1.00  0.00    -0.000 C 
BRANCH  28  29
ATOM     29  C   UNL     1     -35.695 -47.544  32.946  1.00  0.00    -0.003 C 
ATOM     30  C   UNL     1     -36.086 -47.259  34.396  1.00  0.00     0.004 C 
ENDBRANCH  28  29
ENDBRANCH  27  28
ENDBRANCH  26  27
ENDBRANCH  25  26
ENDBRANCH  24  25
ENDBRANCH  23  24
ENDBRANCH  22  23
ENDBRANCH  21  22
ENDBRANCH  20  21
ENDBRANCH  19  20
ENDBRANCH  18  19
ENDBRANCH  17  18
ENDBRANCH   1  17
TORSDOF 26
ENDMDL
MODEL 6
REMARK VINA RESULT:    -4.074      8.052     12.088
REMARK INTER + INTRA:         -15.134
REMARK INTER:                 -10.034
REMARK INTRA:                  -5.100
REMARK UNBOUND:                -4.868
REMARK SMILES CCCCCCCCCCCCCCCCCCCCCCCCCCCC(=O)[O-]
REMARK SMILES IDX 15 1 16 2 17 3 18 4 19 5 20 6 21 7 22 8 23 9 24 10 25 11
REMARK SMILES IDX 26 12 27 13 28 14 29 15 30 16 14 17 13 18 12 19 11 20 10 21
REMARK SMILES IDX 9 22 8 23 7 24 6 25 5 26 4 27 3 28 2 29 1 30
REMARK H PARENT
REMARK Flexibility Score: inf
ROOT
ATOM      1  C   UNL     1     -26.843 -48.617  23.243  1.00  0.00     0.000 C 
ENDROOT
BRANCH   1   2
ATOM      2  C   UNL     1     -27.723 -49.206  22.128  1.00  0.00     0.000 C 
BRANCH   2   3
ATOM      3  C   UNL     1     -28.087 -50.697  22.288  1.00  0.00     0.000 C 
BRANCH   3   4
ATOM      4  C   UNL     1     -29.598 -50.992  22.177  1.00  0.00     0.000 C 
BRANCH   4   5
ATOM      5  C   UNL     1     -30.134 -51.772  23.391  1.00  0.00     0.000 C 
BRANCH   5   6
ATOM      6  C   UNL     1     -30.118 -50.951  24.694  1.00  0.00     0.000 C 
BRANCH   6   7
ATOM      7  C   UNL     1     -29.176 -51.483  25.791  1.00  0.00     0.000 C 
BRANCH   7   8
ATOM      8  C   UNL     1     -28.025 -50.539  26.190  1.00  0.00     0.000 C 
BRANCH   8   9
ATOM      9  C   UNL     1     -26.625 -51.044  25.785  1.00  0.00     0.000 C 
BRANCH   9  10
ATOM     10  C   UNL     1     -26.597 -52.553  25.479  1.00  0.00     0.000 C 
BRANCH  10  11
ATOM     11  C   UNL     1     -26.224 -53.407  26.702  1.00  0.00     0.000 C 
BRANCH  11  12
ATOM     12  C   UNL     1     -24.907 -52.973  27.378  1.00  0.00     0.006 C 
BRANCH  12  13
ATOM     13  C   UNL     1     -24.701 -53.657  28.737  1.00  0.00     0.053 C 
BRANCH  13  14
ATOM     14  C   UNL     1     -25.124 -52.751  29.849  1.00  0.00     0.041 C 
ATOM     15  O   UNL     1     -25.255 -53.202  31.017  1.00  0.00    -0.550 OA
ATOM     16  O   UNL     1     -25.423 -51.421  29.585  1.00  0.00    -0.550 OA
ENDBRANCH  13  14
ENDBRANCH  12  13
ENDBRANCH  11  12
ENDBRANCH  10  11
ENDBRANCH   9  10
ENDBRANCH   8   9
ENDBRANCH   7   8
ENDBRANCH   6   7
ENDBRANCH   5   6
ENDBRANCH   4   5
ENDBRANCH   3   4
ENDBRANCH   2   3
ENDBRANCH   1   2
BRANCH   1  17
ATOM     17  C   UNL     1     -27.451 -47.419  24.000  1.00  0.00     0.000 C 
BRANCH  17  18
ATOM     18  C   UNL     1     -28.992 -47.419  24.037  1.00  0.00     0.000 C 
BRANCH  18  19
ATOM     19  C   UNL     1     -29.597 -46.132  23.446  1.00  0.00     0.000 C 
BRANCH  19  20
ATOM     20  C   UNL     1     -30.492 -46.413  22.227  1.00  0.00     0.000 C 
BRANCH  20  21
ATOM     21  C   UNL     1     -31.100 -47.826  22.261  1.00  0.00     0.000 C 
BRANCH  21  22
ATOM     22  C   UNL     1     -32.585 -47.849  21.855  1.00  0.00    -0.000 C 
BRANCH  22  23
ATOM     23  C   UNL     1     -33.348 -49.137  22.224  1.00  0.00    -0.000 C 
BRANCH  23  24
ATOM     24  C   UNL     1     -34.230 -49.036  23.481  1.00  0.00    -0.000 C 
BRANCH  24  25
ATOM     25  C   UNL     1     -33.571 -49.650  24.726  1.00  0.00    -0.000 C 
BRANCH  25  26
ATOM     26  C   UNL     1     -32.835 -48.578  25.539  1.00  0.00    -0.000 C 
BRANCH  26  27
ATOM     27  C   UNL     1     -33.657 -47.284  25.622  1.00  0.00    -0.000 C 
BRANCH  27  28
ATOM     28  C   UNL     1     -32.822 -46.022  25.334  1.00  0.00    -0.000 C 
BRANCH  28  29
ATOM     29  C   UNL     1     -33.626 -44.820  24.807  1.00  0.00    -0.003 C 
ATOM     30  C   UNL     1     -33.113 -44.295  23.467  1.00  0.00     0.004 C 
ENDBRANCH  28  29
ENDBRANCH  27  28
ENDBRANCH  26  27
ENDBRANCH  25  26
ENDBRANCH  24  25
ENDBRANCH  23  24
ENDBRANCH  22  23
ENDBRANCH  21  22
ENDBRANCH  20  21
ENDBRANCH  19  20
ENDBRANCH  18  19
ENDBRANCH  17  18
ENDBRANCH   1  17
TORSDOF 26
ENDMDL
MODEL 7
REMARK VINA RESULT:    -4.069      3.413      6.365
REMARK INTER + INTRA:         -15.121
REMARK INTER:                  -9.860
REMARK INTRA:                  -5.262
REMARK UNBOUND:                -4.868
REMARK SMILES CCCCCCCCCCCCCCCCCCCCCCCCCCCC(=O)[O-]
REMARK SMILES IDX 15 1 16 2 17 3 18 4 19 5 20 6 21 7 22 8 23 9 24 10 25 11
REMARK SMILES IDX 26 12 27 13 28 14 29 15 30 16 14 17 13 18 12 19 11 20 10 21
REMARK SMILES IDX 9 22 8 23 7 24 6 25 5 26 4 27 3 28 2 29 1 30
REMARK H PARENT
REMARK Flexibility Score: inf
ROOT
ATOM      1  C   UNL     1     -28.801 -47.588  33.274  1.00  0.00     0.000 C 
ENDROOT
BRANCH   1   2
ATOM      2  C   UNL     1     -27.372 -47.798  33.803  1.00  0.00     0.000 C 
BRANCH   2   3
ATOM      3  C   UNL     1     -27.271 -48.254  35.274  1.00  0.00     0.000 C 
BRANCH   3   4
ATOM      4  C   UNL     1     -26.014 -49.094  35.588  1.00  0.00     0.000 C 
BRANCH   4   5
ATOM      5  C   UNL     1     -25.688 -50.101  34.470  1.00  0.00     0.000 C 
BRANCH   5   6
ATOM      6  C   UNL     1     -26.422 -51.445  34.632  1.00  0.00     0.000 C 
BRANCH   6   7
ATOM      7  C   UNL     1     -27.328 -51.842  33.451  1.00  0.00     0.000 C 
BRANCH   7   8
ATOM      8  C   UNL     1     -28.801 -51.404  33.571  1.00  0.00     0.000 C 
BRANCH   8   9
ATOM      9  C   UNL     1     -29.676 -52.354  34.415  1.00  0.00     0.000 C 
BRANCH   9  10
ATOM     10  C   UNL     1     -30.037 -51.770  35.793  1.00  0.00     0.000 C 
BRANCH  10  11
ATOM     11  C   UNL     1     -30.001 -50.233  35.822  1.00  0.00     0.000 C 
BRANCH  11  12
ATOM     12  C   UNL     1     -31.365 -49.579  35.519  1.00  0.00     0.006 C 
BRANCH  12  13
ATOM     13  C   UNL     1     -31.754 -48.535  36.574  1.00  0.00     0.053 C 
BRANCH  13  14
ATOM     14  C   UNL     1     -31.786 -47.167  35.970  1.00  0.00     0.041 C 
ATOM     15  O   UNL     1     -32.782 -46.796  35.297  1.00  0.00    -0.550 OA
ATOM     16  O   UNL     1     -30.692 -46.321  36.109  1.00  0.00    -0.550 OA
ENDBRANCH  13  14
ENDBRANCH  12  13
ENDBRANCH  11  12
ENDBRANCH  10  11
ENDBRANCH   9  10
ENDBRANCH   8   9
ENDBRANCH   7   8
ENDBRANCH   6   7
ENDBRANCH   5   6
ENDBRANCH   4   5
ENDBRANCH   3   4
ENDBRANCH   2   3
ENDBRANCH   1   2
BRANCH   1  17
ATOM     17  C   UNL     1     -29.057 -48.109  31.845  1.00  0.00     0.000 C 
BRANCH  17  18
ATOM     18  C   UNL     1     -28.054 -47.585  30.798  1.00  0.00     0.000 C 
BRANCH  18  19
ATOM     19  C   UNL     1     -27.628 -48.671  29.794  1.00  0.00     0.000 C 
BRANCH  19  20
ATOM     20  C   UNL     1     -26.815 -49.796  30.457  1.00  0.00     0.000 C 
BRANCH  20  21
ATOM     21  C   UNL     1     -25.391 -49.348  30.826  1.00  0.00     0.000 C 
BRANCH  21  22
ATOM     22  C   UNL     1     -24.467 -50.525  31.189  1.00  0.00    -0.000 C 
BRANCH  22  23
ATOM     23  C   UNL     1     -24.628 -51.783  30.310  1.00  0.00    -0.000 C 
BRANCH  23  24
ATOM     24  C   UNL     1     -25.073 -53.050  31.060  1.00  0.00    -0.000 C 
BRANCH  24  25
ATOM     25  C   UNL     1     -26.046 -53.917  30.247  1.00  0.00    -0.000 C 
BRANCH  25  26
ATOM     26  C   UNL     1     -27.313 -53.128  29.892  1.00  0.00    -0.000 C 
BRANCH  26  27
ATOM     27  C   UNL     1     -27.712 -53.352  28.427  1.00  0.00    -0.000 C 
BRANCH  27  28
ATOM     28  C   UNL     1     -27.686 -52.058  27.593  1.00  0.00    -0.000 C 
BRANCH  28  29
ATOM     29  C   UNL     1     -26.286 -51.607  27.139  1.00  0.00    -0.003 C 
ATOM     30  C   UNL     1     -25.413 -52.764  26.652  1.00  0.00     0.004 C 
ENDBRANCH  28  29
ENDBRANCH  27  28
ENDBRANCH  26  27
ENDBRANCH  25  26
ENDBRANCH  24  25
ENDBRANCH  23  24
ENDBRANCH  22  23
ENDBRANCH  21  22
ENDBRANCH  20  21
ENDBRANCH  19  20
ENDBRANCH  18  19
ENDBRANCH  17  18
ENDBRANCH   1  17
TORSDOF 26
ENDMDL
MODEL 8
REMARK VINA RESULT:    -4.056      4.950      8.681
REMARK INTER + INTRA:         -15.090
REMARK INTER:                 -10.261
REMARK INTRA:                  -4.828
REMARK UNBOUND:                -4.868
REMARK SMILES CCCCCCCCCCCCCCCCCCCCCCCCCCCC(=O)[O-]
REMARK SMILES IDX 15 1 16 2 17 3 18 4 19 5 20 6 21 7 22 8 23 9 24 10 25 11
REMARK SMILES IDX 26 12 27 13 28 14 29 15 30 16 14 17 13 18 12 19 11 20 10 21
REMARK SMILES IDX 9 22 8 23 7 24 6 25 5 26 4 27 3 28 2 29 1 30
REMARK H PARENT
REMARK Flexibility Score: inf
ROOT
ATOM      1  C   UNL     1     -29.593 -50.392  31.953  1.00  0.00     0.000 C 
ENDROOT
BRANCH   1   2
ATOM      2  C   UNL     1     -28.722 -51.645  31.760  1.00  0.00     0.000 C 
BRANCH   2   3
ATOM      3  C   UNL     1     -28.744 -52.654  32.927  1.00  0.00     0.000 C 
BRANCH   3   4
ATOM      4  C   UNL     1     -27.359 -52.926  33.551  1.00  0.00     0.000 C 
BRANCH   4   5
ATOM      5  C   UNL     1     -27.005 -51.915  34.657  1.00  0.00     0.000 C 
BRANCH   5   6
ATOM      6  C   UNL     1     -25.621 -51.268  34.467  1.00  0.00     0.000 C 
BRANCH   6   7
ATOM      7  C   UNL     1     -25.630 -49.894  33.771  1.00  0.00     0.000 C 
BRANCH   7   8
ATOM      8  C   UNL     1     -25.603 -49.933  32.231  1.00  0.00     0.000 C 
BRANCH   8   9
ATOM      9  C   UNL     1     -24.469 -50.797  31.640  1.00  0.00     0.000 C 
BRANCH   9  10
ATOM     10  C   UNL     1     -24.926 -51.646  30.440  1.00  0.00     0.000 C 
BRANCH  10  11
ATOM     11  C   UNL     1     -24.983 -53.149  30.756  1.00  0.00     0.000 C 
BRANCH  11  12
ATOM     12  C   UNL     1     -26.197 -53.866  30.129  1.00  0.00     0.006 C 
BRANCH  12  13
ATOM     13  C   UNL     1     -26.729 -53.129  28.892  1.00  0.00     0.053 C 
BRANCH  13  14
ATOM     14  C   UNL     1     -26.349 -53.859  27.643  1.00  0.00     0.041 C 
ATOM     15  O   UNL     1     -27.115 -54.736  27.166  1.00  0.00    -0.550 OA
ATOM     16  O   UNL     1     -25.125 -53.607  27.036  1.00  0.00    -0.550 OA
ENDBRANCH  13  14
ENDBRANCH  12  13
ENDBRANCH  11  12
ENDBRANCH  10  11
ENDBRANCH   9  10
ENDBRANCH   8   9
ENDBRANCH   7   8
ENDBRANCH   6   7
ENDBRANCH   5   6
ENDBRANCH   4   5
ENDBRANCH   3   4
ENDBRANCH   2   3
ENDBRANCH   1   2
BRANCH   1  17
ATOM     17  C   UNL     1     -29.167 -49.464  33.108  1.00  0.00     0.000 C 
BRANCH  17  18
ATOM     18  C   UNL     1     -30.278 -49.206  34.146  1.00  0.00     0.000 C 
BRANCH  18  19
ATOM     19  C   UNL     1     -30.533 -50.424  35.053  1.00  0.00     0.000 C 
BRANCH  19  20
ATOM     20  C   UNL     1     -32.030 -50.745  35.193  1.00  0.00     0.000 C 
BRANCH  20  21
ATOM     21  C   UNL     1     -32.682 -51.093  33.843  1.00  0.00     0.000 C 
BRANCH  21  22
ATOM     22  C   UNL     1     -32.400 -52.539  33.397  1.00  0.00    -0.000 C 
BRANCH  22  23
ATOM     23  C   UNL     1     -32.779 -52.863  31.937  1.00  0.00    -0.000 C 
BRANCH  23  24
ATOM     24  C   UNL     1     -32.751 -51.664  30.974  1.00  0.00    -0.000 C 
BRANCH  24  25
ATOM     25  C   UNL     1     -32.186 -52.020  29.591  1.00  0.00    -0.000 C 
BRANCH  25  26
ATOM     26  C   UNL     1     -32.820 -53.311  29.058  1.00  0.00    -0.000 C 
BRANCH  26  27
ATOM     27  C   UNL     1     -33.817 -53.014  27.930  1.00  0.00    -0.000 C 
BRANCH  27  28
ATOM     28  C   UNL     1     -35.165 -53.736  28.114  1.00  0.00    -0.000 C 
BRANCH  28  29
ATOM     29  C   UNL     1     -35.469 -54.182  29.556  1.00  0.00    -0.003 C 
ATOM     30  C   UNL     1     -35.365 -55.694  29.750  1.00  0.00     0.004 C 
ENDBRANCH  28  29
ENDBRANCH  27  28
ENDBRANCH  26  27
ENDBRANCH  25  26
ENDBRANCH  24  25
ENDBRANCH  23  24
ENDBRANCH  22  23
ENDBRANCH  21  22
ENDBRANCH  20  21
ENDBRANCH  19  20
ENDBRANCH  18  19
ENDBRANCH  17  18
ENDBRANCH   1  17
TORSDOF 26
ENDMDL
MODEL 9
REMARK VINA RESULT:    -4.008      1.978      3.209
REMARK INTER + INTRA:         -14.968
REMARK INTER:                  -9.072
REMARK INTRA:                  -5.896
REMARK UNBOUND:                -4.868
REMARK SMILES CCCCCCCCCCCCCCCCCCCCCCCCCCCC(=O)[O-]
REMARK SMILES IDX 15 1 16 2 17 3 18 4 19 5 20 6 21 7 22 8 23 9 24 10 25 11
REMARK SMILES IDX 26 12 27 13 28 14 29 15 30 16 14 17 13 18 12 19 11 20 10 21
REMARK SMILES IDX 9 22 8 23 7 24 6 25 5 26 4 27 3 28 2 29 1 30
REMARK H PARENT
REMARK Flexibility Score: inf
ROOT
ATOM      1  C   UNL     1     -28.193 -48.988  31.919  1.00  0.00     0.000 C 
ENDROOT
BRANCH   1   2
ATOM      2  C   UNL     1     -27.244 -47.789  31.753  1.00  0.00     0.000 C 
BRANCH   2   3
ATOM      3  C   UNL     1     -27.845 -46.414  32.109  1.00  0.00     0.000 C 
BRANCH   3   4
ATOM      4  C   UNL     1     -28.262 -46.272  33.589  1.00  0.00     0.000 C 
BRANCH   4   5
ATOM      5  C   UNL     1     -29.582 -45.499  33.754  1.00  0.00     0.000 C 
BRANCH   5   6
ATOM      6  C   UNL     1     -30.383 -45.925  34.999  1.00  0.00     0.000 C 
BRANCH   6   7
ATOM      7  C   UNL     1     -30.803 -47.407  35.031  1.00  0.00     0.000 C 
BRANCH   7   8
ATOM      8  C   UNL     1     -31.499 -47.869  36.326  1.00  0.00     0.000 C 
BRANCH   8   9
ATOM      9  C   UNL     1     -32.359 -49.140  36.163  1.00  0.00     0.000 C 
BRANCH   9  10
ATOM     10  C   UNL     1     -33.808 -48.832  35.746  1.00  0.00     0.000 C 
BRANCH  10  11
ATOM     11  C   UNL     1     -34.147 -49.340  34.335  1.00  0.00     0.000 C 
BRANCH  11  12
ATOM     12  C   UNL     1     -33.850 -48.313  33.222  1.00  0.00     0.006 C 
BRANCH  12  13
ATOM     13  C   UNL     1     -34.241 -46.886  33.632  1.00  0.00     0.053 C 
BRANCH  13  14
ATOM     14  C   UNL     1     -33.461 -45.883  32.843  1.00  0.00     0.041 C 
ATOM     15  O   UNL     1     -32.623 -46.267  31.986  1.00  0.00    -0.550 OA
ATOM     16  O   UNL     1     -33.624 -44.526  33.090  1.00  0.00    -0.550 OA
ENDBRANCH  13  14
ENDBRANCH  12  13
ENDBRANCH  11  12
ENDBRANCH  10  11
ENDBRANCH   9  10
ENDBRANCH   8   9
ENDBRANCH   7   8
ENDBRANCH   6   7
ENDBRANCH   5   6
ENDBRANCH   4   5
ENDBRANCH   3   4
ENDBRANCH   2   3
ENDBRANCH   1   2
BRANCH   1  17
ATOM     17  C   UNL     1     -29.667 -48.717  31.557  1.00  0.00     0.000 C 
BRANCH  17  18
ATOM     18  C   UNL     1     -30.653 -49.757  32.128  1.00  0.00     0.000 C 
BRANCH  18  19
ATOM     19  C   UNL     1     -30.312 -51.194  31.695  1.00  0.00     0.000 C 
BRANCH  19  20
ATOM     20  C   UNL     1     -30.311 -52.177  32.878  1.00  0.00     0.000 C 
BRANCH  20  21
ATOM     21  C   UNL     1     -30.731 -51.505  34.196  1.00  0.00     0.000 C 
BRANCH  21  22
ATOM     22  C   UNL     1     -29.923 -52.005  35.408  1.00  0.00    -0.000 C 
BRANCH  22  23
ATOM     23  C   UNL     1     -29.056 -50.937  36.106  1.00  0.00    -0.000 C 
BRANCH  23  24
ATOM     24  C   UNL     1     -28.378 -49.928  35.164  1.00  0.00    -0.000 C 
BRANCH  24  25
ATOM     25  C   UNL     1     -27.381 -49.010  35.886  1.00  0.00    -0.000 C 
BRANCH  25  26
ATOM     26  C   UNL     1     -26.022 -49.010  35.173  1.00  0.00    -0.000 C 
BRANCH  26  27
ATOM     27  C   UNL     1     -25.489 -50.439  34.999  1.00  0.00    -0.000 C 
BRANCH  27  28
ATOM     28  C   UNL     1     -24.754 -50.647  33.662  1.00  0.00    -0.000 C 
BRANCH  28  29
ATOM     29  C   UNL     1     -25.551 -51.425  32.599  1.00  0.00    -0.003 C 
ATOM     30  C   UNL     1     -26.580 -52.381  33.201  1.00  0.00     0.004 C 
ENDBRANCH  28  29
ENDBRANCH  27  28
ENDBRANCH  26  27
ENDBRANCH  25  26
ENDBRANCH  24  25
ENDBRANCH  23  24
ENDBRANCH  22  23
ENDBRANCH  21  22
ENDBRANCH  20  21
ENDBRANCH  19  20
ENDBRANCH  18  19
ENDBRANCH  17  18
ENDBRANCH   1  17
TORSDOF 26
ENDMDL
