MODEL 1
REMARK VINA RESULT:    -2.739      0.000      0.000
REMARK INTER + INTRA:          -3.526
REMARK INTER:                  -3.219
REMARK INTRA:                  -0.307
REMARK UNBOUND:                -0.307
REMARK SMILES O=c1cc(-c2ccc(O)c(O)c2)oc2cc(O)cc(O)c12
REMARK SMILES IDX 4 1 3 2 2 3 1 4 21 5 19 6 18 7 16 8 15 9 14 10 13 11 5 12
REMARK SMILES IDX 6 13 7 14 8 15 12 16 10 17 9 18 11 20 20 22 17 24
REMARK H PARENT 9 19 11 21 20 23 17 25
REMARK Flexibility Score: inf
ROOT
ATOM      1  C   UNL     1      20.374 -15.763   2.619  1.00  0.00     0.138 A 
ATOM      2  C   UNL     1      20.339 -15.133   1.367  1.00  0.00     0.100 A 
ATOM      3  C   UNL     1      20.265 -15.905   0.207  1.00  0.00     0.197 A 
ATOM      4  O   UNL     1      20.298 -15.315  -0.902  1.00  0.00    -0.289 OA
ATOM      5  C   UNL     1      20.194 -17.315   0.305  1.00  0.00     0.107 A 
ATOM      6  C   UNL     1      20.075 -18.202  -0.806  1.00  0.00     0.134 A 
ATOM      7  C   UNL     1      20.131 -19.586  -0.595  1.00  0.00     0.093 A 
ATOM      8  C   UNL     1      20.241 -20.114   0.690  1.00  0.00     0.123 A 
ATOM      9  C   UNL     1      20.304 -19.257   1.790  1.00  0.00     0.094 A 
ATOM     10  C   UNL     1      20.285 -17.871   1.609  1.00  0.00     0.146 A 
ATOM     11  O   UNL     1      20.362 -17.090   2.680  1.00  0.00    -0.456 OA
ENDROOT
BRANCH   1  12
ATOM     12  C   UNL     1      20.451 -14.988   3.884  1.00  0.00     0.021 A 
ATOM     13  C   UNL     1      19.894 -13.700   3.998  1.00  0.00     0.016 A 
ATOM     14  C   UNL     1      19.973 -12.999   5.204  1.00  0.00     0.051 A 
ATOM     15  C   UNL     1      20.600 -13.574   6.317  1.00  0.00     0.157 A 
ATOM     16  C   UNL     1      21.067 -15.563   5.011  1.00  0.00     0.062 A 
ATOM     17  C   UNL     1      21.146 -14.858   6.220  1.00  0.00     0.158 A 
BRANCH  15  18
ATOM     18  O   UNL     1      20.681 -12.875   7.520  1.00  0.00    -0.504 OA
ATOM     19  H   UNL     1      19.989 -12.182   7.779  1.00  0.00     0.293 HD
ENDBRANCH  15  18
BRANCH  17  20
ATOM     20  O   UNL     1      21.766 -15.430   7.330  1.00  0.00    -0.504 OA
ATOM     21  H   UNL     1      21.236 -15.921   8.039  1.00  0.00     0.293 HD
ENDBRANCH  17  20
ENDBRANCH   1  12
BRANCH   6  22
ATOM     22  O   UNL     1      19.877 -17.780  -2.124  1.00  0.00    -0.507 OA
ATOM     23  H   UNL     1      18.988 -17.510  -2.516  1.00  0.00     0.293 HD
ENDBRANCH   6  22
BRANCH   8  24
ATOM     24  O   UNL     1      20.278 -21.496   0.864  1.00  0.00    -0.508 OA
ATOM     25  H   UNL     1      19.759 -21.951   1.605  1.00  0.00     0.293 HD
ENDBRANCH   8  24
TORSDOF 5
ENDMDL
MODEL 2
REMARK VINA RESULT:    -2.572      1.642      6.806
REMARK INTER + INTRA:          -3.330
REMARK INTER:                  -3.017
REMARK INTRA:                  -0.313
REMARK UNBOUND:                -0.307
REMARK SMILES O=c1cc(-c2ccc(O)c(O)c2)oc2cc(O)cc(O)c12
REMARK SMILES IDX 4 1 3 2 2 3 1 4 21 5 19 6 18 7 16 8 15 9 14 10 13 11 5 12
REMARK SMILES IDX 6 13 7 14 8 15 12 16 10 17 9 18 11 20 20 22 17 24
REMARK H PARENT 9 19 11 21 20 23 17 25
REMARK Flexibility Score: inf
ROOT
ATOM      1  C   UNL     1      20.204 -17.630   1.207  1.00  0.00     0.138 A 
ATOM      2  C   UNL     1      20.099 -16.378   0.584  1.00  0.00     0.100 A 
ATOM      3  C   UNL     1      20.031 -15.222   1.365  1.00  0.00     0.197 A 
ATOM      4  O   UNL     1      19.875 -14.120   0.780  1.00  0.00    -0.289 OA
ATOM      5  C   UNL     1      20.099 -15.321   2.775  1.00  0.00     0.107 A 
ATOM      6  C   UNL     1      20.080 -14.210   3.669  1.00  0.00     0.134 A 
ATOM      7  C   UNL     1      20.037 -14.436   5.051  1.00  0.00     0.093 A 
ATOM      8  C   UNL     1      20.072 -15.729   5.570  1.00  0.00     0.123 A 
ATOM      9  C   UNL     1      20.145 -16.822   4.706  1.00  0.00     0.094 A 
ATOM     10  C   UNL     1      20.155 -16.631   3.322  1.00  0.00     0.146 A 
ATOM     11  O   UNL     1      20.211 -17.698   2.533  1.00  0.00    -0.456 OA
ENDROOT
BRANCH   1  12
ATOM     12  C   UNL     1      20.281 -18.889   0.424  1.00  0.00     0.021 A 
ATOM     13  C   UNL     1      19.891 -18.946  -0.928  1.00  0.00     0.016 A 
ATOM     14  C   UNL     1      19.984 -20.143  -1.642  1.00  0.00     0.051 A 
ATOM     15  C   UNL     1      20.476 -21.299  -1.023  1.00  0.00     0.157 A 
ATOM     16  C   UNL     1      20.787 -20.053   1.033  1.00  0.00     0.062 A 
ATOM     17  C   UNL     1      20.880 -21.253   0.316  1.00  0.00     0.158 A 
BRANCH  15  18
ATOM     18  O   UNL     1      20.569 -22.495  -1.734  1.00  0.00    -0.504 OA
ATOM     19  H   UNL     1      21.324 -22.667  -2.387  1.00  0.00     0.293 HD
ENDBRANCH  15  18
BRANCH  17  20
ATOM     20  O   UNL     1      21.373 -22.405   0.928  1.00  0.00    -0.504 OA
ATOM     21  H   UNL     1      22.310 -22.444   1.308  1.00  0.00     0.293 HD
ENDBRANCH  17  20
ENDBRANCH   1  12
BRANCH   6  22
ATOM     22  O   UNL     1      20.129 -12.875   3.256  1.00  0.00    -0.507 OA
ATOM     23  H   UNL     1      20.975 -12.353   3.089  1.00  0.00     0.293 HD
ENDBRANCH   6  22
BRANCH   8  24
ATOM     24  O   UNL     1      20.042 -15.916   6.951  1.00  0.00    -0.508 OA
ATOM     25  H   UNL     1      19.406 -15.395   7.542  1.00  0.00     0.293 HD
ENDBRANCH   8  24
TORSDOF 5
ENDMDL
MODEL 3
REMARK VINA RESULT:    -2.551      1.727      3.243
REMARK INTER + INTRA:          -3.305
REMARK INTER:                  -3.030
REMARK INTRA:                  -0.275
REMARK UNBOUND:                -0.307
REMARK SMILES O=c1cc(-c2ccc(O)c(O)c2)oc2cc(O)cc(O)c12
REMARK SMILES IDX 4 1 3 2 2 3 1 4 21 5 19 6 18 7 16 8 15 9 14 10 13 11 5 12
REMARK SMILES IDX 6 13 7 14 8 15 12 16 10 17 9 18 11 20 20 22 17 24
REMARK H PARENT 9 19 11 21 20 23 17 25
REMARK Flexibility Score: inf
ROOT
ATOM      1  C   UNL     1      20.928 -15.324   3.658  1.00  0.00     0.138 A 
ATOM      2  C   UNL     1      20.672 -16.701   3.582  1.00  0.00     0.100 A 
ATOM      3  C   UNL     1      20.341 -17.275   2.354  1.00  0.00     0.197 A 
ATOM      4  O   UNL     1      20.056 -18.499   2.329  1.00  0.00    -0.289 OA
ATOM      5  C   UNL     1      20.299 -16.470   1.190  1.00  0.00     0.107 A 
ATOM      6  C   UNL     1      20.015 -16.953  -0.122  1.00  0.00     0.134 A 
ATOM      7  C   UNL     1      19.887 -16.044  -1.179  1.00  0.00     0.093 A 
ATOM      8  C   UNL     1      20.091 -14.679  -0.984  1.00  0.00     0.123 A 
ATOM      9  C   UNL     1      20.423 -14.201   0.284  1.00  0.00     0.094 A 
ATOM     10  C   UNL     1      20.524 -15.079   1.366  1.00  0.00     0.146 A 
ATOM     11  O   UNL     1      20.828 -14.582   2.561  1.00  0.00    -0.456 OA
ENDROOT
BRANCH   1  12
ATOM     12  C   UNL     1      21.285 -14.664   4.939  1.00  0.00     0.021 A 
ATOM     13  C   UNL     1      20.665 -13.469   5.354  1.00  0.00     0.016 A 
ATOM     14  C   UNL     1      21.013 -12.875   6.569  1.00  0.00     0.051 A 
ATOM     15  C   UNL     1      21.978 -13.467   7.395  1.00  0.00     0.157 A 
ATOM     16  C   UNL     1      22.243 -15.257   5.781  1.00  0.00     0.062 A 
ATOM     17  C   UNL     1      22.592 -14.661   7.000  1.00  0.00     0.158 A 
BRANCH  15  18
ATOM     18  O   UNL     1      22.328 -12.875   8.608  1.00  0.00    -0.504 OA
ATOM     19  H   UNL     1      21.779 -12.124   9.009  1.00  0.00     0.293 HD
ENDBRANCH  15  18
BRANCH  17  20
ATOM     20  O   UNL     1      23.549 -15.249   7.826  1.00  0.00    -0.504 OA
ATOM     21  H   UNL     1      23.633 -16.255   7.907  1.00  0.00     0.293 HD
ENDBRANCH  17  20
ENDBRANCH   1  12
BRANCH   6  22
ATOM     22  O   UNL     1      19.876 -18.307  -0.442  1.00  0.00    -0.507 OA
ATOM     23  H   UNL     1      20.231 -19.071   0.112  1.00  0.00     0.293 HD
ENDBRANCH   6  22
BRANCH   8  24
ATOM     24  O   UNL     1      19.970 -13.805  -2.064  1.00  0.00    -0.508 OA
ATOM     25  H   UNL     1      20.271 -12.840  -2.000  1.00  0.00     0.293 HD
ENDBRANCH   8  24
TORSDOF 5
ENDMDL
MODEL 4
REMARK VINA RESULT:    -2.416      1.577      6.967
REMARK INTER + INTRA:          -3.146
REMARK INTER:                  -2.839
REMARK INTRA:                  -0.308
REMARK UNBOUND:                -0.307
REMARK SMILES O=c1cc(-c2ccc(O)c(O)c2)oc2cc(O)cc(O)c12
REMARK SMILES IDX 4 1 3 2 2 3 1 4 21 5 19 6 18 7 16 8 15 9 14 10 13 11 5 12
REMARK SMILES IDX 6 13 7 14 8 15 12 16 10 17 9 18 11 20 20 22 17 24
REMARK H PARENT 9 19 11 21 20 23 17 25
REMARK Flexibility Score: inf
ROOT
ATOM      1  C   UNL     1      20.854 -15.600   3.606  1.00  0.00     0.138 A 
ATOM      2  C   UNL     1      20.228 -14.419   4.032  1.00  0.00     0.100 A 
ATOM      3  C   UNL     1      20.516 -13.904   5.297  1.00  0.00     0.197 A 
ATOM      4  O   UNL     1      19.893 -12.879   5.675  1.00  0.00    -0.289 OA
ATOM      5  C   UNL     1      21.459 -14.558   6.125  1.00  0.00     0.107 A 
ATOM      6  C   UNL     1      21.861 -14.102   7.416  1.00  0.00     0.134 A 
ATOM      7  C   UNL     1      22.716 -14.894   8.192  1.00  0.00     0.093 A 
ATOM      8  C   UNL     1      23.229 -16.094   7.702  1.00  0.00     0.123 A 
ATOM      9  C   UNL     1      22.885 -16.524   6.420  1.00  0.00     0.094 A 
ATOM     10  C   UNL     1      22.007 -15.773   5.634  1.00  0.00     0.146 A 
ATOM     11  O   UNL     1      21.693 -16.224   4.425  1.00  0.00    -0.456 OA
ENDROOT
BRANCH   1  12
ATOM     12  C   UNL     1      20.584 -16.190   2.270  1.00  0.00     0.021 A 
ATOM     13  C   UNL     1      20.221 -15.393   1.167  1.00  0.00     0.016 A 
ATOM     14  C   UNL     1      19.984 -15.976  -0.080  1.00  0.00     0.051 A 
ATOM     15  C   UNL     1      20.113 -17.360  -0.250  1.00  0.00     0.157 A 
ATOM     16  C   UNL     1      20.724 -17.578   2.086  1.00  0.00     0.062 A 
ATOM     17  C   UNL     1      20.485 -18.162   0.834  1.00  0.00     0.158 A 
BRANCH  15  18
ATOM     18  O   UNL     1      19.875 -17.943  -1.494  1.00  0.00    -0.504 OA
ATOM     19  H   UNL     1      20.561 -17.903  -2.238  1.00  0.00     0.293 HD
ENDBRANCH  15  18
BRANCH  17  20
ATOM     20  O   UNL     1      20.616 -19.539   0.661  1.00  0.00    -0.504 OA
ATOM     21  H   UNL     1      21.523 -19.975   0.548  1.00  0.00     0.293 HD
ENDBRANCH  17  20
ENDBRANCH   1  12
BRANCH   6  22
ATOM     22  O   UNL     1      21.474 -12.876   7.966  1.00  0.00    -0.507 OA
ATOM     23  H   UNL     1      20.615 -12.715   8.468  1.00  0.00     0.293 HD
ENDBRANCH   6  22
BRANCH   8  24
ATOM     24  O   UNL     1      24.089 -16.850   8.498  1.00  0.00    -0.508 OA
ATOM     25  H   UNL     1      23.839 -17.779   8.814  1.00  0.00     0.293 HD
ENDBRANCH   8  24
TORSDOF 5
ENDMDL
MODEL 5
REMARK VINA RESULT:    -2.229      1.501      2.132
REMARK INTER + INTRA:          -2.927
REMARK INTER:                  -2.654
REMARK INTRA:                  -0.273
REMARK UNBOUND:                -0.307
REMARK SMILES O=c1cc(-c2ccc(O)c(O)c2)oc2cc(O)cc(O)c12
REMARK SMILES IDX 4 1 3 2 2 3 1 4 21 5 19 6 18 7 16 8 15 9 14 10 13 11 5 12
REMARK SMILES IDX 6 13 7 14 8 15 12 16 10 17 9 18 11 20 20 22 17 24
REMARK H PARENT 9 19 11 21 20 23 17 25
REMARK Flexibility Score: inf
ROOT
ATOM      1  C   UNL     1      21.005 -14.398   3.680  1.00  0.00     0.138 A 
ATOM      2  C   UNL     1      20.879 -13.462   2.642  1.00  0.00     0.100 A 
ATOM      3  C   UNL     1      20.632 -13.904   1.342  1.00  0.00     0.197 A 
ATOM      4  O   UNL     1      20.586 -13.046   0.423  1.00  0.00    -0.289 OA
ATOM      5  C   UNL     1      20.479 -15.287   1.086  1.00  0.00     0.107 A 
ATOM      6  C   UNL     1      20.185 -15.849  -0.193  1.00  0.00     0.134 A 
ATOM      7  C   UNL     1      20.171 -17.241  -0.348  1.00  0.00     0.093 A 
ATOM      8  C   UNL     1      20.381 -18.089   0.738  1.00  0.00     0.123 A 
ATOM      9  C   UNL     1      20.618 -17.550   2.003  1.00  0.00     0.094 A 
ATOM     10  C   UNL     1      20.671 -16.166   2.185  1.00  0.00     0.146 A 
ATOM     11  O   UNL     1      20.912 -15.693   3.402  1.00  0.00    -0.456 OA
ENDROOT
BRANCH   1  12
ATOM     12  C   UNL     1      21.267 -13.982   5.081  1.00  0.00     0.021 A 
ATOM     13  C   UNL     1      20.313 -13.272   5.834  1.00  0.00     0.016 A 
ATOM     14  C   UNL     1      20.583 -12.903   7.154  1.00  0.00     0.051 A 
ATOM     15  C   UNL     1      21.805 -13.244   7.747  1.00  0.00     0.157 A 
ATOM     16  C   UNL     1      22.487 -14.331   5.690  1.00  0.00     0.062 A 
ATOM     17  C   UNL     1      22.758 -13.960   7.014  1.00  0.00     0.158 A 
BRANCH  15  18
ATOM     18  O   UNL     1      22.078 -12.875   9.064  1.00  0.00    -0.504 OA
ATOM     19  H   UNL     1      21.560 -13.266   9.842  1.00  0.00     0.293 HD
ENDBRANCH  15  18
BRANCH  17  20
ATOM     20  O   UNL     1      23.972 -14.301   7.608  1.00  0.00    -0.504 OA
ATOM     21  H   UNL     1      24.808 -13.749   7.460  1.00  0.00     0.293 HD
ENDBRANCH  17  20
ENDBRANCH   1  12
BRANCH   6  22
ATOM     22  O   UNL     1      19.876 -15.091  -1.326  1.00  0.00    -0.507 OA
ATOM     23  H   UNL     1      19.798 -14.086  -1.345  1.00  0.00     0.293 HD
ENDBRANCH   6  22
BRANCH   8  24
ATOM     24  O   UNL     1      20.346 -19.470   0.549  1.00  0.00    -0.508 OA
ATOM     25  H   UNL     1      21.046 -20.078   0.956  1.00  0.00     0.293 HD
ENDBRANCH   8  24
TORSDOF 5
ENDMDL
MODEL 6
REMARK VINA RESULT:    -0.912     21.002     23.028
REMARK INTER + INTRA:          -1.379
REMARK INTER:                  -1.118
REMARK INTRA:                  -0.261
REMARK UNBOUND:                -0.307
REMARK SMILES O=c1cc(-c2ccc(O)c(O)c2)oc2cc(O)cc(O)c12
REMARK SMILES IDX 4 1 3 2 2 3 1 4 21 5 19 6 18 7 16 8 15 9 14 10 13 11 5 12
REMARK SMILES IDX 6 13 7 14 8 15 12 16 10 17 9 18 11 20 20 22 17 24
REMARK H PARENT 9 19 11 21 20 23 17 25
REMARK Flexibility Score: inf
ROOT
ATOM      1  C   UNL     1      35.074 -31.654   9.206  1.00  0.00     0.138 A 
ATOM      2  C   UNL     1      34.479 -32.597  10.057  1.00  0.00     0.100 A 
ATOM      3  C   UNL     1      34.044 -32.205  11.325  1.00  0.00     0.197 A 
ATOM      4  O   UNL     1      33.572 -33.086  12.088  1.00  0.00    -0.289 OA
ATOM      5  C   UNL     1      34.178 -30.856  11.728  1.00  0.00     0.107 A 
ATOM      6  C   UNL     1      33.733 -30.333  12.979  1.00  0.00     0.134 A 
ATOM      7  C   UNL     1      34.023 -29.005  13.315  1.00  0.00     0.093 A 
ATOM      8  C   UNL     1      34.687 -28.165  12.423  1.00  0.00     0.123 A 
ATOM      9  C   UNL     1      35.079 -28.650  11.175  1.00  0.00     0.094 A 
ATOM     10  C   UNL     1      34.835 -29.980  10.823  1.00  0.00     0.146 A 
ATOM     11  O   UNL     1      35.237 -30.406   9.631  1.00  0.00    -0.456 OA
ENDROOT
BRANCH   1  12
ATOM     12  C   UNL     1      35.553 -32.017   7.849  1.00  0.00     0.021 A 
ATOM     13  C   UNL     1      36.923 -32.020   7.523  1.00  0.00     0.016 A 
ATOM     14  C   UNL     1      37.345 -32.377   6.240  1.00  0.00     0.051 A 
ATOM     15  C   UNL     1      36.409 -32.743   5.264  1.00  0.00     0.157 A 
ATOM     16  C   UNL     1      34.621 -32.399   6.866  1.00  0.00     0.062 A 
ATOM     17  C   UNL     1      35.046 -32.756   5.578  1.00  0.00     0.158 A 
BRANCH  15  18
ATOM     18  O   UNL     1      36.829 -33.097   3.982  1.00  0.00    -0.504 OA
ATOM     19  H   UNL     1      36.276 -32.875   3.163  1.00  0.00     0.293 HD
ENDBRANCH  15  18
BRANCH  17  20
ATOM     20  O   UNL     1      34.117 -33.125   4.606  1.00  0.00    -0.504 OA
ATOM     21  H   UNL     1      33.347 -32.520   4.352  1.00  0.00     0.293 HD
ENDBRANCH  17  20
ENDBRANCH   1  12
BRANCH   6  22
ATOM     22  O   UNL     1      32.987 -31.064  13.909  1.00  0.00    -0.507 OA
ATOM     23  H   UNL     1      31.998 -31.248  13.839  1.00  0.00     0.293 HD
ENDBRANCH   6  22
BRANCH   8  24
ATOM     24  O   UNL     1      34.946 -26.844  12.786  1.00  0.00    -0.508 OA
ATOM     25  H   UNL     1      35.839 -26.407  12.593  1.00  0.00     0.293 HD
ENDBRANCH   8  24
TORSDOF 5
ENDMDL
MODEL 7
REMARK VINA RESULT:    -0.895     21.426     23.109
REMARK INTER + INTRA:          -1.359
REMARK INTER:                  -1.064
REMARK INTRA:                  -0.295
REMARK UNBOUND:                -0.307
REMARK SMILES O=c1cc(-c2ccc(O)c(O)c2)oc2cc(O)cc(O)c12
REMARK SMILES IDX 4 1 3 2 2 3 1 4 21 5 19 6 18 7 16 8 15 9 14 10 13 11 5 12
REMARK SMILES IDX 6 13 7 14 8 15 12 16 10 17 9 18 11 20 20 22 17 24
REMARK H PARENT 9 19 11 21 20 23 17 25
REMARK Flexibility Score: inf
ROOT
ATOM      1  C   UNL     1      35.169 -31.771   8.535  1.00  0.00     0.138 A 
ATOM      2  C   UNL     1      34.466 -32.656   9.366  1.00  0.00     0.100 A 
ATOM      3  C   UNL     1      34.119 -32.260  10.658  1.00  0.00     0.197 A 
ATOM      4  O   UNL     1      33.543 -33.097  11.400  1.00  0.00    -0.289 OA
ATOM      5  C   UNL     1      34.450 -30.961  11.109  1.00  0.00     0.107 A 
ATOM      6  C   UNL     1      34.111 -30.434  12.391  1.00  0.00     0.134 A 
ATOM      7  C   UNL     1      34.593 -29.175  12.770  1.00  0.00     0.093 A 
ATOM      8  C   UNL     1      35.350 -28.400  11.893  1.00  0.00     0.123 A 
ATOM      9  C   UNL     1      35.642 -28.882  10.616  1.00  0.00     0.094 A 
ATOM     10  C   UNL     1      35.205 -30.149  10.221  1.00  0.00     0.146 A 
ATOM     11  O   UNL     1      35.516 -30.577   9.003  1.00  0.00    -0.456 OA
ENDROOT
BRANCH   1  12
ATOM     12  C   UNL     1      35.562 -32.141   7.152  1.00  0.00     0.021 A 
ATOM     13  C   UNL     1      34.673 -32.797   6.279  1.00  0.00     0.016 A 
ATOM     14  C   UNL     1      35.067 -33.123   4.980  1.00  0.00     0.051 A 
ATOM     15  C   UNL     1      36.351 -32.793   4.526  1.00  0.00     0.157 A 
ATOM     16  C   UNL     1      36.845 -31.802   6.683  1.00  0.00     0.062 A 
ATOM     17  C   UNL     1      37.240 -32.130   5.379  1.00  0.00     0.158 A 
BRANCH  15  18
ATOM     18  O   UNL     1      36.746 -33.119   3.230  1.00  0.00    -0.504 OA
ATOM     19  H   UNL     1      37.721 -33.267   2.994  1.00  0.00     0.293 HD
ENDBRANCH  15  18
BRANCH  17  20
ATOM     20  O   UNL     1      38.516 -31.800   4.924  1.00  0.00    -0.504 OA
ATOM     21  H   UNL     1      38.713 -31.683   3.938  1.00  0.00     0.293 HD
ENDBRANCH  17  20
ENDBRANCH   1  12
BRANCH   6  22
ATOM     22  O   UNL     1      33.290 -31.091  13.312  1.00  0.00    -0.507 OA
ATOM     23  H   UNL     1      33.127 -30.787  14.260  1.00  0.00     0.293 HD
ENDBRANCH   6  22
BRANCH   8  24
ATOM     24  O   UNL     1      35.801 -27.144  12.298  1.00  0.00    -0.508 OA
ATOM     25  H   UNL     1      36.363 -26.562  11.690  1.00  0.00     0.293 HD
ENDBRANCH   8  24
TORSDOF 5
ENDMDL
MODEL 8
REMARK VINA RESULT:    -0.329     21.352     22.612
REMARK INTER + INTRA:          -0.694
REMARK INTER:                  -0.424
REMARK INTRA:                  -0.269
REMARK UNBOUND:                -0.307
REMARK SMILES O=c1cc(-c2ccc(O)c(O)c2)oc2cc(O)cc(O)c12
REMARK SMILES IDX 4 1 3 2 2 3 1 4 21 5 19 6 18 7 16 8 15 9 14 10 13 11 5 12
REMARK SMILES IDX 6 13 7 14 8 15 12 16 10 17 9 18 11 20 20 22 17 24
REMARK H PARENT 9 19 11 21 20 23 17 25
REMARK Flexibility Score: inf
ROOT
ATOM      1  C   UNL     1      35.019 -31.529  10.644  1.00  0.00     0.138 A 
ATOM      2  C   UNL     1      36.409 -31.701  10.703  1.00  0.00     0.100 A 
ATOM      3  C   UNL     1      37.103 -32.109   9.563  1.00  0.00     0.197 A 
ATOM      4  O   UNL     1      38.340 -32.315   9.664  1.00  0.00    -0.289 OA
ATOM      5  C   UNL     1      36.405 -32.314   8.350  1.00  0.00     0.107 A 
ATOM      6  C   UNL     1      37.013 -32.690   7.115  1.00  0.00     0.134 A 
ATOM      7  C   UNL     1      36.206 -32.977   6.007  1.00  0.00     0.093 A 
ATOM      8  C   UNL     1      34.820 -32.845   6.072  1.00  0.00     0.123 A 
ATOM      9  C   UNL     1      34.218 -32.426   7.259  1.00  0.00     0.094 A 
ATOM     10  C   UNL     1      34.993 -32.164   8.392  1.00  0.00     0.146 A 
ATOM     11  O   UNL     1      34.380 -31.781   9.507  1.00  0.00    -0.456 OA
ENDROOT
BRANCH   1  12
ATOM     12  C   UNL     1      34.232 -31.096  11.826  1.00  0.00     0.021 A 
ATOM     13  C   UNL     1      34.252 -29.764  12.282  1.00  0.00     0.016 A 
ATOM     14  C   UNL     1      33.494 -29.383  13.392  1.00  0.00     0.051 A 
ATOM     15  C   UNL     1      32.697 -30.322  14.059  1.00  0.00     0.157 A 
ATOM     16  C   UNL     1      33.418 -32.029  12.495  1.00  0.00     0.062 A 
ATOM     17  C   UNL     1      32.657 -31.646  13.609  1.00  0.00     0.158 A 
BRANCH  15  18
ATOM     18  O   UNL     1      31.940 -29.944  15.167  1.00  0.00    -0.504 OA
ATOM     19  H   UNL     1      31.490 -29.038  15.219  1.00  0.00     0.293 HD
ENDBRANCH  15  18
BRANCH  17  20
ATOM     20  O   UNL     1      31.860 -32.577  14.272  1.00  0.00    -0.504 OA
ATOM     21  H   UNL     1      30.902 -32.750  13.994  1.00  0.00     0.293 HD
ENDBRANCH  17  20
ENDBRANCH   1  12
BRANCH   6  22
ATOM     22  O   UNL     1      38.395 -32.770   6.919  1.00  0.00    -0.507 OA
ATOM     23  H   UNL     1      38.840 -33.050   6.058  1.00  0.00     0.293 HD
ENDBRANCH   6  22
BRANCH   8  24
ATOM     24  O   UNL     1      34.049 -33.125   4.945  1.00  0.00    -0.508 OA
ATOM     25  H   UNL     1      33.734 -34.065   4.739  1.00  0.00     0.293 HD
ENDBRANCH   8  24
TORSDOF 5
ENDMDL
MODEL 9
REMARK VINA RESULT:    -0.137      2.268      3.499
REMARK INTER + INTRA:          -0.468
REMARK INTER:                  -0.176
REMARK INTRA:                  -0.292
REMARK UNBOUND:                -0.307
REMARK SMILES O=c1cc(-c2ccc(O)c(O)c2)oc2cc(O)cc(O)c12
REMARK SMILES IDX 4 1 3 2 2 3 1 4 21 5 19 6 18 7 16 8 15 9 14 10 13 11 5 12
REMARK SMILES IDX 6 13 7 14 8 15 12 16 10 17 9 18 11 20 20 22 17 24
REMARK H PARENT 9 19 11 21 20 23 17 25
REMARK Flexibility Score: inf
ROOT
ATOM      1  C   UNL     1      22.025 -15.236   4.698  1.00  0.00     0.138 A 
ATOM      2  C   UNL     1      21.930 -14.012   4.020  1.00  0.00     0.100 A 
ATOM      3  C   UNL     1      21.400 -13.977   2.729  1.00  0.00     0.197 A 
ATOM      4  O   UNL     1      21.385 -12.875   2.124  1.00  0.00    -0.289 OA
ATOM      5  C   UNL     1      20.933 -15.170   2.128  1.00  0.00     0.107 A 
ATOM      6  C   UNL     1      20.336 -15.249   0.835  1.00  0.00     0.134 A 
ATOM      7  C   UNL     1      20.017 -16.502   0.296  1.00  0.00     0.093 A 
ATOM      8  C   UNL     1      20.219 -17.671   1.027  1.00  0.00     0.123 A 
ATOM      9  C   UNL     1      20.753 -17.602   2.314  1.00  0.00     0.094 A 
ATOM     10  C   UNL     1      21.112 -16.371   2.866  1.00  0.00     0.146 A 
ATOM     11  O   UNL     1      21.630 -16.349   4.089  1.00  0.00    -0.456 OA
ENDROOT
BRANCH   1  12
ATOM     12  C   UNL     1      22.580 -15.330   6.071  1.00  0.00     0.021 A 
ATOM     13  C   UNL     1      23.013 -16.555   6.614  1.00  0.00     0.016 A 
ATOM     14  C   UNL     1      23.541 -16.611   7.906  1.00  0.00     0.051 A 
ATOM     15  C   UNL     1      23.654 -15.446   8.674  1.00  0.00     0.157 A 
ATOM     16  C   UNL     1      22.710 -14.162   6.846  1.00  0.00     0.062 A 
ATOM     17  C   UNL     1      23.240 -14.220   8.143  1.00  0.00     0.158 A 
BRANCH  15  18
ATOM     18  O   UNL     1      24.180 -15.499   9.965  1.00  0.00    -0.504 OA
ATOM     19  H   UNL     1      23.586 -15.428  10.783  1.00  0.00     0.293 HD
ENDBRANCH  15  18
BRANCH  17  20
ATOM     20  O   UNL     1      23.357 -13.060   8.909  1.00  0.00    -0.504 OA
ATOM     21  H   UNL     1      23.715 -12.199   8.516  1.00  0.00     0.293 HD
ENDBRANCH  17  20
ENDBRANCH   1  12
BRANCH   6  22
ATOM     22  O   UNL     1      20.013 -14.134   0.055  1.00  0.00    -0.507 OA
ATOM     23  H   UNL     1      19.180 -14.042  -0.505  1.00  0.00     0.293 HD
ENDBRANCH   6  22
BRANCH   8  24
ATOM     24  O   UNL     1      19.876 -18.900   0.464  1.00  0.00    -0.508 OA
ATOM     25  H   UNL     1      20.578 -19.518   0.075  1.00  0.00     0.293 HD
ENDBRANCH   8  24
TORSDOF 5
ENDMDL
