MODEL 1
REMARK VINA RESULT:    -5.020      0.000      0.000
REMARK INTER + INTRA:         -10.573
REMARK INTER:                  -9.129
REMARK INTRA:                  -1.444
REMARK UNBOUND:                -1.444
REMARK SMILES CCCCCCCCCCCCCCCC(=O)[O-]
REMARK SMILES IDX 9 1 10 2 11 3 12 4 13 5 14 6 15 7 16 8 17 9 18 10 8 11 7 12
REMARK SMILES IDX 6 13 5 14 4 15 3 16 2 17 1 18
REMARK H PARENT
REMARK Flexibility Score: inf
ROOT
ATOM      1  C   UNL     1      35.334  58.297  30.915  1.00  0.00     0.000 C 
ENDROOT
BRANCH   1   2
ATOM      2  C   UNL     1      35.900  58.054  29.506  1.00  0.00     0.000 C 
BRANCH   2   3
ATOM      3  C   UNL     1      35.180  56.908  28.772  1.00  0.00     0.000 C 
BRANCH   3   4
ATOM      4  C   UNL     1      35.733  56.675  27.356  1.00  0.00     0.000 C 
BRANCH   4   5
ATOM      5  C   UNL     1      34.667  56.871  26.264  1.00  0.00     0.000 C 
BRANCH   5   6
ATOM      6  C   UNL     1      33.252  56.520  26.750  1.00  0.00     0.006 C 
BRANCH   6   7
ATOM      7  C   UNL     1      32.573  55.454  25.878  1.00  0.00     0.053 C 
BRANCH   7   8
ATOM      8  C   UNL     1      31.452  54.806  26.626  1.00  0.00     0.041 C 
ATOM      9  O   UNL     1      31.289  53.558  26.567  1.00  0.00    -0.550 OA
ATOM     10  O   UNL     1      30.555  55.583  27.348  1.00  0.00    -0.550 OA
ENDBRANCH   7   8
ENDBRANCH   6   7
ENDBRANCH   5   6
ENDBRANCH   4   5
ENDBRANCH   3   4
ENDBRANCH   2   3
ENDBRANCH   1   2
BRANCH   1  11
ATOM     11  C   UNL     1      34.984  56.987  31.643  1.00  0.00     0.000 C 
BRANCH  11  12
ATOM     12  C   UNL     1      33.594  57.024  32.305  1.00  0.00    -0.000 C 
BRANCH  12  13
ATOM     13  C   UNL     1      32.531  56.128  31.644  1.00  0.00    -0.000 C 
BRANCH  13  14
ATOM     14  C   UNL     1      32.992  54.674  31.475  1.00  0.00    -0.000 C 
BRANCH  14  15
ATOM     15  C   UNL     1      33.132  54.309  29.992  1.00  0.00    -0.000 C 
BRANCH  15  16
ATOM     16  C   UNL     1      32.631  52.885  29.725  1.00  0.00    -0.000 C 
BRANCH  16  17
ATOM     17  C   UNL     1      32.222  52.194  31.032  1.00  0.00    -0.003 C 
ATOM     18  C   UNL     1      31.304  51.005  30.762  1.00  0.00     0.004 C 
ENDBRANCH  16  17
ENDBRANCH  15  16
ENDBRANCH  14  15
ENDBRANCH  13  14
ENDBRANCH  12  13
ENDBRANCH  11  12
ENDBRANCH   1  11
TORSDOF 14
ENDMDL
MODEL 2
REMARK VINA RESULT:    -5.008      1.567      2.621
REMARK INTER + INTRA:         -10.551
REMARK INTER:                  -8.895
REMARK INTRA:                  -1.656
REMARK UNBOUND:                -1.444
REMARK SMILES CCCCCCCCCCCCCCCC(=O)[O-]
REMARK SMILES IDX 9 1 10 2 11 3 12 4 13 5 14 6 15 7 16 8 17 9 18 10 8 11 7 12
REMARK SMILES IDX 6 13 5 14 4 15 3 16 2 17 1 18
REMARK H PARENT
REMARK Flexibility Score: inf
ROOT
ATOM      1  C   UNL     1      35.336  57.848  29.820  1.00  0.00     0.000 C 
ENDROOT
BRANCH   1   2
ATOM      2  C   UNL     1      36.542  58.246  28.954  1.00  0.00     0.000 C 
BRANCH   2   3
ATOM      3  C   UNL     1      36.915  57.160  27.928  1.00  0.00     0.000 C 
BRANCH   3   4
ATOM      4  C   UNL     1      35.714  56.285  27.533  1.00  0.00     0.000 C 
BRANCH   4   5
ATOM      5  C   UNL     1      34.930  56.858  26.340  1.00  0.00     0.000 C 
BRANCH   5   6
ATOM      6  C   UNL     1      33.450  56.443  26.352  1.00  0.00     0.006 C 
BRANCH   6   7
ATOM      7  C   UNL     1      33.027  55.795  27.678  1.00  0.00     0.053 C 
BRANCH   7   8
ATOM      8  C   UNL     1      32.382  54.469  27.428  1.00  0.00     0.041 C 
ATOM      9  O   UNL     1      33.050  53.407  27.543  1.00  0.00    -0.550 OA
ATOM     10  O   UNL     1      31.056  54.406  27.019  1.00  0.00    -0.550 OA
ENDBRANCH   7   8
ENDBRANCH   6   7
ENDBRANCH   5   6
ENDBRANCH   4   5
ENDBRANCH   3   4
ENDBRANCH   2   3
ENDBRANCH   1   2
BRANCH   1  11
ATOM     11  C   UNL     1      35.468  58.334  31.274  1.00  0.00     0.000 C 
BRANCH  11  12
ATOM     12  C   UNL     1      35.630  57.179  32.279  1.00  0.00    -0.000 C 
BRANCH  12  13
ATOM     13  C   UNL     1      35.428  57.564  33.756  1.00  0.00    -0.000 C 
BRANCH  13  14
ATOM     14  C   UNL     1      33.955  57.526  34.189  1.00  0.00    -0.000 C 
BRANCH  14  15
ATOM     15  C   UNL     1      33.288  56.215  33.754  1.00  0.00    -0.000 C 
BRANCH  15  16
ATOM     16  C   UNL     1      32.190  56.475  32.716  1.00  0.00    -0.000 C 
BRANCH  16  17
ATOM     17  C   UNL     1      32.499  55.753  31.399  1.00  0.00    -0.003 C 
ATOM     18  C   UNL     1      33.173  54.408  31.653  1.00  0.00     0.004 C 
ENDBRANCH  16  17
ENDBRANCH  15  16
ENDBRANCH  14  15
ENDBRANCH  13  14
ENDBRANCH  12  13
ENDBRANCH  11  12
ENDBRANCH   1  11
TORSDOF 14
ENDMDL
MODEL 3
REMARK VINA RESULT:    -4.965      1.985      3.528
REMARK INTER + INTRA:         -10.473
REMARK INTER:                  -8.657
REMARK INTRA:                  -1.816
REMARK UNBOUND:                -1.444
REMARK SMILES CCCCCCCCCCCCCCCC(=O)[O-]
REMARK SMILES IDX 9 1 10 2 11 3 12 4 13 5 14 6 15 7 16 8 17 9 18 10 8 11 7 12
REMARK SMILES IDX 6 13 5 14 4 15 3 16 2 17 1 18
REMARK H PARENT
REMARK Flexibility Score: inf
ROOT
ATOM      1  C   UNL     1      34.900  57.784  30.800  1.00  0.00     0.000 C 
ENDROOT
BRANCH   1   2
ATOM      2  C   UNL     1      35.611  58.112  29.476  1.00  0.00     0.000 C 
BRANCH   2   3
ATOM      3  C   UNL     1      36.373  56.904  28.902  1.00  0.00     0.000 C 
BRANCH   3   4
ATOM      4  C   UNL     1      36.087  56.681  27.408  1.00  0.00     0.000 C 
BRANCH   4   5
ATOM      5  C   UNL     1      34.747  57.293  26.963  1.00  0.00     0.000 C 
BRANCH   5   6
ATOM      6  C   UNL     1      33.749  56.232  26.471  1.00  0.00     0.006 C 
BRANCH   6   7
ATOM      7  C   UNL     1      33.139  55.415  27.619  1.00  0.00     0.053 C 
BRANCH   7   8
ATOM      8  C   UNL     1      31.738  55.013  27.286  1.00  0.00     0.041 C 
ATOM      9  O   UNL     1      31.499  53.862  26.834  1.00  0.00    -0.550 OA
ATOM     10  O   UNL     1      30.700  55.926  27.427  1.00  0.00    -0.550 OA
ENDBRANCH   7   8
ENDBRANCH   6   7
ENDBRANCH   5   6
ENDBRANCH   4   5
ENDBRANCH   3   4
ENDBRANCH   2   3
ENDBRANCH   1   2
BRANCH   1  11
ATOM     11  C   UNL     1      34.547  56.292  30.925  1.00  0.00     0.000 C 
BRANCH  11  12
ATOM     12  C   UNL     1      33.053  56.052  31.208  1.00  0.00    -0.000 C 
BRANCH  12  13
ATOM     13  C   UNL     1      32.523  56.687  32.506  1.00  0.00    -0.000 C 
BRANCH  13  14
ATOM     14  C   UNL     1      32.344  55.670  33.643  1.00  0.00    -0.000 C 
BRANCH  14  15
ATOM     15  C   UNL     1      33.272  55.994  34.820  1.00  0.00    -0.000 C 
BRANCH  15  16
ATOM     16  C   UNL     1      34.106  57.248  34.535  1.00  0.00    -0.000 C 
BRANCH  16  17
ATOM     17  C   UNL     1      35.604  56.918  34.514  1.00  0.00    -0.003 C 
ATOM     18  C   UNL     1      36.437  58.158  34.202  1.00  0.00     0.004 C 
ENDBRANCH  16  17
ENDBRANCH  15  16
ENDBRANCH  14  15
ENDBRANCH  13  14
ENDBRANCH  12  13
ENDBRANCH  11  12
ENDBRANCH   1  11
TORSDOF 14
ENDMDL
MODEL 4
REMARK VINA RESULT:    -4.907      2.674      5.872
REMARK INTER + INTRA:         -10.367
REMARK INTER:                  -8.599
REMARK INTRA:                  -1.768
REMARK UNBOUND:                -1.444
REMARK SMILES CCCCCCCCCCCCCCCC(=O)[O-]
REMARK SMILES IDX 9 1 10 2 11 3 12 4 13 5 14 6 15 7 16 8 17 9 18 10 8 11 7 12
REMARK SMILES IDX 6 13 5 14 4 15 3 16 2 17 1 18
REMARK H PARENT
REMARK Flexibility Score: inf
ROOT
ATOM      1  C   UNL     1      32.246  56.210  26.632  1.00  0.00     0.000 C 
ENDROOT
BRANCH   1   2
ATOM      2  C   UNL     1      31.975  55.246  27.798  1.00  0.00     0.000 C 
BRANCH   2   3
ATOM      3  C   UNL     1      32.649  53.876  27.598  1.00  0.00     0.000 C 
BRANCH   3   4
ATOM      4  C   UNL     1      32.900  53.141  28.925  1.00  0.00     0.000 C 
BRANCH   4   5
ATOM      5  C   UNL     1      33.019  54.102  30.121  1.00  0.00     0.000 C 
BRANCH   5   6
ATOM      6  C   UNL     1      32.776  53.401  31.467  1.00  0.00     0.006 C 
BRANCH   6   7
ATOM      7  C   UNL     1      34.059  53.248  32.296  1.00  0.00     0.053 C 
BRANCH   7   8
ATOM      8  C   UNL     1      34.464  51.810  32.367  1.00  0.00     0.041 C 
ATOM      9  O   UNL     1      33.589  50.908  32.451  1.00  0.00    -0.550 OA
ATOM     10  O   UNL     1      35.810  51.467  32.392  1.00  0.00    -0.550 OA
ENDBRANCH   7   8
ENDBRANCH   6   7
ENDBRANCH   5   6
ENDBRANCH   4   5
ENDBRANCH   3   4
ENDBRANCH   2   3
ENDBRANCH   1   2
BRANCH   1  11
ATOM     11  C   UNL     1      33.592  55.935  25.940  1.00  0.00     0.000 C 
BRANCH  11  12
ATOM     12  C   UNL     1      34.606  57.080  26.124  1.00  0.00    -0.000 C 
BRANCH  12  13
ATOM     13  C   UNL     1      35.765  56.778  27.091  1.00  0.00    -0.000 C 
BRANCH  13  14
ATOM     14  C   UNL     1      35.738  57.654  28.351  1.00  0.00    -0.000 C 
BRANCH  14  15
ATOM     15  C   UNL     1      34.884  57.012  29.451  1.00  0.00    -0.000 C 
BRANCH  15  16
ATOM     16  C   UNL     1      34.983  57.804  30.759  1.00  0.00    -0.000 C 
BRANCH  16  17
ATOM     17  C   UNL     1      34.876  56.874  31.974  1.00  0.00    -0.003 C 
ATOM     18  C   UNL     1      33.524  57.025  32.666  1.00  0.00     0.004 C 
ENDBRANCH  16  17
ENDBRANCH  15  16
ENDBRANCH  14  15
ENDBRANCH  13  14
ENDBRANCH  12  13
ENDBRANCH  11  12
ENDBRANCH   1  11
TORSDOF 14
ENDMDL
MODEL 5
REMARK VINA RESULT:    -4.898      3.482      6.206
REMARK INTER + INTRA:         -10.350
REMARK INTER:                  -8.409
REMARK INTRA:                  -1.941
REMARK UNBOUND:                -1.444
REMARK SMILES CCCCCCCCCCCCCCCC(=O)[O-]
REMARK SMILES IDX 9 1 10 2 11 3 12 4 13 5 14 6 15 7 16 8 17 9 18 10 8 11 7 12
REMARK SMILES IDX 6 13 5 14 4 15 3 16 2 17 1 18
REMARK H PARENT
REMARK Flexibility Score: inf
ROOT
ATOM      1  C   UNL     1      34.724  56.286  30.809  1.00  0.00     0.000 C 
ENDROOT
BRANCH   1   2
ATOM      2  C   UNL     1      33.232  55.927  30.911  1.00  0.00     0.000 C 
BRANCH   2   3
ATOM      3  C   UNL     1      33.006  54.493  31.424  1.00  0.00     0.000 C 
BRANCH   3   4
ATOM      4  C   UNL     1      33.106  54.391  32.955  1.00  0.00     0.000 C 
BRANCH   4   5
ATOM      5  C   UNL     1      32.471  55.595  33.672  1.00  0.00     0.000 C 
BRANCH   5   6
ATOM      6  C   UNL     1      33.367  56.156  34.788  1.00  0.00     0.006 C 
BRANCH   6   7
ATOM      7  C   UNL     1      34.860  56.093  34.437  1.00  0.00     0.053 C 
BRANCH   7   8
ATOM      8  C   UNL     1      35.422  57.472  34.297  1.00  0.00     0.041 C 
ATOM      9  O   UNL     1      34.704  58.477  34.548  1.00  0.00    -0.550 OA
ATOM     10  O   UNL     1      36.721  57.651  33.842  1.00  0.00    -0.550 OA
ENDBRANCH   7   8
ENDBRANCH   6   7
ENDBRANCH   5   6
ENDBRANCH   4   5
ENDBRANCH   3   4
ENDBRANCH   2   3
ENDBRANCH   1   2
BRANCH   1  11
ATOM     11  C   UNL     1      34.956  57.796  30.625  1.00  0.00     0.000 C 
BRANCH  11  12
ATOM     12  C   UNL     1      36.003  58.114  29.542  1.00  0.00    -0.000 C 
BRANCH  12  13
ATOM     13  C   UNL     1      36.066  57.107  28.379  1.00  0.00    -0.000 C 
BRANCH  13  14
ATOM     14  C   UNL     1      34.948  57.311  27.346  1.00  0.00    -0.000 C 
BRANCH  14  15
ATOM     15  C   UNL     1      34.155  56.016  27.131  1.00  0.00    -0.000 C 
BRANCH  15  16
ATOM     16  C   UNL     1      32.702  56.318  26.746  1.00  0.00    -0.000 C 
BRANCH  16  17
ATOM     17  C   UNL     1      31.734  55.379  27.475  1.00  0.00    -0.003 C 
ATOM     18  C   UNL     1      32.373  54.016  27.727  1.00  0.00     0.004 C 
ENDBRANCH  16  17
ENDBRANCH  15  16
ENDBRANCH  14  15
ENDBRANCH  13  14
ENDBRANCH  12  13
ENDBRANCH  11  12
ENDBRANCH   1  11
TORSDOF 14
ENDMDL
MODEL 6
REMARK VINA RESULT:    -4.896      1.472      2.390
REMARK INTER + INTRA:         -10.348
REMARK INTER:                  -8.927
REMARK INTRA:                  -1.421
REMARK UNBOUND:                -1.444
REMARK SMILES CCCCCCCCCCCCCCCC(=O)[O-]
REMARK SMILES IDX 9 1 10 2 11 3 12 4 13 5 14 6 15 7 16 8 17 9 18 10 8 11 7 12
REMARK SMILES IDX 6 13 5 14 4 15 3 16 2 17 1 18
REMARK H PARENT
REMARK Flexibility Score: inf
ROOT
ATOM      1  C   UNL     1      35.223  57.214  29.488  1.00  0.00     0.000 C 
ENDROOT
BRANCH   1   2
ATOM      2  C   UNL     1      35.797  57.906  28.241  1.00  0.00     0.000 C 
BRANCH   2   3
ATOM      3  C   UNL     1      35.156  57.394  26.937  1.00  0.00     0.000 C 
BRANCH   3   4
ATOM      4  C   UNL     1      34.303  56.134  27.153  1.00  0.00     0.000 C 
BRANCH   4   5
ATOM      5  C   UNL     1      32.833  56.337  26.747  1.00  0.00     0.000 C 
BRANCH   5   6
ATOM      6  C   UNL     1      31.882  55.371  27.472  1.00  0.00     0.006 C 
BRANCH   6   7
ATOM      7  C   UNL     1      32.529  54.712  28.699  1.00  0.00     0.053 C 
BRANCH   7   8
ATOM      8  C   UNL     1      32.644  53.235  28.497  1.00  0.00     0.041 C 
ATOM      9  O   UNL     1      31.689  52.588  27.990  1.00  0.00    -0.550 OA
ATOM     10  O   UNL     1      33.786  52.562  28.913  1.00  0.00    -0.550 OA
ENDBRANCH   7   8
ENDBRANCH   6   7
ENDBRANCH   5   6
ENDBRANCH   4   5
ENDBRANCH   3   4
ENDBRANCH   2   3
ENDBRANCH   1   2
BRANCH   1  11
ATOM     11  C   UNL     1      35.240  58.125  30.728  1.00  0.00     0.000 C 
BRANCH  11  12
ATOM     12  C   UNL     1      34.752  57.411  32.002  1.00  0.00    -0.000 C 
BRANCH  12  13
ATOM     13  C   UNL     1      33.423  56.648  31.855  1.00  0.00    -0.000 C 
BRANCH  13  14
ATOM     14  C   UNL     1      32.573  56.671  33.134  1.00  0.00    -0.000 C 
BRANCH  14  15
ATOM     15  C   UNL     1      32.188  55.250  33.564  1.00  0.00    -0.000 C 
BRANCH  15  16
ATOM     16  C   UNL     1      32.741  54.210  32.583  1.00  0.00    -0.000 C 
BRANCH  16  17
ATOM     17  C   UNL     1      31.844  52.966  32.538  1.00  0.00    -0.003 C 
ATOM     18  C   UNL     1      32.632  51.734  32.103  1.00  0.00     0.004 C 
ENDBRANCH  16  17
ENDBRANCH  15  16
ENDBRANCH  14  15
ENDBRANCH  13  14
ENDBRANCH  12  13
ENDBRANCH  11  12
ENDBRANCH   1  11
TORSDOF 14
ENDMDL
MODEL 7
REMARK VINA RESULT:    -4.877      1.706      4.752
REMARK INTER + INTRA:         -10.312
REMARK INTER:                  -8.613
REMARK INTRA:                  -1.699
REMARK UNBOUND:                -1.444
REMARK SMILES CCCCCCCCCCCCCCCC(=O)[O-]
REMARK SMILES IDX 9 1 10 2 11 3 12 4 13 5 14 6 15 7 16 8 17 9 18 10 8 11 7 12
REMARK SMILES IDX 6 13 5 14 4 15 3 16 2 17 1 18
REMARK H PARENT
REMARK Flexibility Score: inf
ROOT
ATOM      1  C   UNL     1      34.471  57.758  31.519  1.00  0.00     0.000 C 
ENDROOT
BRANCH   1   2
ATOM      2  C   UNL     1      35.071  57.329  32.868  1.00  0.00     0.000 C 
BRANCH   2   3
ATOM      3  C   UNL     1      34.661  55.899  33.265  1.00  0.00     0.000 C 
BRANCH   3   4
ATOM      4  C   UNL     1      33.163  55.782  33.590  1.00  0.00     0.000 C 
BRANCH   4   5
ATOM      5  C   UNL     1      32.454  54.711  32.744  1.00  0.00     0.000 C 
BRANCH   5   6
ATOM      6  C   UNL     1      33.382  54.079  31.694  1.00  0.00     0.006 C 
BRANCH   6   7
ATOM      7  C   UNL     1      32.999  54.461  30.258  1.00  0.00     0.053 C 
BRANCH   7   8
ATOM      8  C   UNL     1      32.849  53.235  29.415  1.00  0.00     0.041 C 
ATOM      9  O   UNL     1      31.896  52.437  29.621  1.00  0.00    -0.550 OA
ATOM     10  O   UNL     1      33.788  52.945  28.434  1.00  0.00    -0.550 OA
ENDBRANCH   7   8
ENDBRANCH   6   7
ENDBRANCH   5   6
ENDBRANCH   4   5
ENDBRANCH   3   4
ENDBRANCH   2   3
ENDBRANCH   1   2
BRANCH   1  11
ATOM     11  C   UNL     1      35.549  58.133  30.487  1.00  0.00     0.000 C 
BRANCH  11  12
ATOM     12  C   UNL     1      35.783  57.030  29.438  1.00  0.00    -0.000 C 
BRANCH  12  13
ATOM     13  C   UNL     1      36.336  57.519  28.087  1.00  0.00    -0.000 C 
BRANCH  13  14
ATOM     14  C   UNL     1      35.528  57.008  26.886  1.00  0.00    -0.000 C 
BRANCH  14  15
ATOM     15  C   UNL     1      34.227  56.337  27.344  1.00  0.00    -0.000 C 
BRANCH  15  16
ATOM     16  C   UNL     1      33.130  56.481  26.284  1.00  0.00    -0.000 C 
BRANCH  16  17
ATOM     17  C   UNL     1      32.109  55.342  26.391  1.00  0.00    -0.003 C 
ATOM     18  C   UNL     1      30.976  55.705  27.346  1.00  0.00     0.004 C 
ENDBRANCH  16  17
ENDBRANCH  15  16
ENDBRANCH  14  15
ENDBRANCH  13  14
ENDBRANCH  12  13
ENDBRANCH  11  12
ENDBRANCH   1  11
TORSDOF 14
ENDMDL
MODEL 8
REMARK VINA RESULT:    -4.844      3.003      5.734
REMARK INTER + INTRA:         -10.252
REMARK INTER:                  -8.584
REMARK INTRA:                  -1.668
REMARK UNBOUND:                -1.444
REMARK SMILES CCCCCCCCCCCCCCCC(=O)[O-]
REMARK SMILES IDX 9 1 10 2 11 3 12 4 13 5 14 6 15 7 16 8 17 9 18 10 8 11 7 12
REMARK SMILES IDX 6 13 5 14 4 15 3 16 2 17 1 18
REMARK H PARENT
REMARK Flexibility Score: inf
ROOT
ATOM      1  C   UNL     1      34.856  56.641  31.478  1.00  0.00     0.000 C 
ENDROOT
BRANCH   1   2
ATOM      2  C   UNL     1      33.412  56.115  31.450  1.00  0.00     0.000 C 
BRANCH   2   3
ATOM      3  C   UNL     1      32.558  56.680  32.600  1.00  0.00     0.000 C 
BRANCH   3   4
ATOM      4  C   UNL     1      32.665  55.839  33.883  1.00  0.00     0.000 C 
BRANCH   4   5
ATOM      5  C   UNL     1      31.914  54.500  33.778  1.00  0.00     0.000 C 
BRANCH   5   6
ATOM      6  C   UNL     1      32.835  53.289  33.997  1.00  0.00     0.006 C 
BRANCH   6   7
ATOM      7  C   UNL     1      33.372  52.707  32.681  1.00  0.00     0.053 C 
BRANCH   7   8
ATOM      8  C   UNL     1      34.865  52.629  32.717  1.00  0.00     0.041 C 
ATOM      9  O   UNL     1      35.459  51.624  32.244  1.00  0.00    -0.550 OA
ATOM     10  O   UNL     1      35.601  53.643  33.317  1.00  0.00    -0.550 OA
ENDBRANCH   7   8
ENDBRANCH   6   7
ENDBRANCH   5   6
ENDBRANCH   4   5
ENDBRANCH   3   4
ENDBRANCH   2   3
ENDBRANCH   1   2
BRANCH   1  11
ATOM     11  C   UNL     1      34.994  58.023  30.816  1.00  0.00     0.000 C 
BRANCH  11  12
ATOM     12  C   UNL     1      35.963  58.019  29.619  1.00  0.00    -0.000 C 
BRANCH  12  13
ATOM     13  C   UNL     1      35.702  56.924  28.569  1.00  0.00    -0.000 C 
BRANCH  13  14
ATOM     14  C   UNL     1      34.978  57.450  27.321  1.00  0.00    -0.000 C 
BRANCH  14  15
ATOM     15  C   UNL     1      33.903  56.461  26.852  1.00  0.00    -0.000 C 
BRANCH  15  16
ATOM     16  C   UNL     1      33.737  55.313  27.853  1.00  0.00    -0.000 C 
BRANCH  16  17
ATOM     17  C   UNL     1      32.265  55.133  28.243  1.00  0.00    -0.003 C 
ATOM     18  C   UNL     1      31.338  55.693  27.167  1.00  0.00     0.004 C 
ENDBRANCH  16  17
ENDBRANCH  15  16
ENDBRANCH  14  15
ENDBRANCH  13  14
ENDBRANCH  12  13
ENDBRANCH  11  12
ENDBRANCH   1  11
TORSDOF 14
ENDMDL
MODEL 9
REMARK VINA RESULT:    -4.786      1.918      5.096
REMARK INTER + INTRA:         -10.147
REMARK INTER:                  -8.551
REMARK INTRA:                  -1.596
REMARK UNBOUND:                -1.444
REMARK SMILES CCCCCCCCCCCCCCCC(=O)[O-]
REMARK SMILES IDX 9 1 10 2 11 3 12 4 13 5 14 6 15 7 16 8 17 9 18 10 8 11 7 12
REMARK SMILES IDX 6 13 5 14 4 15 3 16 2 17 1 18
REMARK H PARENT
REMARK Flexibility Score: inf
ROOT
ATOM      1  C   UNL     1      33.282  56.184  25.979  1.00  0.00     0.000 C 
ENDROOT
BRANCH   1   2
ATOM      2  C   UNL     1      32.428  55.880  27.222  1.00  0.00     0.000 C 
BRANCH   2   3
ATOM      3  C   UNL     1      32.016  54.398  27.304  1.00  0.00     0.000 C 
BRANCH   3   4
ATOM      4  C   UNL     1      32.974  53.566  28.172  1.00  0.00     0.000 C 
BRANCH   4   5
ATOM      5  C   UNL     1      33.216  54.193  29.556  1.00  0.00     0.000 C 
BRANCH   5   6
ATOM      6  C   UNL     1      32.895  53.226  30.707  1.00  0.00     0.006 C 
BRANCH   6   7
ATOM      7  C   UNL     1      32.880  51.757  30.260  1.00  0.00     0.053 C 
BRANCH   7   8
ATOM      8  C   UNL     1      31.551  51.137  30.551  1.00  0.00     0.041 C 
ATOM      9  O   UNL     1      30.715  50.963  29.624  1.00  0.00    -0.550 OA
ATOM     10  O   UNL     1      31.212  50.797  31.855  1.00  0.00    -0.550 OA
ENDBRANCH   7   8
ENDBRANCH   6   7
ENDBRANCH   5   6
ENDBRANCH   4   5
ENDBRANCH   3   4
ENDBRANCH   2   3
ENDBRANCH   1   2
BRANCH   1  11
ATOM     11  C   UNL     1      34.512  57.047  26.307  1.00  0.00     0.000 C 
BRANCH  11  12
ATOM     12  C   UNL     1      35.218  56.616  27.606  1.00  0.00    -0.000 C 
BRANCH  12  13
ATOM     13  C   UNL     1      36.263  57.611  28.143  1.00  0.00    -0.000 C 
BRANCH  13  14
ATOM     14  C   UNL     1      35.946  58.107  29.561  1.00  0.00    -0.000 C 
BRANCH  14  15
ATOM     15  C   UNL     1      35.181  57.042  30.358  1.00  0.00    -0.000 C 
BRANCH  15  16
ATOM     16  C   UNL     1      34.551  57.645  31.618  1.00  0.00    -0.000 C 
BRANCH  16  17
ATOM     17  C   UNL     1      33.831  56.570  32.440  1.00  0.00    -0.003 C 
ATOM     18  C   UNL     1      32.316  56.689  32.296  1.00  0.00     0.004 C 
ENDBRANCH  16  17
ENDBRANCH  15  16
ENDBRANCH  14  15
ENDBRANCH  13  14
ENDBRANCH  12  13
ENDBRANCH  11  12
ENDBRANCH   1  11
TORSDOF 14
ENDMDL
