MODEL 1
REMARK VINA RESULT:    -5.743      0.000      0.000
REMARK INTER + INTRA:          -6.713
REMARK INTER:                  -6.750
REMARK INTRA:                   0.037
REMARK UNBOUND:                 0.037
REMARK SMILES O=c1c(O)c(-c2ccc(O)cc2)oc2cc(O)cc(O)c12
REMARK SMILES IDX 5 1 3 2 2 3 1 4 21 5 19 6 18 7 16 8 15 9 14 10 13 11 6 12
REMARK SMILES IDX 7 13 8 14 9 15 12 16 11 17 10 18 4 20 20 22 17 24
REMARK H PARENT 10 19 4 21 20 23 17 25
REMARK Flexibility Score: inf
ROOT
ATOM      1  C   UNL     1      16.319  -6.061   8.561  1.00  0.00     0.180 A 
ATOM      2  C   UNL     1      17.013  -5.073   9.280  1.00  0.00     0.208 A 
ATOM      3  C   UNL     1      16.511  -3.761   9.292  1.00  0.00     0.238 A 
ATOM      4  O   UNL     1      17.167  -2.868   9.892  1.00  0.00    -0.285 OA
ATOM      5  C   UNL     1      15.315  -3.457   8.599  1.00  0.00     0.111 A 
ATOM      6  C   UNL     1      14.695  -2.171   8.576  1.00  0.00     0.134 A 
ATOM      7  C   UNL     1      13.584  -1.955   7.751  1.00  0.00     0.093 A 
ATOM      8  C   UNL     1      13.033  -2.991   7.000  1.00  0.00     0.123 A 
ATOM      9  C   UNL     1      13.595  -4.266   7.060  1.00  0.00     0.094 A 
ATOM     10  C   UNL     1      14.725  -4.505   7.846  1.00  0.00     0.146 A 
ATOM     11  O   UNL     1      15.235  -5.731   7.867  1.00  0.00    -0.452 OA
ENDROOT
BRANCH   1  12
ATOM     12  C   UNL     1      16.770  -7.471   8.522  1.00  0.00     0.021 A 
ATOM     13  C   UNL     1      17.127  -8.159   9.696  1.00  0.00     0.016 A 
ATOM     14  C   UNL     1      17.528  -9.497   9.637  1.00  0.00     0.047 A 
ATOM     15  C   UNL     1      17.564 -10.167   8.411  1.00  0.00     0.115 A 
ATOM     16  C   UNL     1      16.789  -8.156   7.296  1.00  0.00     0.016 A 
ATOM     17  C   UNL     1      17.191  -9.495   7.240  1.00  0.00     0.047 A 
BRANCH  15  18
ATOM     18  O   UNL     1      17.967 -11.500   8.367  1.00  0.00    -0.508 OA
ATOM     19  H   UNL     1      18.947 -11.757   8.347  1.00  0.00     0.293 HD
ENDBRANCH  15  18
ENDBRANCH   1  12
BRANCH   2  20
ATOM     20  O   UNL     1      18.204  -5.388   9.939  1.00  0.00    -0.502 OA
ATOM     21  H   UNL     1      18.807  -4.681  10.343  1.00  0.00     0.293 HD
ENDBRANCH   2  20
BRANCH   6  22
ATOM     22  O   UNL     1      15.111  -1.090   9.360  1.00  0.00    -0.507 OA
ATOM     23  H   UNL     1      14.525  -0.313   9.624  1.00  0.00     0.293 HD
ENDBRANCH   6  22
BRANCH   8  24
ATOM     24  O   UNL     1      11.918  -2.742   6.202  1.00  0.00    -0.508 OA
ATOM     25  H   UNL     1      11.484  -1.826   6.169  1.00  0.00     0.293 HD
ENDBRANCH   8  24
TORSDOF 5
ENDMDL
MODEL 2
REMARK VINA RESULT:    -5.740      1.776      6.516
REMARK INTER + INTRA:          -6.709
REMARK INTER:                  -6.413
REMARK INTRA:                  -0.296
REMARK UNBOUND:                 0.037
REMARK SMILES O=c1c(O)c(-c2ccc(O)cc2)oc2cc(O)cc(O)c12
REMARK SMILES IDX 5 1 3 2 2 3 1 4 21 5 19 6 18 7 16 8 15 9 14 10 13 11 6 12
REMARK SMILES IDX 7 13 8 14 9 15 12 16 11 17 10 18 4 20 20 22 17 24
REMARK H PARENT 10 19 4 21 20 23 17 25
REMARK Flexibility Score: inf
ROOT
ATOM      1  C   UNL     1      16.531  -5.971   8.344  1.00  0.00     0.180 A 
ATOM      2  C   UNL     1      17.516  -6.461   9.218  1.00  0.00     0.208 A 
ATOM      3  C   UNL     1      17.712  -7.848   9.314  1.00  0.00     0.238 A 
ATOM      4  O   UNL     1      18.558  -8.284  10.139  1.00  0.00    -0.285 OA
ATOM      5  C   UNL     1      16.933  -8.727   8.523  1.00  0.00     0.111 A 
ATOM      6  C   UNL     1      17.075 -10.147   8.511  1.00  0.00     0.134 A 
ATOM      7  C   UNL     1      16.162 -10.925   7.787  1.00  0.00     0.093 A 
ATOM      8  C   UNL     1      15.156 -10.334   7.026  1.00  0.00     0.123 A 
ATOM      9  C   UNL     1      15.046  -8.944   6.984  1.00  0.00     0.094 A 
ATOM     10  C   UNL     1      15.918  -8.141   7.723  1.00  0.00     0.146 A 
ATOM     11  O   UNL     1      15.771  -6.823   7.664  1.00  0.00    -0.452 OA
ENDROOT
BRANCH   1  12
ATOM     12  C   UNL     1      16.283  -4.522   8.168  1.00  0.00     0.021 A 
ATOM     13  C   UNL     1      16.953  -3.777   7.182  1.00  0.00     0.016 A 
ATOM     14  C   UNL     1      16.685  -2.414   7.020  1.00  0.00     0.047 A 
ATOM     15  C   UNL     1      15.737  -1.782   7.829  1.00  0.00     0.115 A 
ATOM     16  C   UNL     1      15.316  -3.885   8.965  1.00  0.00     0.016 A 
ATOM     17  C   UNL     1      15.051  -2.521   8.801  1.00  0.00     0.047 A 
BRANCH  15  18
ATOM     18  O   UNL     1      15.481  -0.424   7.658  1.00  0.00    -0.508 OA
ATOM     19  H   UNL     1      15.674   0.045   6.780  1.00  0.00     0.293 HD
ENDBRANCH  15  18
ENDBRANCH   1  12
BRANCH   2  20
ATOM     20  O   UNL     1      18.259  -5.578  10.006  1.00  0.00    -0.502 OA
ATOM     21  H   UNL     1      19.217  -5.330   9.791  1.00  0.00     0.293 HD
ENDBRANCH   2  20
BRANCH   6  22
ATOM     22  O   UNL     1      18.102 -10.835   9.164  1.00  0.00    -0.507 OA
ATOM     23  H   UNL     1      17.968 -11.639   9.758  1.00  0.00     0.293 HD
ENDBRANCH   6  22
BRANCH   8  24
ATOM     24  O   UNL     1      14.276 -11.139   6.307  1.00  0.00    -0.508 OA
ATOM     25  H   UNL     1      14.364 -11.256   5.303  1.00  0.00     0.293 HD
ENDBRANCH   8  24
TORSDOF 5
ENDMDL
MODEL 3
REMARK VINA RESULT:    -5.706     12.632     15.696
REMARK INTER + INTRA:          -6.669
REMARK INTER:                  -6.669
REMARK INTRA:                   0.000
REMARK UNBOUND:                 0.037
REMARK SMILES O=c1c(O)c(-c2ccc(O)cc2)oc2cc(O)cc(O)c12
REMARK SMILES IDX 5 1 3 2 2 3 1 4 21 5 19 6 18 7 16 8 15 9 14 10 13 11 6 12
REMARK SMILES IDX 7 13 8 14 9 15 12 16 11 17 10 18 4 20 20 22 17 24
REMARK H PARENT 10 19 4 21 20 23 17 25
REMARK Flexibility Score: inf
ROOT
ATOM      1  C   UNL     1      12.869 -15.959  19.511  1.00  0.00     0.180 A 
ATOM      2  C   UNL     1      12.776 -17.216  18.888  1.00  0.00     0.208 A 
ATOM      3  C   UNL     1      12.791 -17.283  17.486  1.00  0.00     0.238 A 
ATOM      4  O   UNL     1      12.652 -18.406  16.933  1.00  0.00    -0.285 OA
ATOM      5  C   UNL     1      12.916 -16.096  16.724  1.00  0.00     0.111 A 
ATOM      6  C   UNL     1      12.983 -16.051  15.299  1.00  0.00     0.134 A 
ATOM      7  C   UNL     1      12.975 -14.812  14.647  1.00  0.00     0.093 A 
ATOM      8  C   UNL     1      12.969 -13.618  15.367  1.00  0.00     0.123 A 
ATOM      9  C   UNL     1      12.964 -13.652  16.762  1.00  0.00     0.094 A 
ATOM     10  C   UNL     1      12.935 -14.872  17.441  1.00  0.00     0.146 A 
ATOM     11  O   UNL     1      12.920 -14.859  18.769  1.00  0.00    -0.452 OA
ENDROOT
BRANCH   1  12
ATOM     12  C   UNL     1      12.886 -15.809  20.984  1.00  0.00     0.021 A 
ATOM     13  C   UNL     1      11.876 -16.366  21.790  1.00  0.00     0.016 A 
ATOM     14  C   UNL     1      11.926 -16.231  23.181  1.00  0.00     0.047 A 
ATOM     15  C   UNL     1      12.989 -15.553  23.784  1.00  0.00     0.115 A 
ATOM     16  C   UNL     1      13.962 -15.147  21.599  1.00  0.00     0.016 A 
ATOM     17  C   UNL     1      14.008 -15.013  22.991  1.00  0.00     0.047 A 
BRANCH  15  18
ATOM     18  O   UNL     1      13.025 -15.425  25.171  1.00  0.00    -0.508 OA
ATOM     19  H   UNL     1      13.875 -15.592  25.697  1.00  0.00     0.293 HD
ENDBRANCH  15  18
ENDBRANCH   1  12
BRANCH   2  20
ATOM     20  O   UNL     1      12.631 -18.373  19.658  1.00  0.00    -0.502 OA
ATOM     21  H   UNL     1      12.463 -19.283  19.246  1.00  0.00     0.293 HD
ENDBRANCH   2  20
BRANCH   6  22
ATOM     22  O   UNL     1      13.085 -17.184  14.486  1.00  0.00    -0.507 OA
ATOM     23  H   UNL     1      12.318 -17.597  13.978  1.00  0.00     0.293 HD
ENDBRANCH   6  22
BRANCH   8  24
ATOM     24  O   UNL     1      12.976 -12.404  14.685  1.00  0.00    -0.508 OA
ATOM     25  H   UNL     1      12.317 -12.212  13.938  1.00  0.00     0.293 HD
ENDBRANCH   8  24
TORSDOF 5
ENDMDL
MODEL 4
REMARK VINA RESULT:    -5.580      2.703      4.459
REMARK INTER + INTRA:          -6.521
REMARK INTER:                  -6.507
REMARK INTRA:                  -0.015
REMARK UNBOUND:                 0.037
REMARK SMILES O=c1c(O)c(-c2ccc(O)cc2)oc2cc(O)cc(O)c12
REMARK SMILES IDX 5 1 3 2 2 3 1 4 21 5 19 6 18 7 16 8 15 9 14 10 13 11 6 12
REMARK SMILES IDX 7 13 8 14 9 15 12 16 11 17 10 18 4 20 20 22 17 24
REMARK H PARENT 10 19 4 21 20 23 17 25
REMARK Flexibility Score: inf
ROOT
ATOM      1  C   UNL     1      16.098  -9.564   8.037  1.00  0.00     0.180 A 
ATOM      2  C   UNL     1      17.064  -9.517   9.057  1.00  0.00     0.208 A 
ATOM      3  C   UNL     1      17.630  -8.279   9.402  1.00  0.00     0.238 A 
ATOM      4  O   UNL     1      18.534  -8.250  10.278  1.00  0.00    -0.285 OA
ATOM      5  C   UNL     1      17.212  -7.102   8.734  1.00  0.00     0.111 A 
ATOM      6  C   UNL     1      17.689  -5.790   9.029  1.00  0.00     0.134 A 
ATOM      7  C   UNL     1      17.303  -4.716   8.217  1.00  0.00     0.093 A 
ATOM      8  C   UNL     1      16.409  -4.895   7.163  1.00  0.00     0.123 A 
ATOM      9  C   UNL     1      15.890  -6.164   6.903  1.00  0.00     0.094 A 
ATOM     10  C   UNL     1      16.284  -7.262   7.672  1.00  0.00     0.146 A 
ATOM     11  O   UNL     1      15.775  -8.454   7.385  1.00  0.00    -0.452 OA
ENDROOT
BRANCH   1  12
ATOM     12  C   UNL     1      15.438 -10.828   7.636  1.00  0.00     0.021 A 
ATOM     13  C   UNL     1      16.184 -11.953   7.244  1.00  0.00     0.016 A 
ATOM     14  C   UNL     1      15.538 -13.143   6.891  1.00  0.00     0.047 A 
ATOM     15  C   UNL     1      14.143 -13.227   6.940  1.00  0.00     0.115 A 
ATOM     16  C   UNL     1      14.038 -10.926   7.701  1.00  0.00     0.016 A 
ATOM     17  C   UNL     1      13.394 -12.117   7.348  1.00  0.00     0.047 A 
BRANCH  15  18
ATOM     18  O   UNL     1      13.514 -14.417   6.584  1.00  0.00    -0.508 OA
ATOM     19  H   UNL     1      13.023 -14.515   5.703  1.00  0.00     0.293 HD
ENDBRANCH  15  18
ENDBRANCH   1  12
BRANCH   2  20
ATOM     20  O   UNL     1      17.478 -10.693   9.689  1.00  0.00    -0.502 OA
ATOM     21  H   UNL     1      18.246 -10.714  10.350  1.00  0.00     0.293 HD
ENDBRANCH   2  20
BRANCH   6  22
ATOM     22  O   UNL     1      18.515  -5.486  10.116  1.00  0.00    -0.507 OA
ATOM     23  H   UNL     1      19.520  -5.404  10.069  1.00  0.00     0.293 HD
ENDBRANCH   6  22
BRANCH   8  24
ATOM     24  O   UNL     1      16.036  -3.802   6.386  1.00  0.00    -0.508 OA
ATOM     25  H   UNL     1      15.083  -3.685   6.058  1.00  0.00     0.293 HD
ENDBRANCH   8  24
TORSDOF 5
ENDMDL
MODEL 5
REMARK VINA RESULT:    -5.560      1.486      3.450
REMARK INTER + INTRA:          -6.497
REMARK INTER:                  -6.407
REMARK INTRA:                  -0.090
REMARK UNBOUND:                 0.037
REMARK SMILES O=c1c(O)c(-c2ccc(O)cc2)oc2cc(O)cc(O)c12
REMARK SMILES IDX 5 1 3 2 2 3 1 4 21 5 19 6 18 7 16 8 15 9 14 10 13 11 6 12
REMARK SMILES IDX 7 13 8 14 9 15 12 16 11 17 10 18 4 20 20 22 17 24
REMARK H PARENT 10 19 4 21 20 23 17 25
REMARK Flexibility Score: inf
ROOT
ATOM      1  C   UNL     1      16.076  -7.442   7.735  1.00  0.00     0.180 A 
ATOM      2  C   UNL     1      14.817  -7.134   7.194  1.00  0.00     0.208 A 
ATOM      3  C   UNL     1      14.297  -5.842   7.372  1.00  0.00     0.238 A 
ATOM      4  O   UNL     1      13.144  -5.588   6.931  1.00  0.00    -0.285 OA
ATOM      5  C   UNL     1      15.049  -4.869   8.073  1.00  0.00     0.111 A 
ATOM      6  C   UNL     1      14.637  -3.518   8.278  1.00  0.00     0.134 A 
ATOM      7  C   UNL     1      15.402  -2.680   9.099  1.00  0.00     0.093 A 
ATOM      8  C   UNL     1      16.595  -3.123   9.668  1.00  0.00     0.123 A 
ATOM      9  C   UNL     1      17.037  -4.424   9.426  1.00  0.00     0.094 A 
ATOM     10  C   UNL     1      16.278  -5.295   8.642  1.00  0.00     0.146 A 
ATOM     11  O   UNL     1      16.729  -6.528   8.445  1.00  0.00    -0.452 OA
ENDROOT
BRANCH   1  12
ATOM     12  C   UNL     1      16.702  -8.774   7.567  1.00  0.00     0.021 A 
ATOM     13  C   UNL     1      16.955  -9.310   6.292  1.00  0.00     0.016 A 
ATOM     14  C   UNL     1      17.569 -10.560   6.159  1.00  0.00     0.047 A 
ATOM     15  C   UNL     1      17.948 -11.281   7.294  1.00  0.00     0.115 A 
ATOM     16  C   UNL     1      17.105  -9.496   8.704  1.00  0.00     0.016 A 
ATOM     17  C   UNL     1      17.717 -10.746   8.567  1.00  0.00     0.047 A 
BRANCH  15  18
ATOM     18  O   UNL     1      18.557 -12.526   7.146  1.00  0.00    -0.508 OA
ATOM     19  H   UNL     1      18.082 -13.297   6.693  1.00  0.00     0.293 HD
ENDBRANCH  15  18
ENDBRANCH   1  12
BRANCH   2  20
ATOM     20  O   UNL     1      14.080  -8.115   6.524  1.00  0.00    -0.502 OA
ATOM     21  H   UNL     1      13.737  -7.987   5.579  1.00  0.00     0.293 HD
ENDBRANCH   2  20
BRANCH   6  22
ATOM     22  O   UNL     1      13.510  -2.947   7.680  1.00  0.00    -0.507 OA
ATOM     23  H   UNL     1      12.805  -2.418   8.172  1.00  0.00     0.293 HD
ENDBRANCH   6  22
BRANCH   8  24
ATOM     24  O   UNL     1      17.337  -2.257  10.468  1.00  0.00    -0.508 OA
ATOM     25  H   UNL     1      16.894  -1.667  11.163  1.00  0.00     0.293 HD
ENDBRANCH   8  24
TORSDOF 5
ENDMDL
MODEL 6
REMARK VINA RESULT:    -5.486      1.871      7.092
REMARK INTER + INTRA:          -6.411
REMARK INTER:                  -6.160
REMARK INTRA:                  -0.251
REMARK UNBOUND:                 0.037
REMARK SMILES O=c1c(O)c(-c2ccc(O)cc2)oc2cc(O)cc(O)c12
REMARK SMILES IDX 5 1 3 2 2 3 1 4 21 5 19 6 18 7 16 8 15 9 14 10 13 11 6 12
REMARK SMILES IDX 7 13 8 14 9 15 12 16 11 17 10 18 4 20 20 22 17 24
REMARK H PARENT 10 19 4 21 20 23 17 25
REMARK Flexibility Score: inf
ROOT
ATOM      1  C   UNL     1      15.982  -5.654   7.940  1.00  0.00     0.180 A 
ATOM      2  C   UNL     1      15.387  -6.404   6.911  1.00  0.00     0.208 A 
ATOM      3  C   UNL     1      15.532  -7.801   6.916  1.00  0.00     0.238 A 
ATOM      4  O   UNL     1      15.044  -8.463   5.962  1.00  0.00    -0.285 OA
ATOM      5  C   UNL     1      16.255  -8.431   7.957  1.00  0.00     0.111 A 
ATOM      6  C   UNL     1      16.430  -9.842   8.083  1.00  0.00     0.134 A 
ATOM      7  C   UNL     1      17.273 -10.346   9.081  1.00  0.00     0.093 A 
ATOM      8  C   UNL     1      17.894  -9.498   9.996  1.00  0.00     0.123 A 
ATOM      9  C   UNL     1      17.682  -8.121   9.918  1.00  0.00     0.094 A 
ATOM     10  C   UNL     1      16.876  -7.584   8.912  1.00  0.00     0.146 A 
ATOM     11  O   UNL     1      16.708  -6.268   8.867  1.00  0.00    -0.452 OA
ENDROOT
BRANCH   1  12
ATOM     12  C   UNL     1      15.852  -4.181   8.018  1.00  0.00     0.021 A 
ATOM     13  C   UNL     1      16.622  -3.332   7.202  1.00  0.00     0.016 A 
ATOM     14  C   UNL     1      16.464  -1.945   7.276  1.00  0.00     0.047 A 
ATOM     15  C   UNL     1      15.529  -1.389   8.154  1.00  0.00     0.115 A 
ATOM     16  C   UNL     1      14.899  -3.616   8.882  1.00  0.00     0.016 A 
ATOM     17  C   UNL     1      14.745  -2.228   8.955  1.00  0.00     0.047 A 
BRANCH  15  18
ATOM     18  O   UNL     1      15.384  -0.005   8.219  1.00  0.00    -0.508 OA
ATOM     19  H   UNL     1      15.410   0.490   9.103  1.00  0.00     0.293 HD
ENDBRANCH  15  18
ENDBRANCH   1  12
BRANCH   2  20
ATOM     20  O   UNL     1      14.697  -5.761   5.880  1.00  0.00    -0.502 OA
ATOM     21  H   UNL     1      13.701  -5.875   5.738  1.00  0.00     0.293 HD
ENDBRANCH   2  20
BRANCH   6  22
ATOM     22  O   UNL     1      15.783 -10.784   7.278  1.00  0.00    -0.507 OA
ATOM     23  H   UNL     1      15.813 -10.796   6.270  1.00  0.00     0.293 HD
ENDBRANCH   6  22
BRANCH   8  24
ATOM     24  O   UNL     1      18.715 -10.036  10.985  1.00  0.00    -0.508 OA
ATOM     25  H   UNL     1      18.344 -10.313  11.887  1.00  0.00     0.293 HD
ENDBRANCH   8  24
TORSDOF 5
ENDMDL
MODEL 7
REMARK VINA RESULT:    -5.360      1.231      3.131
REMARK INTER + INTRA:          -6.263
REMARK INTER:                  -6.244
REMARK INTRA:                  -0.018
REMARK UNBOUND:                 0.037
REMARK SMILES O=c1c(O)c(-c2ccc(O)cc2)oc2cc(O)cc(O)c12
REMARK SMILES IDX 5 1 3 2 2 3 1 4 21 5 19 6 18 7 16 8 15 9 14 10 13 11 6 12
REMARK SMILES IDX 7 13 8 14 9 15 12 16 11 17 10 18 4 20 20 22 17 24
REMARK H PARENT 10 19 4 21 20 23 17 25
REMARK Flexibility Score: inf
ROOT
ATOM      1  C   UNL     1      15.784  -6.296   8.236  1.00  0.00     0.180 A 
ATOM      2  C   UNL     1      14.585  -6.006   7.564  1.00  0.00     0.208 A 
ATOM      3  C   UNL     1      14.119  -4.682   7.543  1.00  0.00     0.238 A 
ATOM      4  O   UNL     1      13.016  -4.438   6.985  1.00  0.00    -0.285 OA
ATOM      5  C   UNL     1      14.865  -3.661   8.179  1.00  0.00     0.111 A 
ATOM      6  C   UNL     1      14.508  -2.279   8.185  1.00  0.00     0.134 A 
ATOM      7  C   UNL     1      15.252  -1.378   8.957  1.00  0.00     0.093 A 
ATOM      8  C   UNL     1      16.375  -1.794   9.668  1.00  0.00     0.123 A 
ATOM      9  C   UNL     1      16.768  -3.132   9.621  1.00  0.00     0.094 A 
ATOM     10  C   UNL     1      16.026  -4.063   8.890  1.00  0.00     0.146 A 
ATOM     11  O   UNL     1      16.428  -5.328   8.879  1.00  0.00    -0.452 OA
ENDROOT
BRANCH   1  12
ATOM     12  C   UNL     1      16.353  -7.662   8.281  1.00  0.00     0.021 A 
ATOM     13  C   UNL     1      16.559  -8.410   7.107  1.00  0.00     0.016 A 
ATOM     14  C   UNL     1      17.119  -9.689   7.173  1.00  0.00     0.047 A 
ATOM     15  C   UNL     1      17.493 -10.231   8.406  1.00  0.00     0.115 A 
ATOM     16  C   UNL     1      16.750  -8.205   9.514  1.00  0.00     0.016 A 
ATOM     17  C   UNL     1      17.309  -9.486   9.577  1.00  0.00     0.047 A 
BRANCH  15  18
ATOM     18  O   UNL     1      18.049 -11.508   8.456  1.00  0.00    -0.508 OA
ATOM     19  H   UNL     1      18.517 -11.850   9.287  1.00  0.00     0.293 HD
ENDBRANCH  15  18
ENDBRANCH   1  12
BRANCH   2  20
ATOM     20  O   UNL     1      13.851  -7.032   6.961  1.00  0.00    -0.502 OA
ATOM     21  H   UNL     1      13.228  -6.869   6.179  1.00  0.00     0.293 HD
ENDBRANCH   2  20
BRANCH   6  22
ATOM     22  O   UNL     1      13.457  -1.741   7.436  1.00  0.00    -0.507 OA
ATOM     23  H   UNL     1      13.019  -2.198   6.650  1.00  0.00     0.293 HD
ENDBRANCH   6  22
BRANCH   8  24
ATOM     24  O   UNL     1      17.100  -0.866  10.413  1.00  0.00    -0.508 OA
ATOM     25  H   UNL     1      17.097   0.120  10.177  1.00  0.00     0.293 HD
ENDBRANCH   8  24
TORSDOF 5
ENDMDL
MODEL 8
REMARK VINA RESULT:    -5.218     11.271     13.130
REMARK INTER + INTRA:          -6.095
REMARK INTER:                  -5.816
REMARK INTRA:                  -0.280
REMARK UNBOUND:                 0.037
REMARK SMILES O=c1c(O)c(-c2ccc(O)cc2)oc2cc(O)cc(O)c12
REMARK SMILES IDX 5 1 3 2 2 3 1 4 21 5 19 6 18 7 16 8 15 9 14 10 13 11 6 12
REMARK SMILES IDX 7 13 8 14 9 15 12 16 11 17 10 18 4 20 20 22 17 24
REMARK H PARENT 10 19 4 21 20 23 17 25
REMARK Flexibility Score: inf
ROOT
ATOM      1  C   UNL     1      13.929 -16.773  14.162  1.00  0.00     0.180 A 
ATOM      2  C   UNL     1      13.768 -17.612  15.278  1.00  0.00     0.208 A 
ATOM      3  C   UNL     1      13.259 -17.069  16.469  1.00  0.00     0.238 A 
ATOM      4  O   UNL     1      13.169 -17.812  17.482  1.00  0.00    -0.285 OA
ATOM      5  C   UNL     1      12.902 -15.700  16.524  1.00  0.00     0.111 A 
ATOM      6  C   UNL     1      12.340 -15.054  17.666  1.00  0.00     0.134 A 
ATOM      7  C   UNL     1      12.147 -13.668  17.650  1.00  0.00     0.093 A 
ATOM      8  C   UNL     1      12.434 -12.914  16.513  1.00  0.00     0.123 A 
ATOM      9  C   UNL     1      12.928 -13.544  15.371  1.00  0.00     0.094 A 
ATOM     10  C   UNL     1      13.166 -14.921  15.368  1.00  0.00     0.146 A 
ATOM     11  O   UNL     1      13.647 -15.479  14.264  1.00  0.00    -0.452 OA
ENDROOT
BRANCH   1  12
ATOM     12  C   UNL     1      14.434 -17.277  12.864  1.00  0.00     0.021 A 
ATOM     13  C   UNL     1      13.593 -17.949  11.960  1.00  0.00     0.016 A 
ATOM     14  C   UNL     1      14.087 -18.396  10.730  1.00  0.00     0.047 A 
ATOM     15  C   UNL     1      15.422 -18.164  10.383  1.00  0.00     0.115 A 
ATOM     16  C   UNL     1      15.769 -17.030  12.500  1.00  0.00     0.016 A 
ATOM     17  C   UNL     1      16.261 -17.478  11.269  1.00  0.00     0.047 A 
BRANCH  15  18
ATOM     18  O   UNL     1      15.901 -18.615   9.156  1.00  0.00    -0.508 OA
ATOM     19  H   UNL     1      16.880 -18.838   9.018  1.00  0.00     0.293 HD
ENDBRANCH  15  18
ENDBRANCH   1  12
BRANCH   2  20
ATOM     20  O   UNL     1      14.147 -18.955  15.209  1.00  0.00    -0.502 OA
ATOM     21  H   UNL     1      15.039 -19.250  14.828  1.00  0.00     0.293 HD
ENDBRANCH   2  20
BRANCH   6  22
ATOM     22  O   UNL     1      11.932 -15.728  18.822  1.00  0.00    -0.507 OA
ATOM     23  H   UNL     1      11.854 -16.731  18.905  1.00  0.00     0.293 HD
ENDBRANCH   6  22
BRANCH   8  24
ATOM     24  O   UNL     1      12.216 -11.538  16.528  1.00  0.00    -0.508 OA
ATOM     25  H   UNL     1      11.286 -11.148  16.414  1.00  0.00     0.293 HD
ENDBRANCH   8  24
TORSDOF 5
ENDMDL
MODEL 9
REMARK VINA RESULT:    -5.087      4.028     10.073
REMARK INTER + INTRA:          -5.942
REMARK INTER:                  -5.693
REMARK INTRA:                  -0.249
REMARK UNBOUND:                 0.037
REMARK SMILES O=c1c(O)c(-c2ccc(O)cc2)oc2cc(O)cc(O)c12
REMARK SMILES IDX 5 1 3 2 2 3 1 4 21 5 19 6 18 7 16 8 15 9 14 10 13 11 6 12
REMARK SMILES IDX 7 13 8 14 9 15 12 16 11 17 10 18 4 20 20 22 17 24
REMARK H PARENT 10 19 4 21 20 23 17 25
REMARK Flexibility Score: inf
ROOT
ATOM      1  C   UNL     1      17.491 -11.790   6.976  1.00  0.00     0.180 A 
ATOM      2  C   UNL     1      16.395 -12.636   6.736  1.00  0.00     0.208 A 
ATOM      3  C   UNL     1      16.633 -13.980   6.405  1.00  0.00     0.238 A 
ATOM      4  O   UNL     1      15.649 -14.720   6.138  1.00  0.00    -0.285 OA
ATOM      5  C   UNL     1      17.961 -14.465   6.335  1.00  0.00     0.111 A 
ATOM      6  C   UNL     1      18.316 -15.817   6.047  1.00  0.00     0.134 A 
ATOM      7  C   UNL     1      19.664 -16.155   5.875  1.00  0.00     0.093 A 
ATOM      8  C   UNL     1      20.672 -15.206   6.043  1.00  0.00     0.123 A 
ATOM      9  C   UNL     1      20.338 -13.894   6.382  1.00  0.00     0.094 A 
ATOM     10  C   UNL     1      19.001 -13.518   6.525  1.00  0.00     0.146 A 
ATOM     11  O   UNL     1      18.726 -12.257   6.838  1.00  0.00    -0.452 OA
ENDROOT
BRANCH   1  12
ATOM     12  C   UNL     1      17.320 -10.368   7.355  1.00  0.00     0.021 A 
ATOM     13  C   UNL     1      17.001  -9.388   6.399  1.00  0.00     0.016 A 
ATOM     14  C   UNL     1      16.822  -8.055   6.785  1.00  0.00     0.047 A 
ATOM     15  C   UNL     1      16.945  -7.689   8.128  1.00  0.00     0.115 A 
ATOM     16  C   UNL     1      17.423  -9.997   8.706  1.00  0.00     0.016 A 
ATOM     17  C   UNL     1      17.244  -8.663   9.089  1.00  0.00     0.047 A 
BRANCH  15  18
ATOM     18  O   UNL     1      16.766  -6.358   8.498  1.00  0.00    -0.508 OA
ATOM     19  H   UNL     1      16.706  -6.082   9.471  1.00  0.00     0.293 HD
ENDBRANCH  15  18
ENDBRANCH   1  12
BRANCH   2  20
ATOM     20  O   UNL     1      15.093 -12.133   6.789  1.00  0.00    -0.502 OA
ATOM     21  H   UNL     1      14.890 -11.141   6.750  1.00  0.00     0.293 HD
ENDBRANCH   2  20
BRANCH   6  22
ATOM     22  O   UNL     1      17.393 -16.863   5.950  1.00  0.00    -0.507 OA
ATOM     23  H   UNL     1      16.476 -16.782   5.539  1.00  0.00     0.293 HD
ENDBRANCH   6  22
BRANCH   8  24
ATOM     24  O   UNL     1      22.003 -15.581   5.878  1.00  0.00    -0.508 OA
ATOM     25  H   UNL     1      22.265 -16.549   5.725  1.00  0.00     0.293 HD
ENDBRANCH   8  24
TORSDOF 5
ENDMDL
