MODEL 1
REMARK VINA RESULT:    -6.533      0.000      0.000
REMARK INTER + INTRA:          -8.114
REMARK INTER:                  -7.870
REMARK INTRA:                  -0.245
REMARK UNBOUND:                -0.245
REMARK SMILES O=c1c(O)c(-c2ccc(O)c(O)c2)oc2cc(O)cc(O)c12
REMARK SMILES IDX 5 1 3 2 2 3 1 4 22 5 20 6 19 7 17 8 16 9 15 10 14 11 6 12
REMARK SMILES IDX 7 13 8 14 9 15 13 16 11 17 10 18 12 20 4 22 21 24 18 26
REMARK H PARENT 10 19 12 21 4 23 21 25 18 27
REMARK Flexibility Score: inf
ROOT
ATOM      1  C   UNL     1     104.740 106.778 109.749  1.00  0.00     0.180 A 
ATOM      2  C   UNL     1     104.191 105.718 109.003  1.00  0.00     0.208 A 
ATOM      3  C   UNL     1     103.429 104.745 109.667  1.00  0.00     0.238 A 
ATOM      4  O   UNL     1     102.921 103.797 109.007  1.00  0.00    -0.285 OA
ATOM      5  C   UNL     1     103.246 104.835 111.062  1.00  0.00     0.111 A 
ATOM      6  C   UNL     1     102.495 103.893 111.808  1.00  0.00     0.134 A 
ATOM      7  C   UNL     1     102.368 104.047 113.196  1.00  0.00     0.093 A 
ATOM      8  C   UNL     1     102.977 105.123 113.853  1.00  0.00     0.123 A 
ATOM      9  C   UNL     1     103.717 106.053 113.122  1.00  0.00     0.094 A 
ATOM     10  C   UNL     1     103.855 105.919 111.737  1.00  0.00     0.146 A 
ATOM     11  O   UNL     1     104.560 106.822 111.066  1.00  0.00    -0.452 OA
ENDROOT
BRANCH   1  12
ATOM     12  C   UNL     1     105.540 107.853 109.118  1.00  0.00     0.025 A 
ATOM     13  C   UNL     1     106.911 107.953 109.406  1.00  0.00     0.016 A 
ATOM     14  C   UNL     1     107.680 108.973 108.839  1.00  0.00     0.051 A 
ATOM     15  C   UNL     1     107.087 109.914 107.988  1.00  0.00     0.157 A 
ATOM     16  C   UNL     1     104.945 108.813 108.280  1.00  0.00     0.062 A 
ATOM     17  C   UNL     1     105.716 109.837 107.712  1.00  0.00     0.158 A 
BRANCH  15  18
ATOM     18  O   UNL     1     107.851 110.931 107.418  1.00  0.00    -0.504 OA
ATOM     19  H   UNL     1     108.863 110.884 107.394  1.00  0.00     0.293 HD
ENDBRANCH  15  18
BRANCH  17  20
ATOM     20  O   UNL     1     105.126 110.784 106.877  1.00  0.00    -0.504 OA
ATOM     21  H   UNL     1     105.015 110.619 105.884  1.00  0.00     0.293 HD
ENDBRANCH  17  20
ENDBRANCH   1  12
BRANCH   2  22
ATOM     22  O   UNL     1     104.428 105.625 107.629  1.00  0.00    -0.502 OA
ATOM     23  H   UNL     1     105.089 106.227 107.151  1.00  0.00     0.293 HD
ENDBRANCH   2  22
BRANCH   6  24
ATOM     24  O   UNL     1     101.878 102.810 111.181  1.00  0.00    -0.507 OA
ATOM     25  H   UNL     1     100.890 102.618 111.300  1.00  0.00     0.293 HD
ENDBRANCH   6  24
BRANCH   8  26
ATOM     26  O   UNL     1     102.852 105.276 115.232  1.00  0.00    -0.508 OA
ATOM     27  H   UNL     1     103.633 105.575 115.804  1.00  0.00     0.293 HD
ENDBRANCH   8  26
TORSDOF 6
ENDMDL
MODEL 2
REMARK VINA RESULT:    -6.403      1.629      6.541
REMARK INTER + INTRA:          -7.958
REMARK INTER:                  -8.255
REMARK INTRA:                   0.297
REMARK UNBOUND:                -0.245
REMARK SMILES O=c1c(O)c(-c2ccc(O)c(O)c2)oc2cc(O)cc(O)c12
REMARK SMILES IDX 5 1 3 2 2 3 1 4 22 5 20 6 19 7 17 8 16 9 15 10 14 11 6 12
REMARK SMILES IDX 7 13 8 14 9 15 13 16 11 17 10 18 12 20 4 22 21 24 18 26
REMARK H PARENT 10 19 12 21 4 23 21 25 18 27
REMARK Flexibility Score: inf
ROOT
ATOM      1  C   UNL     1     104.523 106.415 111.956  1.00  0.00     0.180 A 
ATOM      2  C   UNL     1     104.194 105.330 111.120  1.00  0.00     0.208 A 
ATOM      3  C   UNL     1     104.278 105.496 109.729  1.00  0.00     0.238 A 
ATOM      4  O   UNL     1     103.998 104.528 108.971  1.00  0.00    -0.285 OA
ATOM      5  C   UNL     1     104.667 106.743 109.198  1.00  0.00     0.111 A 
ATOM      6  C   UNL     1     104.773 106.994 107.808  1.00  0.00     0.134 A 
ATOM      7  C   UNL     1     105.158 108.265 107.358  1.00  0.00     0.093 A 
ATOM      8  C   UNL     1     105.438 109.290 108.270  1.00  0.00     0.123 A 
ATOM      9  C   UNL     1     105.335 109.046 109.640  1.00  0.00     0.094 A 
ATOM     10  C   UNL     1     104.955 107.786 110.110  1.00  0.00     0.146 A 
ATOM     11  O   UNL     1     104.871 107.581 111.419  1.00  0.00    -0.452 OA
ENDROOT
BRANCH   1  12
ATOM     12  C   UNL     1     104.477 106.313 113.432  1.00  0.00     0.025 A 
ATOM     13  C   UNL     1     105.363 107.079 114.206  1.00  0.00     0.016 A 
ATOM     14  C   UNL     1     105.352 106.982 115.600  1.00  0.00     0.051 A 
ATOM     15  C   UNL     1     104.464 106.107 116.239  1.00  0.00     0.157 A 
ATOM     16  C   UNL     1     103.602 105.421 114.077  1.00  0.00     0.062 A 
ATOM     17  C   UNL     1     103.591 105.322 115.476  1.00  0.00     0.158 A 
BRANCH  15  18
ATOM     18  O   UNL     1     104.448 106.009 117.629  1.00  0.00    -0.504 OA
ATOM     19  H   UNL     1     104.765 105.173 118.105  1.00  0.00     0.293 HD
ENDBRANCH  15  18
BRANCH  17  20
ATOM     20  O   UNL     1     102.719 104.441 116.115  1.00  0.00    -0.504 OA
ATOM     21  H   UNL     1     102.940 103.458 116.217  1.00  0.00     0.293 HD
ENDBRANCH  17  20
ENDBRANCH   1  12
BRANCH   2  22
ATOM     22  O   UNL     1     103.764 104.120 111.671  1.00  0.00    -0.502 OA
ATOM     23  H   UNL     1     102.821 103.771 111.542  1.00  0.00     0.293 HD
ENDBRANCH   2  22
BRANCH   6  24
ATOM     24  O   UNL     1     104.499 105.993 106.875  1.00  0.00    -0.507 OA
ATOM     25  H   UNL     1     105.227 105.593 106.294  1.00  0.00     0.293 HD
ENDBRANCH   6  24
BRANCH   8  26
ATOM     26  O   UNL     1     105.819 110.553 107.824  1.00  0.00    -0.508 OA
ATOM     27  H   UNL     1     105.593 111.391 108.348  1.00  0.00     0.293 HD
ENDBRANCH   8  26
TORSDOF 6
ENDMDL
MODEL 3
REMARK VINA RESULT:    -6.273      1.823      6.489
REMARK INTER + INTRA:          -7.801
REMARK INTER:                  -8.008
REMARK INTRA:                   0.207
REMARK UNBOUND:                -0.245
REMARK SMILES O=c1c(O)c(-c2ccc(O)c(O)c2)oc2cc(O)cc(O)c12
REMARK SMILES IDX 5 1 3 2 2 3 1 4 22 5 20 6 19 7 17 8 16 9 15 10 14 11 6 12
REMARK SMILES IDX 7 13 8 14 9 15 13 16 11 17 10 18 12 20 4 22 21 24 18 26
REMARK H PARENT 10 19 12 21 4 23 21 25 18 27
REMARK Flexibility Score: inf
ROOT
ATOM      1  C   UNL     1     104.526 106.380 111.956  1.00  0.00     0.180 A 
ATOM      2  C   UNL     1     104.200 105.295 111.119  1.00  0.00     0.208 A 
ATOM      3  C   UNL     1     104.290 105.461 109.729  1.00  0.00     0.238 A 
ATOM      4  O   UNL     1     104.013 104.493 108.969  1.00  0.00    -0.285 OA
ATOM      5  C   UNL     1     104.681 106.709 109.199  1.00  0.00     0.111 A 
ATOM      6  C   UNL     1     104.793 106.959 107.810  1.00  0.00     0.134 A 
ATOM      7  C   UNL     1     105.180 108.231 107.362  1.00  0.00     0.093 A 
ATOM      8  C   UNL     1     105.456 109.255 108.275  1.00  0.00     0.123 A 
ATOM      9  C   UNL     1     105.348 109.012 109.645  1.00  0.00     0.094 A 
ATOM     10  C   UNL     1     104.965 107.751 110.112  1.00  0.00     0.146 A 
ATOM     11  O   UNL     1     104.876 107.546 111.422  1.00  0.00    -0.452 OA
ENDROOT
BRANCH   1  12
ATOM     12  C   UNL     1     104.474 106.277 113.433  1.00  0.00     0.025 A 
ATOM     13  C   UNL     1     103.435 105.552 114.038  1.00  0.00     0.016 A 
ATOM     14  C   UNL     1     103.354 105.460 115.430  1.00  0.00     0.051 A 
ATOM     15  C   UNL     1     104.301 106.104 116.236  1.00  0.00     0.157 A 
ATOM     16  C   UNL     1     105.410 106.940 114.246  1.00  0.00     0.062 A 
ATOM     17  C   UNL     1     105.328 106.849 115.644  1.00  0.00     0.158 A 
BRANCH  15  18
ATOM     18  O   UNL     1     104.225 106.013 117.625  1.00  0.00    -0.504 OA
ATOM     19  H   UNL     1     103.781 106.735 118.180  1.00  0.00     0.293 HD
ENDBRANCH  15  18
BRANCH  17  20
ATOM     20  O   UNL     1     106.260 107.502 116.449  1.00  0.00    -0.504 OA
ATOM     21  H   UNL     1     106.092 108.435 116.804  1.00  0.00     0.293 HD
ENDBRANCH  17  20
ENDBRANCH   1  12
BRANCH   2  22
ATOM     22  O   UNL     1     103.768 104.085 111.668  1.00  0.00    -0.502 OA
ATOM     23  H   UNL     1     104.290 103.223 111.559  1.00  0.00     0.293 HD
ENDBRANCH   2  22
BRANCH   6  24
ATOM     24  O   UNL     1     104.523 105.958 106.876  1.00  0.00    -0.507 OA
ATOM     25  H   UNL     1     103.653 105.935 106.357  1.00  0.00     0.293 HD
ENDBRANCH   6  24
BRANCH   8  26
ATOM     26  O   UNL     1     105.839 110.519 107.831  1.00  0.00    -0.508 OA
ATOM     27  H   UNL     1     106.813 110.796 107.797  1.00  0.00     0.293 HD
ENDBRANCH   8  26
TORSDOF 6
ENDMDL
MODEL 4
REMARK VINA RESULT:    -6.168      3.577      5.452
REMARK INTER + INTRA:          -7.674
REMARK INTER:                  -7.448
REMARK INTRA:                  -0.226
REMARK UNBOUND:                -0.245
REMARK SMILES O=c1c(O)c(-c2ccc(O)c(O)c2)oc2cc(O)cc(O)c12
REMARK SMILES IDX 5 1 3 2 2 3 1 4 22 5 20 6 19 7 17 8 16 9 15 10 14 11 6 12
REMARK SMILES IDX 7 13 8 14 9 15 13 16 11 17 10 18 12 20 4 22 21 24 18 26
REMARK H PARENT 10 19 12 21 4 23 21 25 18 27
REMARK Flexibility Score: inf
ROOT
ATOM      1  C   UNL     1     106.979 106.696 111.219  1.00  0.00     0.180 A 
ATOM      2  C   UNL     1     106.948 107.526 110.081  1.00  0.00     0.208 A 
ATOM      3  C   UNL     1     105.941 107.327 109.125  1.00  0.00     0.238 A 
ATOM      4  O   UNL     1     105.895 108.072 108.108  1.00  0.00    -0.285 OA
ATOM      5  C   UNL     1     104.999 106.294 109.309  1.00  0.00     0.111 A 
ATOM      6  C   UNL     1     103.955 106.025 108.390  1.00  0.00     0.134 A 
ATOM      7  C   UNL     1     103.062 104.973 108.640  1.00  0.00     0.093 A 
ATOM      8  C   UNL     1     103.193 104.184 109.789  1.00  0.00     0.123 A 
ATOM      9  C   UNL     1     104.220 104.447 110.697  1.00  0.00     0.094 A 
ATOM     10  C   UNL     1     105.119 105.492 110.468  1.00  0.00     0.146 A 
ATOM     11  O   UNL     1     106.083 105.723 111.352  1.00  0.00    -0.452 OA
ENDROOT
BRANCH   1  12
ATOM     12  C   UNL     1     107.999 106.856 112.281  1.00  0.00     0.025 A 
ATOM     13  C   UNL     1     107.952 107.980 113.120  1.00  0.00     0.016 A 
ATOM     14  C   UNL     1     108.916 108.162 114.115  1.00  0.00     0.051 A 
ATOM     15  C   UNL     1     109.949 107.230 114.275  1.00  0.00     0.157 A 
ATOM     16  C   UNL     1     109.049 105.933 112.432  1.00  0.00     0.062 A 
ATOM     17  C   UNL     1     110.018 106.115 113.429  1.00  0.00     0.158 A 
BRANCH  15  18
ATOM     18  O   UNL     1     110.912 107.406 115.267  1.00  0.00    -0.504 OA
ATOM     19  H   UNL     1     111.073 108.310 115.695  1.00  0.00     0.293 HD
ENDBRANCH  15  18
BRANCH  17  20
ATOM     20  O   UNL     1     111.056 105.197 113.582  1.00  0.00    -0.504 OA
ATOM     21  H   UNL     1     111.994 105.399 113.256  1.00  0.00     0.293 HD
ENDBRANCH  17  20
ENDBRANCH   1  12
BRANCH   2  22
ATOM     22  O   UNL     1     107.923 108.510 109.899  1.00  0.00    -0.502 OA
ATOM     23  H   UNL     1     107.722 109.396 109.448  1.00  0.00     0.293 HD
ENDBRANCH   2  22
BRANCH   6  24
ATOM     24  O   UNL     1     103.800 106.793 107.235  1.00  0.00    -0.507 OA
ATOM     25  H   UNL     1     103.019 107.429 107.119  1.00  0.00     0.293 HD
ENDBRANCH   6  24
BRANCH   8  26
ATOM     26  O   UNL     1     102.308 103.138 110.038  1.00  0.00    -0.508 OA
ATOM     27  H   UNL     1     102.413 102.536 110.846  1.00  0.00     0.293 HD
ENDBRANCH   8  26
TORSDOF 6
ENDMDL
MODEL 5
REMARK VINA RESULT:    -6.094      3.193      6.439
REMARK INTER + INTRA:          -7.586
REMARK INTER:                  -7.373
REMARK INTRA:                  -0.213
REMARK UNBOUND:                -0.245
REMARK SMILES O=c1c(O)c(-c2ccc(O)c(O)c2)oc2cc(O)cc(O)c12
REMARK SMILES IDX 5 1 3 2 2 3 1 4 22 5 20 6 19 7 17 8 16 9 15 10 14 11 6 12
REMARK SMILES IDX 7 13 8 14 9 15 13 16 11 17 10 18 12 20 4 22 21 24 18 26
REMARK H PARENT 10 19 12 21 4 23 21 25 18 27
REMARK Flexibility Score: inf
ROOT
ATOM      1  C   UNL     1     104.922 106.398 113.996  1.00  0.00     0.180 A 
ATOM      2  C   UNL     1     103.833 105.535 114.227  1.00  0.00     0.208 A 
ATOM      3  C   UNL     1     103.163 104.980 113.126  1.00  0.00     0.238 A 
ATOM      4  O   UNL     1     102.194 104.196 113.321  1.00  0.00    -0.285 OA
ATOM      5  C   UNL     1     103.576 105.311 111.819  1.00  0.00     0.111 A 
ATOM      6  C   UNL     1     102.952 104.797 110.656  1.00  0.00     0.134 A 
ATOM      7  C   UNL     1     103.416 105.182 109.390  1.00  0.00     0.093 A 
ATOM      8  C   UNL     1     104.490 106.070 109.264  1.00  0.00     0.123 A 
ATOM      9  C   UNL     1     105.109 106.578 110.407  1.00  0.00     0.094 A 
ATOM     10  C   UNL     1     104.663 106.205 111.679  1.00  0.00     0.146 A 
ATOM     11  O   UNL     1     105.274 106.700 112.750  1.00  0.00    -0.452 OA
ENDROOT
BRANCH   1  12
ATOM     12  C   UNL     1     105.691 107.009 115.105  1.00  0.00     0.025 A 
ATOM     13  C   UNL     1     105.676 108.403 115.270  1.00  0.00     0.016 A 
ATOM     14  C   UNL     1     106.411 109.002 116.296  1.00  0.00     0.051 A 
ATOM     15  C   UNL     1     107.183 108.217 117.162  1.00  0.00     0.157 A 
ATOM     16  C   UNL     1     106.484 106.227 115.963  1.00  0.00     0.062 A 
ATOM     17  C   UNL     1     107.223 106.827 116.992  1.00  0.00     0.158 A 
BRANCH  15  18
ATOM     18  O   UNL     1     107.916 108.811 118.188  1.00  0.00    -0.504 OA
ATOM     19  H   UNL     1     107.913 109.814 118.330  1.00  0.00     0.293 HD
ENDBRANCH  15  18
BRANCH  17  20
ATOM     20  O   UNL     1     108.004 106.051 117.846  1.00  0.00    -0.504 OA
ATOM     21  H   UNL     1     108.706 105.413 117.489  1.00  0.00     0.293 HD
ENDBRANCH  17  20
ENDBRANCH   1  12
BRANCH   2  22
ATOM     22  O   UNL     1     103.413 105.262 115.531  1.00  0.00    -0.502 OA
ATOM     23  H   UNL     1     103.948 104.675 116.161  1.00  0.00     0.293 HD
ENDBRANCH   2  22
BRANCH   6  24
ATOM     24  O   UNL     1     101.877 103.911 110.750  1.00  0.00    -0.507 OA
ATOM     25  H   UNL     1     100.974 104.205 111.102  1.00  0.00     0.293 HD
ENDBRANCH   6  24
BRANCH   8  26
ATOM     26  O   UNL     1     104.951 106.453 108.006  1.00  0.00    -0.508 OA
ATOM     27  H   UNL     1     105.646 107.183 107.897  1.00  0.00     0.293 HD
ENDBRANCH   8  26
TORSDOF 6
ENDMDL
MODEL 6
REMARK VINA RESULT:    -6.063      2.010      3.309
REMARK INTER + INTRA:          -7.548
REMARK INTER:                  -7.829
REMARK INTRA:                   0.282
REMARK UNBOUND:                -0.245
REMARK SMILES O=c1c(O)c(-c2ccc(O)c(O)c2)oc2cc(O)cc(O)c12
REMARK SMILES IDX 5 1 3 2 2 3 1 4 22 5 20 6 19 7 17 8 16 9 15 10 14 11 6 12
REMARK SMILES IDX 7 13 8 14 9 15 13 16 11 17 10 18 12 20 4 22 21 24 18 26
REMARK H PARENT 10 19 12 21 4 23 21 25 18 27
REMARK Flexibility Score: inf
ROOT
ATOM      1  C   UNL     1     104.436 106.626 111.832  1.00  0.00     0.180 A 
ATOM      2  C   UNL     1     103.436 105.639 111.928  1.00  0.00     0.208 A 
ATOM      3  C   UNL     1     103.111 105.125 113.193  1.00  0.00     0.238 A 
ATOM      4  O   UNL     1     102.209 104.250 113.294  1.00  0.00    -0.285 OA
ATOM      5  C   UNL     1     103.802 105.588 114.332  1.00  0.00     0.111 A 
ATOM      6  C   UNL     1     103.538 105.118 115.642  1.00  0.00     0.134 A 
ATOM      7  C   UNL     1     104.276 105.622 116.723  1.00  0.00     0.093 A 
ATOM      8  C   UNL     1     105.272 106.584 116.520  1.00  0.00     0.123 A 
ATOM      9  C   UNL     1     105.535 107.050 115.231  1.00  0.00     0.094 A 
ATOM     10  C   UNL     1     104.810 106.562 114.140  1.00  0.00     0.146 A 
ATOM     11  O   UNL     1     105.077 107.028 112.925  1.00  0.00    -0.452 OA
ENDROOT
BRANCH   1  12
ATOM     12  C   UNL     1     104.822 107.231 110.536  1.00  0.00     0.025 A 
ATOM     13  C   UNL     1     105.249 108.568 110.497  1.00  0.00     0.016 A 
ATOM     14  C   UNL     1     105.596 109.165 109.283  1.00  0.00     0.051 A 
ATOM     15  C   UNL     1     105.509 108.438 108.088  1.00  0.00     0.157 A 
ATOM     16  C   UNL     1     104.716 106.512 109.332  1.00  0.00     0.062 A 
ATOM     17  C   UNL     1     105.064 107.111 108.113  1.00  0.00     0.158 A 
BRANCH  15  18
ATOM     18  O   UNL     1     105.858 109.029 106.875  1.00  0.00    -0.504 OA
ATOM     19  H   UNL     1     106.682 109.612 106.787  1.00  0.00     0.293 HD
ENDBRANCH  15  18
BRANCH  17  20
ATOM     20  O   UNL     1     104.964 106.395 106.921  1.00  0.00    -0.504 OA
ATOM     21  H   UNL     1     105.297 105.441 106.846  1.00  0.00     0.293 HD
ENDBRANCH  17  20
ENDBRANCH   1  12
BRANCH   2  22
ATOM     22  O   UNL     1     102.801 105.163 110.779  1.00  0.00    -0.502 OA
ATOM     23  H   UNL     1     103.162 104.380 110.245  1.00  0.00     0.293 HD
ENDBRANCH   2  22
BRANCH   6  24
ATOM     24  O   UNL     1     102.552 104.158 115.875  1.00  0.00    -0.507 OA
ATOM     25  H   UNL     1     102.110 104.058 116.781  1.00  0.00     0.293 HD
ENDBRANCH   6  24
BRANCH   8  26
ATOM     26  O   UNL     1     106.006 107.084 117.594  1.00  0.00    -0.508 OA
ATOM     27  H   UNL     1     105.873 108.030 117.931  1.00  0.00     0.293 HD
ENDBRANCH   8  26
TORSDOF 6
ENDMDL
MODEL 7
REMARK VINA RESULT:    -5.811      2.907      5.074
REMARK INTER + INTRA:          -7.245
REMARK INTER:                  -7.573
REMARK INTRA:                   0.328
REMARK UNBOUND:                -0.245
REMARK SMILES O=c1c(O)c(-c2ccc(O)c(O)c2)oc2cc(O)cc(O)c12
REMARK SMILES IDX 5 1 3 2 2 3 1 4 22 5 20 6 19 7 17 8 16 9 15 10 14 11 6 12
REMARK SMILES IDX 7 13 8 14 9 15 13 16 11 17 10 18 12 20 4 22 21 24 18 26
REMARK H PARENT 10 19 12 21 4 23 21 25 18 27
REMARK Flexibility Score: inf
ROOT
ATOM      1  C   UNL     1     104.812 106.498 112.508  1.00  0.00     0.180 A 
ATOM      2  C   UNL     1     103.880 105.871 113.357  1.00  0.00     0.208 A 
ATOM      3  C   UNL     1     104.113 105.877 114.741  1.00  0.00     0.238 A 
ATOM      4  O   UNL     1     103.279 105.330 115.513  1.00  0.00    -0.285 OA
ATOM      5  C   UNL     1     105.279 106.487 115.249  1.00  0.00     0.111 A 
ATOM      6  C   UNL     1     105.590 106.533 116.630  1.00  0.00     0.134 A 
ATOM      7  C   UNL     1     106.776 107.151 117.055  1.00  0.00     0.093 A 
ATOM      8  C   UNL     1     107.655 107.723 116.128  1.00  0.00     0.123 A 
ATOM      9  C   UNL     1     107.351 107.680 114.766  1.00  0.00     0.094 A 
ATOM     10  C   UNL     1     106.174 107.070 114.321  1.00  0.00     0.146 A 
ATOM     11  O   UNL     1     105.908 107.050 113.020  1.00  0.00    -0.452 OA
ENDROOT
BRANCH   1  12
ATOM     12  C   UNL     1     104.627 106.550 111.039  1.00  0.00     0.025 A 
ATOM     13  C   UNL     1     105.185 107.611 110.309  1.00  0.00     0.016 A 
ATOM     14  C   UNL     1     105.005 107.692 108.926  1.00  0.00     0.051 A 
ATOM     15  C   UNL     1     104.251 106.720 108.255  1.00  0.00     0.157 A 
ATOM     16  C   UNL     1     103.853 105.588 110.364  1.00  0.00     0.062 A 
ATOM     17  C   UNL     1     103.670 105.669 108.976  1.00  0.00     0.158 A 
BRANCH  15  18
ATOM     18  O   UNL     1     104.070 106.796 106.875  1.00  0.00    -0.504 OA
ATOM     19  H   UNL     1     104.615 106.227 106.238  1.00  0.00     0.293 HD
ENDBRANCH  15  18
BRANCH  17  20
ATOM     20  O   UNL     1     102.908 104.713 108.308  1.00  0.00    -0.504 OA
ATOM     21  H   UNL     1     102.036 104.954 107.852  1.00  0.00     0.293 HD
ENDBRANCH  17  20
ENDBRANCH   1  12
BRANCH   2  22
ATOM     22  O   UNL     1     102.758 105.231 112.825  1.00  0.00    -0.502 OA
ATOM     23  H   UNL     1     101.841 105.663 112.816  1.00  0.00     0.293 HD
ENDBRANCH   2  22
BRANCH   6  24
ATOM     24  O   UNL     1     104.734 105.971 117.578  1.00  0.00    -0.507 OA
ATOM     25  H   UNL     1     103.770 106.270 117.668  1.00  0.00     0.293 HD
ENDBRANCH   6  24
BRANCH   8  26
ATOM     26  O   UNL     1     108.832 108.335 116.549  1.00  0.00    -0.508 OA
ATOM     27  H   UNL     1     109.667 108.332 115.974  1.00  0.00     0.293 HD
ENDBRANCH   8  26
TORSDOF 6
ENDMDL
MODEL 8
REMARK VINA RESULT:    -5.808      3.471      5.214
REMARK INTER + INTRA:          -7.241
REMARK INTER:                  -6.923
REMARK INTRA:                  -0.318
REMARK UNBOUND:                -0.245
REMARK SMILES O=c1c(O)c(-c2ccc(O)c(O)c2)oc2cc(O)cc(O)c12
REMARK SMILES IDX 5 1 3 2 2 3 1 4 22 5 20 6 19 7 17 8 16 9 15 10 14 11 6 12
REMARK SMILES IDX 7 13 8 14 9 15 13 16 11 17 10 18 12 20 4 22 21 24 18 26
REMARK H PARENT 10 19 12 21 4 23 21 25 18 27
REMARK Flexibility Score: inf
ROOT
ATOM      1  C   UNL     1     107.050 106.619 111.992  1.00  0.00     0.180 A 
ATOM      2  C   UNL     1     106.240 106.764 113.135  1.00  0.00     0.208 A 
ATOM      3  C   UNL     1     104.889 106.392 113.059  1.00  0.00     0.238 A 
ATOM      4  O   UNL     1     104.157 106.506 114.080  1.00  0.00    -0.285 OA
ATOM      5  C   UNL     1     104.367 105.905 111.843  1.00  0.00     0.111 A 
ATOM      6  C   UNL     1     103.015 105.512 111.683  1.00  0.00     0.134 A 
ATOM      7  C   UNL     1     102.570 105.046 110.437  1.00  0.00     0.093 A 
ATOM      8  C   UNL     1     103.448 104.966 109.350  1.00  0.00     0.123 A 
ATOM      9  C   UNL     1     104.781 105.351 109.505  1.00  0.00     0.094 A 
ATOM     10  C   UNL     1     105.246 105.816 110.738  1.00  0.00     0.146 A 
ATOM     11  O   UNL     1     106.520 106.171 110.858  1.00  0.00    -0.452 OA
ENDROOT
BRANCH   1  12
ATOM     12  C   UNL     1     108.489 106.972 111.997  1.00  0.00     0.025 A 
ATOM     13  C   UNL     1     108.903 108.191 111.438  1.00  0.00     0.016 A 
ATOM     14  C   UNL     1     110.257 108.534 111.413  1.00  0.00     0.051 A 
ATOM     15  C   UNL     1     111.218 107.657 111.934  1.00  0.00     0.157 A 
ATOM     16  C   UNL     1     109.458 106.085 112.500  1.00  0.00     0.062 A 
ATOM     17  C   UNL     1     110.817 106.428 112.474  1.00  0.00     0.158 A 
BRANCH  15  18
ATOM     18  O   UNL     1     112.569 107.996 111.913  1.00  0.00    -0.504 OA
ATOM     19  H   UNL     1     113.294 107.291 111.971  1.00  0.00     0.293 HD
ENDBRANCH  15  18
BRANCH  17  20
ATOM     20  O   UNL     1     111.777 105.551 112.977  1.00  0.00    -0.504 OA
ATOM     21  H   UNL     1     112.738 105.839 113.113  1.00  0.00     0.293 HD
ENDBRANCH  17  20
ENDBRANCH   1  12
BRANCH   2  22
ATOM     22  O   UNL     1     106.771 107.295 114.313  1.00  0.00    -0.502 OA
ATOM     23  H   UNL     1     107.698 107.702 114.355  1.00  0.00     0.293 HD
ENDBRANCH   2  22
BRANCH   6  24
ATOM     24  O   UNL     1     102.116 105.583 112.748  1.00  0.00    -0.507 OA
ATOM     25  H   UNL     1     101.141 105.333 112.638  1.00  0.00     0.293 HD
ENDBRANCH   6  24
BRANCH   8  26
ATOM     26  O   UNL     1     103.006 104.504 108.113  1.00  0.00    -0.508 OA
ATOM     27  H   UNL     1     103.202 105.010 107.257  1.00  0.00     0.293 HD
ENDBRANCH   8  26
TORSDOF 6
ENDMDL
MODEL 9
REMARK VINA RESULT:    -5.709      2.485      3.248
REMARK INTER + INTRA:          -7.122
REMARK INTER:                  -6.790
REMARK INTRA:                  -0.332
REMARK UNBOUND:                -0.245
REMARK SMILES O=c1c(O)c(-c2ccc(O)c(O)c2)oc2cc(O)cc(O)c12
REMARK SMILES IDX 5 1 3 2 2 3 1 4 22 5 20 6 19 7 17 8 16 9 15 10 14 11 6 12
REMARK SMILES IDX 7 13 8 14 9 15 13 16 11 17 10 18 12 20 4 22 21 24 18 26
REMARK H PARENT 10 19 12 21 4 23 21 25 18 27
REMARK Flexibility Score: inf
ROOT
ATOM      1  C   UNL     1     105.733 108.539 110.240  1.00  0.00     0.180 A 
ATOM      2  C   UNL     1     105.413 108.298 108.890  1.00  0.00     0.208 A 
ATOM      3  C   UNL     1     104.626 107.181 108.568  1.00  0.00     0.238 A 
ATOM      4  O   UNL     1     104.323 106.962 107.363  1.00  0.00    -0.285 OA
ATOM      5  C   UNL     1     104.191 106.316 109.593  1.00  0.00     0.111 A 
ATOM      6  C   UNL     1     103.398 105.168 109.353  1.00  0.00     0.134 A 
ATOM      7  C   UNL     1     103.013 104.352 110.427  1.00  0.00     0.093 A 
ATOM      8  C   UNL     1     103.406 104.661 111.734  1.00  0.00     0.123 A 
ATOM      9  C   UNL     1     104.187 105.792 111.975  1.00  0.00     0.094 A 
ATOM     10  C   UNL     1     104.580 106.620 110.919  1.00  0.00     0.146 A 
ATOM     11  O   UNL     1     105.318 107.693 111.179  1.00  0.00    -0.452 OA
ENDROOT
BRANCH   1  12
ATOM     12  C   UNL     1     106.543 109.705 110.661  1.00  0.00     0.025 A 
ATOM     13  C   UNL     1     107.932 109.565 110.805  1.00  0.00     0.016 A 
ATOM     14  C   UNL     1     108.714 110.646 111.222  1.00  0.00     0.051 A 
ATOM     15  C   UNL     1     108.114 111.878 111.514  1.00  0.00     0.157 A 
ATOM     16  C   UNL     1     105.943 110.937 110.976  1.00  0.00     0.062 A 
ATOM     17  C   UNL     1     106.726 112.023 111.396  1.00  0.00     0.158 A 
BRANCH  15  18
ATOM     18  O   UNL     1     108.890 112.960 111.928  1.00  0.00    -0.504 OA
ATOM     19  H   UNL     1     109.258 113.632 111.266  1.00  0.00     0.293 HD
ENDBRANCH  15  18
BRANCH  17  20
ATOM     20  O   UNL     1     106.132 113.245 111.702  1.00  0.00    -0.504 OA
ATOM     21  H   UNL     1     106.549 113.885 112.368  1.00  0.00     0.293 HD
ENDBRANCH  17  20
ENDBRANCH   1  12
BRANCH   2  22
ATOM     22  O   UNL     1     105.898 109.143 107.888  1.00  0.00    -0.502 OA
ATOM     23  H   UNL     1     105.433 110.008 107.636  1.00  0.00     0.293 HD
ENDBRANCH   2  22
BRANCH   6  24
ATOM     24  O   UNL     1     102.992 104.834 108.060  1.00  0.00    -0.507 OA
ATOM     25  H   UNL     1     103.443 104.093 107.536  1.00  0.00     0.293 HD
ENDBRANCH   6  24
BRANCH   8  26
ATOM     26  O   UNL     1     103.025 103.850 112.801  1.00  0.00    -0.508 OA
ATOM     27  H   UNL     1     102.222 104.075 113.377  1.00  0.00     0.293 HD
ENDBRANCH   8  26
TORSDOF 6
ENDMDL
