MODEL 1
REMARK VINA RESULT:    -5.637      0.000      0.000
REMARK INTER + INTRA:          -5.966
REMARK INTER:                  -5.966
REMARK INTRA:                   0.000
REMARK UNBOUND:                 0.000
REMARK SMILES O=c1ccc2cc(O)c(O)cc2o1
REMARK SMILES IDX 4 1 3 2 2 3 1 4 13 5 12 6 11 7 9 8 7 9 6 10 5 11 8 12 10 14
REMARK H PARENT 8 13 10 15
REMARK Flexibility Score: inf
ROOT
ATOM      1  C   UNL     1     136.736   3.772  95.603  1.00  0.00     0.019 A 
ATOM      2  C   UNL     1     137.166   2.480  95.302  1.00  0.00     0.094 A 
ATOM      3  C   UNL     1     136.391   1.688  94.450  1.00  0.00     0.336 A 
ATOM      4  O   UNL     1     136.763   0.520  94.166  1.00  0.00    -0.246 OA
ATOM      5  O   UNL     1     135.259   2.162  93.934  1.00  0.00    -0.423 OA
ATOM      6  C   UNL     1     134.812   3.389  94.195  1.00  0.00     0.142 A 
ATOM      7  C   UNL     1     133.616   3.832  93.624  1.00  0.00     0.098 A 
ATOM      8  C   UNL     1     133.140   5.124  93.896  1.00  0.00     0.161 A 
ATOM      9  C   UNL     1     133.865   5.974  94.743  1.00  0.00     0.158 A 
ATOM     10  C   UNL     1     135.067   5.535  95.319  1.00  0.00     0.062 A 
ATOM     11  C   UNL     1     135.543   4.245  95.048  1.00  0.00     0.022 A 
ENDROOT
BRANCH   9  12
ATOM     12  O   UNL     1     133.385   7.256  95.008  1.00  0.00    -0.504 OA
ATOM     13  H   UNL     1     132.948   7.817  94.286  1.00  0.00     0.293 HD
ENDBRANCH   9  12
BRANCH   8  14
ATOM     14  O   UNL     1     131.947   5.568  93.329  1.00  0.00    -0.504 OA
ATOM     15  H   UNL     1     131.225   6.008  93.888  1.00  0.00     0.293 HD
ENDBRANCH   8  14
TORSDOF 2
ENDMDL
MODEL 2
REMARK VINA RESULT:    -5.470      1.342      4.485
REMARK INTER + INTRA:          -5.790
REMARK INTER:                  -5.790
REMARK INTRA:                   0.000
REMARK UNBOUND:                 0.000
REMARK SMILES O=c1ccc2cc(O)c(O)cc2o1
REMARK SMILES IDX 4 1 3 2 2 3 1 4 13 5 12 6 11 7 9 8 7 9 6 10 5 11 8 12 10 14
REMARK H PARENT 8 13 10 15
REMARK Flexibility Score: inf
ROOT
ATOM      1  C   UNL     1     136.531   4.679  95.396  1.00  0.00     0.019 A 
ATOM      2  C   UNL     1     135.769   5.846  95.364  1.00  0.00     0.094 A 
ATOM      3  C   UNL     1     134.428   5.770  94.974  1.00  0.00     0.336 A 
ATOM      4  O   UNL     1     133.724   6.812  94.938  1.00  0.00    -0.246 OA
ATOM      5  O   UNL     1     133.889   4.600  94.639  1.00  0.00    -0.423 OA
ATOM      6  C   UNL     1     134.581   3.463  94.655  1.00  0.00     0.142 A 
ATOM      7  C   UNL     1     133.961   2.263  94.293  1.00  0.00     0.098 A 
ATOM      8  C   UNL     1     134.685   1.062  94.309  1.00  0.00     0.161 A 
ATOM      9  C   UNL     1     136.035   1.062  94.690  1.00  0.00     0.158 A 
ATOM     10  C   UNL     1     136.662   2.262  95.055  1.00  0.00     0.062 A 
ATOM     11  C   UNL     1     135.939   3.463  95.039  1.00  0.00     0.022 A 
ENDROOT
BRANCH   9  12
ATOM     12  O   UNL     1     136.747  -0.137  94.703  1.00  0.00    -0.504 OA
ATOM     13  H   UNL     1     137.736  -0.168  94.482  1.00  0.00     0.293 HD
ENDBRANCH   9  12
BRANCH   8  14
ATOM     14  O   UNL     1     134.070  -0.136  93.947  1.00  0.00    -0.504 OA
ATOM     15  H   UNL     1     133.193  -0.150  93.441  1.00  0.00     0.293 HD
ENDBRANCH   8  14
TORSDOF 2
ENDMDL
MODEL 3
REMARK VINA RESULT:    -5.410      1.554      2.126
REMARK INTER + INTRA:          -5.726
REMARK INTER:                  -5.726
REMARK INTRA:                   0.000
REMARK UNBOUND:                 0.000
REMARK SMILES O=c1ccc2cc(O)c(O)cc2o1
REMARK SMILES IDX 4 1 3 2 2 3 1 4 13 5 12 6 11 7 9 8 7 9 6 10 5 11 8 12 10 14
REMARK H PARENT 8 13 10 15
REMARK Flexibility Score: inf
ROOT
ATOM      1  C   UNL     1     136.125   3.036  94.826  1.00  0.00     0.019 A 
ATOM      2  C   UNL     1     136.796   1.854  95.135  1.00  0.00     0.094 A 
ATOM      3  C   UNL     1     136.221   0.632  94.770  1.00  0.00     0.336 A 
ATOM      4  O   UNL     1     136.811  -0.446  95.040  1.00  0.00    -0.246 OA
ATOM      5  O   UNL     1     135.051   0.601  94.137  1.00  0.00    -0.423 OA
ATOM      6  C   UNL     1     134.377   1.706  93.824  1.00  0.00     0.142 A 
ATOM      7  C   UNL     1     133.152   1.611  93.157  1.00  0.00     0.098 A 
ATOM      8  C   UNL     1     132.438   2.772  92.824  1.00  0.00     0.161 A 
ATOM      9  C   UNL     1     132.954   4.032  93.160  1.00  0.00     0.158 A 
ATOM     10  C   UNL     1     134.183   4.134  93.828  1.00  0.00     0.062 A 
ATOM     11  C   UNL     1     134.897   2.975  94.160  1.00  0.00     0.022 A 
ENDROOT
BRANCH   9  12
ATOM     12  O   UNL     1     132.237   5.181  92.825  1.00  0.00    -0.504 OA
ATOM     13  H   UNL     1     131.691   5.684  93.515  1.00  0.00     0.293 HD
ENDBRANCH   9  12
BRANCH   8  14
ATOM     14  O   UNL     1     131.216   2.681  92.161  1.00  0.00    -0.504 OA
ATOM     15  H   UNL     1     130.838   3.461  91.637  1.00  0.00     0.293 HD
ENDBRANCH   8  14
TORSDOF 2
ENDMDL
MODEL 4
REMARK VINA RESULT:    -5.303      2.487      4.595
REMARK INTER + INTRA:          -5.613
REMARK INTER:                  -5.613
REMARK INTRA:                   0.000
REMARK UNBOUND:                 0.000
REMARK SMILES O=c1ccc2cc(O)c(O)cc2o1
REMARK SMILES IDX 4 1 3 2 2 3 1 4 13 5 12 6 11 7 9 8 7 9 6 10 5 11 8 12 10 14
REMARK H PARENT 8 13 10 15
REMARK Flexibility Score: inf
ROOT
ATOM      1  C   UNL     1     136.017   2.656  95.830  1.00  0.00     0.019 A 
ATOM      2  C   UNL     1     136.086   3.977  95.390  1.00  0.00     0.094 A 
ATOM      3  C   UNL     1     135.283   4.377  94.317  1.00  0.00     0.336 A 
ATOM      4  O   UNL     1     135.330   5.565  93.905  1.00  0.00    -0.246 OA
ATOM      5  O   UNL     1     134.465   3.508  93.728  1.00  0.00    -0.423 OA
ATOM      6  C   UNL     1     134.369   2.238  94.116  1.00  0.00     0.142 A 
ATOM      7  C   UNL     1     133.492   1.371  93.459  1.00  0.00     0.098 A 
ATOM      8  C   UNL     1     133.386   0.032  93.864  1.00  0.00     0.161 A 
ATOM      9  C   UNL     1     134.162  -0.439  94.933  1.00  0.00     0.158 A 
ATOM     10  C   UNL     1     135.044   0.426  95.597  1.00  0.00     0.062 A 
ATOM     11  C   UNL     1     135.149   1.764  95.192  1.00  0.00     0.022 A 
ENDROOT
BRANCH   9  12
ATOM     12  O   UNL     1     134.051  -1.772  95.329  1.00  0.00    -0.504 OA
ATOM     13  H   UNL     1     133.150  -2.233  95.389  1.00  0.00     0.293 HD
ENDBRANCH   9  12
BRANCH   8  14
ATOM     14  O   UNL     1     132.513  -0.835  93.209  1.00  0.00    -0.504 OA
ATOM     15  H   UNL     1     131.670  -1.176  93.656  1.00  0.00     0.293 HD
ENDBRANCH   8  14
TORSDOF 2
ENDMDL
MODEL 5
REMARK VINA RESULT:    -5.275      1.366      2.437
REMARK INTER + INTRA:          -5.583
REMARK INTER:                  -5.583
REMARK INTRA:                   0.000
REMARK UNBOUND:                 0.000
REMARK SMILES O=c1ccc2cc(O)c(O)cc2o1
REMARK SMILES IDX 4 1 3 2 2 3 1 4 13 5 12 6 11 7 9 8 7 9 6 10 5 11 8 12 10 14
REMARK H PARENT 8 13 10 15
REMARK Flexibility Score: inf
ROOT
ATOM      1  C   UNL     1     134.210   2.206  93.899  1.00  0.00     0.019 A 
ATOM      2  C   UNL     1     135.510   1.794  94.193  1.00  0.00     0.094 A 
ATOM      3  C   UNL     1     136.331   2.632  94.953  1.00  0.00     0.336 A 
ATOM      4  O   UNL     1     137.507   2.278  95.229  1.00  0.00    -0.246 OA
ATOM      5  O   UNL     1     135.878   3.805  95.390  1.00  0.00    -0.423 OA
ATOM      6  C   UNL     1     134.645   4.236  95.132  1.00  0.00     0.142 A 
ATOM      7  C   UNL     1     134.223   5.477  95.618  1.00  0.00     0.098 A 
ATOM      8  C   UNL     1     132.925   5.937  95.350  1.00  0.00     0.161 A 
ATOM      9  C   UNL     1     132.046   5.149  94.592  1.00  0.00     0.158 A 
ATOM     10  C   UNL     1     132.463   3.903  94.103  1.00  0.00     0.062 A 
ATOM     11  C   UNL     1     133.759   3.443  94.371  1.00  0.00     0.022 A 
ENDROOT
BRANCH   9  12
ATOM     12  O   UNL     1     130.757   5.614  94.330  1.00  0.00    -0.504 OA
ATOM     13  H   UNL     1     130.553   6.174  93.511  1.00  0.00     0.293 HD
ENDBRANCH   9  12
BRANCH   8  14
ATOM     14  O   UNL     1     132.503   7.174  95.832  1.00  0.00    -0.504 OA
ATOM     15  H   UNL     1     133.154   7.936  95.981  1.00  0.00     0.293 HD
ENDBRANCH   8  14
TORSDOF 2
ENDMDL
MODEL 6
REMARK VINA RESULT:    -5.257      1.834      4.814
REMARK INTER + INTRA:          -5.565
REMARK INTER:                  -5.565
REMARK INTRA:                   0.000
REMARK UNBOUND:                 0.000
REMARK SMILES O=c1ccc2cc(O)c(O)cc2o1
REMARK SMILES IDX 4 1 3 2 2 3 1 4 13 5 12 6 11 7 9 8 7 9 6 10 5 11 8 12 10 14
REMARK H PARENT 8 13 10 15
REMARK Flexibility Score: inf
ROOT
ATOM      1  C   UNL     1     133.597   4.454  94.002  1.00  0.00     0.019 A 
ATOM      2  C   UNL     1     134.172   5.696  94.266  1.00  0.00     0.094 A 
ATOM      3  C   UNL     1     135.478   5.747  94.764  1.00  0.00     0.336 A 
ATOM      4  O   UNL     1     136.015   6.858  95.009  1.00  0.00    -0.246 OA
ATOM      5  O   UNL     1     136.160   4.624  94.981  1.00  0.00    -0.423 OA
ATOM      6  C   UNL     1     135.648   3.418  94.743  1.00  0.00     0.142 A 
ATOM      7  C   UNL     1     136.412   2.274  94.990  1.00  0.00     0.098 A 
ATOM      8  C   UNL     1     135.879   1.001  94.741  1.00  0.00     0.161 A 
ATOM      9  C   UNL     1     134.574   0.874  94.241  1.00  0.00     0.158 A 
ATOM     10  C   UNL     1     133.803   2.018  93.990  1.00  0.00     0.062 A 
ATOM     11  C   UNL     1     134.336   3.290  94.239  1.00  0.00     0.022 A 
ENDROOT
BRANCH   9  12
ATOM     12  O   UNL     1     134.051  -0.395  93.996  1.00  0.00    -0.504 OA
ATOM     13  H   UNL     1     133.062  -0.537  93.829  1.00  0.00     0.293 HD
ENDBRANCH   9  12
BRANCH   8  14
ATOM     14  O   UNL     1     136.638  -0.141  94.987  1.00  0.00    -0.504 OA
ATOM     15  H   UNL     1     136.717  -0.535  95.917  1.00  0.00     0.293 HD
ENDBRANCH   8  14
TORSDOF 2
ENDMDL
MODEL 7
REMARK VINA RESULT:    -5.253      2.422      3.210
REMARK INTER + INTRA:          -5.560
REMARK INTER:                  -5.560
REMARK INTRA:                   0.000
REMARK UNBOUND:                 0.000
REMARK SMILES O=c1ccc2cc(O)c(O)cc2o1
REMARK SMILES IDX 4 1 3 2 2 3 1 4 13 5 12 6 11 7 9 8 7 9 6 10 5 11 8 12 10 14
REMARK H PARENT 8 13 10 15
REMARK Flexibility Score: inf
ROOT
ATOM      1  C   UNL     1     135.101   0.285  95.515  1.00  0.00     0.019 A 
ATOM      2  C   UNL     1     134.216  -0.583  94.876  1.00  0.00     0.094 A 
ATOM      3  C   UNL     1     133.384  -0.083  93.869  1.00  0.00     0.336 A 
ATOM      4  O   UNL     1     132.579  -0.851  93.281  1.00  0.00    -0.246 OA
ATOM      5  O   UNL     1     133.439   1.201  93.526  1.00  0.00    -0.423 OA
ATOM      6  C   UNL     1     134.268   2.064  94.110  1.00  0.00     0.142 A 
ATOM      7  C   UNL     1     134.281   3.402  93.708  1.00  0.00     0.098 A 
ATOM      8  C   UNL     1     135.153   4.315  94.320  1.00  0.00     0.161 A 
ATOM      9  C   UNL     1     136.016   3.885  95.338  1.00  0.00     0.158 A 
ATOM     10  C   UNL     1     136.008   2.543  95.746  1.00  0.00     0.062 A 
ATOM     11  C   UNL     1     135.137   1.631  95.135  1.00  0.00     0.022 A 
ENDROOT
BRANCH   9  12
ATOM     12  O   UNL     1     136.880   4.799  95.941  1.00  0.00    -0.504 OA
ATOM     13  H   UNL     1     137.430   5.450  95.392  1.00  0.00     0.293 HD
ENDBRANCH   9  12
BRANCH   8  14
ATOM     14  O   UNL     1     135.168   5.651  93.921  1.00  0.00    -0.504 OA
ATOM     15  H   UNL     1     134.600   5.980  93.150  1.00  0.00     0.293 HD
ENDBRANCH   8  14
TORSDOF 2
ENDMDL
MODEL 8
REMARK VINA RESULT:    -5.196      2.529      4.064
REMARK INTER + INTRA:          -5.500
REMARK INTER:                  -5.500
REMARK INTRA:                   0.000
REMARK UNBOUND:                 0.000
REMARK SMILES O=c1ccc2cc(O)c(O)cc2o1
REMARK SMILES IDX 4 1 3 2 2 3 1 4 13 5 12 6 11 7 9 8 7 9 6 10 5 11 8 12 10 14
REMARK H PARENT 8 13 10 15
REMARK Flexibility Score: inf
ROOT
ATOM      1  C   UNL     1     136.420   1.606  94.946  1.00  0.00     0.019 A 
ATOM      2  C   UNL     1     136.936   2.830  95.370  1.00  0.00     0.094 A 
ATOM      3  C   UNL     1     136.106   3.955  95.366  1.00  0.00     0.336 A 
ATOM      4  O   UNL     1     136.554   5.068  95.744  1.00  0.00    -0.246 OA
ATOM      5  O   UNL     1     134.841   3.856  94.964  1.00  0.00    -0.423 OA
ATOM      6  C   UNL     1     134.308   2.708  94.552  1.00  0.00     0.142 A 
ATOM      7  C   UNL     1     132.973   2.665  94.141  1.00  0.00     0.098 A 
ATOM      8  C   UNL     1     132.406   1.458  93.706  1.00  0.00     0.161 A 
ATOM      9  C   UNL     1     133.180   0.289  93.683  1.00  0.00     0.158 A 
ATOM     10  C   UNL     1     134.521   0.325  94.094  1.00  0.00     0.062 A 
ATOM     11  C   UNL     1     135.087   1.531  94.529  1.00  0.00     0.022 A 
ENDROOT
BRANCH   9  12
ATOM     12  O   UNL     1     132.609  -0.907  93.249  1.00  0.00    -0.504 OA
ATOM     13  H   UNL     1     132.308  -1.619  93.905  1.00  0.00     0.293 HD
ENDBRANCH   9  12
BRANCH   8  14
ATOM     14  O   UNL     1     131.075   1.412  93.295  1.00  0.00    -0.504 OA
ATOM     15  H   UNL     1     130.398   2.096  93.614  1.00  0.00     0.293 HD
ENDBRANCH   8  14
TORSDOF 2
ENDMDL
MODEL 9
REMARK VINA RESULT:    -5.080      1.262      4.552
REMARK INTER + INTRA:          -5.377
REMARK INTER:                  -5.377
REMARK INTRA:                   0.000
REMARK UNBOUND:                 0.000
REMARK SMILES O=c1ccc2cc(O)c(O)cc2o1
REMARK SMILES IDX 4 1 3 2 2 3 1 4 13 5 12 6 11 7 9 8 7 9 6 10 5 11 8 12 10 14
REMARK H PARENT 8 13 10 15
REMARK Flexibility Score: inf
ROOT
ATOM      1  C   UNL     1     134.438   6.285  94.999  1.00  0.00     0.019 A 
ATOM      2  C   UNL     1     133.194   6.771  94.599  1.00  0.00     0.094 A 
ATOM      3  C   UNL     1     132.276   5.890  94.018  1.00  0.00     0.336 A 
ATOM      4  O   UNL     1     131.148   6.309  93.651  1.00  0.00    -0.246 OA
ATOM      5  O   UNL     1     132.588   4.606  93.852  1.00  0.00    -0.423 OA
ATOM      6  C   UNL     1     133.764   4.102  94.219  1.00  0.00     0.142 A 
ATOM      7  C   UNL     1     134.035   2.745  94.019  1.00  0.00     0.098 A 
ATOM      8  C   UNL     1     135.272   2.208  94.404  1.00  0.00     0.161 A 
ATOM      9  C   UNL     1     136.242   3.033  94.993  1.00  0.00     0.158 A 
ATOM     10  C   UNL     1     135.975   4.395  95.197  1.00  0.00     0.062 A 
ATOM     11  C   UNL     1     134.740   4.932  94.812  1.00  0.00     0.022 A 
ENDROOT
BRANCH   9  12
ATOM     12  O   UNL     1     137.469   2.491  95.373  1.00  0.00    -0.504 OA
ATOM     13  H   UNL     1     138.169   2.232  94.687  1.00  0.00     0.293 HD
ENDBRANCH   9  12
BRANCH   8  14
ATOM     14  O   UNL     1     135.546   0.856  94.206  1.00  0.00    -0.504 OA
ATOM     15  H   UNL     1     134.991   0.132  94.647  1.00  0.00     0.293 HD
ENDBRANCH   8  14
TORSDOF 2
ENDMDL
