MODEL 1
REMARK VINA RESULT:    -5.504      0.000      0.000
REMARK INTER + INTRA:         -13.245
REMARK INTER:                 -10.653
REMARK INTRA:                  -2.592
REMARK UNBOUND:                -2.592
REMARK SMILES CCCCCCCCCCCCCCCCCC(=O)[O-]
REMARK SMILES IDX 10 1 11 2 12 3 13 4 14 5 15 6 16 7 17 8 18 9 19 10 20 11
REMARK SMILES IDX 9 12 8 13 7 14 6 15 5 16 4 17 3 18 2 19 1 20
REMARK H PARENT
REMARK Flexibility Score: inf
ROOT
ATOM      1  C   UNL     1       7.220   8.013  22.460  1.00  0.00     0.000 C 
ENDROOT
BRANCH   1   2
ATOM      2  C   UNL     1       6.790   8.838  21.236  1.00  0.00     0.000 C 
BRANCH   2   3
ATOM      3  C   UNL     1       7.816   8.777  20.091  1.00  0.00     0.000 C 
BRANCH   3   4
ATOM      4  C   UNL     1       7.957   7.364  19.504  1.00  0.00     0.000 C 
BRANCH   4   5
ATOM      5  C   UNL     1       7.101   7.163  18.240  1.00  0.00     0.000 C 
BRANCH   5   6
ATOM      6  C   UNL     1       5.688   6.641  18.555  1.00  0.00     0.000 C 
BRANCH   6   7
ATOM      7  C   UNL     1       4.542   7.409  17.866  1.00  0.00     0.006 C 
BRANCH   7   8
ATOM      8  C   UNL     1       3.945   8.551  18.703  1.00  0.00     0.053 C 
BRANCH   8   9
ATOM      9  C   UNL     1       3.133   9.494  17.870  1.00  0.00     0.041 C 
ATOM     10  O   UNL     1       2.723   9.141  16.734  1.00  0.00    -0.550 OA
ATOM     11  O   UNL     1       2.800  10.749  18.364  1.00  0.00    -0.550 OA
ENDBRANCH   8   9
ENDBRANCH   7   8
ENDBRANCH   6   7
ENDBRANCH   5   6
ENDBRANCH   4   5
ENDBRANCH   3   4
ENDBRANCH   2   3
ENDBRANCH   1   2
BRANCH   1  12
ATOM     12  C   UNL     1       6.159   6.985  22.883  1.00  0.00     0.000 C 
BRANCH  12  13
ATOM     13  C   UNL     1       4.802   7.304  22.237  1.00  0.00    -0.000 C 
BRANCH  13  14
ATOM     14  C   UNL     1       3.849   6.096  22.229  1.00  0.00    -0.000 C 
BRANCH  14  15
ATOM     15  C   UNL     1       2.918   6.086  21.005  1.00  0.00    -0.000 C 
BRANCH  15  16
ATOM     16  C   UNL     1       2.845   4.706  20.333  1.00  0.00    -0.000 C 
BRANCH  16  17
ATOM     17  C   UNL     1       1.499   4.456  19.631  1.00  0.00    -0.000 C 
BRANCH  17  18
ATOM     18  C   UNL     1       1.574   4.660  18.107  1.00  0.00    -0.000 C 
BRANCH  18  19
ATOM     19  C   UNL     1       1.160   6.062  17.624  1.00  0.00    -0.003 C 
ATOM     20  C   UNL     1       0.063   6.690  18.483  1.00  0.00     0.004 C 
ENDBRANCH  18  19
ENDBRANCH  17  18
ENDBRANCH  16  17
ENDBRANCH  15  16
ENDBRANCH  14  15
ENDBRANCH  13  14
ENDBRANCH  12  13
ENDBRANCH   1  12
TORSDOF 16
ENDMDL
MODEL 2
REMARK VINA RESULT:    -5.438      1.490      4.696
REMARK INTER + INTRA:         -13.117
REMARK INTER:                 -10.618
REMARK INTRA:                  -2.499
REMARK UNBOUND:                -2.592
REMARK SMILES CCCCCCCCCCCCCCCCCC(=O)[O-]
REMARK SMILES IDX 10 1 11 2 12 3 13 4 14 5 15 6 16 7 17 8 18 9 19 10 20 11
REMARK SMILES IDX 9 12 8 13 7 14 6 15 5 16 4 17 3 18 2 19 1 20
REMARK H PARENT
REMARK Flexibility Score: inf
ROOT
ATOM      1  C   UNL     1       5.845   7.261  23.133  1.00  0.00     0.000 C 
ENDROOT
BRANCH   1   2
ATOM      2  C   UNL     1       4.620   7.302  22.204  1.00  0.00     0.000 C 
BRANCH   2   3
ATOM      3  C   UNL     1       3.966   5.920  22.027  1.00  0.00     0.000 C 
BRANCH   3   4
ATOM      4  C   UNL     1       2.745   5.963  21.095  1.00  0.00     0.000 C 
BRANCH   4   5
ATOM      5  C   UNL     1       2.922   5.071  19.853  1.00  0.00     0.000 C 
BRANCH   5   6
ATOM      6  C   UNL     1       1.637   4.311  19.478  1.00  0.00     0.000 C 
BRANCH   6   7
ATOM      7  C   UNL     1       0.930   4.816  18.203  1.00  0.00     0.006 C 
BRANCH   7   8
ATOM      8  C   UNL     1       1.454   6.159  17.672  1.00  0.00     0.053 C 
BRANCH   8   9
ATOM      9  C   UNL     1       0.575   7.304  18.072  1.00  0.00     0.041 C 
ATOM     10  O   UNL     1      -0.451   7.098  18.771  1.00  0.00    -0.550 OA
ATOM     11  O   UNL     1       0.908   8.600  17.702  1.00  0.00    -0.550 OA
ENDBRANCH   8   9
ENDBRANCH   7   8
ENDBRANCH   6   7
ENDBRANCH   5   6
ENDBRANCH   4   5
ENDBRANCH   3   4
ENDBRANCH   2   3
ENDBRANCH   1   2
BRANCH   1  12
ATOM     12  C   UNL     1       7.108   7.833  22.471  1.00  0.00     0.000 C 
BRANCH  12  13
ATOM     13  C   UNL     1       7.218   7.368  21.011  1.00  0.00    -0.000 C 
BRANCH  13  14
ATOM     14  C   UNL     1       7.706   8.480  20.068  1.00  0.00    -0.000 C 
BRANCH  14  15
ATOM     15  C   UNL     1       7.603   9.879  20.700  1.00  0.00    -0.000 C 
BRANCH  15  16
ATOM     16  C   UNL     1       6.570  10.769  19.991  1.00  0.00    -0.000 C 
BRANCH  16  17
ATOM     17  C   UNL     1       5.122  10.431  20.385  1.00  0.00    -0.000 C 
BRANCH  17  18
ATOM     18  C   UNL     1       4.241  10.074  19.174  1.00  0.00    -0.000 C 
BRANCH  18  19
ATOM     19  C   UNL     1       4.215   8.577  18.816  1.00  0.00    -0.003 C 
ATOM     20  C   UNL     1       5.012   8.250  17.554  1.00  0.00     0.004 C 
ENDBRANCH  18  19
ENDBRANCH  17  18
ENDBRANCH  16  17
ENDBRANCH  15  16
ENDBRANCH  14  15
ENDBRANCH  13  14
ENDBRANCH  12  13
ENDBRANCH   1  12
TORSDOF 16
ENDMDL
MODEL 3
REMARK VINA RESULT:    -5.326      0.914      1.970
REMARK INTER + INTRA:         -12.900
REMARK INTER:                 -10.231
REMARK INTRA:                  -2.668
REMARK UNBOUND:                -2.592
REMARK SMILES CCCCCCCCCCCCCCCCCC(=O)[O-]
REMARK SMILES IDX 10 1 11 2 12 3 13 4 14 5 15 6 16 7 17 8 18 9 19 10 20 11
REMARK SMILES IDX 9 12 8 13 7 14 6 15 5 16 4 17 3 18 2 19 1 20
REMARK H PARENT
REMARK Flexibility Score: inf
ROOT
ATOM      1  C   UNL     1       7.154   9.012  20.212  1.00  0.00     0.000 C 
ENDROOT
BRANCH   1   2
ATOM      2  C   UNL     1       7.775   7.740  19.612  1.00  0.00     0.000 C 
BRANCH   2   3
ATOM      3  C   UNL     1       7.482   7.591  18.109  1.00  0.00     0.000 C 
BRANCH   3   4
ATOM      4  C   UNL     1       6.846   6.235  17.765  1.00  0.00     0.000 C 
BRANCH   4   5
ATOM      5  C   UNL     1       5.340   6.194  18.082  1.00  0.00     0.000 C 
BRANCH   5   6
ATOM      6  C   UNL     1       4.476   6.766  16.944  1.00  0.00     0.000 C 
BRANCH   6   7
ATOM      7  C   UNL     1       3.385   7.760  17.391  1.00  0.00     0.006 C 
BRANCH   7   8
ATOM      8  C   UNL     1       3.786   8.661  18.569  1.00  0.00     0.053 C 
BRANCH   8   9
ATOM      9  C   UNL     1       3.920  10.096  18.159  1.00  0.00     0.041 C 
ATOM     10  O   UNL     1       5.000  10.513  17.664  1.00  0.00    -0.550 OA
ATOM     11  O   UNL     1       2.842  10.962  18.292  1.00  0.00    -0.550 OA
ENDBRANCH   8   9
ENDBRANCH   7   8
ENDBRANCH   6   7
ENDBRANCH   5   6
ENDBRANCH   4   5
ENDBRANCH   3   4
ENDBRANCH   2   3
ENDBRANCH   1   2
BRANCH   1  12
ATOM     12  C   UNL     1       6.086   8.705  21.273  1.00  0.00     0.000 C 
BRANCH  12  13
ATOM     13  C   UNL     1       6.641   7.759  22.349  1.00  0.00    -0.000 C 
BRANCH  13  14
ATOM     14  C   UNL     1       5.533   7.026  23.125  1.00  0.00    -0.000 C 
BRANCH  14  15
ATOM     15  C   UNL     1       4.169   7.100  22.418  1.00  0.00    -0.000 C 
BRANCH  15  16
ATOM     16  C   UNL     1       3.717   5.737  21.870  1.00  0.00    -0.000 C 
BRANCH  16  17
ATOM     17  C   UNL     1       2.743   5.865  20.687  1.00  0.00    -0.000 C 
BRANCH  17  18
ATOM     18  C   UNL     1       2.397   4.507  20.048  1.00  0.00    -0.000 C 
BRANCH  18  19
ATOM     19  C   UNL     1       1.830   4.593  18.620  1.00  0.00    -0.003 C 
ATOM     20  C   UNL     1       0.633   5.537  18.508  1.00  0.00     0.004 C 
ENDBRANCH  18  19
ENDBRANCH  17  18
ENDBRANCH  16  17
ENDBRANCH  15  16
ENDBRANCH  14  15
ENDBRANCH  13  14
ENDBRANCH  12  13
ENDBRANCH   1  12
TORSDOF 16
ENDMDL
MODEL 4
REMARK VINA RESULT:    -5.326      2.104      4.477
REMARK INTER + INTRA:         -12.899
REMARK INTER:                 -10.921
REMARK INTRA:                  -1.978
REMARK UNBOUND:                -2.592
REMARK SMILES CCCCCCCCCCCCCCCCCC(=O)[O-]
REMARK SMILES IDX 10 1 11 2 12 3 13 4 14 5 15 6 16 7 17 8 18 9 19 10 20 11
REMARK SMILES IDX 9 12 8 13 7 14 6 15 5 16 4 17 3 18 2 19 1 20
REMARK H PARENT
REMARK Flexibility Score: inf
ROOT
ATOM      1  C   UNL     1       3.313   5.898  20.702  1.00  0.00     0.000 C 
ENDROOT
BRANCH   1   2
ATOM      2  C   UNL     1       3.725   5.956  22.182  1.00  0.00     0.000 C 
BRANCH   2   3
ATOM      3  C   UNL     1       4.434   7.271  22.548  1.00  0.00     0.000 C 
BRANCH   3   4
ATOM      4  C   UNL     1       5.709   7.043  23.375  1.00  0.00     0.000 C 
BRANCH   4   5
ATOM      5  C   UNL     1       6.989   7.155  22.528  1.00  0.00     0.000 C 
BRANCH   5   6
ATOM      6  C   UNL     1       6.792   8.009  21.262  1.00  0.00     0.000 C 
BRANCH   6   7
ATOM      7  C   UNL     1       7.420   7.426  19.980  1.00  0.00     0.006 C 
BRANCH   7   8
ATOM      8  C   UNL     1       7.184   8.265  18.715  1.00  0.00     0.053 C 
BRANCH   8   9
ATOM      9  C   UNL     1       7.461   7.489  17.464  1.00  0.00     0.041 C 
ATOM     10  O   UNL     1       7.979   8.059  16.468  1.00  0.00    -0.550 OA
ATOM     11  O   UNL     1       7.181   6.129  17.412  1.00  0.00    -0.550 OA
ENDBRANCH   8   9
ENDBRANCH   7   8
ENDBRANCH   6   7
ENDBRANCH   5   6
ENDBRANCH   4   5
ENDBRANCH   3   4
ENDBRANCH   2   3
ENDBRANCH   1   2
BRANCH   1  12
ATOM     12  C   UNL     1       2.410   4.695  20.387  1.00  0.00     0.000 C 
BRANCH  12  13
ATOM     13  C   UNL     1       2.181   4.564  18.874  1.00  0.00    -0.000 C 
BRANCH  13  14
ATOM     14  C   UNL     1       0.705   4.734  18.479  1.00  0.00    -0.000 C 
BRANCH  14  15
ATOM     15  C   UNL     1       0.486   5.900  17.500  1.00  0.00    -0.000 C 
BRANCH  15  16
ATOM     16  C   UNL     1       0.196   7.227  18.222  1.00  0.00    -0.000 C 
BRANCH  16  17
ATOM     17  C   UNL     1       1.107   8.372  17.749  1.00  0.00    -0.000 C 
BRANCH  17  18
ATOM     18  C   UNL     1       2.604   8.056  17.923  1.00  0.00    -0.000 C 
BRANCH  18  19
ATOM     19  C   UNL     1       3.411   8.022  16.614  1.00  0.00    -0.003 C 
ATOM     20  C   UNL     1       3.854   6.613  16.221  1.00  0.00     0.004 C 
ENDBRANCH  18  19
ENDBRANCH  17  18
ENDBRANCH  16  17
ENDBRANCH  15  16
ENDBRANCH  14  15
ENDBRANCH  13  14
ENDBRANCH  12  13
ENDBRANCH   1  12
TORSDOF 16
ENDMDL
MODEL 5
REMARK VINA RESULT:    -5.315      1.054      4.806
REMARK INTER + INTRA:         -12.878
REMARK INTER:                 -10.565
REMARK INTRA:                  -2.313
REMARK UNBOUND:                -2.592
REMARK SMILES CCCCCCCCCCCCCCCCCC(=O)[O-]
REMARK SMILES IDX 10 1 11 2 12 3 13 4 14 5 15 6 16 7 17 8 18 9 19 10 20 11
REMARK SMILES IDX 9 12 8 13 7 14 6 15 5 16 4 17 3 18 2 19 1 20
REMARK H PARENT
REMARK Flexibility Score: inf
ROOT
ATOM      1  C   UNL     1       3.685   6.602  20.813  1.00  0.00     0.000 C 
ENDROOT
BRANCH   1   2
ATOM      2  C   UNL     1       2.857   5.314  20.949  1.00  0.00     0.000 C 
BRANCH   2   3
ATOM      3  C   UNL     1       2.769   4.525  19.631  1.00  0.00     0.000 C 
BRANCH   3   4
ATOM      4  C   UNL     1       1.318   4.289  19.183  1.00  0.00     0.000 C 
BRANCH   4   5
ATOM      5  C   UNL     1       0.973   5.042  17.885  1.00  0.00     0.000 C 
BRANCH   5   6
ATOM      6  C   UNL     1       0.145   6.315  18.136  1.00  0.00     0.000 C 
BRANCH   6   7
ATOM      7  C   UNL     1       0.959   7.624  18.173  1.00  0.00     0.006 C 
BRANCH   7   8
ATOM      8  C   UNL     1       2.318   7.552  17.460  1.00  0.00     0.053 C 
BRANCH   8   9
ATOM      9  C   UNL     1       2.892   8.911  17.204  1.00  0.00     0.041 C 
ATOM     10  O   UNL     1       2.523   9.894  17.899  1.00  0.00    -0.550 OA
ATOM     11  O   UNL     1       3.859   9.085  16.223  1.00  0.00    -0.550 OA
ENDBRANCH   8   9
ENDBRANCH   7   8
ENDBRANCH   6   7
ENDBRANCH   5   6
ENDBRANCH   4   5
ENDBRANCH   3   4
ENDBRANCH   2   3
ENDBRANCH   1   2
BRANCH   1  12
ATOM     12  C   UNL     1       3.842   7.347  22.147  1.00  0.00     0.000 C 
BRANCH  12  13
ATOM     13  C   UNL     1       4.752   6.566  23.107  1.00  0.00    -0.000 C 
BRANCH  13  14
ATOM     14  C   UNL     1       6.066   7.304  23.413  1.00  0.00    -0.000 C 
BRANCH  14  15
ATOM     15  C   UNL     1       7.179   6.971  22.406  1.00  0.00    -0.000 C 
BRANCH  15  16
ATOM     16  C   UNL     1       7.441   8.119  21.418  1.00  0.00    -0.000 C 
BRANCH  16  17
ATOM     17  C   UNL     1       7.659   7.627  19.977  1.00  0.00    -0.000 C 
BRANCH  17  18
ATOM     18  C   UNL     1       6.487   7.977  19.043  1.00  0.00    -0.000 C 
BRANCH  18  19
ATOM     19  C   UNL     1       6.509   7.256  17.684  1.00  0.00    -0.003 C 
ATOM     20  C   UNL     1       5.666   5.981  17.670  1.00  0.00     0.004 C 
ENDBRANCH  18  19
ENDBRANCH  17  18
ENDBRANCH  16  17
ENDBRANCH  15  16
ENDBRANCH  14  15
ENDBRANCH  13  14
ENDBRANCH  12  13
ENDBRANCH   1  12
TORSDOF 16
ENDMDL
MODEL 6
REMARK VINA RESULT:    -5.290      1.192      5.231
REMARK INTER + INTRA:         -12.830
REMARK INTER:                 -10.616
REMARK INTRA:                  -2.214
REMARK UNBOUND:                -2.592
REMARK SMILES CCCCCCCCCCCCCCCCCC(=O)[O-]
REMARK SMILES IDX 10 1 11 2 12 3 13 4 14 5 15 6 16 7 17 8 18 9 19 10 20 11
REMARK SMILES IDX 9 12 8 13 7 14 6 15 5 16 4 17 3 18 2 19 1 20
REMARK H PARENT
REMARK Flexibility Score: inf
ROOT
ATOM      1  C   UNL     1       1.641   4.510  19.896  1.00  0.00     0.000 C 
ENDROOT
BRANCH   1   2
ATOM      2  C   UNL     1       0.974   4.457  18.512  1.00  0.00     0.000 C 
BRANCH   2   3
ATOM      3  C   UNL     1       1.285   5.698  17.658  1.00  0.00     0.000 C 
BRANCH   3   4
ATOM      4  C   UNL     1       0.539   6.950  18.147  1.00  0.00     0.000 C 
BRANCH   4   5
ATOM      5  C   UNL     1       1.269   8.253  17.774  1.00  0.00     0.000 C 
BRANCH   5   6
ATOM      6  C   UNL     1       2.711   8.011  17.293  1.00  0.00     0.000 C 
BRANCH   6   7
ATOM      7  C   UNL     1       3.658   9.220  17.440  1.00  0.00     0.006 C 
BRANCH   7   8
ATOM      8  C   UNL     1       3.872   9.691  18.886  1.00  0.00     0.053 C 
BRANCH   8   9
ATOM      9  C   UNL     1       4.069  11.173  18.972  1.00  0.00     0.041 C 
ATOM     10  O   UNL     1       5.053  11.645  19.599  1.00  0.00    -0.550 OA
ATOM     11  O   UNL     1       3.185  12.031  18.329  1.00  0.00    -0.550 OA
ENDBRANCH   8   9
ENDBRANCH   7   8
ENDBRANCH   6   7
ENDBRANCH   5   6
ENDBRANCH   4   5
ENDBRANCH   3   4
ENDBRANCH   2   3
ENDBRANCH   1   2
BRANCH   1  12
ATOM     12  C   UNL     1       3.126   4.900  19.822  1.00  0.00     0.000 C 
BRANCH  12  13
ATOM     13  C   UNL     1       3.369   6.258  20.495  1.00  0.00    -0.000 C 
BRANCH  13  14
ATOM     14  C   UNL     1       3.584   6.139  22.013  1.00  0.00    -0.000 C 
BRANCH  14  15
ATOM     15  C   UNL     1       4.332   7.349  22.600  1.00  0.00    -0.000 C 
BRANCH  15  16
ATOM     16  C   UNL     1       5.631   6.945  23.317  1.00  0.00    -0.000 C 
BRANCH  16  17
ATOM     17  C   UNL     1       6.891   7.301  22.511  1.00  0.00    -0.000 C 
BRANCH  17  18
ATOM     18  C   UNL     1       6.571   8.031  21.194  1.00  0.00    -0.000 C 
BRANCH  18  19
ATOM     19  C   UNL     1       7.500   7.677  20.019  1.00  0.00    -0.003 C 
ATOM     20  C   UNL     1       6.741   7.226  18.772  1.00  0.00     0.004 C 
ENDBRANCH  18  19
ENDBRANCH  17  18
ENDBRANCH  16  17
ENDBRANCH  15  16
ENDBRANCH  14  15
ENDBRANCH  13  14
ENDBRANCH  12  13
ENDBRANCH   1  12
TORSDOF 16
ENDMDL
MODEL 7
REMARK VINA RESULT:    -5.278      1.318      4.907
REMARK INTER + INTRA:         -12.807
REMARK INTER:                 -10.303
REMARK INTRA:                  -2.504
REMARK UNBOUND:                -2.592
REMARK SMILES CCCCCCCCCCCCCCCCCC(=O)[O-]
REMARK SMILES IDX 10 1 11 2 12 3 13 4 14 5 15 6 16 7 17 8 18 9 19 10 20 11
REMARK SMILES IDX 9 12 8 13 7 14 6 15 5 16 4 17 3 18 2 19 1 20
REMARK H PARENT
REMARK Flexibility Score: inf
ROOT
ATOM      1  C   UNL     1       3.616   6.606  20.843  1.00  0.00     0.000 C 
ENDROOT
BRANCH   1   2
ATOM      2  C   UNL     1       3.006   5.218  21.092  1.00  0.00     0.000 C 
BRANCH   2   3
ATOM      3  C   UNL     1       2.766   4.435  19.790  1.00  0.00     0.000 C 
BRANCH   3   4
ATOM      4  C   UNL     1       1.274   4.321  19.439  1.00  0.00     0.000 C 
BRANCH   4   5
ATOM      5  C   UNL     1       0.907   5.104  18.165  1.00  0.00     0.000 C 
BRANCH   5   6
ATOM      6  C   UNL     1       0.586   6.582  18.446  1.00  0.00     0.000 C 
BRANCH   6   7
ATOM      7  C   UNL     1       1.598   7.591  17.866  1.00  0.00     0.006 C 
BRANCH   7   8
ATOM      8  C   UNL     1       2.758   6.953  17.085  1.00  0.00     0.053 C 
BRANCH   8   9
ATOM      9  C   UNL     1       3.532   7.968  16.300  1.00  0.00     0.041 C 
ATOM     10  O   UNL     1       3.123   9.156  16.226  1.00  0.00    -0.550 OA
ATOM     11  O   UNL     1       4.723   7.609  15.681  1.00  0.00    -0.550 OA
ENDBRANCH   8   9
ENDBRANCH   7   8
ENDBRANCH   6   7
ENDBRANCH   5   6
ENDBRANCH   4   5
ENDBRANCH   3   4
ENDBRANCH   2   3
ENDBRANCH   1   2
BRANCH   1  12
ATOM     12  C   UNL     1       3.860   7.386  22.144  1.00  0.00     0.000 C 
BRANCH  12  13
ATOM     13  C   UNL     1       4.837   6.633  23.059  1.00  0.00    -0.000 C 
BRANCH  13  14
ATOM     14  C   UNL     1       6.156   7.395  23.276  1.00  0.00    -0.000 C 
BRANCH  14  15
ATOM     15  C   UNL     1       7.191   7.110  22.175  1.00  0.00    -0.000 C 
BRANCH  15  16
ATOM     16  C   UNL     1       7.611   8.381  21.419  1.00  0.00    -0.000 C 
BRANCH  16  17
ATOM     17  C   UNL     1       7.748   8.154  19.904  1.00  0.00    -0.000 C 
BRANCH  17  18
ATOM     18  C   UNL     1       6.388   8.080  19.185  1.00  0.00    -0.000 C 
BRANCH  18  19
ATOM     19  C   UNL     1       5.847   9.433  18.692  1.00  0.00    -0.003 C 
ATOM     20  C   UNL     1       4.582   9.875  19.428  1.00  0.00     0.004 C 
ENDBRANCH  18  19
ENDBRANCH  17  18
ENDBRANCH  16  17
ENDBRANCH  15  16
ENDBRANCH  14  15
ENDBRANCH  13  14
ENDBRANCH  12  13
ENDBRANCH   1  12
TORSDOF 16
ENDMDL
MODEL 8
REMARK VINA RESULT:    -5.269      1.396      2.180
REMARK INTER + INTRA:         -12.789
REMARK INTER:                 -10.395
REMARK INTRA:                  -2.394
REMARK UNBOUND:                -2.592
REMARK SMILES CCCCCCCCCCCCCCCCCC(=O)[O-]
REMARK SMILES IDX 10 1 11 2 12 3 13 4 14 5 15 6 16 7 17 8 18 9 19 10 20 11
REMARK SMILES IDX 9 12 8 13 7 14 6 15 5 16 4 17 3 18 2 19 1 20
REMARK H PARENT
REMARK Flexibility Score: inf
ROOT
ATOM      1  C   UNL     1       5.437   6.905  22.616  1.00  0.00     0.000 C 
ENDROOT
BRANCH   1   2
ATOM      2  C   UNL     1       6.900   7.172  22.226  1.00  0.00     0.000 C 
BRANCH   2   3
ATOM      3  C   UNL     1       7.092   8.544  21.557  1.00  0.00     0.000 C 
BRANCH   3   4
ATOM      4  C   UNL     1       7.969   8.465  20.297  1.00  0.00     0.000 C 
BRANCH   4   5
ATOM      5  C   UNL     1       7.598   7.274  19.395  1.00  0.00     0.000 C 
BRANCH   5   6
ATOM      6  C   UNL     1       7.075   7.710  18.016  1.00  0.00     0.000 C 
BRANCH   6   7
ATOM      7  C   UNL     1       5.792   8.565  18.046  1.00  0.00     0.006 C 
BRANCH   7   8
ATOM      8  C   UNL     1       5.740   9.676  16.985  1.00  0.00     0.053 C 
BRANCH   8   9
ATOM      9  C   UNL     1       4.692   9.414  15.948  1.00  0.00     0.041 C 
ATOM     10  O   UNL     1       3.571   9.983  16.023  1.00  0.00    -0.550 OA
ATOM     11  O   UNL     1       4.965   8.569  14.879  1.00  0.00    -0.550 OA
ENDBRANCH   8   9
ENDBRANCH   7   8
ENDBRANCH   6   7
ENDBRANCH   5   6
ENDBRANCH   4   5
ENDBRANCH   3   4
ENDBRANCH   2   3
ENDBRANCH   1   2
BRANCH   1  12
ATOM     12  C   UNL     1       4.438   7.578  21.661  1.00  0.00     0.000 C 
BRANCH  12  13
ATOM     13  C   UNL     1       3.998   6.605  20.557  1.00  0.00    -0.000 C 
BRANCH  13  14
ATOM     14  C   UNL     1       3.105   5.470  21.085  1.00  0.00    -0.000 C 
BRANCH  14  15
ATOM     15  C   UNL     1       2.783   4.421  20.008  1.00  0.00    -0.000 C 
BRANCH  15  16
ATOM     16  C   UNL     1       1.291   4.400  19.636  1.00  0.00    -0.000 C 
BRANCH  16  17
ATOM     17  C   UNL     1       1.050   4.617  18.132  1.00  0.00    -0.000 C 
BRANCH  17  18
ATOM     18  C   UNL     1       0.784   6.091  17.776  1.00  0.00    -0.000 C 
BRANCH  18  19
ATOM     19  C   UNL     1       2.045   6.917  17.470  1.00  0.00    -0.003 C 
ATOM     20  C   UNL     1       3.086   6.142  16.662  1.00  0.00     0.004 C 
ENDBRANCH  18  19
ENDBRANCH  17  18
ENDBRANCH  16  17
ENDBRANCH  15  16
ENDBRANCH  14  15
ENDBRANCH  13  14
ENDBRANCH  12  13
ENDBRANCH   1  12
TORSDOF 16
ENDMDL
MODEL 9
REMARK VINA RESULT:    -5.245      1.919      4.878
REMARK INTER + INTRA:         -12.743
REMARK INTER:                 -10.049
REMARK INTRA:                  -2.694
REMARK UNBOUND:                -2.592
REMARK SMILES CCCCCCCCCCCCCCCCCC(=O)[O-]
REMARK SMILES IDX 10 1 11 2 12 3 13 4 14 5 15 6 16 7 17 8 18 9 19 10 20 11
REMARK SMILES IDX 9 12 8 13 7 14 6 15 5 16 4 17 3 18 2 19 1 20
REMARK H PARENT
REMARK Flexibility Score: inf
ROOT
ATOM      1  C   UNL     1       6.878   7.450  21.361  1.00  0.00     0.000 C 
ENDROOT
BRANCH   1   2
ATOM      2  C   UNL     1       6.834   7.425  22.898  1.00  0.00     0.000 C 
BRANCH   2   3
ATOM      3  C   UNL     1       5.463   6.988  23.443  1.00  0.00     0.000 C 
BRANCH   3   4
ATOM      4  C   UNL     1       4.327   7.221  22.434  1.00  0.00     0.000 C 
BRANCH   4   5
ATOM      5  C   UNL     1       3.482   5.956  22.197  1.00  0.00     0.000 C 
BRANCH   5   6
ATOM      6  C   UNL     1       2.954   5.853  20.756  1.00  0.00     0.000 C 
BRANCH   6   7
ATOM      7  C   UNL     1       3.780   6.621  19.703  1.00  0.00     0.006 C 
BRANCH   7   8
ATOM      8  C   UNL     1       4.046   5.840  18.407  1.00  0.00     0.053 C 
BRANCH   8   9
ATOM      9  C   UNL     1       3.112   6.240  17.307  1.00  0.00     0.041 C 
ATOM     10  O   UNL     1       1.937   6.603  17.577  1.00  0.00    -0.550 OA
ATOM     11  O   UNL     1       3.549   6.246  15.989  1.00  0.00    -0.550 OA
ENDBRANCH   8   9
ENDBRANCH   7   8
ENDBRANCH   6   7
ENDBRANCH   5   6
ENDBRANCH   4   5
ENDBRANCH   3   4
ENDBRANCH   2   3
ENDBRANCH   1   2
BRANCH   1  12
ATOM     12  C   UNL     1       7.862   8.497  20.816  1.00  0.00     0.000 C 
BRANCH  12  13
ATOM     13  C   UNL     1       8.516   8.008  19.515  1.00  0.00    -0.000 C 
BRANCH  13  14
ATOM     14  C   UNL     1       7.503   7.396  18.533  1.00  0.00    -0.000 C 
BRANCH  14  15
ATOM     15  C   UNL     1       7.550   8.060  17.147  1.00  0.00    -0.000 C 
BRANCH  15  16
ATOM     16  C   UNL     1       6.169   8.551  16.683  1.00  0.00    -0.000 C 
BRANCH  16  17
ATOM     17  C   UNL     1       5.414   9.323  17.779  1.00  0.00    -0.000 C 
BRANCH  17  18
ATOM     18  C   UNL     1       6.084  10.662  18.137  1.00  0.00    -0.000 C 
BRANCH  18  19
ATOM     19  C   UNL     1       5.559  11.321  19.424  1.00  0.00    -0.003 C 
ATOM     20  C   UNL     1       4.799  10.349  20.326  1.00  0.00     0.004 C 
ENDBRANCH  18  19
ENDBRANCH  17  18
ENDBRANCH  16  17
ENDBRANCH  15  16
ENDBRANCH  14  15
ENDBRANCH  13  14
ENDBRANCH  12  13
ENDBRANCH   1  12
TORSDOF 16
ENDMDL
