MODEL 1
REMARK VINA RESULT:    -7.789      0.000      0.000
REMARK INTER + INTRA:          -9.878
REMARK INTER:                  -9.610
REMARK INTRA:                  -0.268
REMARK UNBOUND:                -0.268
REMARK SMILES Oc1cc(O)c2cc(O)c(-c3cc(O)c(O)c(O)c3)[o+]c2c1
REMARK SMILES IDX 10 1 20 2 21 3 22 4 2 5 3 6 4 7 6 8 7 9 8 10 11 11 12 12
REMARK SMILES IDX 13 13 19 14 15 15 17 16 14 17 16 19 18 21 9 23 1 25 5 27
REMARK H PARENT 14 18 16 20 18 22 9 24 1 26 5 28
REMARK Flexibility Score: inf
ROOT
ATOM      1  C   UNL     1     -13.161 -15.650  32.564  1.00  0.00     0.402 A 
ATOM      2  O   UNL     1     -12.173 -15.744  33.450  1.00  0.00    -0.202 OA
ATOM      3  C   UNL     1     -12.129 -15.033  34.571  1.00  0.00     0.368 A 
ATOM      4  C   UNL     1     -11.046 -15.199  35.439  1.00  0.00     0.162 A 
ATOM      5  C   UNL     1     -10.972 -14.461  36.625  1.00  0.00     0.128 A 
ATOM      6  C   UNL     1     -11.984 -13.554  36.942  1.00  0.00     0.093 A 
ATOM      7  C   UNL     1     -13.080 -13.369  36.090  1.00  0.00     0.136 A 
ATOM      8  C   UNL     1     -13.161 -14.117  34.887  1.00  0.00     0.125 A 
ATOM      9  C   UNL     1     -14.227 -14.007  33.979  1.00  0.00     0.078 A 
ATOM     10  C   UNL     1     -14.240 -14.781  32.815  1.00  0.00     0.223 A 
ENDROOT
BRANCH   1  11
ATOM     11  C   UNL     1     -13.092 -16.489  31.345  1.00  0.00     0.091 A 
ATOM     12  C   UNL     1     -12.951 -15.917  30.070  1.00  0.00     0.068 A 
ATOM     13  C   UNL     1     -12.864 -16.729  28.931  1.00  0.00     0.162 A 
ATOM     14  C   UNL     1     -13.111 -17.886  31.469  1.00  0.00     0.068 A 
ATOM     15  C   UNL     1     -12.907 -18.128  29.062  1.00  0.00     0.200 A 
ATOM     16  C   UNL     1     -13.027 -18.704  30.338  1.00  0.00     0.162 A 
BRANCH  13  17
ATOM     17  O   UNL     1     -12.730 -16.151  27.670  1.00  0.00    -0.504 OA
ATOM     18  H   UNL     1     -12.426 -15.190  27.554  1.00  0.00     0.293 HD
ENDBRANCH  13  17
BRANCH  15  19
ATOM     19  O   UNL     1     -12.827 -18.951  27.938  1.00  0.00    -0.502 OA
ATOM     20  H   UNL     1     -13.465 -19.723  27.787  1.00  0.00     0.293 HD
ENDBRANCH  15  19
BRANCH  16  21
ATOM     21  O   UNL     1     -13.064 -20.089  30.501  1.00  0.00    -0.504 OA
ATOM     22  H   UNL     1     -12.224 -20.654  30.503  1.00  0.00     0.293 HD
ENDBRANCH  16  21
ENDBRANCH   1  11
BRANCH  10  23
ATOM     23  O   UNL     1     -15.322 -14.709  31.938  1.00  0.00    -0.500 OA
ATOM     24  H   UNL     1     -15.209 -14.410  30.977  1.00  0.00     0.294 HD
ENDBRANCH  10  23
BRANCH   5  25
ATOM     25  O   UNL     1      -9.896 -14.622  37.494  1.00  0.00    -0.507 OA
ATOM     26  H   UNL     1      -9.016 -14.143  37.344  1.00  0.00     0.293 HD
ENDBRANCH   5  25
BRANCH   7  27
ATOM     27  O   UNL     1     -14.049 -12.439  36.479  1.00  0.00    -0.507 OA
ATOM     28  H   UNL     1     -14.377 -11.681  35.899  1.00  0.00     0.293 HD
ENDBRANCH   7  27
TORSDOF 7
ENDMDL
MODEL 2
REMARK VINA RESULT:    -7.702      0.130      1.795
REMARK INTER + INTRA:          -9.770
REMARK INTER:                  -9.613
REMARK INTRA:                  -0.157
REMARK UNBOUND:                -0.268
REMARK SMILES Oc1cc(O)c2cc(O)c(-c3cc(O)c(O)c(O)c3)[o+]c2c1
REMARK SMILES IDX 10 1 20 2 21 3 22 4 2 5 3 6 4 7 6 8 7 9 8 10 11 11 12 12
REMARK SMILES IDX 13 13 19 14 15 15 17 16 14 17 16 19 18 21 9 23 1 25 5 27
REMARK H PARENT 14 18 16 20 18 22 9 24 1 26 5 28
REMARK Flexibility Score: inf
ROOT
ATOM      1  C   UNL     1     -13.042 -15.714  32.610  1.00  0.00     0.402 A 
ATOM      2  O   UNL     1     -12.071 -15.795  33.517  1.00  0.00    -0.202 OA
ATOM      3  C   UNL     1     -12.050 -15.068  34.629  1.00  0.00     0.368 A 
ATOM      4  C   UNL     1     -10.984 -15.221  35.520  1.00  0.00     0.162 A 
ATOM      5  C   UNL     1     -10.935 -14.467  36.697  1.00  0.00     0.128 A 
ATOM      6  C   UNL     1     -11.955 -13.558  36.983  1.00  0.00     0.093 A 
ATOM      7  C   UNL     1     -13.033 -13.387  36.106  1.00  0.00     0.136 A 
ATOM      8  C   UNL     1     -13.090 -14.151  34.912  1.00  0.00     0.125 A 
ATOM      9  C   UNL     1     -14.138 -14.055  33.982  1.00  0.00     0.078 A 
ATOM     10  C   UNL     1     -14.127 -14.844  32.829  1.00  0.00     0.223 A 
ENDROOT
BRANCH   1  11
ATOM     11  C   UNL     1     -12.948 -16.569  31.404  1.00  0.00     0.091 A 
ATOM     12  C   UNL     1     -12.915 -17.970  31.501  1.00  0.00     0.068 A 
ATOM     13  C   UNL     1     -12.850 -18.762  30.346  1.00  0.00     0.162 A 
ATOM     14  C   UNL     1     -12.951 -15.972  30.135  1.00  0.00     0.068 A 
ATOM     15  C   UNL     1     -12.831 -18.154  29.079  1.00  0.00     0.200 A 
ATOM     16  C   UNL     1     -12.886 -16.754  28.978  1.00  0.00     0.162 A 
BRANCH  13  17
ATOM     17  O   UNL     1     -12.811 -20.151  30.454  1.00  0.00    -0.504 OA
ATOM     18  H   UNL     1     -11.962 -20.676  30.274  1.00  0.00     0.293 HD
ENDBRANCH  13  17
BRANCH  15  19
ATOM     19  O   UNL     1     -12.762 -18.928  27.920  1.00  0.00    -0.502 OA
ATOM     20  H   UNL     1     -13.112 -18.598  27.029  1.00  0.00     0.293 HD
ENDBRANCH  15  19
BRANCH  16  21
ATOM     21  O   UNL     1     -12.876 -16.122  27.734  1.00  0.00    -0.504 OA
ATOM     22  H   UNL     1     -12.481 -16.559  26.911  1.00  0.00     0.293 HD
ENDBRANCH  16  21
ENDBRANCH   1  11
BRANCH  10  23
ATOM     23  O   UNL     1     -15.192 -14.786  31.930  1.00  0.00    -0.500 OA
ATOM     24  H   UNL     1     -16.026 -15.346  32.056  1.00  0.00     0.294 HD
ENDBRANCH  10  23
BRANCH   5  25
ATOM     25  O   UNL     1      -9.875 -14.615  37.589  1.00  0.00    -0.507 OA
ATOM     26  H   UNL     1      -9.540 -13.838  38.147  1.00  0.00     0.293 HD
ENDBRANCH   5  25
BRANCH   7  27
ATOM     27  O   UNL     1     -14.012 -12.454  36.464  1.00  0.00    -0.507 OA
ATOM     28  H   UNL     1     -14.131 -11.554  36.021  1.00  0.00     0.293 HD
ENDBRANCH   7  27
TORSDOF 7
ENDMDL
MODEL 3
REMARK VINA RESULT:    -6.255      1.146      2.586
REMARK INTER + INTRA:          -7.986
REMARK INTER:                  -7.656
REMARK INTRA:                  -0.329
REMARK UNBOUND:                -0.268
REMARK SMILES Oc1cc(O)c2cc(O)c(-c3cc(O)c(O)c(O)c3)[o+]c2c1
REMARK SMILES IDX 10 1 20 2 21 3 22 4 2 5 3 6 4 7 6 8 7 9 8 10 11 11 12 12
REMARK SMILES IDX 13 13 19 14 15 15 17 16 14 17 16 19 18 21 9 23 1 25 5 27
REMARK H PARENT 14 18 16 20 18 22 9 24 1 26 5 28
REMARK Flexibility Score: inf
ROOT
ATOM      1  C   UNL     1     -12.134 -16.319  32.419  1.00  0.00     0.402 A 
ATOM      2  O   UNL     1     -12.996 -15.501  33.016  1.00  0.00    -0.202 OA
ATOM      3  C   UNL     1     -12.695 -14.784  34.093  1.00  0.00     0.368 A 
ATOM      4  C   UNL     1     -13.671 -13.954  34.652  1.00  0.00     0.162 A 
ATOM      5  C   UNL     1     -13.382 -13.191  35.788  1.00  0.00     0.128 A 
ATOM      6  C   UNL     1     -12.113 -13.258  36.366  1.00  0.00     0.093 A 
ATOM      7  C   UNL     1     -11.118 -14.082  35.825  1.00  0.00     0.136 A 
ATOM      8  C   UNL     1     -11.405 -14.856  34.672  1.00  0.00     0.125 A 
ATOM      9  C   UNL     1     -10.467 -15.699  34.054  1.00  0.00     0.078 A 
ATOM     10  C   UNL     1     -10.821 -16.429  32.916  1.00  0.00     0.223 A 
ENDROOT
BRANCH   1  11
ATOM     11  C   UNL     1     -12.592 -17.074  31.230  1.00  0.00     0.091 A 
ATOM     12  C   UNL     1     -12.692 -16.462  29.969  1.00  0.00     0.068 A 
ATOM     13  C   UNL     1     -13.105 -17.200  28.851  1.00  0.00     0.162 A 
ATOM     14  C   UNL     1     -12.875 -18.443  31.349  1.00  0.00     0.068 A 
ATOM     15  C   UNL     1     -13.409 -18.566  28.985  1.00  0.00     0.200 A 
ATOM     16  C   UNL     1     -13.289 -19.186  30.240  1.00  0.00     0.162 A 
BRANCH  13  17
ATOM     17  O   UNL     1     -13.207 -16.581  27.606  1.00  0.00    -0.504 OA
ATOM     18  H   UNL     1     -14.066 -16.610  27.066  1.00  0.00     0.293 HD
ENDBRANCH  13  17
BRANCH  15  19
ATOM     19  O   UNL     1     -13.825 -19.313  27.882  1.00  0.00    -0.502 OA
ATOM     20  H   UNL     1     -13.327 -19.298  27.000  1.00  0.00     0.293 HD
ENDBRANCH  15  19
BRANCH  16  21
ATOM     21  O   UNL     1     -13.576 -20.541  30.402  1.00  0.00    -0.504 OA
ATOM     22  H   UNL     1     -14.116 -20.888  31.185  1.00  0.00     0.293 HD
ENDBRANCH  16  21
ENDBRANCH   1  11
BRANCH  10  23
ATOM     23  O   UNL     1      -9.875 -17.228  32.273  1.00  0.00    -0.500 OA
ATOM     24  H   UNL     1      -9.122 -17.674  32.782  1.00  0.00     0.294 HD
ENDBRANCH  10  23
BRANCH   5  25
ATOM     25  O   UNL     1     -14.350 -12.361  36.349  1.00  0.00    -0.507 OA
ATOM     26  H   UNL     1     -14.357 -12.150  37.340  1.00  0.00     0.293 HD
ENDBRANCH   5  25
BRANCH   7  27
ATOM     27  O   UNL     1      -9.875 -14.095  36.466  1.00  0.00    -0.507 OA
ATOM     28  H   UNL     1      -9.203 -13.343  36.423  1.00  0.00     0.293 HD
ENDBRANCH   7  27
TORSDOF 7
ENDMDL
MODEL 4
REMARK VINA RESULT:    -5.725      1.168      3.155
REMARK INTER + INTRA:          -7.331
REMARK INTER:                  -6.989
REMARK INTRA:                  -0.343
REMARK UNBOUND:                -0.268
REMARK SMILES Oc1cc(O)c2cc(O)c(-c3cc(O)c(O)c(O)c3)[o+]c2c1
REMARK SMILES IDX 10 1 20 2 21 3 22 4 2 5 3 6 4 7 6 8 7 9 8 10 11 11 12 12
REMARK SMILES IDX 13 13 19 14 15 15 17 16 14 17 16 19 18 21 9 23 1 25 5 27
REMARK H PARENT 14 18 16 20 18 22 9 24 1 26 5 28
REMARK Flexibility Score: inf
ROOT
ATOM      1  C   UNL     1     -12.101 -16.299  32.264  1.00  0.00     0.402 A 
ATOM      2  O   UNL     1     -12.948 -15.478  32.879  1.00  0.00    -0.202 OA
ATOM      3  C   UNL     1     -12.650 -14.828  34.000  1.00  0.00     0.368 A 
ATOM      4  C   UNL     1     -13.609 -13.989  34.574  1.00  0.00     0.162 A 
ATOM      5  C   UNL     1     -13.324 -13.296  35.754  1.00  0.00     0.128 A 
ATOM      6  C   UNL     1     -12.076 -13.444  36.363  1.00  0.00     0.093 A 
ATOM      7  C   UNL     1     -11.098 -14.278  35.807  1.00  0.00     0.136 A 
ATOM      8  C   UNL     1     -11.381 -14.982  34.608  1.00  0.00     0.125 A 
ATOM      9  C   UNL     1     -10.459 -15.830  33.973  1.00  0.00     0.078 A 
ATOM     10  C   UNL     1     -10.808 -16.487  32.791  1.00  0.00     0.223 A 
ENDROOT
BRANCH   1  11
ATOM     11  C   UNL     1     -12.552 -16.974  31.026  1.00  0.00     0.091 A 
ATOM     12  C   UNL     1     -12.907 -18.333  31.021  1.00  0.00     0.068 A 
ATOM     13  C   UNL     1     -13.355 -18.947  29.843  1.00  0.00     0.162 A 
ATOM     14  C   UNL     1     -12.685 -16.229  29.845  1.00  0.00     0.068 A 
ATOM     15  C   UNL     1     -13.463 -18.199  28.659  1.00  0.00     0.200 A 
ATOM     16  C   UNL     1     -13.129 -16.834  28.665  1.00  0.00     0.162 A 
BRANCH  13  17
ATOM     17  O   UNL     1     -13.698 -20.299  29.848  1.00  0.00    -0.504 OA
ATOM     18  H   UNL     1     -14.511 -20.640  30.349  1.00  0.00     0.293 HD
ENDBRANCH  13  17
BRANCH  15  19
ATOM     19  O   UNL     1     -13.902 -18.797  27.477  1.00  0.00    -0.502 OA
ATOM     20  H   UNL     1     -14.674 -18.424  26.937  1.00  0.00     0.293 HD
ENDBRANCH  15  19
BRANCH  16  21
ATOM     21  O   UNL     1     -13.233 -16.063  27.507  1.00  0.00    -0.504 OA
ATOM     22  H   UNL     1     -12.465 -15.501  27.163  1.00  0.00     0.293 HD
ENDBRANCH  16  21
ENDBRANCH   1  11
BRANCH  10  23
ATOM     23  O   UNL     1      -9.876 -17.290  32.133  1.00  0.00    -0.500 OA
ATOM     24  H   UNL     1      -9.201 -16.900  31.487  1.00  0.00     0.294 HD
ENDBRANCH  10  23
BRANCH   5  25
ATOM     25  O   UNL     1     -14.275 -12.458  36.332  1.00  0.00    -0.507 OA
ATOM     26  H   UNL     1     -14.122 -11.460  36.413  1.00  0.00     0.293 HD
ENDBRANCH   5  25
BRANCH   7  27
ATOM     27  O   UNL     1      -9.876 -14.374  36.480  1.00  0.00    -0.507 OA
ATOM     28  H   UNL     1      -9.114 -14.972  36.196  1.00  0.00     0.293 HD
ENDBRANCH   7  27
TORSDOF 7
ENDMDL
MODEL 5
REMARK VINA RESULT:    -5.549      1.469      7.042
REMARK INTER + INTRA:          -7.114
REMARK INTER:                  -6.924
REMARK INTRA:                  -0.190
REMARK UNBOUND:                -0.268
REMARK SMILES Oc1cc(O)c2cc(O)c(-c3cc(O)c(O)c(O)c3)[o+]c2c1
REMARK SMILES IDX 10 1 20 2 21 3 22 4 2 5 3 6 4 7 6 8 7 9 8 10 11 11 12 12
REMARK SMILES IDX 13 13 19 14 15 15 17 16 14 17 16 19 18 21 9 23 1 25 5 27
REMARK H PARENT 14 18 16 20 18 22 9 24 1 26 5 28
REMARK Flexibility Score: inf
ROOT
ATOM      1  C   UNL     1     -12.678 -15.965  32.582  1.00  0.00     0.402 A 
ATOM      2  O   UNL     1     -11.837 -15.815  31.562  1.00  0.00    -0.202 OA
ATOM      3  C   UNL     1     -11.946 -16.488  30.422  1.00  0.00     0.368 A 
ATOM      4  C   UNL     1     -11.010 -16.263  29.408  1.00  0.00     0.162 A 
ATOM      5  C   UNL     1     -11.099 -16.960  28.199  1.00  0.00     0.128 A 
ATOM      6  C   UNL     1     -12.126 -17.885  28.004  1.00  0.00     0.093 A 
ATOM      7  C   UNL     1     -13.076 -18.128  29.004  1.00  0.00     0.136 A 
ATOM      8  C   UNL     1     -12.992 -17.422  30.231  1.00  0.00     0.125 A 
ATOM      9  C   UNL     1     -13.906 -17.591  31.284  1.00  0.00     0.078 A 
ATOM     10  C   UNL     1     -13.762 -16.856  32.464  1.00  0.00     0.223 A 
ENDROOT
BRANCH   1  11
ATOM     11  C   UNL     1     -12.446 -15.165  33.806  1.00  0.00     0.091 A 
ATOM     12  C   UNL     1     -13.392 -14.230  34.259  1.00  0.00     0.068 A 
ATOM     13  C   UNL     1     -13.165 -13.499  35.434  1.00  0.00     0.162 A 
ATOM     14  C   UNL     1     -11.286 -15.384  34.564  1.00  0.00     0.068 A 
ATOM     15  C   UNL     1     -11.989 -13.709  36.173  1.00  0.00     0.200 A 
ATOM     16  C   UNL     1     -11.050 -14.658  35.735  1.00  0.00     0.162 A 
BRANCH  13  17
ATOM     17  O   UNL     1     -14.108 -12.569  35.870  1.00  0.00    -0.504 OA
ATOM     18  H   UNL     1     -14.083 -12.187  36.809  1.00  0.00     0.293 HD
ENDBRANCH  13  17
BRANCH  15  19
ATOM     19  O   UNL     1     -11.745 -12.986  37.342  1.00  0.00    -0.502 OA
ATOM     20  H   UNL     1     -11.320 -13.407  38.159  1.00  0.00     0.293 HD
ENDBRANCH  15  19
BRANCH  16  21
ATOM     21  O   UNL     1      -9.878 -14.894  36.452  1.00  0.00    -0.504 OA
ATOM     22  H   UNL     1      -9.842 -14.834  37.462  1.00  0.00     0.293 HD
ENDBRANCH  16  21
ENDBRANCH   1  11
BRANCH  10  23
ATOM     23  O   UNL     1     -14.698 -16.988  33.490  1.00  0.00    -0.500 OA
ATOM     24  H   UNL     1     -15.608 -17.401  33.330  1.00  0.00     0.294 HD
ENDBRANCH  10  23
BRANCH   5  25
ATOM     25  O   UNL     1     -10.170 -16.740  27.185  1.00  0.00    -0.507 OA
ATOM     26  H   UNL     1      -9.407 -17.385  27.016  1.00  0.00     0.293 HD
ENDBRANCH   5  25
BRANCH   7  27
ATOM     27  O   UNL     1     -14.070 -19.072  28.731  1.00  0.00    -0.507 OA
ATOM     28  H   UNL     1     -15.031 -18.992  29.030  1.00  0.00     0.293 HD
ENDBRANCH   7  27
TORSDOF 7
ENDMDL
MODEL 6
REMARK VINA RESULT:    -5.441      1.494      7.124
REMARK INTER + INTRA:          -6.981
REMARK INTER:                  -6.811
REMARK INTRA:                  -0.170
REMARK UNBOUND:                -0.268
REMARK SMILES Oc1cc(O)c2cc(O)c(-c3cc(O)c(O)c(O)c3)[o+]c2c1
REMARK SMILES IDX 10 1 20 2 21 3 22 4 2 5 3 6 4 7 6 8 7 9 8 10 11 11 12 12
REMARK SMILES IDX 13 13 19 14 15 15 17 16 14 17 16 19 18 21 9 23 1 25 5 27
REMARK H PARENT 14 18 16 20 18 22 9 24 1 26 5 28
REMARK Flexibility Score: inf
ROOT
ATOM      1  C   UNL     1     -12.616 -15.989  32.628  1.00  0.00     0.402 A 
ATOM      2  O   UNL     1     -11.735 -15.867  31.638  1.00  0.00    -0.202 OA
ATOM      3  C   UNL     1     -11.833 -16.527  30.489  1.00  0.00     0.368 A 
ATOM      4  C   UNL     1     -10.854 -16.335  29.510  1.00  0.00     0.162 A 
ATOM      5  C   UNL     1     -10.930 -17.020  28.293  1.00  0.00     0.128 A 
ATOM      6  C   UNL     1     -11.988 -17.899  28.055  1.00  0.00     0.093 A 
ATOM      7  C   UNL     1     -12.981 -18.109  29.020  1.00  0.00     0.136 A 
ATOM      8  C   UNL     1     -12.910 -17.415  30.255  1.00  0.00     0.125 A 
ATOM      9  C   UNL     1     -13.866 -17.553  31.275  1.00  0.00     0.078 A 
ATOM     10  C   UNL     1     -13.732 -16.832  32.465  1.00  0.00     0.223 A 
ENDROOT
BRANCH   1  11
ATOM     11  C   UNL     1     -12.394 -15.207  33.866  1.00  0.00     0.091 A 
ATOM     12  C   UNL     1     -11.233 -15.374  34.638  1.00  0.00     0.068 A 
ATOM     13  C   UNL     1     -11.030 -14.607  35.794  1.00  0.00     0.162 A 
ATOM     14  C   UNL     1     -13.333 -14.237  34.246  1.00  0.00     0.068 A 
ATOM     15  C   UNL     1     -11.988 -13.654  36.180  1.00  0.00     0.200 A 
ATOM     16  C   UNL     1     -13.140 -13.469  35.398  1.00  0.00     0.162 A 
BRANCH  13  17
ATOM     17  O   UNL     1      -9.877 -14.786  36.557  1.00  0.00    -0.504 OA
ATOM     18  H   UNL     1      -8.984 -15.004  36.128  1.00  0.00     0.293 HD
ENDBRANCH  13  17
BRANCH  15  19
ATOM     19  O   UNL     1     -11.803 -12.886  37.331  1.00  0.00    -0.502 OA
ATOM     20  H   UNL     1     -10.945 -12.917  37.869  1.00  0.00     0.293 HD
ENDBRANCH  15  19
BRANCH  16  21
ATOM     21  O   UNL     1     -14.105 -12.526  35.751  1.00  0.00    -0.504 OA
ATOM     22  H   UNL     1     -13.968 -11.873  36.513  1.00  0.00     0.293 HD
ENDBRANCH  16  21
ENDBRANCH   1  11
BRANCH  10  23
ATOM     23  O   UNL     1     -14.707 -16.931  33.458  1.00  0.00    -0.500 OA
ATOM     24  H   UNL     1     -14.933 -17.816  33.895  1.00  0.00     0.294 HD
ENDBRANCH  10  23
BRANCH   5  25
ATOM     25  O   UNL     1      -9.958 -16.832  27.313  1.00  0.00    -0.507 OA
ATOM     26  H   UNL     1      -9.222 -16.145  27.421  1.00  0.00     0.293 HD
ENDBRANCH   5  25
BRANCH   7  27
ATOM     27  O   UNL     1     -14.004 -19.008  28.706  1.00  0.00    -0.507 OA
ATOM     28  H   UNL     1     -14.565 -19.495  29.389  1.00  0.00     0.293 HD
ENDBRANCH   7  27
TORSDOF 7
ENDMDL
MODEL 7
REMARK VINA RESULT:    -5.240      1.595      7.387
REMARK INTER + INTRA:          -6.733
REMARK INTER:                  -6.832
REMARK INTRA:                   0.099
REMARK UNBOUND:                -0.268
REMARK SMILES Oc1cc(O)c2cc(O)c(-c3cc(O)c(O)c(O)c3)[o+]c2c1
REMARK SMILES IDX 10 1 20 2 21 3 22 4 2 5 3 6 4 7 6 8 7 9 8 10 11 11 12 12
REMARK SMILES IDX 13 13 19 14 15 15 17 16 14 17 16 19 18 21 9 23 1 25 5 27
REMARK H PARENT 14 18 16 20 18 22 9 24 1 26 5 28
REMARK Flexibility Score: inf
ROOT
ATOM      1  C   UNL     1     -12.402 -15.965  31.961  1.00  0.00     0.402 A 
ATOM      2  O   UNL     1     -13.003 -15.221  31.035  1.00  0.00    -0.202 OA
ATOM      3  C   UNL     1     -13.177 -15.620  29.780  1.00  0.00     0.368 A 
ATOM      4  C   UNL     1     -13.818 -14.765  28.878  1.00  0.00     0.162 A 
ATOM      5  C   UNL     1     -14.012 -15.158  27.550  1.00  0.00     0.128 A 
ATOM      6  C   UNL     1     -13.562 -16.408  27.123  1.00  0.00     0.093 A 
ATOM      7  C   UNL     1     -12.918 -17.283  28.006  1.00  0.00     0.136 A 
ATOM      8  C   UNL     1     -12.721 -16.891  29.355  1.00  0.00     0.125 A 
ATOM      9  C   UNL     1     -12.097 -17.706  30.314  1.00  0.00     0.078 A 
ATOM     10  C   UNL     1     -11.942 -17.253  31.627  1.00  0.00     0.223 A 
ENDROOT
BRANCH   1  11
ATOM     11  C   UNL     1     -12.258 -15.406  33.325  1.00  0.00     0.091 A 
ATOM     12  C   UNL     1     -11.127 -15.679  34.112  1.00  0.00     0.068 A 
ATOM     13  C   UNL     1     -10.999 -15.121  35.392  1.00  0.00     0.162 A 
ATOM     14  C   UNL     1     -13.243 -14.540  33.822  1.00  0.00     0.068 A 
ATOM     15  C   UNL     1     -12.002 -14.273  35.890  1.00  0.00     0.200 A 
ATOM     16  C   UNL     1     -13.125 -13.980  35.098  1.00  0.00     0.162 A 
BRANCH  13  17
ATOM     17  O   UNL     1      -9.875 -15.404  36.167  1.00  0.00    -0.504 OA
ATOM     18  H   UNL     1      -9.262 -16.182  35.950  1.00  0.00     0.293 HD
ENDBRANCH  13  17
BRANCH  15  19
ATOM     19  O   UNL     1     -11.892 -13.713  37.164  1.00  0.00    -0.502 OA
ATOM     20  H   UNL     1     -12.337 -12.838  37.410  1.00  0.00     0.293 HD
ENDBRANCH  15  19
BRANCH  16  21
ATOM     21  O   UNL     1     -14.132 -13.135  35.562  1.00  0.00    -0.504 OA
ATOM     22  H   UNL     1     -14.422 -12.311  35.052  1.00  0.00     0.293 HD
ENDBRANCH  16  21
ENDBRANCH   1  11
BRANCH  10  23
ATOM     23  O   UNL     1     -11.368 -18.082  32.591  1.00  0.00    -0.500 OA
ATOM     24  H   UNL     1     -11.318 -17.810  33.565  1.00  0.00     0.294 HD
ENDBRANCH  10  23
BRANCH   5  25
ATOM     25  O   UNL     1     -14.650 -14.311  26.647  1.00  0.00    -0.507 OA
ATOM     26  H   UNL     1     -15.657 -14.311  26.541  1.00  0.00     0.293 HD
ENDBRANCH   5  25
BRANCH   7  27
ATOM     27  O   UNL     1     -12.496 -18.515  27.499  1.00  0.00    -0.507 OA
ATOM     28  H   UNL     1     -11.585 -18.685  27.098  1.00  0.00     0.293 HD
ENDBRANCH   7  27
TORSDOF 7
ENDMDL
MODEL 8
REMARK VINA RESULT:    -5.089      1.527      7.348
REMARK INTER + INTRA:          -6.546
REMARK INTER:                  -6.214
REMARK INTRA:                  -0.333
REMARK UNBOUND:                -0.268
REMARK SMILES Oc1cc(O)c2cc(O)c(-c3cc(O)c(O)c(O)c3)[o+]c2c1
REMARK SMILES IDX 10 1 20 2 21 3 22 4 2 5 3 6 4 7 6 8 7 9 8 10 11 11 12 12
REMARK SMILES IDX 13 13 19 14 15 15 17 16 14 17 16 19 18 21 9 23 1 25 5 27
REMARK H PARENT 14 18 16 20 18 22 9 24 1 26 5 28
REMARK Flexibility Score: inf
ROOT
ATOM      1  C   UNL     1     -11.648 -15.852  32.893  1.00  0.00     0.402 A 
ATOM      2  O   UNL     1     -12.423 -16.899  32.625  1.00  0.00    -0.202 OA
ATOM      3  C   UNL     1     -12.419 -17.530  31.456  1.00  0.00     0.368 A 
ATOM      4  C   UNL     1     -13.275 -18.620  31.269  1.00  0.00     0.162 A 
ATOM      5  C   UNL     1     -13.293 -19.300  30.047  1.00  0.00     0.128 A 
ATOM      6  C   UNL     1     -12.455 -18.889  29.010  1.00  0.00     0.093 A 
ATOM      7  C   UNL     1     -11.589 -17.800  29.172  1.00  0.00     0.136 A 
ATOM      8  C   UNL     1     -11.564 -17.108  30.410  1.00  0.00     0.125 A 
ATOM      9  C   UNL     1     -10.720 -16.015  30.667  1.00  0.00     0.078 A 
ATOM     10  C   UNL     1     -10.748 -15.385  31.915  1.00  0.00     0.223 A 
ENDROOT
BRANCH   1  11
ATOM     11  C   UNL     1     -11.750 -15.226  34.231  1.00  0.00     0.091 A 
ATOM     12  C   UNL     1     -10.787 -15.464  35.225  1.00  0.00     0.068 A 
ATOM     13  C   UNL     1     -10.889 -14.843  36.478  1.00  0.00     0.162 A 
ATOM     14  C   UNL     1     -12.798 -14.332  34.495  1.00  0.00     0.068 A 
ATOM     15  C   UNL     1     -11.955 -13.967  36.742  1.00  0.00     0.200 A 
ATOM     16  C   UNL     1     -12.909 -13.710  35.742  1.00  0.00     0.162 A 
BRANCH  13  17
ATOM     17  O   UNL     1      -9.931 -15.092  37.460  1.00  0.00    -0.504 OA
ATOM     18  H   UNL     1      -9.763 -16.026  37.816  1.00  0.00     0.293 HD
ENDBRANCH  13  17
BRANCH  15  19
ATOM     19  O   UNL     1     -12.073 -13.345  37.985  1.00  0.00    -0.502 OA
ATOM     20  H   UNL     1     -11.420 -12.637  38.300  1.00  0.00     0.293 HD
ENDBRANCH  15  19
BRANCH  16  21
ATOM     21  O   UNL     1     -13.973 -12.838  35.971  1.00  0.00    -0.504 OA
ATOM     22  H   UNL     1     -14.558 -12.906  36.795  1.00  0.00     0.293 HD
ENDBRANCH  16  21
ENDBRANCH   1  11
BRANCH  10  23
ATOM     23  O   UNL     1      -9.876 -14.331  32.187  1.00  0.00    -0.500 OA
ATOM     24  H   UNL     1      -8.976 -14.486  32.625  1.00  0.00     0.294 HD
ENDBRANCH  10  23
BRANCH   5  25
ATOM     25  O   UNL     1     -14.143 -20.387  29.854  1.00  0.00    -0.507 OA
ATOM     26  H   UNL     1     -15.125 -20.261  29.641  1.00  0.00     0.293 HD
ENDBRANCH   5  25
BRANCH   7  27
ATOM     27  O   UNL     1     -10.784 -17.450  28.084  1.00  0.00    -0.507 OA
ATOM     28  H   UNL     1     -10.681 -16.510  27.729  1.00  0.00     0.293 HD
ENDBRANCH   7  27
TORSDOF 7
ENDMDL
