MODEL 1
REMARK VINA RESULT:    -5.078      0.000      0.000
REMARK INTER + INTRA:         -15.582
REMARK INTER:                 -11.610
REMARK INTRA:                  -3.972
REMARK UNBOUND:                -3.972
REMARK SMILES CCCCCCCCCCCCCCCCCCCCCCCC(=O)[O-]
REMARK SMILES IDX 13 1 14 2 15 3 16 4 17 5 18 6 19 7 20 8 21 9 22 10 23 11
REMARK SMILES IDX 24 12 25 13 26 14 12 15 11 16 10 17 9 18 8 19 7 20 6 21 5 22
REMARK SMILES IDX 4 23 3 24 2 25 1 26
REMARK H PARENT
REMARK Flexibility Score: inf
ROOT
ATOM      1  C   UNL     1      11.458 -13.773  36.829  1.00  0.00     0.000 C 
ENDROOT
BRANCH   1   2
ATOM      2  C   UNL     1      10.637 -15.033  36.503  1.00  0.00     0.000 C 
BRANCH   2   3
ATOM      3  C   UNL     1      10.399 -15.916  37.739  1.00  0.00     0.000 C 
BRANCH   3   4
ATOM      4  C   UNL     1       9.615 -15.183  38.841  1.00  0.00     0.000 C 
BRANCH   4   5
ATOM      5  C   UNL     1       8.179 -14.823  38.400  1.00  0.00     0.000 C 
BRANCH   5   6
ATOM      6  C   UNL     1       7.654 -13.512  39.014  1.00  0.00     0.000 C 
BRANCH   6   7
ATOM      7  C   UNL     1       8.581 -12.296  38.829  1.00  0.00     0.000 C 
BRANCH   7   8
ATOM      8  C   UNL     1       8.869 -11.909  37.364  1.00  0.00     0.000 C 
BRANCH   8   9
ATOM      9  C   UNL     1       7.796 -11.030  36.695  1.00  0.00     0.000 C 
BRANCH   9  10
ATOM     10  C   UNL     1       6.872 -11.822  35.755  1.00  0.00     0.006 C 
BRANCH  10  11
ATOM     11  C   UNL     1       7.512 -13.135  35.285  1.00  0.00     0.053 C 
BRANCH  11  12
ATOM     12  C   UNL     1       7.986 -13.045  33.866  1.00  0.00     0.041 C 
ATOM     13  O   UNL     1       7.645 -13.920  33.027  1.00  0.00    -0.550 OA
ATOM     14  O   UNL     1       8.783 -11.982  33.465  1.00  0.00    -0.550 OA
ENDBRANCH  11  12
ENDBRANCH  10  11
ENDBRANCH   9  10
ENDBRANCH   8   9
ENDBRANCH   7   8
ENDBRANCH   6   7
ENDBRANCH   5   6
ENDBRANCH   4   5
ENDBRANCH   3   4
ENDBRANCH   2   3
ENDBRANCH   1   2
BRANCH   1  15
ATOM     15  C   UNL     1      12.846 -14.115  37.410  1.00  0.00     0.000 C 
BRANCH  15  16
ATOM     16  C   UNL     1      14.006 -13.799  36.451  1.00  0.00     0.000 C 
BRANCH  16  17
ATOM     17  C   UNL     1      13.536 -13.134  35.145  1.00  0.00     0.000 C 
BRANCH  17  18
ATOM     18  C   UNL     1      14.326 -11.858  34.813  1.00  0.00    -0.000 C 
BRANCH  18  19
ATOM     19  C   UNL     1      13.410 -10.680  34.437  1.00  0.00    -0.000 C 
BRANCH  19  20
ATOM     20  C   UNL     1      11.921 -11.063  34.448  1.00  0.00    -0.000 C 
BRANCH  20  21
ATOM     21  C   UNL     1      11.063 -10.086  35.268  1.00  0.00    -0.000 C 
BRANCH  21  22
ATOM     22  C   UNL     1      11.891  -8.961  35.911  1.00  0.00    -0.000 C 
BRANCH  22  23
ATOM     23  C   UNL     1      11.908  -9.006  37.454  1.00  0.00    -0.000 C 
BRANCH  23  24
ATOM     24  C   UNL     1      12.635 -10.250  37.990  1.00  0.00    -0.000 C 
BRANCH  24  25
ATOM     25  C   UNL     1      12.281 -10.504  39.460  1.00  0.00    -0.003 C 
ATOM     26  C   UNL     1      13.524 -10.448  40.344  1.00  0.00     0.004 C 
ENDBRANCH  24  25
ENDBRANCH  23  24
ENDBRANCH  22  23
ENDBRANCH  21  22
ENDBRANCH  20  21
ENDBRANCH  19  20
ENDBRANCH  18  19
ENDBRANCH  17  18
ENDBRANCH  16  17
ENDBRANCH  15  16
ENDBRANCH   1  15
TORSDOF 22
ENDMDL
MODEL 2
REMARK VINA RESULT:    -5.012      2.194      6.197
REMARK INTER + INTRA:         -15.431
REMARK INTER:                 -11.882
REMARK INTRA:                  -3.549
REMARK UNBOUND:                -3.972
REMARK SMILES CCCCCCCCCCCCCCCCCCCCCCCC(=O)[O-]
REMARK SMILES IDX 13 1 14 2 15 3 16 4 17 5 18 6 19 7 20 8 21 9 22 10 23 11
REMARK SMILES IDX 24 12 25 13 26 14 12 15 11 16 10 17 9 18 8 19 7 20 6 21 5 22
REMARK SMILES IDX 4 23 3 24 2 25 1 26
REMARK H PARENT
REMARK Flexibility Score: inf
ROOT
ATOM      1  C   UNL     1      11.118 -13.632  36.510  1.00  0.00     0.000 C 
ENDROOT
BRANCH   1   2
ATOM      2  C   UNL     1      12.381 -13.724  37.384  1.00  0.00     0.000 C 
BRANCH   2   3
ATOM      3  C   UNL     1      13.661 -13.904  36.551  1.00  0.00     0.000 C 
BRANCH   3   4
ATOM      4  C   UNL     1      13.504 -13.380  35.113  1.00  0.00     0.000 C 
BRANCH   4   5
ATOM      5  C   UNL     1      14.578 -12.331  34.749  1.00  0.00     0.000 C 
BRANCH   5   6
ATOM      6  C   UNL     1      14.039 -10.890  34.688  1.00  0.00     0.000 C 
BRANCH   6   7
ATOM      7  C   UNL     1      12.573 -10.767  34.235  1.00  0.00     0.000 C 
BRANCH   7   8
ATOM      8  C   UNL     1      11.543 -10.648  35.378  1.00  0.00     0.000 C 
BRANCH   8   9
ATOM      9  C   UNL     1      11.297  -9.218  35.893  1.00  0.00     0.000 C 
BRANCH   9  10
ATOM     10  C   UNL     1      12.100  -8.893  37.165  1.00  0.00     0.006 C 
BRANCH  10  11
ATOM     11  C   UNL     1      12.775 -10.137  37.757  1.00  0.00     0.053 C 
BRANCH  11  12
ATOM     12  C   UNL     1      12.411 -10.335  39.198  1.00  0.00     0.041 C 
ATOM     13  O   UNL     1      11.212 -10.532  39.528  1.00  0.00    -0.550 OA
ATOM     14  O   UNL     1      13.400 -10.328  40.171  1.00  0.00    -0.550 OA
ENDBRANCH  11  12
ENDBRANCH  10  11
ENDBRANCH   9  10
ENDBRANCH   8   9
ENDBRANCH   7   8
ENDBRANCH   6   7
ENDBRANCH   5   6
ENDBRANCH   4   5
ENDBRANCH   3   4
ENDBRANCH   2   3
ENDBRANCH   1   2
BRANCH   1  15
ATOM     15  C   UNL     1      10.424 -15.001  36.343  1.00  0.00     0.000 C 
BRANCH  15  16
ATOM     16  C   UNL     1      10.868 -16.043  37.384  1.00  0.00     0.000 C 
BRANCH  16  17
ATOM     17  C   UNL     1       9.825 -16.259  38.494  1.00  0.00     0.000 C 
BRANCH  17  18
ATOM     18  C   UNL     1       9.276 -14.937  39.055  1.00  0.00    -0.000 C 
BRANCH  18  19
ATOM     19  C   UNL     1       7.751 -14.816  38.889  1.00  0.00    -0.000 C 
BRANCH  19  20
ATOM     20  C   UNL     1       7.340 -13.550  38.118  1.00  0.00    -0.000 C 
BRANCH  20  21
ATOM     21  C   UNL     1       8.222 -12.337  38.456  1.00  0.00    -0.000 C 
BRANCH  21  22
ATOM     22  C   UNL     1       8.497 -11.441  37.236  1.00  0.00    -0.000 C 
BRANCH  22  23
ATOM     23  C   UNL     1       7.374 -11.471  36.178  1.00  0.00    -0.000 C 
BRANCH  23  24
ATOM     24  C   UNL     1       7.893 -11.889  34.792  1.00  0.00    -0.000 C 
BRANCH  24  25
ATOM     25  C   UNL     1       7.688 -13.390  34.557  1.00  0.00    -0.003 C 
ATOM     26  C   UNL     1       7.752 -13.729  33.070  1.00  0.00     0.004 C 
ENDBRANCH  24  25
ENDBRANCH  23  24
ENDBRANCH  22  23
ENDBRANCH  21  22
ENDBRANCH  20  21
ENDBRANCH  19  20
ENDBRANCH  18  19
ENDBRANCH  17  18
ENDBRANCH  16  17
ENDBRANCH  15  16
ENDBRANCH   1  15
TORSDOF 22
ENDMDL
MODEL 3
REMARK VINA RESULT:    -4.716      2.415      6.147
REMARK INTER + INTRA:         -14.753
REMARK INTER:                 -11.522
REMARK INTRA:                  -3.231
REMARK UNBOUND:                -3.972
REMARK SMILES CCCCCCCCCCCCCCCCCCCCCCCC(=O)[O-]
REMARK SMILES IDX 13 1 14 2 15 3 16 4 17 5 18 6 19 7 20 8 21 9 22 10 23 11
REMARK SMILES IDX 24 12 25 13 26 14 12 15 11 16 10 17 9 18 8 19 7 20 6 21 5 22
REMARK SMILES IDX 4 23 3 24 2 25 1 26
REMARK H PARENT
REMARK Flexibility Score: inf
ROOT
ATOM      1  C   UNL     1      13.528 -13.711  36.885  1.00  0.00     0.000 C 
ENDROOT
BRANCH   1   2
ATOM      2  C   UNL     1      13.222 -13.315  35.430  1.00  0.00     0.000 C 
BRANCH   2   3
ATOM      3  C   UNL     1      14.459 -12.776  34.694  1.00  0.00     0.000 C 
BRANCH   3   4
ATOM      4  C   UNL     1      14.316 -11.292  34.314  1.00  0.00     0.000 C 
BRANCH   4   5
ATOM      5  C   UNL     1      12.881 -10.764  34.536  1.00  0.00     0.000 C 
BRANCH   5   6
ATOM      6  C   UNL     1      12.756  -9.791  35.722  1.00  0.00     0.000 C 
BRANCH   6   7
ATOM      7  C   UNL     1      11.355  -9.183  35.913  1.00  0.00     0.000 C 
BRANCH   7   8
ATOM      8  C   UNL     1      10.289 -10.154  36.464  1.00  0.00     0.000 C 
BRANCH   8   9
ATOM      9  C   UNL     1      10.840 -11.461  37.061  1.00  0.00     0.000 C 
BRANCH   9  10
ATOM     10  C   UNL     1      10.790 -11.487  38.598  1.00  0.00     0.006 C 
BRANCH  10  11
ATOM     11  C   UNL     1      11.429 -10.238  39.219  1.00  0.00     0.053 C 
BRANCH  11  12
ATOM     12  C   UNL     1      12.899 -10.422  39.451  1.00  0.00     0.041 C 
ATOM     13  O   UNL     1      13.363 -10.403  40.621  1.00  0.00    -0.550 OA
ATOM     14  O   UNL     1      13.750 -10.639  38.376  1.00  0.00    -0.550 OA
ENDBRANCH  11  12
ENDBRANCH  10  11
ENDBRANCH   9  10
ENDBRANCH   8   9
ENDBRANCH   7   8
ENDBRANCH   6   7
ENDBRANCH   5   6
ENDBRANCH   4   5
ENDBRANCH   3   4
ENDBRANCH   2   3
ENDBRANCH   1   2
BRANCH   1  15
ATOM     15  C   UNL     1      12.577 -14.813  37.402  1.00  0.00     0.000 C 
BRANCH  15  16
ATOM     16  C   UNL     1      11.485 -15.202  36.391  1.00  0.00     0.000 C 
BRANCH  16  17
ATOM     17  C   UNL     1      10.064 -15.057  36.963  1.00  0.00     0.000 C 
BRANCH  17  18
ATOM     18  C   UNL     1      10.036 -15.114  38.499  1.00  0.00    -0.000 C 
BRANCH  18  19
ATOM     19  C   UNL     1       8.604 -15.165  39.060  1.00  0.00    -0.000 C 
BRANCH  19  20
ATOM     20  C   UNL     1       7.879 -13.813  38.950  1.00  0.00    -0.000 C 
BRANCH  20  21
ATOM     21  C   UNL     1       7.233 -13.597  37.572  1.00  0.00    -0.000 C 
BRANCH  21  22
ATOM     22  C   UNL     1       7.237 -12.122  37.136  1.00  0.00    -0.000 C 
BRANCH  22  23
ATOM     23  C   UNL     1       7.274 -11.927  35.605  1.00  0.00    -0.000 C 
BRANCH  23  24
ATOM     24  C   UNL     1       7.283 -13.267  34.849  1.00  0.00    -0.000 C 
BRANCH  24  25
ATOM     25  C   UNL     1       8.197 -13.199  33.621  1.00  0.00    -0.003 C 
ATOM     26  C   UNL     1       9.103 -11.972  33.675  1.00  0.00     0.004 C 
ENDBRANCH  24  25
ENDBRANCH  23  24
ENDBRANCH  22  23
ENDBRANCH  21  22
ENDBRANCH  20  21
ENDBRANCH  19  20
ENDBRANCH  18  19
ENDBRANCH  17  18
ENDBRANCH  16  17
ENDBRANCH  15  16
ENDBRANCH   1  15
TORSDOF 22
ENDMDL
MODEL 4
REMARK VINA RESULT:    -4.567      1.923      5.695
REMARK INTER + INTRA:         -14.413
REMARK INTER:                 -10.381
REMARK INTRA:                  -4.032
REMARK UNBOUND:                -3.972
REMARK SMILES CCCCCCCCCCCCCCCCCCCCCCCC(=O)[O-]
REMARK SMILES IDX 13 1 14 2 15 3 16 4 17 5 18 6 19 7 20 8 21 9 22 10 23 11
REMARK SMILES IDX 24 12 25 13 26 14 12 15 11 16 10 17 9 18 8 19 7 20 6 21 5 22
REMARK SMILES IDX 4 23 3 24 2 25 1 26
REMARK H PARENT
REMARK Flexibility Score: inf
ROOT
ATOM      1  C   UNL     1      11.484 -14.153  36.226  1.00  0.00     0.000 C 
ENDROOT
BRANCH   1   2
ATOM      2  C   UNL     1      12.703 -14.618  37.042  1.00  0.00     0.000 C 
BRANCH   2   3
ATOM      3  C   UNL     1      13.245 -13.517  37.968  1.00  0.00     0.000 C 
BRANCH   3   4
ATOM      4  C   UNL     1      12.738 -12.118  37.576  1.00  0.00     0.000 C 
BRANCH   4   5
ATOM      5  C   UNL     1      12.560 -11.193  38.800  1.00  0.00     0.000 C 
BRANCH   5   6
ATOM      6  C   UNL     1      12.150  -9.754  38.434  1.00  0.00     0.000 C 
BRANCH   6   7
ATOM      7  C   UNL     1      12.576  -9.300  37.026  1.00  0.00     0.000 C 
BRANCH   7   8
ATOM      8  C   UNL     1      11.437  -8.748  36.144  1.00  0.00     0.000 C 
BRANCH   8   9
ATOM      9  C   UNL     1      11.065  -9.620  34.931  1.00  0.00     0.000 C 
BRANCH   9  10
ATOM     10  C   UNL     1      11.832 -10.953  34.894  1.00  0.00     0.006 C 
BRANCH  10  11
ATOM     11  C   UNL     1      13.022 -10.910  33.927  1.00  0.00     0.053 C 
BRANCH  11  12
ATOM     12  C   UNL     1      14.229 -11.588  34.500  1.00  0.00     0.041 C 
ATOM     13  O   UNL     1      15.158 -10.906  35.008  1.00  0.00    -0.550 OA
ATOM     14  O   UNL     1      14.316 -12.974  34.497  1.00  0.00    -0.550 OA
ENDBRANCH  11  12
ENDBRANCH  10  11
ENDBRANCH   9  10
ENDBRANCH   8   9
ENDBRANCH   7   8
ENDBRANCH   6   7
ENDBRANCH   5   6
ENDBRANCH   4   5
ENDBRANCH   3   4
ENDBRANCH   2   3
ENDBRANCH   1   2
BRANCH   1  15
ATOM     15  C   UNL     1      10.244 -15.037  36.475  1.00  0.00     0.000 C 
BRANCH  15  16
ATOM     16  C   UNL     1      10.287 -15.788  37.817  1.00  0.00     0.000 C 
BRANCH  16  17
ATOM     17  C   UNL     1       9.562 -15.033  38.945  1.00  0.00     0.000 C 
BRANCH  17  18
ATOM     18  C   UNL     1       8.154 -14.572  38.539  1.00  0.00    -0.000 C 
BRANCH  18  19
ATOM     19  C   UNL     1       7.894 -13.095  38.886  1.00  0.00    -0.000 C 
BRANCH  19  20
ATOM     20  C   UNL     1       9.098 -12.194  38.564  1.00  0.00    -0.000 C 
BRANCH  20  21
ATOM     21  C   UNL     1       9.049 -11.625  37.136  1.00  0.00    -0.000 C 
BRANCH  21  22
ATOM     22  C   UNL     1       7.695 -10.978  36.798  1.00  0.00    -0.000 C 
BRANCH  22  23
ATOM     23  C   UNL     1       6.917 -11.712  35.685  1.00  0.00    -0.000 C 
BRANCH  23  24
ATOM     24  C   UNL     1       7.611 -13.014  35.253  1.00  0.00    -0.000 C 
BRANCH  24  25
ATOM     25  C   UNL     1       8.249 -12.864  33.868  1.00  0.00    -0.003 C 
ATOM     26  C   UNL     1       7.609 -13.817  32.861  1.00  0.00     0.004 C 
ENDBRANCH  24  25
ENDBRANCH  23  24
ENDBRANCH  22  23
ENDBRANCH  21  22
ENDBRANCH  20  21
ENDBRANCH  19  20
ENDBRANCH  18  19
ENDBRANCH  17  18
ENDBRANCH  16  17
ENDBRANCH  15  16
ENDBRANCH   1  15
TORSDOF 22
ENDMDL
MODEL 5
REMARK VINA RESULT:    -4.549      1.166      2.057
REMARK INTER + INTRA:         -14.372
REMARK INTER:                 -11.292
REMARK INTRA:                  -3.080
REMARK UNBOUND:                -3.972
REMARK SMILES CCCCCCCCCCCCCCCCCCCCCCCC(=O)[O-]
REMARK SMILES IDX 13 1 14 2 15 3 16 4 17 5 18 6 19 7 20 8 21 9 22 10 23 11
REMARK SMILES IDX 24 12 25 13 26 14 12 15 11 16 10 17 9 18 8 19 7 20 6 21 5 22
REMARK SMILES IDX 4 23 3 24 2 25 1 26
REMARK H PARENT
REMARK Flexibility Score: inf
ROOT
ATOM      1  C   UNL     1      10.337 -14.513  38.094  1.00  0.00     0.000 C 
ENDROOT
BRANCH   1   2
ATOM      2  C   UNL     1       9.506 -15.582  38.825  1.00  0.00     0.000 C 
BRANCH   2   3
ATOM      3  C   UNL     1       8.118 -15.067  39.239  1.00  0.00     0.000 C 
BRANCH   3   4
ATOM      4  C   UNL     1       7.800 -13.689  38.634  1.00  0.00     0.000 C 
BRANCH   4   5
ATOM      5  C   UNL     1       7.134 -13.796  37.244  1.00  0.00     0.000 C 
BRANCH   5   6
ATOM      6  C   UNL     1       6.757 -12.434  36.632  1.00  0.00     0.000 C 
BRANCH   6   7
ATOM      7  C   UNL     1       7.533 -11.233  37.202  1.00  0.00     0.000 C 
BRANCH   7   8
ATOM      8  C   UNL     1       8.700 -10.732  36.326  1.00  0.00     0.000 C 
BRANCH   8   9
ATOM      9  C   UNL     1       9.725 -11.807  35.923  1.00  0.00     0.000 C 
BRANCH   9  10
ATOM     10  C   UNL     1       9.883 -11.943  34.399  1.00  0.00     0.006 C 
BRANCH  10  11
ATOM     11  C   UNL     1       8.532 -12.078  33.686  1.00  0.00     0.053 C 
BRANCH  11  12
ATOM     12  C   UNL     1       8.073 -13.504  33.629  1.00  0.00     0.041 C 
ATOM     13  O   UNL     1       7.207 -13.859  32.786  1.00  0.00    -0.550 OA
ATOM     14  O   UNL     1       8.622 -14.446  34.488  1.00  0.00    -0.550 OA
ENDBRANCH  11  12
ENDBRANCH  10  11
ENDBRANCH   9  10
ENDBRANCH   8   9
ENDBRANCH   7   8
ENDBRANCH   6   7
ENDBRANCH   5   6
ENDBRANCH   4   5
ENDBRANCH   3   4
ENDBRANCH   2   3
ENDBRANCH   1   2
BRANCH   1  15
ATOM     15  C   UNL     1      11.191 -15.114  36.957  1.00  0.00     0.000 C 
BRANCH  15  16
ATOM     16  C   UNL     1      12.697 -15.132  37.265  1.00  0.00     0.000 C 
BRANCH  16  17
ATOM     17  C   UNL     1      13.390 -13.799  36.933  1.00  0.00     0.000 C 
BRANCH  17  18
ATOM     18  C   UNL     1      12.948 -13.226  35.576  1.00  0.00    -0.000 C 
BRANCH  18  19
ATOM     19  C   UNL     1      14.139 -12.934  34.645  1.00  0.00    -0.000 C 
BRANCH  19  20
ATOM     20  C   UNL     1      14.409 -11.429  34.487  1.00  0.00    -0.000 C 
BRANCH  20  21
ATOM     21  C   UNL     1      13.232 -10.562  34.964  1.00  0.00    -0.000 C 
BRANCH  21  22
ATOM     22  C   UNL     1      13.517  -9.851  36.298  1.00  0.00    -0.000 C 
BRANCH  22  23
ATOM     23  C   UNL     1      12.244  -9.406  37.049  1.00  0.00    -0.000 C 
BRANCH  23  24
ATOM     24  C   UNL     1      11.935 -10.311  38.253  1.00  0.00    -0.000 C 
BRANCH  24  25
ATOM     25  C   UNL     1      13.223 -10.881  38.858  1.00  0.00    -0.003 C 
ATOM     26  C   UNL     1      13.474 -10.316  40.253  1.00  0.00     0.004 C 
ENDBRANCH  24  25
ENDBRANCH  23  24
ENDBRANCH  22  23
ENDBRANCH  21  22
ENDBRANCH  20  21
ENDBRANCH  19  20
ENDBRANCH  18  19
ENDBRANCH  17  18
ENDBRANCH  16  17
ENDBRANCH  15  16
ENDBRANCH   1  15
TORSDOF 22
ENDMDL
MODEL 6
REMARK VINA RESULT:    -4.423      2.136      4.660
REMARK INTER + INTRA:         -14.084
REMARK INTER:                 -11.216
REMARK INTRA:                  -2.868
REMARK UNBOUND:                -3.972
REMARK SMILES CCCCCCCCCCCCCCCCCCCCCCCC(=O)[O-]
REMARK SMILES IDX 13 1 14 2 15 3 16 4 17 5 18 6 19 7 20 8 21 9 22 10 23 11
REMARK SMILES IDX 24 12 25 13 26 14 12 15 11 16 10 17 9 18 8 19 7 20 6 21 5 22
REMARK SMILES IDX 4 23 3 24 2 25 1 26
REMARK H PARENT
REMARK Flexibility Score: inf
ROOT
ATOM      1  C   UNL     1       7.611 -13.391  34.477  1.00  0.00     0.000 C 
ENDROOT
BRANCH   1   2
ATOM      2  C   UNL     1       8.020 -14.004  35.828  1.00  0.00     0.000 C 
BRANCH   2   3
ATOM      3  C   UNL     1       7.005 -13.701  36.943  1.00  0.00     0.000 C 
BRANCH   3   4
ATOM      4  C   UNL     1       7.278 -14.511  38.221  1.00  0.00     0.000 C 
BRANCH   4   5
ATOM      5  C   UNL     1       8.707 -14.290  38.764  1.00  0.00     0.000 C 
BRANCH   5   6
ATOM      6  C   UNL     1       9.506 -15.593  38.954  1.00  0.00     0.000 C 
BRANCH   6   7
ATOM      7  C   UNL     1      10.216 -16.105  37.688  1.00  0.00     0.000 C 
BRANCH   7   8
ATOM      8  C   UNL     1      11.046 -15.049  36.930  1.00  0.00     0.000 C 
BRANCH   8   9
ATOM      9  C   UNL     1      12.239 -14.468  37.712  1.00  0.00     0.000 C 
BRANCH   9  10
ATOM     10  C   UNL     1      13.432 -14.113  36.810  1.00  0.00     0.006 C 
BRANCH  10  11
ATOM     11  C   UNL     1      12.992 -13.425  35.511  1.00  0.00     0.053 C 
BRANCH  11  12
ATOM     12  C   UNL     1      14.164 -12.953  34.706  1.00  0.00     0.041 C 
ATOM     13  O   UNL     1      15.070 -13.761  34.371  1.00  0.00    -0.550 OA
ATOM     14  O   UNL     1      14.243 -11.626  34.305  1.00  0.00    -0.550 OA
ENDBRANCH  11  12
ENDBRANCH  10  11
ENDBRANCH   9  10
ENDBRANCH   8   9
ENDBRANCH   7   8
ENDBRANCH   6   7
ENDBRANCH   5   6
ENDBRANCH   4   5
ENDBRANCH   3   4
ENDBRANCH   2   3
ENDBRANCH   1   2
BRANCH   1  15
ATOM     15  C   UNL     1       8.236 -11.997  34.258  1.00  0.00     0.000 C 
BRANCH  15  16
ATOM     16  C   UNL     1       9.769 -11.986  34.379  1.00  0.00     0.000 C 
BRANCH  16  17
ATOM     17  C   UNL     1      10.255 -11.502  35.756  1.00  0.00     0.000 C 
BRANCH  17  18
ATOM     18  C   UNL     1       9.109 -10.980  36.637  1.00  0.00    -0.000 C 
BRANCH  18  19
ATOM     19  C   UNL     1       9.357 -11.232  38.135  1.00  0.00    -0.000 C 
BRANCH  19  20
ATOM     20  C   UNL     1      10.835 -11.517  38.449  1.00  0.00    -0.000 C 
BRANCH  20  21
ATOM     21  C   UNL     1      11.474 -10.432  39.330  1.00  0.00    -0.000 C 
BRANCH  21  22
ATOM     22  C   UNL     1      12.956 -10.189  38.996  1.00  0.00    -0.000 C 
BRANCH  22  23
ATOM     23  C   UNL     1      13.349 -10.620  37.567  1.00  0.00    -0.000 C 
BRANCH  23  24
ATOM     24  C   UNL     1      13.092  -9.510  36.535  1.00  0.00    -0.000 C 
BRANCH  24  25
ATOM     25  C   UNL     1      12.051  -8.510  37.049  1.00  0.00    -0.003 C 
ATOM     26  C   UNL     1      11.278  -7.877  35.895  1.00  0.00     0.004 C 
ENDBRANCH  24  25
ENDBRANCH  23  24
ENDBRANCH  22  23
ENDBRANCH  21  22
ENDBRANCH  20  21
ENDBRANCH  19  20
ENDBRANCH  18  19
ENDBRANCH  17  18
ENDBRANCH  16  17
ENDBRANCH  15  16
ENDBRANCH   1  15
TORSDOF 22
ENDMDL
MODEL 7
REMARK VINA RESULT:    -4.224      1.883      2.836
REMARK INTER + INTRA:         -13.628
REMARK INTER:                  -9.506
REMARK INTRA:                  -4.122
REMARK UNBOUND:                -3.972
REMARK SMILES CCCCCCCCCCCCCCCCCCCCCCCC(=O)[O-]
REMARK SMILES IDX 13 1 14 2 15 3 16 4 17 5 18 6 19 7 20 8 21 9 22 10 23 11
REMARK SMILES IDX 24 12 25 13 26 14 12 15 11 16 10 17 9 18 8 19 7 20 6 21 5 22
REMARK SMILES IDX 4 23 3 24 2 25 1 26
REMARK H PARENT
REMARK Flexibility Score: inf
ROOT
ATOM      1  C   UNL     1      11.983 -13.738  37.616  1.00  0.00     0.000 C 
ENDROOT
BRANCH   1   2
ATOM      2  C   UNL     1      11.841 -15.130  36.976  1.00  0.00     0.000 C 
BRANCH   2   3
ATOM      3  C   UNL     1      10.519 -15.292  36.207  1.00  0.00     0.000 C 
BRANCH   3   4
ATOM      4  C   UNL     1       9.944 -13.944  35.739  1.00  0.00     0.000 C 
BRANCH   4   5
ATOM      5  C   UNL     1       8.461 -14.052  35.318  1.00  0.00     0.000 C 
BRANCH   5   6
ATOM      6  C   UNL     1       8.081 -13.123  34.151  1.00  0.00     0.000 C 
BRANCH   6   7
ATOM      7  C   UNL     1       7.657 -11.703  34.568  1.00  0.00     0.000 C 
BRANCH   7   8
ATOM      8  C   UNL     1       7.027 -11.594  35.972  1.00  0.00     0.000 C 
BRANCH   8   9
ATOM      9  C   UNL     1       7.973 -11.090  37.078  1.00  0.00     0.000 C 
BRANCH   9  10
ATOM     10  C   UNL     1       7.737 -11.782  38.430  1.00  0.00     0.006 C 
BRANCH  10  11
ATOM     11  C   UNL     1       8.842 -12.792  38.765  1.00  0.00     0.053 C 
BRANCH  11  12
ATOM     12  C   UNL     1       8.300 -14.181  38.918  1.00  0.00     0.041 C 
ATOM     13  O   UNL     1       9.074 -15.139  39.177  1.00  0.00    -0.550 OA
ATOM     14  O   UNL     1       6.935 -14.411  38.801  1.00  0.00    -0.550 OA
ENDBRANCH  11  12
ENDBRANCH  10  11
ENDBRANCH   9  10
ENDBRANCH   8   9
ENDBRANCH   7   8
ENDBRANCH   6   7
ENDBRANCH   5   6
ENDBRANCH   4   5
ENDBRANCH   3   4
ENDBRANCH   2   3
ENDBRANCH   1   2
BRANCH   1  15
ATOM     15  C   UNL     1      13.307 -13.048  37.225  1.00  0.00     0.000 C 
BRANCH  15  16
ATOM     16  C   UNL     1      14.050 -13.756  36.079  1.00  0.00     0.000 C 
BRANCH  16  17
ATOM     17  C   UNL     1      13.848 -13.064  34.720  1.00  0.00     0.000 C 
BRANCH  17  18
ATOM     18  C   UNL     1      14.224 -11.574  34.753  1.00  0.00    -0.000 C 
BRANCH  18  19
ATOM     19  C   UNL     1      13.070 -10.665  34.294  1.00  0.00    -0.000 C 
BRANCH  19  20
ATOM     20  C   UNL     1      11.711 -11.104  34.864  1.00  0.00    -0.000 C 
BRANCH  20  21
ATOM     21  C   UNL     1      10.925  -9.938  35.486  1.00  0.00    -0.000 C 
BRANCH  21  22
ATOM     22  C   UNL     1      11.830  -8.924  36.205  1.00  0.00    -0.000 C 
BRANCH  22  23
ATOM     23  C   UNL     1      12.391  -9.436  37.549  1.00  0.00    -0.000 C 
BRANCH  23  24
ATOM     24  C   UNL     1      11.291 -10.015  38.453  1.00  0.00    -0.000 C 
BRANCH  24  25
ATOM     25  C   UNL     1      11.896 -10.787  39.631  1.00  0.00    -0.003 C 
ATOM     26  C   UNL     1      13.317 -10.316  39.926  1.00  0.00     0.004 C 
ENDBRANCH  24  25
ENDBRANCH  23  24
ENDBRANCH  22  23
ENDBRANCH  21  22
ENDBRANCH  20  21
ENDBRANCH  19  20
ENDBRANCH  18  19
ENDBRANCH  17  18
ENDBRANCH  16  17
ENDBRANCH  15  16
ENDBRANCH   1  15
TORSDOF 22
ENDMDL
MODEL 8
REMARK VINA RESULT:    -4.212      0.783      2.586
REMARK INTER + INTRA:         -13.601
REMARK INTER:                 -10.159
REMARK INTRA:                  -3.442
REMARK UNBOUND:                -3.972
REMARK SMILES CCCCCCCCCCCCCCCCCCCCCCCC(=O)[O-]
REMARK SMILES IDX 13 1 14 2 15 3 16 4 17 5 18 6 19 7 20 8 21 9 22 10 23 11
REMARK SMILES IDX 24 12 25 13 26 14 12 15 11 16 10 17 9 18 8 19 7 20 6 21 5 22
REMARK SMILES IDX 4 23 3 24 2 25 1 26
REMARK H PARENT
REMARK Flexibility Score: inf
ROOT
ATOM      1  C   UNL     1      11.039 -16.240  37.374  1.00  0.00     0.000 C 
ENDROOT
BRANCH   1   2
ATOM      2  C   UNL     1       9.881 -16.651  38.300  1.00  0.00     0.000 C 
BRANCH   2   3
ATOM      3  C   UNL     1       9.379 -15.485  39.167  1.00  0.00     0.000 C 
BRANCH   3   4
ATOM      4  C   UNL     1       8.356 -14.604  38.429  1.00  0.00     0.000 C 
BRANCH   4   5
ATOM      5  C   UNL     1       7.631 -13.624  39.378  1.00  0.00     0.000 C 
BRANCH   5   6
ATOM      6  C   UNL     1       8.010 -12.148  39.150  1.00  0.00     0.000 C 
BRANCH   6   7
ATOM      7  C   UNL     1       9.251 -11.930  38.266  1.00  0.00     0.000 C 
BRANCH   7   8
ATOM      8  C   UNL     1       8.955 -11.435  36.835  1.00  0.00     0.000 C 
BRANCH   8   9
ATOM      9  C   UNL     1       7.475 -11.136  36.537  1.00  0.00     0.000 C 
BRANCH   9  10
ATOM     10  C   UNL     1       6.761 -12.297  35.824  1.00  0.00     0.006 C 
BRANCH  10  11
ATOM     11  C   UNL     1       7.750 -13.320  35.250  1.00  0.00     0.053 C 
BRANCH  11  12
ATOM     12  C   UNL     1       8.005 -13.090  33.791  1.00  0.00     0.041 C 
ATOM     13  O   UNL     1       7.497 -13.854  32.930  1.00  0.00    -0.550 OA
ATOM     14  O   UNL     1       8.783 -12.015  33.384  1.00  0.00    -0.550 OA
ENDBRANCH  11  12
ENDBRANCH  10  11
ENDBRANCH   9  10
ENDBRANCH   8   9
ENDBRANCH   7   8
ENDBRANCH   6   7
ENDBRANCH   5   6
ENDBRANCH   4   5
ENDBRANCH   3   4
ENDBRANCH   2   3
ENDBRANCH   1   2
BRANCH   1  15
ATOM     15  C   UNL     1      10.626 -15.132  36.381  1.00  0.00     0.000 C 
BRANCH  15  16
ATOM     16  C   UNL     1      11.591 -13.935  36.364  1.00  0.00     0.000 C 
BRANCH  16  17
ATOM     17  C   UNL     1      12.939 -14.245  37.037  1.00  0.00     0.000 C 
BRANCH  17  18
ATOM     18  C   UNL     1      13.510 -13.038  37.799  1.00  0.00    -0.000 C 
BRANCH  18  19
ATOM     19  C   UNL     1      12.426 -12.014  38.178  1.00  0.00    -0.000 C 
BRANCH  19  20
ATOM     20  C   UNL     1      12.962 -10.574  38.215  1.00  0.00    -0.000 C 
BRANCH  20  21
ATOM     21  C   UNL     1      11.919  -9.540  37.760  1.00  0.00    -0.000 C 
BRANCH  21  22
ATOM     22  C   UNL     1      12.262  -8.904  36.402  1.00  0.00    -0.000 C 
BRANCH  22  23
ATOM     23  C   UNL     1      11.565  -9.583  35.204  1.00  0.00    -0.000 C 
BRANCH  23  24
ATOM     24  C   UNL     1      12.204 -10.936  34.851  1.00  0.00    -0.000 C 
BRANCH  24  25
ATOM     25  C   UNL     1      13.710 -10.786  34.610  1.00  0.00    -0.003 C 
ATOM     26  C   UNL     1      14.382 -12.148  34.453  1.00  0.00     0.004 C 
ENDBRANCH  24  25
ENDBRANCH  23  24
ENDBRANCH  22  23
ENDBRANCH  21  22
ENDBRANCH  20  21
ENDBRANCH  19  20
ENDBRANCH  18  19
ENDBRANCH  17  18
ENDBRANCH  16  17
ENDBRANCH  15  16
ENDBRANCH   1  15
TORSDOF 22
ENDMDL
MODEL 9
REMARK VINA RESULT:    -4.138      2.255      6.057
REMARK INTER + INTRA:         -13.432
REMARK INTER:                 -11.229
REMARK INTRA:                  -2.203
REMARK UNBOUND:                -3.972
REMARK SMILES CCCCCCCCCCCCCCCCCCCCCCCC(=O)[O-]
REMARK SMILES IDX 13 1 14 2 15 3 16 4 17 5 18 6 19 7 20 8 21 9 22 10 23 11
REMARK SMILES IDX 24 12 25 13 26 14 12 15 11 16 10 17 9 18 8 19 7 20 6 21 5 22
REMARK SMILES IDX 4 23 3 24 2 25 1 26
REMARK H PARENT
REMARK Flexibility Score: inf
ROOT
ATOM      1  C   UNL     1       9.875 -15.368  38.498  1.00  0.00     0.000 C 
ENDROOT
BRANCH   1   2
ATOM      2  C   UNL     1      10.102 -15.352  36.976  1.00  0.00     0.000 C 
BRANCH   2   3
ATOM      3  C   UNL     1      11.594 -15.344  36.604  1.00  0.00     0.000 C 
BRANCH   3   4
ATOM      4  C   UNL     1      12.443 -14.542  37.605  1.00  0.00     0.000 C 
BRANCH   4   5
ATOM      5  C   UNL     1      13.579 -13.755  36.913  1.00  0.00     0.000 C 
BRANCH   5   6
ATOM      6  C   UNL     1      13.201 -13.220  35.520  1.00  0.00     0.000 C 
BRANCH   6   7
ATOM      7  C   UNL     1      14.389 -12.719  34.677  1.00  0.00     0.000 C 
BRANCH   7   8
ATOM      8  C   UNL     1      14.594 -11.190  34.679  1.00  0.00     0.000 C 
BRANCH   8   9
ATOM      9  C   UNL     1      13.434 -10.374  35.277  1.00  0.00     0.000 C 
BRANCH   9  10
ATOM     10  C   UNL     1      13.704  -9.918  36.721  1.00  0.00     0.006 C 
BRANCH  10  11
ATOM     11  C   UNL     1      12.408  -9.630  37.490  1.00  0.00     0.053 C 
BRANCH  11  12
ATOM     12  C   UNL     1      12.405 -10.282  38.839  1.00  0.00     0.041 C 
ATOM     13  O   UNL     1      13.491 -10.583  39.401  1.00  0.00    -0.550 OA
ATOM     14  O   UNL     1      11.203 -10.533  39.486  1.00  0.00    -0.550 OA
ENDBRANCH  11  12
ENDBRANCH  10  11
ENDBRANCH   9  10
ENDBRANCH   8   9
ENDBRANCH   7   8
ENDBRANCH   6   7
ENDBRANCH   5   6
ENDBRANCH   4   5
ENDBRANCH   3   4
ENDBRANCH   2   3
ENDBRANCH   1   2
BRANCH   1  15
ATOM     15  C   UNL     1       8.382 -15.228  38.866  1.00  0.00     0.000 C 
BRANCH  15  16
ATOM     16  C   UNL     1       7.987 -13.803  39.292  1.00  0.00     0.000 C 
BRANCH  16  17
ATOM     17  C   UNL     1       8.697 -12.716  38.467  1.00  0.00     0.000 C 
BRANCH  17  18
ATOM     18  C   UNL     1       7.865 -11.429  38.346  1.00  0.00    -0.000 C 
BRANCH  18  19
ATOM     19  C   UNL     1       7.771 -10.923  36.895  1.00  0.00    -0.000 C 
BRANCH  19  20
ATOM     20  C   UNL     1       6.636 -11.598  36.107  1.00  0.00    -0.000 C 
BRANCH  20  21
ATOM     21  C   UNL     1       6.679 -13.132  36.202  1.00  0.00    -0.000 C 
BRANCH  21  22
ATOM     22  C   UNL     1       7.680 -13.763  35.219  1.00  0.00    -0.000 C 
BRANCH  22  23
ATOM     23  C   UNL     1       7.609 -13.170  33.795  1.00  0.00    -0.000 C 
BRANCH  23  24
ATOM     24  C   UNL     1       8.785 -12.224  33.501  1.00  0.00    -0.000 C 
BRANCH  24  25
ATOM     25  C   UNL     1       9.862 -12.331  34.586  1.00  0.00    -0.003 C 
ATOM     26  C   UNL     1      10.496 -10.972  34.869  1.00  0.00     0.004 C 
ENDBRANCH  24  25
ENDBRANCH  23  24
ENDBRANCH  22  23
ENDBRANCH  21  22
ENDBRANCH  20  21
ENDBRANCH  19  20
ENDBRANCH  18  19
ENDBRANCH  17  18
ENDBRANCH  16  17
ENDBRANCH  15  16
ENDBRANCH   1  15
TORSDOF 22
ENDMDL
