MODEL 1
REMARK VINA RESULT:    28.818      0.000      0.000
REMARK INTER + INTRA:          37.314
REMARK INTER:                  38.084
REMARK INTRA:                  -0.770
REMARK UNBOUND:                -0.770
REMARK SMILES CC[C@@H](C=C[C@@H](C)[C@@H]1CC[C@@H]2[C@H]3CC=C4C[C@@H](O)CC[C@@]4(C)[C@H]3CC[C@@]21C)C(C)C
REMARK SMILES IDX 6 1 7 2 5 3 4 4 3 5 2 6 1 7 28 8 29 9 30 10 8 11 9 12 26 13
REMARK SMILES IDX 10 14 11 15 25 16 27 17 12 18 24 19 23 20 13 21 21 22 14 23
REMARK SMILES IDX 15 24 20 25 22 26 16 27 19 28 17 29 18 30
REMARK H PARENT 18 31
REMARK Flexibility Score: inf
ROOT
ATOM      1  C   UNL     1      75.355  39.856  26.919  1.00  0.00     0.012 C 
ATOM      2  C   UNL     1      75.665  41.046  27.841  1.00  0.00     0.012 C 
ENDROOT
BRANCH   1   3
ATOM      3  C   UNL     1      75.473  38.569  27.702  1.00  0.00    -0.028 C 
ATOM      4  C   UNL     1      76.636  38.151  28.236  1.00  0.00    -0.027 C 
BRANCH   4   5
ATOM      5  C   UNL     1      76.719  36.865  29.031  1.00  0.00     0.014 C 
BRANCH   5   6
ATOM      6  C   UNL     1      75.905  37.012  30.347  1.00  0.00     0.004 C 
ATOM      7  C   UNL     1      75.033  35.794  30.679  1.00  0.00     0.004 C 
ENDBRANCH   5   6
BRANCH   5   8
ATOM      8  C   UNL     1      78.219  36.457  29.210  1.00  0.00    -0.011 C 
ATOM      9  C   UNL     1      78.465  35.426  30.323  1.00  0.00     0.008 C 
ATOM     10  C   UNL     1      78.875  35.996  27.900  1.00  0.00     0.008 C 
ENDBRANCH   5   8
ENDBRANCH   4   5
ENDBRANCH   1   3
BRANCH   1  11
ATOM     11  C   UNL     1      76.169  39.790  25.572  1.00  0.00     0.002 C 
ATOM     12  C   UNL     1      76.694  41.125  25.017  1.00  0.00     0.005 C 
ATOM     13  C   UNL     1      75.476  39.087  24.369  1.00  0.00    -0.026 C 
ATOM     14  C   UNL     1      76.908  40.911  23.520  1.00  0.00     0.005 C 
ATOM     15  C   UNL     1      76.412  39.488  23.196  1.00  0.00    -0.001 C 
ATOM     16  C   UNL     1      74.035  39.622  24.135  1.00  0.00     0.007 C 
ATOM     17  C   UNL     1      75.456  37.554  24.605  1.00  0.00     0.012 C 
ATOM     18  C   UNL     1      75.826  39.384  21.753  1.00  0.00     0.000 C 
ATOM     19  C   UNL     1      73.480  39.290  22.741  1.00  0.00     0.005 C 
ATOM     20  C   UNL     1      74.366  39.890  21.625  1.00  0.00     0.003 C 
ATOM     21  C   UNL     1      75.944  37.961  21.198  1.00  0.00     0.031 C 
ATOM     22  C   UNL     1      73.805  39.748  20.131  1.00  0.00    -0.008 C 
ATOM     23  C   UNL     1      75.519  37.910  19.773  1.00  0.00    -0.027 C 
ATOM     24  C   UNL     1      74.516  38.667  19.294  1.00  0.00    -0.065 C 
ATOM     25  C   UNL     1      72.277  39.415  20.096  1.00  0.00     0.014 C 
ATOM     26  C   UNL     1      74.035  41.121  19.437  1.00  0.00     0.016 C 
ATOM     27  C   UNL     1      74.027  38.413  17.880  1.00  0.00     0.063 C 
ATOM     28  C   UNL     1      71.713  39.159  18.682  1.00  0.00     0.033 C 
ATOM     29  C   UNL     1      72.521  38.113  17.881  1.00  0.00     0.118 C 
BRANCH  29  30
ATOM     30  O   UNL     1      72.264  36.807  18.334  1.00  0.00    -0.393 OA
ATOM     31  H   UNL     1      72.269  36.820  19.328  1.00  0.00     0.210 HD
ENDBRANCH  29  30
ENDBRANCH   1  11
TORSDOF 6
ENDMDL
MODEL 2
REMARK VINA RESULT:    30.483      1.568      3.367
REMARK INTER + INTRA:          39.514
REMARK INTER:                  39.029
REMARK INTRA:                   0.485
REMARK UNBOUND:                -0.770
REMARK SMILES CC[C@@H](C=C[C@@H](C)[C@@H]1CC[C@@H]2[C@H]3CC=C4C[C@@H](O)CC[C@@]4(C)[C@H]3CC[C@@]21C)C(C)C
REMARK SMILES IDX 6 1 7 2 5 3 4 4 3 5 2 6 1 7 28 8 29 9 30 10 8 11 9 12 26 13
REMARK SMILES IDX 10 14 11 15 25 16 27 17 12 18 24 19 23 20 13 21 21 22 14 23
REMARK SMILES IDX 15 24 20 25 22 26 16 27 19 28 17 29 18 30
REMARK H PARENT 18 31
REMARK Flexibility Score: inf
ROOT
ATOM      1  C   UNL     1      76.136  37.624  28.777  1.00  0.00     0.012 C 
ATOM      2  C   UNL     1      75.193  37.643  29.991  1.00  0.00     0.012 C 
ENDROOT
BRANCH   1   3
ATOM      3  C   UNL     1      77.475  37.060  29.191  1.00  0.00    -0.028 C 
ATOM      4  C   UNL     1      77.596  36.055  30.078  1.00  0.00    -0.027 C 
BRANCH   4   5
ATOM      5  C   UNL     1      78.952  35.498  30.458  1.00  0.00     0.014 C 
BRANCH   5   6
ATOM      6  C   UNL     1      79.747  35.140  29.172  1.00  0.00     0.004 C 
ATOM      7  C   UNL     1      79.463  36.068  27.984  1.00  0.00     0.004 C 
ENDBRANCH   5   6
BRANCH   5   8
ATOM      8  C   UNL     1      78.769  34.331  31.483  1.00  0.00    -0.011 C 
ATOM      9  C   UNL     1      78.193  33.042  30.875  1.00  0.00     0.008 C 
ATOM     10  C   UNL     1      80.048  34.023  32.275  1.00  0.00     0.008 C 
ENDBRANCH   5   8
ENDBRANCH   4   5
ENDBRANCH   1   3
BRANCH   1  11
ATOM     11  C   UNL     1      76.297  38.986  28.002  1.00  0.00     0.002 C 
ATOM     12  C   UNL     1      75.254  40.077  28.298  1.00  0.00     0.005 C 
ATOM     13  C   UNL     1      76.376  38.902  26.450  1.00  0.00    -0.026 C 
ATOM     14  C   UNL     1      75.250  41.006  27.085  1.00  0.00     0.005 C 
ATOM     15  C   UNL     1      76.215  40.395  26.051  1.00  0.00    -0.001 C 
ATOM     16  C   UNL     1      75.225  38.043  25.855  1.00  0.00     0.007 C 
ATOM     17  C   UNL     1      77.755  38.328  26.031  1.00  0.00     0.012 C 
ATOM     18  C   UNL     1      75.771  40.693  24.585  1.00  0.00     0.000 C 
ATOM     19  C   UNL     1      75.004  38.276  24.353  1.00  0.00     0.005 C 
ATOM     20  C   UNL     1      74.657  39.753  24.057  1.00  0.00     0.003 C 
ATOM     21  C   UNL     1      76.964  40.694  23.623  1.00  0.00     0.031 C 
ATOM     22  C   UNL     1      74.248  40.090  22.545  1.00  0.00    -0.008 C 
ATOM     23  C   UNL     1      76.549  41.124  22.262  1.00  0.00    -0.027 C 
ATOM     24  C   UNL     1      75.350  40.807  21.741  1.00  0.00    -0.065 C 
ATOM     25  C   UNL     1      73.856  38.810  21.734  1.00  0.00     0.014 C 
ATOM     26  C   UNL     1      73.014  41.034  22.617  1.00  0.00     0.016 C 
ATOM     27  C   UNL     1      75.086  41.124  20.281  1.00  0.00     0.063 C 
ATOM     28  C   UNL     1      73.562  39.069  20.241  1.00  0.00     0.033 C 
ATOM     29  C   UNL     1      74.682  39.852  19.521  1.00  0.00     0.118 C 
BRANCH  29  30
ATOM     30  O   UNL     1      75.799  39.037  19.268  1.00  0.00    -0.393 OA
ATOM     31  H   UNL     1      76.615  39.594  19.365  1.00  0.00     0.210 HD
ENDBRANCH  29  30
ENDBRANCH   1  11
TORSDOF 6
ENDMDL
