MODEL 1
REMARK VINA RESULT:    -7.296      0.000      0.000
REMARK INTER + INTRA:          -9.078
REMARK INTER:                  -8.789
REMARK INTRA:                  -0.289
REMARK UNBOUND:                -0.289
REMARK SMILES O=c1c(O)c(-c2ccc(O)c(O)c2)oc2cc(O)cc(O)c12
REMARK SMILES IDX 5 1 3 2 2 3 1 4 22 5 20 6 19 7 17 8 16 9 15 10 14 11 6 12
REMARK SMILES IDX 7 13 8 14 9 15 13 16 11 17 10 18 12 20 4 22 21 24 18 26
REMARK H PARENT 10 19 12 21 4 23 21 25 18 27
REMARK Flexibility Score: inf
ROOT
ATOM      1  C   UNL     1     -37.948   4.825  79.561  1.00  0.00     0.180 A 
ATOM      2  C   UNL     1     -38.512   4.899  80.849  1.00  0.00     0.208 A 
ATOM      3  C   UNL     1     -39.823   4.439  81.043  1.00  0.00     0.238 A 
ATOM      4  O   UNL     1     -40.343   4.510  82.191  1.00  0.00    -0.285 OA
ATOM      5  C   UNL     1     -40.540   3.894  79.957  1.00  0.00     0.111 A 
ATOM      6  C   UNL     1     -41.862   3.404  80.070  1.00  0.00     0.134 A 
ATOM      7  C   UNL     1     -42.505   2.870  78.942  1.00  0.00     0.093 A 
ATOM      8  C   UNL     1     -41.848   2.814  77.708  1.00  0.00     0.123 A 
ATOM      9  C   UNL     1     -40.543   3.296  77.592  1.00  0.00     0.094 A 
ATOM     10  C   UNL     1     -39.887   3.835  78.703  1.00  0.00     0.146 A 
ATOM     11  O   UNL     1     -38.648   4.292  78.563  1.00  0.00    -0.452 OA
ENDROOT
BRANCH   1  12
ATOM     12  C   UNL     1     -36.579   5.307  79.273  1.00  0.00     0.025 A 
ATOM     13  C   UNL     1     -35.448   4.550  79.619  1.00  0.00     0.016 A 
ATOM     14  C   UNL     1     -34.165   5.036  79.358  1.00  0.00     0.051 A 
ATOM     15  C   UNL     1     -33.985   6.289  78.762  1.00  0.00     0.157 A 
ATOM     16  C   UNL     1     -36.398   6.574  78.695  1.00  0.00     0.062 A 
ATOM     17  C   UNL     1     -35.116   7.071  78.429  1.00  0.00     0.158 A 
BRANCH  15  18
ATOM     18  O   UNL     1     -32.676   6.715  78.524  1.00  0.00    -0.504 OA
ATOM     19  H   UNL     1     -31.863   6.123  78.619  1.00  0.00     0.293 HD
ENDBRANCH  15  18
BRANCH  17  20
ATOM     20  O   UNL     1     -35.014   8.333  77.841  1.00  0.00    -0.504 OA
ATOM     21  H   UNL     1     -34.139   8.777  77.607  1.00  0.00     0.293 HD
ENDBRANCH  17  20
ENDBRANCH   1  12
BRANCH   2  22
ATOM     22  O   UNL     1     -37.764   5.397  81.919  1.00  0.00    -0.502 OA
ATOM     23  H   UNL     1     -37.663   4.893  82.792  1.00  0.00     0.293 HD
ENDBRANCH   2  22
BRANCH   6  24
ATOM     24  O   UNL     1     -42.543   3.446  81.287  1.00  0.00    -0.507 OA
ATOM     25  H   UNL     1     -43.478   3.828  81.363  1.00  0.00     0.293 HD
ENDBRANCH   6  24
BRANCH   8  26
ATOM     26  O   UNL     1     -42.485   2.282  76.588  1.00  0.00    -0.508 OA
ATOM     27  H   UNL     1     -42.202   2.534  75.648  1.00  0.00     0.293 HD
ENDBRANCH   8  26
TORSDOF 6
ENDMDL
MODEL 2
REMARK VINA RESULT:    -6.404      1.847      7.255
REMARK INTER + INTRA:          -8.004
REMARK INTER:                  -7.684
REMARK INTRA:                  -0.319
REMARK UNBOUND:                -0.289
REMARK SMILES O=c1c(O)c(-c2ccc(O)c(O)c2)oc2cc(O)cc(O)c12
REMARK SMILES IDX 5 1 3 2 2 3 1 4 22 5 20 6 19 7 17 8 16 9 15 10 14 11 6 12
REMARK SMILES IDX 7 13 8 14 9 15 13 16 11 17 10 18 12 20 4 22 21 24 18 26
REMARK H PARENT 10 19 12 21 4 23 21 25 18 27
REMARK Flexibility Score: inf
ROOT
ATOM      1  C   UNL     1     -38.310   6.068  78.205  1.00  0.00     0.180 A 
ATOM      2  C   UNL     1     -38.636   7.276  77.560  1.00  0.00     0.208 A 
ATOM      3  C   UNL     1     -37.613   8.196  77.284  1.00  0.00     0.238 A 
ATOM      4  O   UNL     1     -37.895   9.287  76.716  1.00  0.00    -0.285 OA
ATOM      5  C   UNL     1     -36.283   7.887  77.638  1.00  0.00     0.111 A 
ATOM      6  C   UNL     1     -35.194   8.756  77.391  1.00  0.00     0.134 A 
ATOM      7  C   UNL     1     -33.898   8.372  77.766  1.00  0.00     0.093 A 
ATOM      8  C   UNL     1     -33.672   7.134  78.379  1.00  0.00     0.123 A 
ATOM      9  C   UNL     1     -34.742   6.273  78.624  1.00  0.00     0.094 A 
ATOM     10  C   UNL     1     -36.041   6.639  78.261  1.00  0.00     0.146 A 
ATOM     11  O   UNL     1     -37.042   5.803  78.511  1.00  0.00    -0.452 OA
ENDROOT
BRANCH   1  12
ATOM     12  C   UNL     1     -39.335   5.056  78.547  1.00  0.00     0.025 A 
ATOM     13  C   UNL     1     -39.751   4.093  77.615  1.00  0.00     0.016 A 
ATOM     14  C   UNL     1     -40.737   3.163  77.951  1.00  0.00     0.051 A 
ATOM     15  C   UNL     1     -41.336   3.185  79.215  1.00  0.00     0.157 A 
ATOM     16  C   UNL     1     -39.951   5.094  79.807  1.00  0.00     0.062 A 
ATOM     17  C   UNL     1     -40.942   4.166  80.155  1.00  0.00     0.158 A 
BRANCH  15  18
ATOM     18  O   UNL     1     -42.313   2.225  79.491  1.00  0.00    -0.504 OA
ATOM     19  H   UNL     1     -42.860   2.203  80.340  1.00  0.00     0.293 HD
ENDBRANCH  15  18
BRANCH  17  20
ATOM     20  O   UNL     1     -41.500   4.256  81.431  1.00  0.00    -0.504 OA
ATOM     21  H   UNL     1     -41.191   3.711  82.223  1.00  0.00     0.293 HD
ENDBRANCH  17  20
ENDBRANCH   1  12
BRANCH   2  22
ATOM     22  O   UNL     1     -39.954   7.538  77.176  1.00  0.00    -0.502 OA
ATOM     23  H   UNL     1     -40.546   8.190  77.675  1.00  0.00     0.293 HD
ENDBRANCH   2  22
BRANCH   6  24
ATOM     24  O   UNL     1     -35.389   9.996  76.781  1.00  0.00    -0.507 OA
ATOM     25  H   UNL     1     -36.302  10.293  76.455  1.00  0.00     0.293 HD
ENDBRANCH   6  24
BRANCH   8  26
ATOM     26  O   UNL     1     -32.384   6.751  78.750  1.00  0.00    -0.508 OA
ATOM     27  H   UNL     1     -32.174   5.801  79.033  1.00  0.00     0.293 HD
ENDBRANCH   8  26
TORSDOF 6
ENDMDL
MODEL 3
REMARK VINA RESULT:    -6.291      1.544      6.812
REMARK INTER + INTRA:          -7.867
REMARK INTER:                  -7.985
REMARK INTRA:                   0.118
REMARK UNBOUND:                -0.289
REMARK SMILES O=c1c(O)c(-c2ccc(O)c(O)c2)oc2cc(O)cc(O)c12
REMARK SMILES IDX 5 1 3 2 2 3 1 4 22 5 20 6 19 7 17 8 16 9 15 10 14 11 6 12
REMARK SMILES IDX 7 13 8 14 9 15 13 16 11 17 10 18 12 20 4 22 21 24 18 26
REMARK H PARENT 10 19 12 21 4 23 21 25 18 27
REMARK Flexibility Score: inf
ROOT
ATOM      1  C   UNL     1     -38.033   4.100  79.822  1.00  0.00     0.180 A 
ATOM      2  C   UNL     1     -37.485   3.654  81.039  1.00  0.00     0.208 A 
ATOM      3  C   UNL     1     -36.176   4.033  81.374  1.00  0.00     0.238 A 
ATOM      4  O   UNL     1     -35.671   3.630  82.458  1.00  0.00    -0.285 OA
ATOM      5  C   UNL     1     -35.446   4.865  80.500  1.00  0.00     0.111 A 
ATOM      6  C   UNL     1     -34.124   5.296  80.765  1.00  0.00     0.134 A 
ATOM      7  C   UNL     1     -33.468   6.131  79.848  1.00  0.00     0.093 A 
ATOM      8  C   UNL     1     -34.109   6.544  78.675  1.00  0.00     0.123 A 
ATOM      9  C   UNL     1     -35.413   6.122  78.410  1.00  0.00     0.094 A 
ATOM     10  C   UNL     1     -36.083   5.288  79.309  1.00  0.00     0.146 A 
ATOM     11  O   UNL     1     -37.320   4.896  79.029  1.00  0.00    -0.452 OA
ENDROOT
BRANCH   1  12
ATOM     12  C   UNL     1     -39.399   3.728  79.390  1.00  0.00     0.025 A 
ATOM     13  C   UNL     1     -39.672   3.357  78.064  1.00  0.00     0.016 A 
ATOM     14  C   UNL     1     -40.973   3.033  77.674  1.00  0.00     0.051 A 
ATOM     15  C   UNL     1     -42.027   3.085  78.593  1.00  0.00     0.157 A 
ATOM     16  C   UNL     1     -40.459   3.802  80.307  1.00  0.00     0.062 A 
ATOM     17  C   UNL     1     -41.768   3.479  79.927  1.00  0.00     0.158 A 
BRANCH  15  18
ATOM     18  O   UNL     1     -43.304   2.745  78.141  1.00  0.00    -0.504 OA
ATOM     19  H   UNL     1     -43.729   3.128  77.308  1.00  0.00     0.293 HD
ENDBRANCH  15  18
BRANCH  17  20
ATOM     20  O   UNL     1     -42.769   3.563  80.896  1.00  0.00    -0.504 OA
ATOM     21  H   UNL     1     -43.736   3.767  80.693  1.00  0.00     0.293 HD
ENDBRANCH  17  20
ENDBRANCH   1  12
BRANCH   2  22
ATOM     22  O   UNL     1     -38.246   2.871  81.911  1.00  0.00    -0.502 OA
ATOM     23  H   UNL     1     -38.477   3.171  82.851  1.00  0.00     0.293 HD
ENDBRANCH   2  22
BRANCH   6  24
ATOM     24  O   UNL     1     -33.459   4.901  81.926  1.00  0.00    -0.507 OA
ATOM     25  H   UNL     1     -33.949   4.777  82.805  1.00  0.00     0.293 HD
ENDBRANCH   6  24
BRANCH   8  26
ATOM     26  O   UNL     1     -33.458   7.375  77.765  1.00  0.00    -0.508 OA
ATOM     27  H   UNL     1     -33.783   8.317  77.581  1.00  0.00     0.293 HD
ENDBRANCH   8  26
TORSDOF 6
ENDMDL
MODEL 4
REMARK VINA RESULT:    -6.256      1.633      7.139
REMARK INTER + INTRA:          -7.825
REMARK INTER:                  -7.801
REMARK INTRA:                  -0.023
REMARK UNBOUND:                -0.289
REMARK SMILES O=c1c(O)c(-c2ccc(O)c(O)c2)oc2cc(O)cc(O)c12
REMARK SMILES IDX 5 1 3 2 2 3 1 4 22 5 20 6 19 7 17 8 16 9 15 10 14 11 6 12
REMARK SMILES IDX 7 13 8 14 9 15 13 16 11 17 10 18 12 20 4 22 21 24 18 26
REMARK H PARENT 10 19 12 21 4 23 21 25 18 27
REMARK Flexibility Score: inf
ROOT
ATOM      1  C   UNL     1     -38.382   4.540  79.205  1.00  0.00     0.180 A 
ATOM      2  C   UNL     1     -37.951   5.488  78.258  1.00  0.00     0.208 A 
ATOM      3  C   UNL     1     -36.651   6.004  78.356  1.00  0.00     0.238 A 
ATOM      4  O   UNL     1     -36.257   6.862  77.520  1.00  0.00    -0.285 OA
ATOM      5  C   UNL     1     -35.797   5.551  79.384  1.00  0.00     0.111 A 
ATOM      6  C   UNL     1     -34.472   6.017  79.551  1.00  0.00     0.134 A 
ATOM      7  C   UNL     1     -33.682   5.510  80.595  1.00  0.00     0.093 A 
ATOM      8  C   UNL     1     -34.193   4.546  81.471  1.00  0.00     0.123 A 
ATOM      9  C   UNL     1     -35.500   4.083  81.310  1.00  0.00     0.094 A 
ATOM     10  C   UNL     1     -36.304   4.577  80.278  1.00  0.00     0.146 A 
ATOM     11  O   UNL     1     -37.545   4.124  80.152  1.00  0.00    -0.452 OA
ENDROOT
BRANCH   1  12
ATOM     12  C   UNL     1     -39.746   3.963  79.178  1.00  0.00     0.025 A 
ATOM     13  C   UNL     1     -40.269   3.375  78.016  1.00  0.00     0.016 A 
ATOM     14  C   UNL     1     -41.566   2.859  78.007  1.00  0.00     0.051 A 
ATOM     15  C   UNL     1     -42.370   2.932  79.149  1.00  0.00     0.157 A 
ATOM     16  C   UNL     1     -40.559   4.057  80.318  1.00  0.00     0.062 A 
ATOM     17  C   UNL     1     -41.862   3.543  80.320  1.00  0.00     0.158 A 
BRANCH  15  18
ATOM     18  O   UNL     1     -43.657   2.394  79.076  1.00  0.00    -0.504 OA
ATOM     19  H   UNL     1     -44.024   1.916  78.266  1.00  0.00     0.293 HD
ENDBRANCH  15  18
BRANCH  17  20
ATOM     20  O   UNL     1     -42.608   3.661  81.494  1.00  0.00    -0.504 OA
ATOM     21  H   UNL     1     -43.581   3.931  81.520  1.00  0.00     0.293 HD
ENDBRANCH  17  20
ENDBRANCH   1  12
BRANCH   2  22
ATOM     22  O   UNL     1     -38.800   5.884  77.219  1.00  0.00    -0.502 OA
ATOM     23  H   UNL     1     -38.483   6.463  76.451  1.00  0.00     0.293 HD
ENDBRANCH   2  22
BRANCH   6  24
ATOM     24  O   UNL     1     -33.934   6.977  78.693  1.00  0.00    -0.507 OA
ATOM     25  H   UNL     1     -34.430   7.833  78.472  1.00  0.00     0.293 HD
ENDBRANCH   6  24
BRANCH   8  26
ATOM     26  O   UNL     1     -33.409   4.041  82.507  1.00  0.00    -0.508 OA
ATOM     27  H   UNL     1     -32.644   3.401  82.328  1.00  0.00     0.293 HD
ENDBRANCH   8  26
TORSDOF 6
ENDMDL
MODEL 5
REMARK VINA RESULT:    -6.201      1.516      6.945
REMARK INTER + INTRA:          -7.759
REMARK INTER:                  -7.467
REMARK INTRA:                  -0.292
REMARK UNBOUND:                -0.289
REMARK SMILES O=c1c(O)c(-c2ccc(O)c(O)c2)oc2cc(O)cc(O)c12
REMARK SMILES IDX 5 1 3 2 2 3 1 4 22 5 20 6 19 7 17 8 16 9 15 10 14 11 6 12
REMARK SMILES IDX 7 13 8 14 9 15 13 16 11 17 10 18 12 20 4 22 21 24 18 26
REMARK H PARENT 10 19 12 21 4 23 21 25 18 27
REMARK Flexibility Score: inf
ROOT
ATOM      1  C   UNL     1     -38.263   4.925  78.699  1.00  0.00     0.180 A 
ATOM      2  C   UNL     1     -37.074   4.327  79.159  1.00  0.00     0.208 A 
ATOM      3  C   UNL     1     -35.861   5.011  78.990  1.00  0.00     0.238 A 
ATOM      4  O   UNL     1     -34.788   4.480  79.389  1.00  0.00    -0.285 OA
ATOM      5  C   UNL     1     -35.856   6.284  78.384  1.00  0.00     0.111 A 
ATOM      6  C   UNL     1     -34.678   7.040  78.181  1.00  0.00     0.134 A 
ATOM      7  C   UNL     1     -34.757   8.305  77.577  1.00  0.00     0.093 A 
ATOM      8  C   UNL     1     -35.993   8.826  77.177  1.00  0.00     0.123 A 
ATOM      9  C   UNL     1     -37.158   8.084  77.377  1.00  0.00     0.094 A 
ATOM     10  C   UNL     1     -37.099   6.821  77.973  1.00  0.00     0.146 A 
ATOM     11  O   UNL     1     -38.222   6.134  78.145  1.00  0.00    -0.452 OA
ENDROOT
BRANCH   1  12
ATOM     12  C   UNL     1     -39.579   4.259  78.824  1.00  0.00     0.025 A 
ATOM     13  C   UNL     1     -40.189   3.631  77.726  1.00  0.00     0.016 A 
ATOM     14  C   UNL     1     -41.442   3.030  77.863  1.00  0.00     0.051 A 
ATOM     15  C   UNL     1     -42.116   3.055  79.089  1.00  0.00     0.157 A 
ATOM     16  C   UNL     1     -40.264   4.305  80.048  1.00  0.00     0.062 A 
ATOM     17  C   UNL     1     -41.521   3.705  80.196  1.00  0.00     0.158 A 
BRANCH  15  18
ATOM     18  O   UNL     1     -43.363   2.432  79.160  1.00  0.00    -0.504 OA
ATOM     19  H   UNL     1     -43.492   1.436  79.260  1.00  0.00     0.293 HD
ENDBRANCH  15  18
BRANCH  17  20
ATOM     20  O   UNL     1     -42.136   3.779  81.447  1.00  0.00    -0.504 OA
ATOM     21  H   UNL     1     -43.061   3.426  81.642  1.00  0.00     0.293 HD
ENDBRANCH  17  20
ENDBRANCH   1  12
BRANCH   2  22
ATOM     22  O   UNL     1     -37.111   3.086  79.801  1.00  0.00    -0.502 OA
ATOM     23  H   UNL     1     -36.526   2.869  80.599  1.00  0.00     0.293 HD
ENDBRANCH   2  22
BRANCH   6  24
ATOM     24  O   UNL     1     -33.432   6.547  78.569  1.00  0.00    -0.507 OA
ATOM     25  H   UNL     1     -32.939   5.851  78.022  1.00  0.00     0.293 HD
ENDBRANCH   6  24
BRANCH   8  26
ATOM     26  O   UNL     1     -36.073  10.083  76.580  1.00  0.00    -0.508 OA
ATOM     27  H   UNL     1     -35.428  10.826  76.820  1.00  0.00     0.293 HD
ENDBRANCH   8  26
TORSDOF 6
ENDMDL
MODEL 6
REMARK VINA RESULT:    -6.198      1.566      3.235
REMARK INTER + INTRA:          -7.756
REMARK INTER:                  -7.503
REMARK INTRA:                  -0.253
REMARK UNBOUND:                -0.289
REMARK SMILES O=c1c(O)c(-c2ccc(O)c(O)c2)oc2cc(O)cc(O)c12
REMARK SMILES IDX 5 1 3 2 2 3 1 4 22 5 20 6 19 7 17 8 16 9 15 10 14 11 6 12
REMARK SMILES IDX 7 13 8 14 9 15 13 16 11 17 10 18 12 20 4 22 21 24 18 26
REMARK H PARENT 10 19 12 21 4 23 21 25 18 27
REMARK Flexibility Score: inf
ROOT
ATOM      1  C   UNL     1     -37.601   4.957  80.138  1.00  0.00     0.180 A 
ATOM      2  C   UNL     1     -38.629   4.788  79.191  1.00  0.00     0.208 A 
ATOM      3  C   UNL     1     -39.879   4.320  79.622  1.00  0.00     0.238 A 
ATOM      4  O   UNL     1     -40.804   4.154  78.781  1.00  0.00    -0.285 OA
ATOM      5  C   UNL     1     -40.089   4.049  80.991  1.00  0.00     0.111 A 
ATOM      6  C   UNL     1     -41.319   3.580  81.508  1.00  0.00     0.134 A 
ATOM      7  C   UNL     1     -41.451   3.342  82.884  1.00  0.00     0.093 A 
ATOM      8  C   UNL     1     -40.375   3.568  83.752  1.00  0.00     0.123 A 
ATOM      9  C   UNL     1     -39.160   4.031  83.246  1.00  0.00     0.094 A 
ATOM     10  C   UNL     1     -39.008   4.271  81.878  1.00  0.00     0.146 A 
ATOM     11  O   UNL     1     -37.839   4.707  81.423  1.00  0.00    -0.452 OA
ENDROOT
BRANCH   1  12
ATOM     12  C   UNL     1     -36.250   5.429  79.758  1.00  0.00     0.025 A 
ATOM     13  C   UNL     1     -35.147   4.561  79.753  1.00  0.00     0.016 A 
ATOM     14  C   UNL     1     -33.878   5.033  79.414  1.00  0.00     0.051 A 
ATOM     15  C   UNL     1     -33.681   6.380  79.088  1.00  0.00     0.157 A 
ATOM     16  C   UNL     1     -36.051   6.784  79.454  1.00  0.00     0.062 A 
ATOM     17  C   UNL     1     -34.781   7.269  79.113  1.00  0.00     0.158 A 
BRANCH  15  18
ATOM     18  O   UNL     1     -32.388   6.788  78.755  1.00  0.00    -0.504 OA
ATOM     19  H   UNL     1     -31.554   6.455  79.216  1.00  0.00     0.293 HD
ENDBRANCH  15  18
BRANCH  17  20
ATOM     20  O   UNL     1     -34.661   8.626  78.809  1.00  0.00    -0.504 OA
ATOM     21  H   UNL     1     -34.015   9.252  79.267  1.00  0.00     0.293 HD
ENDBRANCH  17  20
ENDBRANCH   1  12
BRANCH   2  22
ATOM     22  O   UNL     1     -38.411   5.110  77.848  1.00  0.00    -0.502 OA
ATOM     23  H   UNL     1     -38.732   5.979  77.439  1.00  0.00     0.293 HD
ENDBRANCH   2  22
BRANCH   6  24
ATOM     24  O   UNL     1     -42.409   3.346  80.668  1.00  0.00    -0.507 OA
ATOM     25  H   UNL     1     -42.310   2.846  79.792  1.00  0.00     0.293 HD
ENDBRANCH   6  24
BRANCH   8  26
ATOM     26  O   UNL     1     -40.506   3.334  85.119  1.00  0.00    -0.508 OA
ATOM     27  H   UNL     1     -40.926   4.018  85.737  1.00  0.00     0.293 HD
ENDBRANCH   8  26
TORSDOF 6
ENDMDL
MODEL 7
REMARK VINA RESULT:    -6.075      9.025     11.173
REMARK INTER + INTRA:          -7.607
REMARK INTER:                  -7.290
REMARK INTRA:                  -0.318
REMARK UNBOUND:                -0.289
REMARK SMILES O=c1c(O)c(-c2ccc(O)c(O)c2)oc2cc(O)cc(O)c12
REMARK SMILES IDX 5 1 3 2 2 3 1 4 22 5 20 6 19 7 17 8 16 9 15 10 14 11 6 12
REMARK SMILES IDX 7 13 8 14 9 15 13 16 11 17 10 18 12 20 4 22 21 24 18 26
REMARK H PARENT 10 19 12 21 4 23 21 25 18 27
REMARK Flexibility Score: inf
ROOT
ATOM      1  C   UNL     1     -42.427  -4.879  82.282  1.00  0.00     0.180 A 
ATOM      2  C   UNL     1     -42.860  -6.066  82.903  1.00  0.00     0.208 A 
ATOM      3  C   UNL     1     -43.966  -6.746  82.373  1.00  0.00     0.238 A 
ATOM      4  O   UNL     1     -44.370  -7.804  82.928  1.00  0.00    -0.285 OA
ATOM      5  C   UNL     1     -44.608  -6.243  81.222  1.00  0.00     0.111 A 
ATOM      6  C   UNL     1     -45.725  -6.870  80.621  1.00  0.00     0.134 A 
ATOM      7  C   UNL     1     -46.303  -6.311  79.471  1.00  0.00     0.093 A 
ATOM      8  C   UNL     1     -45.781  -5.140  78.910  1.00  0.00     0.123 A 
ATOM      9  C   UNL     1     -44.679  -4.518  79.498  1.00  0.00     0.094 A 
ATOM     10  C   UNL     1     -44.091  -5.057  80.646  1.00  0.00     0.146 A 
ATOM     11  O   UNL     1     -43.047  -4.442  81.188  1.00  0.00    -0.452 OA
ENDROOT
BRANCH   1  12
ATOM     12  C   UNL     1     -41.280  -4.095  82.793  1.00  0.00     0.025 A 
ATOM     13  C   UNL     1     -41.468  -2.987  83.634  1.00  0.00     0.016 A 
ATOM     14  C   UNL     1     -40.372  -2.249  84.085  1.00  0.00     0.051 A 
ATOM     15  C   UNL     1     -39.072  -2.591  83.696  1.00  0.00     0.157 A 
ATOM     16  C   UNL     1     -39.979  -4.426  82.384  1.00  0.00     0.062 A 
ATOM     17  C   UNL     1     -38.873  -3.692  82.830  1.00  0.00     0.158 A 
BRANCH  15  18
ATOM     18  O   UNL     1     -38.020  -1.814  84.185  1.00  0.00    -0.504 OA
ATOM     19  H   UNL     1     -37.505  -1.147  83.629  1.00  0.00     0.293 HD
ENDBRANCH  15  18
BRANCH  17  20
ATOM     20  O   UNL     1     -37.607  -4.087  82.392  1.00  0.00    -0.504 OA
ATOM     21  H   UNL     1     -37.374  -4.261  81.426  1.00  0.00     0.293 HD
ENDBRANCH  17  20
ENDBRANCH   1  12
BRANCH   2  22
ATOM     22  O   UNL     1     -42.177  -6.570  84.014  1.00  0.00    -0.502 OA
ATOM     23  H   UNL     1     -41.240  -6.272  84.257  1.00  0.00     0.293 HD
ENDBRANCH   2  22
BRANCH   6  24
ATOM     24  O   UNL     1     -46.267  -8.039  81.157  1.00  0.00    -0.507 OA
ATOM     25  H   UNL     1     -46.862  -8.024  81.978  1.00  0.00     0.293 HD
ENDBRANCH   6  24
BRANCH   8  26
ATOM     26  O   UNL     1     -46.353  -4.585  77.766  1.00  0.00    -0.508 OA
ATOM     27  H   UNL     1     -46.785  -5.164  77.056  1.00  0.00     0.293 HD
ENDBRANCH   8  26
TORSDOF 6
ENDMDL
MODEL 8
REMARK VINA RESULT:    -6.052      9.580     12.403
REMARK INTER + INTRA:          -7.579
REMARK INTER:                  -7.720
REMARK INTRA:                   0.141
REMARK UNBOUND:                -0.289
REMARK SMILES O=c1c(O)c(-c2ccc(O)c(O)c2)oc2cc(O)cc(O)c12
REMARK SMILES IDX 5 1 3 2 2 3 1 4 22 5 20 6 19 7 17 8 16 9 15 10 14 11 6 12
REMARK SMILES IDX 7 13 8 14 9 15 13 16 11 17 10 18 12 20 4 22 21 24 18 26
REMARK H PARENT 10 19 12 21 4 23 21 25 18 27
REMARK Flexibility Score: inf
ROOT
ATOM      1  C   UNL     1     -46.656   3.382  72.136  1.00  0.00     0.180 A 
ATOM      2  C   UNL     1     -47.274   3.454  70.873  1.00  0.00     0.208 A 
ATOM      3  C   UNL     1     -47.443   4.709  70.270  1.00  0.00     0.238 A 
ATOM      4  O   UNL     1     -48.005   4.787  69.144  1.00  0.00    -0.285 OA
ATOM      5  C   UNL     1     -46.975   5.867  70.927  1.00  0.00     0.111 A 
ATOM      6  C   UNL     1     -47.102   7.168  70.386  1.00  0.00     0.134 A 
ATOM      7  C   UNL     1     -46.602   8.270  71.098  1.00  0.00     0.093 A 
ATOM      8  C   UNL     1     -45.977   8.092  72.338  1.00  0.00     0.123 A 
ATOM      9  C   UNL     1     -45.849   6.810  72.875  1.00  0.00     0.094 A 
ATOM     10  C   UNL     1     -46.343   5.700  72.182  1.00  0.00     0.146 A 
ATOM     11  O   UNL     1     -46.213   4.493  72.719  1.00  0.00    -0.452 OA
ENDROOT
BRANCH   1  12
ATOM     12  C   UNL     1     -46.459   2.097  72.844  1.00  0.00     0.025 A 
ATOM     13  C   UNL     1     -47.427   1.081  72.799  1.00  0.00     0.016 A 
ATOM     14  C   UNL     1     -47.230  -0.114  73.495  1.00  0.00     0.051 A 
ATOM     15  C   UNL     1     -46.074  -0.313  74.258  1.00  0.00     0.157 A 
ATOM     16  C   UNL     1     -45.310   1.908  73.627  1.00  0.00     0.062 A 
ATOM     17  C   UNL     1     -45.103   0.713  74.329  1.00  0.00     0.158 A 
BRANCH  15  18
ATOM     18  O   UNL     1     -45.936  -1.531  74.926  1.00  0.00    -0.504 OA
ATOM     19  H   UNL     1     -46.033  -2.433  74.482  1.00  0.00     0.293 HD
ENDBRANCH  15  18
BRANCH  17  20
ATOM     20  O   UNL     1     -43.930   0.590  75.076  1.00  0.00    -0.504 OA
ATOM     21  H   UNL     1     -43.202  -0.080  74.879  1.00  0.00     0.293 HD
ENDBRANCH  17  20
ENDBRANCH   1  12
BRANCH   2  22
ATOM     22  O   UNL     1     -47.685   2.288  70.221  1.00  0.00    -0.502 OA
ATOM     23  H   UNL     1     -48.342   1.637  70.635  1.00  0.00     0.293 HD
ENDBRANCH   2  22
BRANCH   6  24
ATOM     24  O   UNL     1     -47.719   7.377  69.153  1.00  0.00    -0.507 OA
ATOM     25  H   UNL     1     -48.616   6.961  68.928  1.00  0.00     0.293 HD
ENDBRANCH   6  24
BRANCH   8  26
ATOM     26  O   UNL     1     -45.479   9.185  73.044  1.00  0.00    -0.508 OA
ATOM     27  H   UNL     1     -46.093   9.899  73.418  1.00  0.00     0.293 HD
ENDBRANCH   8  26
TORSDOF 6
ENDMDL
MODEL 9
REMARK VINA RESULT:    -6.030     10.530     11.975
REMARK INTER + INTRA:          -7.552
REMARK INTER:                  -7.227
REMARK INTRA:                  -0.325
REMARK UNBOUND:                -0.289
REMARK SMILES O=c1c(O)c(-c2ccc(O)c(O)c2)oc2cc(O)cc(O)c12
REMARK SMILES IDX 5 1 3 2 2 3 1 4 22 5 20 6 19 7 17 8 16 9 15 10 14 11 6 12
REMARK SMILES IDX 7 13 8 14 9 15 13 16 11 17 10 18 12 20 4 22 21 24 18 26
REMARK H PARENT 10 19 12 21 4 23 21 25 18 27
REMARK Flexibility Score: inf
ROOT
ATOM      1  C   UNL     1     -46.896   2.090  73.503  1.00  0.00     0.180 A 
ATOM      2  C   UNL     1     -47.283   2.991  74.513  1.00  0.00     0.208 A 
ATOM      3  C   UNL     1     -47.292   4.365  74.230  1.00  0.00     0.238 A 
ATOM      4  O   UNL     1     -47.626   5.183  75.131  1.00  0.00    -0.285 OA
ATOM      5  C   UNL     1     -46.935   4.814  72.942  1.00  0.00     0.111 A 
ATOM      6  C   UNL     1     -46.922   6.180  72.574  1.00  0.00     0.134 A 
ATOM      7  C   UNL     1     -46.563   6.546  71.268  1.00  0.00     0.093 A 
ATOM      8  C   UNL     1     -46.219   5.571  70.324  1.00  0.00     0.123 A 
ATOM      9  C   UNL     1     -46.231   4.222  70.682  1.00  0.00     0.094 A 
ATOM     10  C   UNL     1     -46.583   3.837  71.979  1.00  0.00     0.146 A 
ATOM     11  O   UNL     1     -46.580   2.548  72.295  1.00  0.00    -0.452 OA
ENDROOT
BRANCH   1  12
ATOM     12  C   UNL     1     -46.843   0.628  73.730  1.00  0.00     0.025 A 
ATOM     13  C   UNL     1     -47.966  -0.187  73.517  1.00  0.00     0.016 A 
ATOM     14  C   UNL     1     -47.900  -1.560  73.761  1.00  0.00     0.051 A 
ATOM     15  C   UNL     1     -46.720  -2.144  74.234  1.00  0.00     0.157 A 
ATOM     16  C   UNL     1     -45.666   0.047  74.226  1.00  0.00     0.062 A 
ATOM     17  C   UNL     1     -45.588  -1.330  74.474  1.00  0.00     0.158 A 
BRANCH  15  18
ATOM     18  O   UNL     1     -46.718  -3.524  74.454  1.00  0.00    -0.504 OA
ATOM     19  H   UNL     1     -46.595  -4.212  73.725  1.00  0.00     0.293 HD
ENDBRANCH  15  18
BRANCH  17  20
ATOM     20  O   UNL     1     -44.381  -1.840  74.954  1.00  0.00    -0.504 OA
ATOM     21  H   UNL     1     -44.307  -2.480  75.730  1.00  0.00     0.293 HD
ENDBRANCH  17  20
ENDBRANCH   1  12
BRANCH   2  22
ATOM     22  O   UNL     1     -47.679   2.517  75.767  1.00  0.00    -0.502 OA
ATOM     23  H   UNL     1     -47.377   1.621  76.130  1.00  0.00     0.293 HD
ENDBRANCH   2  22
BRANCH   6  24
ATOM     24  O   UNL     1     -47.260   7.175  73.492  1.00  0.00    -0.507 OA
ATOM     25  H   UNL     1     -46.891   7.177  74.436  1.00  0.00     0.293 HD
ENDBRANCH   6  24
BRANCH   8  26
ATOM     26  O   UNL     1     -45.864   5.933  69.026  1.00  0.00    -0.508 OA
ATOM     27  H   UNL     1     -44.970   6.363  68.822  1.00  0.00     0.293 HD
ENDBRANCH   8  26
TORSDOF 6
ENDMDL
