MODEL 1
REMARK VINA RESULT:    -3.464      0.000      0.000
REMARK INTER + INTRA:          -3.464
REMARK INTER:                  -3.464
REMARK INTRA:                   0.000
REMARK UNBOUND:                 0.000
REMARK SMILES CC1(C)C(=O)[C@]2(C)CC[C@H]1C2
REMARK SMILES IDX 1 1 2 2 10 3 9 4 8 5 6 6 11 7 4 8 5 9 7 10 3 11
REMARK H PARENT
REMARK Flexibility Score: inf
ROOT
ATOM      1  C   UNL     1     146.373 141.741 141.179  1.00  0.00     0.020 C 
ATOM      2  C   UNL     1     145.011 141.861 141.894  1.00  0.00     0.027 C 
ATOM      3  C   UNL     1     145.182 142.298 143.395  1.00  0.00     0.003 C 
ATOM      4  C   UNL     1     143.808 142.593 144.050  1.00  0.00     0.005 C 
ATOM      5  C   UNL     1     143.150 141.196 144.124  1.00  0.00     0.015 C 
ATOM      6  C   UNL     1     144.264 140.271 143.597  1.00  0.00     0.027 C 
ATOM      7  C   UNL     1     145.508 140.979 144.092  1.00  0.00     0.019 C 
ATOM      8  C   UNL     1     144.392 140.511 142.117  1.00  0.00     0.144 C 
ATOM      9  O   UNL     1     143.990 139.764 141.238  1.00  0.00    -0.298 OA
ATOM     10  C   UNL     1     144.151 138.804 144.014  1.00  0.00     0.020 C 
ATOM     11  C   UNL     1     144.084 142.779 141.068  1.00  0.00     0.020 C 
ENDROOT
TORSDOF 0
ENDMDL
MODEL 2
REMARK VINA RESULT:    -3.460      6.638      8.056
REMARK INTER + INTRA:          -3.460
REMARK INTER:                  -3.460
REMARK INTRA:                   0.000
REMARK UNBOUND:                 0.000
REMARK SMILES CC1(C)C(=O)[C@]2(C)CC[C@H]1C2
REMARK SMILES IDX 1 1 2 2 10 3 9 4 8 5 6 6 11 7 4 8 5 9 7 10 3 11
REMARK H PARENT
REMARK Flexibility Score: inf
ROOT
ATOM      1  C   UNL     1     135.319 139.813 141.043  1.00  0.00     0.020 C 
ATOM      2  C   UNL     1     136.646 139.727 141.827  1.00  0.00     0.027 C 
ATOM      3  C   UNL     1     136.406 139.331 143.330  1.00  0.00     0.003 C 
ATOM      4  C   UNL     1     137.748 139.070 144.060  1.00  0.00     0.005 C 
ATOM      5  C   UNL     1     138.389 140.474 144.125  1.00  0.00     0.015 C 
ATOM      6  C   UNL     1     137.294 141.373 143.517  1.00  0.00     0.027 C 
ATOM      7  C   UNL     1     136.033 140.666 143.972  1.00  0.00     0.019 C 
ATOM      8  C   UNL     1     137.240 141.089 142.040  1.00  0.00     0.144 C 
ATOM      9  O   UNL     1     137.679 141.816 141.161  1.00  0.00    -0.298 OA
ATOM     10  C   UNL     1     137.373 142.852 143.897  1.00  0.00     0.020 C 
ATOM     11  C   UNL     1     137.620 138.796 141.073  1.00  0.00     0.020 C 
ENDROOT
TORSDOF 0
ENDMDL
MODEL 3
REMARK VINA RESULT:    -3.460      4.286      5.598
REMARK INTER + INTRA:          -3.460
REMARK INTER:                  -3.460
REMARK INTRA:                   0.000
REMARK UNBOUND:                 0.000
REMARK SMILES CC1(C)C(=O)[C@]2(C)CC[C@H]1C2
REMARK SMILES IDX 1 1 2 2 10 3 9 4 8 5 6 6 11 7 4 8 5 9 7 10 3 11
REMARK H PARENT
REMARK Flexibility Score: inf
ROOT
ATOM      1  C   UNL     1     139.753 146.272 141.283  1.00  0.00     0.020 C 
ATOM      2  C   UNL     1     139.778 144.888 141.966  1.00  0.00     0.027 C 
ATOM      3  C   UNL     1     139.416 144.989 143.492  1.00  0.00     0.003 C 
ATOM      4  C   UNL     1     139.265 143.582 144.125  1.00  0.00     0.005 C 
ATOM      5  C   UNL     1     140.709 143.032 144.102  1.00  0.00     0.015 C 
ATOM      6  C   UNL     1     141.516 144.226 143.555  1.00  0.00     0.027 C 
ATOM      7  C   UNL     1     140.745 145.401 144.124  1.00  0.00     0.019 C 
ATOM      8  C   UNL     1     141.181 144.371 142.095  1.00  0.00     0.144 C 
ATOM      9  O   UNL     1     141.905 144.048 141.166  1.00  0.00    -0.298 OA
ATOM     10  C   UNL     1     143.009 144.217 143.887  1.00  0.00     0.020 C 
ATOM     11  C   UNL     1     138.887 143.913 141.166  1.00  0.00     0.020 C 
ENDROOT
TORSDOF 0
ENDMDL
MODEL 4
REMARK VINA RESULT:    -3.455      4.379      5.677
REMARK INTER + INTRA:          -3.455
REMARK INTER:                  -3.455
REMARK INTRA:                   0.000
REMARK UNBOUND:                 0.000
REMARK SMILES CC1(C)C(=O)[C@]2(C)CC[C@H]1C2
REMARK SMILES IDX 1 1 2 2 10 3 9 4 8 5 6 6 11 7 4 8 5 9 7 10 3 11
REMARK H PARENT
REMARK Flexibility Score: inf
ROOT
ATOM      1  C   UNL     1     141.770 135.312 141.123  1.00  0.00     0.020 C 
ATOM      2  C   UNL     1     141.851 136.664 141.864  1.00  0.00     0.027 C 
ATOM      3  C   UNL     1     142.287 136.477 143.363  1.00  0.00     0.003 C 
ATOM      4  C   UNL     1     142.542 137.846 144.045  1.00  0.00     0.005 C 
ATOM      5  C   UNL     1     141.128 138.466 144.124  1.00  0.00     0.015 C 
ATOM      6  C   UNL     1     140.235 137.338 143.572  1.00  0.00     0.027 C 
ATOM      7  C   UNL     1     140.974 136.103 144.049  1.00  0.00     0.019 C 
ATOM      8  C   UNL     1     140.485 137.242 142.091  1.00  0.00     0.144 C 
ATOM      9  O   UNL     1     139.731 137.641 141.217  1.00  0.00    -0.298 OA
ATOM     10  C   UNL     1     138.763 137.404 143.985  1.00  0.00     0.020 C 
ATOM     11  C   UNL     1     142.748 137.630 141.059  1.00  0.00     0.020 C 
ENDROOT
TORSDOF 0
ENDMDL
MODEL 5
REMARK VINA RESULT:    -3.445      3.684      5.741
REMARK INTER + INTRA:          -3.445
REMARK INTER:                  -3.445
REMARK INTRA:                   0.000
REMARK UNBOUND:                 0.000
REMARK SMILES CC1(C)C(=O)[C@]2(C)CC[C@H]1C2
REMARK SMILES IDX 1 1 2 2 10 3 9 4 8 5 6 6 11 7 4 8 5 9 7 10 3 11
REMARK H PARENT
REMARK Flexibility Score: inf
ROOT
ATOM      1  C   UNL     1     139.161 137.490 144.071  1.00  0.00     0.020 C 
ATOM      2  C   UNL     1     140.228 137.441 142.957  1.00  0.00     0.027 C 
ATOM      3  C   UNL     1     141.115 136.148 143.062  1.00  0.00     0.003 C 
ATOM      4  C   UNL     1     142.058 136.016 141.839  1.00  0.00     0.005 C 
ATOM      5  C   UNL     1     143.049 137.186 142.034  1.00  0.00     0.015 C 
ATOM      6  C   UNL     1     142.612 137.774 143.390  1.00  0.00     0.027 C 
ATOM      7  C   UNL     1     142.144 136.534 144.124  1.00  0.00     0.019 C 
ATOM      8  C   UNL     1     141.296 138.472 143.181  1.00  0.00     0.144 C 
ATOM      9  O   UNL     1     141.134 139.682 143.125  1.00  0.00    -0.298 OA
ATOM     10  C   UNL     1     143.676 138.591 144.125  1.00  0.00     0.020 C 
ATOM     11  C   UNL     1     139.539 137.627 141.587  1.00  0.00     0.020 C 
ENDROOT
TORSDOF 0
ENDMDL
MODEL 6
REMARK VINA RESULT:    -3.409      4.596      5.985
REMARK INTER + INTRA:          -3.409
REMARK INTER:                  -3.409
REMARK INTRA:                   0.000
REMARK UNBOUND:                 0.000
REMARK SMILES CC1(C)C(=O)[C@]2(C)CC[C@H]1C2
REMARK SMILES IDX 1 1 2 2 10 3 9 4 8 5 6 6 11 7 4 8 5 9 7 10 3 11
REMARK H PARENT
REMARK Flexibility Score: inf
ROOT
ATOM      1  C   UNL     1     137.972 143.219 141.449  1.00  0.00     0.020 C 
ATOM      2  C   UNL     1     138.758 143.667 142.699  1.00  0.00     0.027 C 
ATOM      3  C   UNL     1     139.245 145.157 142.572  1.00  0.00     0.003 C 
ATOM      4  C   UNL     1     139.872 145.654 143.900  1.00  0.00     0.005 C 
ATOM      5  C   UNL     1     141.173 144.826 144.004  1.00  0.00     0.015 C 
ATOM      6  C   UNL     1     141.177 144.038 142.680  1.00  0.00     0.027 C 
ATOM      7  C   UNL     1     140.517 145.023 141.737  1.00  0.00     0.019 C 
ATOM      8  C   UNL     1     140.098 142.992 142.770  1.00  0.00     0.144 C 
ATOM      9  O   UNL     1     140.279 141.798 142.949  1.00  0.00    -0.298 OA
ATOM     10  C   UNL     1     142.545 143.528 142.223  1.00  0.00     0.020 C 
ATOM     11  C   UNL     1     137.913 143.381 143.959  1.00  0.00     0.020 C 
ENDROOT
TORSDOF 0
ENDMDL
MODEL 7
REMARK VINA RESULT:    -3.381      1.476      2.299
REMARK INTER + INTRA:          -3.381
REMARK INTER:                  -3.381
REMARK INTRA:                   0.000
REMARK UNBOUND:                 0.000
REMARK SMILES CC1(C)C(=O)[C@]2(C)CC[C@H]1C2
REMARK SMILES IDX 1 1 2 2 10 3 9 4 8 5 6 6 11 7 4 8 5 9 7 10 3 11
REMARK H PARENT
REMARK Flexibility Score: inf
ROOT
ATOM      1  C   UNL     1     143.219 143.625 141.498  1.00  0.00     0.020 C 
ATOM      2  C   UNL     1     143.633 142.849 142.767  1.00  0.00     0.027 C 
ATOM      3  C   UNL     1     145.129 142.371 142.690  1.00  0.00     0.003 C 
ATOM      4  C   UNL     1     145.589 141.756 144.037  1.00  0.00     0.005 C 
ATOM      5  C   UNL     1     144.765 140.450 144.123  1.00  0.00     0.015 C 
ATOM      6  C   UNL     1     144.018 140.433 142.775  1.00  0.00     0.027 C 
ATOM      7  C   UNL     1     145.029 141.093 141.858  1.00  0.00     0.019 C 
ATOM      8  C   UNL     1     142.964 141.507 142.826  1.00  0.00     0.144 C 
ATOM      9  O   UNL     1     141.766 141.319 142.969  1.00  0.00    -0.298 OA
ATOM     10  C   UNL     1     143.531 139.059 142.312  1.00  0.00     0.020 C 
ATOM     11  C   UNL     1     143.304 143.701 144.012  1.00  0.00     0.020 C 
ENDROOT
TORSDOF 0
ENDMDL
MODEL 8
REMARK VINA RESULT:    -3.349      3.445      5.142
REMARK INTER + INTRA:          -3.349
REMARK INTER:                  -3.349
REMARK INTRA:                   0.000
REMARK UNBOUND:                 0.000
REMARK SMILES CC1(C)C(=O)[C@]2(C)CC[C@H]1C2
REMARK SMILES IDX 1 1 2 2 10 3 9 4 8 5 6 6 11 7 4 8 5 9 7 10 3 11
REMARK H PARENT
REMARK Flexibility Score: inf
ROOT
ATOM      1  C   UNL     1     143.641 138.373 141.227  1.00  0.00     0.020 C 
ATOM      2  C   UNL     1     142.927 138.022 142.550  1.00  0.00     0.027 C 
ATOM      3  C   UNL     1     142.459 136.521 142.574  1.00  0.00     0.003 C 
ATOM      4  C   UNL     1     141.910 136.129 143.970  1.00  0.00     0.005 C 
ATOM      5  C   UNL     1     140.603 136.947 144.074  1.00  0.00     0.015 C 
ATOM      6  C   UNL     1     140.518 137.622 142.691  1.00  0.00     0.027 C 
ATOM      7  C   UNL     1     141.143 136.569 141.799  1.00  0.00     0.019 C 
ATOM      8  C   UNL     1     141.583 138.684 142.636  1.00  0.00     0.144 C 
ATOM      9  O   UNL     1     141.391 139.887 142.725  1.00  0.00    -0.298 OA
ATOM     10  C   UNL     1     139.120 138.075 142.267  1.00  0.00     0.020 C 
ATOM     11  C   UNL     1     143.832 138.422 143.736  1.00  0.00     0.020 C 
ENDROOT
TORSDOF 0
ENDMDL
MODEL 9
REMARK VINA RESULT:    -3.346      6.194      7.593
REMARK INTER + INTRA:          -3.346
REMARK INTER:                  -3.346
REMARK INTRA:                   0.000
REMARK UNBOUND:                 0.000
REMARK SMILES CC1(C)C(=O)[C@]2(C)CC[C@H]1C2
REMARK SMILES IDX 1 1 2 2 10 3 9 4 8 5 6 6 11 7 4 8 5 9 7 10 3 11
REMARK H PARENT
REMARK Flexibility Score: inf
ROOT
ATOM      1  C   UNL     1     138.362 138.011 141.153  1.00  0.00     0.020 C 
ATOM      2  C   UNL     1     137.976 138.717 142.470  1.00  0.00     0.027 C 
ATOM      3  C   UNL     1     136.483 139.211 142.446  1.00  0.00     0.003 C 
ATOM      4  C   UNL     1     136.051 139.753 143.833  1.00  0.00     0.005 C 
ATOM      5  C   UNL     1     136.888 141.045 143.979  1.00  0.00     0.015 C 
ATOM      6  C   UNL     1     137.613 141.132 142.621  1.00  0.00     0.027 C 
ATOM      7  C   UNL     1     136.581 140.533 141.686  1.00  0.00     0.019 C 
ATOM      8  C   UNL     1     138.657 140.049 142.593  1.00  0.00     0.144 C 
ATOM      9  O   UNL     1     139.860 140.219 142.726  1.00  0.00    -0.298 OA
ATOM     10  C   UNL     1     138.104 142.526 142.228  1.00  0.00     0.020 C 
ATOM     11  C   UNL     1     138.319 137.794 143.660  1.00  0.00     0.020 C 
ENDROOT
TORSDOF 0
ENDMDL
