MODEL 1
REMARK VINA RESULT:    -4.834      0.000      0.000
REMARK INTER + INTRA:          -5.689
REMARK INTER:                  -5.541
REMARK INTRA:                  -0.149
REMARK UNBOUND:                -0.149
REMARK SMILES O=C([O-])C=Cc1ccc(O)cc1
REMARK SMILES IDX 6 1 7 2 12 3 8 4 11 5 9 6 5 7 4 8 2 9 1 10 3 11 10 12
REMARK H PARENT 10 13
REMARK Flexibility Score: inf
ROOT
ATOM      1  C   UNL     1       4.868  11.153  47.497  1.00  0.00    -0.025 A 
ATOM      2  C   UNL     1       5.366  11.781  48.651  1.00  0.00     0.012 A 
ATOM      3  C   UNL     1       3.476  11.137  47.279  1.00  0.00     0.012 A 
ATOM      4  C   UNL     1       4.494  12.358  49.579  1.00  0.00     0.047 A 
ATOM      5  C   UNL     1       2.606  11.716  48.209  1.00  0.00     0.047 A 
ATOM      6  C   UNL     1       3.111  12.325  49.361  1.00  0.00     0.115 A 
ENDROOT
BRANCH   1   7
ATOM      7  C   UNL     1       5.836  10.563  46.538  1.00  0.00     0.010 C 
ATOM      8  C   UNL     1       7.056  10.131  46.882  1.00  0.00     0.025 C 
BRANCH   8   9
ATOM      9  C   UNL     1       7.987   9.563  45.894  1.00  0.00     0.064 C 
ATOM     10  O   UNL     1       8.518  10.315  45.037  1.00  0.00    -0.545 OA
ATOM     11  O   UNL     1       8.292   8.206  45.893  1.00  0.00    -0.545 OA
ENDBRANCH   8   9
ENDBRANCH   1   7
BRANCH   6  12
ATOM     12  O   UNL     1       2.232  12.896  50.279  1.00  0.00    -0.508 OA
ATOM     13  H   UNL     1       2.376  13.832  50.637  1.00  0.00     0.293 HD
ENDBRANCH   6  12
TORSDOF 3
ENDMDL
MODEL 2
REMARK VINA RESULT:    -4.638      4.257      5.910
REMARK INTER + INTRA:          -5.465
REMARK INTER:                  -5.320
REMARK INTRA:                  -0.145
REMARK UNBOUND:                -0.149
REMARK SMILES O=C([O-])C=Cc1ccc(O)cc1
REMARK SMILES IDX 6 1 7 2 12 3 8 4 11 5 9 6 5 7 4 8 2 9 1 10 3 11 10 12
REMARK H PARENT 10 13
REMARK Flexibility Score: inf
ROOT
ATOM      1  C   UNL     1       1.764   9.976  47.352  1.00  0.00    -0.025 A 
ATOM      2  C   UNL     1       2.927  10.639  46.922  1.00  0.00     0.012 A 
ATOM      3  C   UNL     1       1.472   9.940  48.730  1.00  0.00     0.012 A 
ATOM      4  C   UNL     1       3.792  11.230  47.849  1.00  0.00     0.047 A 
ATOM      5  C   UNL     1       2.339  10.533  49.654  1.00  0.00     0.047 A 
ATOM      6  C   UNL     1       3.500  11.176  49.218  1.00  0.00     0.115 A 
ENDROOT
BRANCH   1   7
ATOM      7  C   UNL     1       0.873   9.373  46.328  1.00  0.00     0.010 C 
ATOM      8  C   UNL     1      -0.342   8.877  46.598  1.00  0.00     0.025 C 
BRANCH   8   9
ATOM      9  C   UNL     1      -1.187   8.279  45.553  1.00  0.00     0.064 C 
ATOM     10  O   UNL     1      -0.779   8.256  44.363  1.00  0.00    -0.545 OA
ATOM     11  O   UNL     1      -2.431   7.737  45.858  1.00  0.00    -0.545 OA
ENDBRANCH   8   9
ENDBRANCH   1   7
BRANCH   6  12
ATOM     12  O   UNL     1       4.355  11.760  50.150  1.00  0.00    -0.508 OA
ATOM     13  H   UNL     1       4.044  11.979  51.089  1.00  0.00     0.293 HD
ENDBRANCH   6  12
TORSDOF 3
ENDMDL
MODEL 3
REMARK VINA RESULT:    -4.551      9.227     10.473
REMARK INTER + INTRA:          -5.365
REMARK INTER:                  -5.215
REMARK INTRA:                  -0.150
REMARK UNBOUND:                -0.149
REMARK SMILES O=C([O-])C=Cc1ccc(O)cc1
REMARK SMILES IDX 6 1 7 2 12 3 8 4 11 5 9 6 5 7 4 8 2 9 1 10 3 11 10 12
REMARK H PARENT 10 13
REMARK Flexibility Score: inf
ROOT
ATOM      1  C   UNL     1       7.910   4.094  53.519  1.00  0.00    -0.025 A 
ATOM      2  C   UNL     1       9.286   3.810  53.563  1.00  0.00     0.012 A 
ATOM      3  C   UNL     1       6.995   3.075  53.853  1.00  0.00     0.012 A 
ATOM      4  C   UNL     1       9.738   2.533  53.909  1.00  0.00     0.047 A 
ATOM      5  C   UNL     1       7.451   1.799  54.199  1.00  0.00     0.047 A 
ATOM      6  C   UNL     1       8.821   1.523  54.225  1.00  0.00     0.115 A 
ENDROOT
BRANCH   1   7
ATOM      7  C   UNL     1       7.481   5.468  53.156  1.00  0.00     0.010 C 
ATOM      8  C   UNL     1       8.256   6.552  53.301  1.00  0.00     0.025 C 
BRANCH   8   9
ATOM      9  C   UNL     1       7.785   7.898  52.937  1.00  0.00     0.064 C 
ATOM     10  O   UNL     1       6.848   8.426  53.592  1.00  0.00    -0.545 OA
ATOM     11  O   UNL     1       8.358   8.598  51.881  1.00  0.00    -0.545 OA
ENDBRANCH   8   9
ENDBRANCH   1   7
BRANCH   6  12
ATOM     12  O   UNL     1       9.259   0.247  54.570  1.00  0.00    -0.508 OA
ATOM     13  H   UNL     1      10.176   0.093  54.972  1.00  0.00     0.293 HD
ENDBRANCH   6  12
TORSDOF 3
ENDMDL
MODEL 4
REMARK VINA RESULT:    -4.538      1.368      2.069
REMARK INTER + INTRA:          -5.350
REMARK INTER:                  -5.213
REMARK INTRA:                  -0.137
REMARK UNBOUND:                -0.149
REMARK SMILES O=C([O-])C=Cc1ccc(O)cc1
REMARK SMILES IDX 6 1 7 2 12 3 8 4 11 5 9 6 5 7 4 8 2 9 1 10 3 11 10 12
REMARK H PARENT 10 13
REMARK Flexibility Score: inf
ROOT
ATOM      1  C   UNL     1       5.057  10.941  47.133  1.00  0.00    -0.025 A 
ATOM      2  C   UNL     1       3.693  10.751  46.855  1.00  0.00     0.012 A 
ATOM      3  C   UNL     1       5.449  11.220  48.458  1.00  0.00     0.012 A 
ATOM      4  C   UNL     1       2.738  10.862  47.870  1.00  0.00     0.047 A 
ATOM      5  C   UNL     1       4.491  11.330  49.472  1.00  0.00     0.047 A 
ATOM      6  C   UNL     1       3.135  11.154  49.181  1.00  0.00     0.115 A 
ENDROOT
BRANCH   1   7
ATOM      7  C   UNL     1       6.033  10.803  46.023  1.00  0.00     0.010 C 
ATOM      8  C   UNL     1       7.105  11.593  45.871  1.00  0.00     0.025 C 
BRANCH   8   9
ATOM      9  C   UNL     1       8.041  11.426  44.748  1.00  0.00     0.064 C 
ATOM     10  O   UNL     1       7.827  12.034  43.667  1.00  0.00    -0.545 OA
ATOM     11  O   UNL     1       9.160  10.608  44.861  1.00  0.00    -0.545 OA
ENDBRANCH   8   9
ENDBRANCH   1   7
BRANCH   6  12
ATOM     12  O   UNL     1       2.193  11.267  50.201  1.00  0.00    -0.508 OA
ATOM     13  H   UNL     1       2.406  11.746  51.068  1.00  0.00     0.293 HD
ENDBRANCH   6  12
TORSDOF 3
ENDMDL
MODEL 5
REMARK VINA RESULT:    -4.501      8.307     10.152
REMARK INTER + INTRA:          -5.308
REMARK INTER:                  -5.155
REMARK INTRA:                  -0.153
REMARK UNBOUND:                -0.149
REMARK SMILES O=C([O-])C=Cc1ccc(O)cc1
REMARK SMILES IDX 6 1 7 2 12 3 8 4 11 5 9 6 5 7 4 8 2 9 1 10 3 11 10 12
REMARK H PARENT 10 13
REMARK Flexibility Score: inf
ROOT
ATOM      1  C   UNL     1      -1.376   6.847  42.767  1.00  0.00    -0.025 A 
ATOM      2  C   UNL     1      -0.793   7.593  41.729  1.00  0.00     0.012 A 
ATOM      3  C   UNL     1      -2.046   5.648  42.449  1.00  0.00     0.012 A 
ATOM      4  C   UNL     1      -0.896   7.167  40.402  1.00  0.00     0.047 A 
ATOM      5  C   UNL     1      -2.147   5.225  41.120  1.00  0.00     0.047 A 
ATOM      6  C   UNL     1      -1.577   5.982  40.094  1.00  0.00     0.115 A 
ENDROOT
BRANCH   1   7
ATOM      7  C   UNL     1      -1.230   7.336  44.161  1.00  0.00     0.010 C 
ATOM      8  C   UNL     1      -0.555   8.445  44.494  1.00  0.00     0.025 C 
BRANCH   8   9
ATOM      9  C   UNL     1      -0.427   8.887  45.891  1.00  0.00     0.064 C 
ATOM     10  O   UNL     1      -1.459   9.008  46.601  1.00  0.00    -0.545 OA
ATOM     11  O   UNL     1       0.817   9.174  46.443  1.00  0.00    -0.545 OA
ENDBRANCH   8   9
ENDBRANCH   1   7
BRANCH   6  12
ATOM     12  O   UNL     1      -1.687   5.548  38.775  1.00  0.00    -0.508 OA
ATOM     13  H   UNL     1      -2.528   5.707  38.233  1.00  0.00     0.293 HD
ENDBRANCH   6  12
TORSDOF 3
ENDMDL
MODEL 6
REMARK VINA RESULT:    -4.499     13.070     13.927
REMARK INTER + INTRA:          -5.305
REMARK INTER:                  -5.152
REMARK INTRA:                  -0.154
REMARK UNBOUND:                -0.149
REMARK SMILES O=C([O-])C=Cc1ccc(O)cc1
REMARK SMILES IDX 6 1 7 2 12 3 8 4 11 5 9 6 5 7 4 8 2 9 1 10 3 11 10 12
REMARK H PARENT 10 13
REMARK Flexibility Score: inf
ROOT
ATOM      1  C   UNL     1       5.258  -2.847  48.217  1.00  0.00    -0.025 A 
ATOM      2  C   UNL     1       6.062  -1.793  48.683  1.00  0.00     0.012 A 
ATOM      3  C   UNL     1       4.784  -3.800  49.141  1.00  0.00     0.012 A 
ATOM      4  C   UNL     1       6.406  -1.705  50.035  1.00  0.00     0.047 A 
ATOM      5  C   UNL     1       5.130  -3.709  50.493  1.00  0.00     0.047 A 
ATOM      6  C   UNL     1       5.943  -2.665  50.943  1.00  0.00     0.115 A 
ENDROOT
BRANCH   1   7
ATOM      7  C   UNL     1       4.911  -2.891  46.774  1.00  0.00     0.010 C 
ATOM      8  C   UNL     1       5.077  -1.857  45.937  1.00  0.00     0.025 C 
BRANCH   8   9
ATOM      9  C   UNL     1       4.710  -1.942  44.515  1.00  0.00     0.064 C 
ATOM     10  O   UNL     1       4.617  -3.070  43.964  1.00  0.00    -0.545 OA
ATOM     11  O   UNL     1       4.464  -0.796  43.767  1.00  0.00    -0.545 OA
ENDBRANCH   8   9
ENDBRANCH   1   7
BRANCH   6  12
ATOM     12  O   UNL     1       6.280  -2.588  52.293  1.00  0.00    -0.508 OA
ATOM     13  H   UNL     1       7.243  -2.656  52.603  1.00  0.00     0.293 HD
ENDBRANCH   6  12
TORSDOF 3
ENDMDL
MODEL 7
REMARK VINA RESULT:    -4.484      9.780     10.460
REMARK INTER + INTRA:          -5.288
REMARK INTER:                  -5.139
REMARK INTRA:                  -0.149
REMARK UNBOUND:                -0.149
REMARK SMILES O=C([O-])C=Cc1ccc(O)cc1
REMARK SMILES IDX 6 1 7 2 12 3 8 4 11 5 9 6 5 7 4 8 2 9 1 10 3 11 10 12
REMARK H PARENT 10 13
REMARK Flexibility Score: inf
ROOT
ATOM      1  C   UNL     1       8.191   4.231  53.630  1.00  0.00    -0.025 A 
ATOM      2  C   UNL     1       7.950   2.914  54.055  1.00  0.00     0.012 A 
ATOM      3  C   UNL     1       7.135   4.965  53.054  1.00  0.00     0.012 A 
ATOM      4  C   UNL     1       6.690   2.332  53.886  1.00  0.00     0.047 A 
ATOM      5  C   UNL     1       5.875   4.379  52.887  1.00  0.00     0.047 A 
ATOM      6  C   UNL     1       5.649   3.064  53.299  1.00  0.00     0.115 A 
ENDROOT
BRANCH   1   7
ATOM      7  C   UNL     1       9.544   4.807  53.840  1.00  0.00     0.010 C 
ATOM      8  C   UNL     1      10.395   4.382  54.784  1.00  0.00     0.025 C 
BRANCH   8   9
ATOM      9  C   UNL     1      11.723   4.990  54.964  1.00  0.00     0.064 C 
ATOM     10  O   UNL     1      12.743   4.391  54.533  1.00  0.00    -0.545 OA
ATOM     11  O   UNL     1      11.871   6.218  55.601  1.00  0.00    -0.545 OA
ENDBRANCH   8   9
ENDBRANCH   1   7
BRANCH   6  12
ATOM     12  O   UNL     1       4.390   2.494  53.125  1.00  0.00    -0.508 OA
ATOM     13  H   UNL     1       3.756   2.363  53.904  1.00  0.00     0.293 HD
ENDBRANCH   6  12
TORSDOF 3
ENDMDL
MODEL 8
REMARK VINA RESULT:    -4.383     10.308     11.195
REMARK INTER + INTRA:          -5.173
REMARK INTER:                  -5.033
REMARK INTRA:                  -0.140
REMARK UNBOUND:                -0.149
REMARK SMILES O=C([O-])C=Cc1ccc(O)cc1
REMARK SMILES IDX 6 1 7 2 12 3 8 4 11 5 9 6 5 7 4 8 2 9 1 10 3 11 10 12
REMARK H PARENT 10 13
REMARK Flexibility Score: inf
ROOT
ATOM      1  C   UNL     1      -1.592   6.539  40.989  1.00  0.00    -0.025 A 
ATOM      2  C   UNL     1      -1.069   6.510  42.293  1.00  0.00     0.012 A 
ATOM      3  C   UNL     1      -1.900   7.785  40.407  1.00  0.00     0.012 A 
ATOM      4  C   UNL     1      -0.882   7.696  43.010  1.00  0.00     0.047 A 
ATOM      5  C   UNL     1      -1.711   8.969  41.128  1.00  0.00     0.047 A 
ATOM      6  C   UNL     1      -1.205   8.928  42.429  1.00  0.00     0.115 A 
ENDROOT
BRANCH   1   7
ATOM      7  C   UNL     1      -1.763   5.253  40.266  1.00  0.00     0.010 C 
ATOM      8  C   UNL     1      -1.684   5.133  38.934  1.00  0.00     0.025 C 
BRANCH   8   9
ATOM      9  C   UNL     1      -1.871   3.839  38.258  1.00  0.00     0.064 C 
ATOM     10  O   UNL     1      -0.881   3.262  37.738  1.00  0.00    -0.545 OA
ATOM     11  O   UNL     1      -3.125   3.242  38.183  1.00  0.00    -0.545 OA
ENDBRANCH   8   9
ENDBRANCH   1   7
BRANCH   6  12
ATOM     12  O   UNL     1      -1.023  10.116  43.135  1.00  0.00    -0.508 OA
ATOM     13  H   UNL     1      -1.721  10.458  43.784  1.00  0.00     0.293 HD
ENDBRANCH   6  12
TORSDOF 3
ENDMDL
