MODEL 1
REMARK VINA RESULT:    -5.431      0.000      0.000
REMARK INTER + INTRA:         -17.222
REMARK INTER:                 -13.686
REMARK INTRA:                  -3.536
REMARK UNBOUND:                -3.536
REMARK SMILES CCCCCCCCCCCCCCCCCCCCCCCCCCCC(=O)[O-]
REMARK SMILES IDX 15 1 16 2 17 3 18 4 19 5 20 6 21 7 22 8 23 9 24 10 25 11
REMARK SMILES IDX 26 12 27 13 28 14 29 15 30 16 14 17 13 18 12 19 11 20 10 21
REMARK SMILES IDX 9 22 8 23 7 24 6 25 5 26 4 27 3 28 2 29 1 30
REMARK H PARENT
REMARK Flexibility Score: inf
ROOT
ATOM      1  C   UNL     1       2.640  -0.932  38.807  1.00  0.00     0.000 C 
ENDROOT
BRANCH   1   2
ATOM      2  C   UNL     1       3.728   0.043  38.329  1.00  0.00     0.000 C 
BRANCH   2   3
ATOM      3  C   UNL     1       3.978  -0.046  36.812  1.00  0.00     0.000 C 
BRANCH   3   4
ATOM      4  C   UNL     1       5.440   0.266  36.431  1.00  0.00     0.000 C 
BRANCH   4   5
ATOM      5  C   UNL     1       6.269  -0.977  36.060  1.00  0.00     0.000 C 
BRANCH   5   6
ATOM      6  C   UNL     1       7.646  -0.623  35.475  1.00  0.00     0.000 C 
BRANCH   6   7
ATOM      7  C   UNL     1       8.425   0.372  36.352  1.00  0.00     0.000 C 
BRANCH   7   8
ATOM      8  C   UNL     1       9.018   1.538  35.538  1.00  0.00     0.000 C 
BRANCH   8   9
ATOM      9  C   UNL     1       9.035   1.251  34.025  1.00  0.00     0.000 C 
BRANCH   9  10
ATOM     10  C   UNL     1      10.446   1.079  33.430  1.00  0.00     0.000 C 
BRANCH  10  11
ATOM     11  C   UNL     1      11.211  -0.099  34.056  1.00  0.00     0.000 C 
BRANCH  11  12
ATOM     12  C   UNL     1      12.651   0.277  34.462  1.00  0.00     0.006 C 
BRANCH  12  13
ATOM     13  C   UNL     1      12.724   1.308  35.600  1.00  0.00     0.053 C 
BRANCH  13  14
ATOM     14  C   UNL     1      13.204   2.646  35.127  1.00  0.00     0.041 C 
ATOM     15  O   UNL     1      13.557   2.806  33.928  1.00  0.00    -0.550 OA
ATOM     16  O   UNL     1      13.258   3.717  36.009  1.00  0.00    -0.550 OA
ENDBRANCH  13  14
ENDBRANCH  12  13
ENDBRANCH  11  12
ENDBRANCH  10  11
ENDBRANCH   9  10
ENDBRANCH   8   9
ENDBRANCH   7   8
ENDBRANCH   6   7
ENDBRANCH   5   6
ENDBRANCH   4   5
ENDBRANCH   3   4
ENDBRANCH   2   3
ENDBRANCH   1   2
BRANCH   1  17
ATOM     17  C   UNL     1       2.523  -0.984  40.340  1.00  0.00     0.000 C 
BRANCH  17  18
ATOM     18  C   UNL     1       2.866  -2.368  40.917  1.00  0.00     0.000 C 
BRANCH  18  19
ATOM     19  C   UNL     1       1.635  -3.088  41.494  1.00  0.00     0.000 C 
BRANCH  19  20
ATOM     20  C   UNL     1       0.324  -2.348  41.184  1.00  0.00     0.000 C 
BRANCH  20  21
ATOM     21  C   UNL     1      -0.638  -3.194  40.333  1.00  0.00     0.000 C 
BRANCH  21  22
ATOM     22  C   UNL     1      -0.035  -3.602  38.977  1.00  0.00    -0.000 C 
BRANCH  22  23
ATOM     23  C   UNL     1       0.318  -5.098  38.846  1.00  0.00    -0.000 C 
BRANCH  23  24
ATOM     24  C   UNL     1       1.753  -5.390  38.365  1.00  0.00    -0.000 C 
BRANCH  24  25
ATOM     25  C   UNL     1       2.476  -4.198  37.702  1.00  0.00    -0.000 C 
BRANCH  25  26
ATOM     26  C   UNL     1       3.995  -4.119  37.960  1.00  0.00    -0.000 C 
BRANCH  26  27
ATOM     27  C   UNL     1       4.869  -4.247  36.696  1.00  0.00    -0.000 C 
BRANCH  27  28
ATOM     28  C   UNL     1       4.098  -3.979  35.383  1.00  0.00    -0.000 C 
BRANCH  28  29
ATOM     29  C   UNL     1       4.892  -4.354  34.122  1.00  0.00    -0.003 C 
ATOM     30  C   UNL     1       6.404  -4.317  34.340  1.00  0.00     0.004 C 
ENDBRANCH  28  29
ENDBRANCH  27  28
ENDBRANCH  26  27
ENDBRANCH  25  26
ENDBRANCH  24  25
ENDBRANCH  23  24
ENDBRANCH  22  23
ENDBRANCH  21  22
ENDBRANCH  20  21
ENDBRANCH  19  20
ENDBRANCH  18  19
ENDBRANCH  17  18
ENDBRANCH   1  17
TORSDOF 26
ENDMDL
MODEL 2
REMARK VINA RESULT:    -5.430      1.417      2.726
REMARK INTER + INTRA:         -17.220
REMARK INTER:                 -13.497
REMARK INTRA:                  -3.723
REMARK UNBOUND:                -3.536
REMARK SMILES CCCCCCCCCCCCCCCCCCCCCCCCCCCC(=O)[O-]
REMARK SMILES IDX 15 1 16 2 17 3 18 4 19 5 20 6 21 7 22 8 23 9 24 10 25 11
REMARK SMILES IDX 26 12 27 13 28 14 29 15 30 16 14 17 13 18 12 19 11 20 10 21
REMARK SMILES IDX 9 22 8 23 7 24 6 25 5 26 4 27 3 28 2 29 1 30
REMARK H PARENT
REMARK Flexibility Score: inf
ROOT
ATOM      1  C   UNL     1       1.720  -0.971  38.652  1.00  0.00     0.000 C 
ENDROOT
BRANCH   1   2
ATOM      2  C   UNL     1       2.454  -0.156  37.575  1.00  0.00     0.000 C 
BRANCH   2   3
ATOM      3  C   UNL     1       3.966  -0.044  37.845  1.00  0.00     0.000 C 
BRANCH   3   4
ATOM      4  C   UNL     1       4.793   0.090  36.549  1.00  0.00     0.000 C 
BRANCH   4   5
ATOM      5  C   UNL     1       5.833  -1.027  36.350  1.00  0.00     0.000 C 
BRANCH   5   6
ATOM      6  C   UNL     1       7.059  -0.565  35.546  1.00  0.00     0.000 C 
BRANCH   6   7
ATOM      7  C   UNL     1       7.608   0.789  36.027  1.00  0.00     0.000 C 
BRANCH   7   8
ATOM      8  C   UNL     1       8.959   1.143  35.377  1.00  0.00     0.000 C 
BRANCH   8   9
ATOM      9  C   UNL     1       9.078   0.608  33.937  1.00  0.00     0.000 C 
BRANCH   9  10
ATOM     10  C   UNL     1      10.524   0.507  33.417  1.00  0.00     0.000 C 
BRANCH  10  11
ATOM     11  C   UNL     1      11.562   0.518  34.553  1.00  0.00     0.000 C 
BRANCH  11  12
ATOM     12  C   UNL     1      12.858   1.260  34.165  1.00  0.00     0.006 C 
BRANCH  12  13
ATOM     13  C   UNL     1      12.731   2.791  34.200  1.00  0.00     0.053 C 
BRANCH  13  14
ATOM     14  C   UNL     1      12.966   3.352  35.568  1.00  0.00     0.041 C 
ATOM     15  O   UNL     1      13.662   2.716  36.403  1.00  0.00    -0.550 OA
ATOM     16  O   UNL     1      12.421   4.580  35.920  1.00  0.00    -0.550 OA
ENDBRANCH  13  14
ENDBRANCH  12  13
ENDBRANCH  11  12
ENDBRANCH  10  11
ENDBRANCH   9  10
ENDBRANCH   8   9
ENDBRANCH   7   8
ENDBRANCH   6   7
ENDBRANCH   5   6
ENDBRANCH   4   5
ENDBRANCH   3   4
ENDBRANCH   2   3
ENDBRANCH   1   2
BRANCH   1  17
ATOM     17  C   UNL     1       2.591  -1.229  39.894  1.00  0.00     0.000 C 
BRANCH  17  18
ATOM     18  C   UNL     1       2.501  -2.682  40.392  1.00  0.00     0.000 C 
BRANCH  18  19
ATOM     19  C   UNL     1       2.385  -3.695  39.240  1.00  0.00     0.000 C 
BRANCH  19  20
ATOM     20  C   UNL     1       3.725  -4.380  38.926  1.00  0.00     0.000 C 
BRANCH  20  21
ATOM     21  C   UNL     1       4.283  -3.971  37.552  1.00  0.00     0.000 C 
BRANCH  21  22
ATOM     22  C   UNL     1       3.185  -3.810  36.485  1.00  0.00    -0.000 C 
BRANCH  22  23
ATOM     23  C   UNL     1       2.694  -5.130  35.855  1.00  0.00    -0.000 C 
BRANCH  23  24
ATOM     24  C   UNL     1       3.064  -5.321  34.371  1.00  0.00    -0.000 C 
BRANCH  24  25
ATOM     25  C   UNL     1       4.194  -4.406  33.854  1.00  0.00    -0.000 C 
BRANCH  25  26
ATOM     26  C   UNL     1       5.575  -5.077  33.704  1.00  0.00    -0.000 C 
BRANCH  26  27
ATOM     27  C   UNL     1       6.397  -5.156  35.006  1.00  0.00    -0.000 C 
BRANCH  27  28
ATOM     28  C   UNL     1       6.862  -6.589  35.355  1.00  0.00    -0.000 C 
BRANCH  28  29
ATOM     29  C   UNL     1       5.700  -7.563  35.606  1.00  0.00    -0.003 C 
ATOM     30  C   UNL     1       5.237  -7.570  37.063  1.00  0.00     0.004 C 
ENDBRANCH  28  29
ENDBRANCH  27  28
ENDBRANCH  26  27
ENDBRANCH  25  26
ENDBRANCH  24  25
ENDBRANCH  23  24
ENDBRANCH  22  23
ENDBRANCH  21  22
ENDBRANCH  20  21
ENDBRANCH  19  20
ENDBRANCH  18  19
ENDBRANCH  17  18
ENDBRANCH   1  17
TORSDOF 26
ENDMDL
MODEL 3
REMARK VINA RESULT:    -5.426      1.911      5.140
REMARK INTER + INTRA:         -17.209
REMARK INTER:                 -13.965
REMARK INTRA:                  -3.244
REMARK UNBOUND:                -3.536
REMARK SMILES CCCCCCCCCCCCCCCCCCCCCCCCCCCC(=O)[O-]
REMARK SMILES IDX 15 1 16 2 17 3 18 4 19 5 20 6 21 7 22 8 23 9 24 10 25 11
REMARK SMILES IDX 26 12 27 13 28 14 29 15 30 16 14 17 13 18 12 19 11 20 10 21
REMARK SMILES IDX 9 22 8 23 7 24 6 25 5 26 4 27 3 28 2 29 1 30
REMARK H PARENT
REMARK Flexibility Score: inf
ROOT
ATOM      1  C   UNL     1       6.399  -4.112  34.302  1.00  0.00     0.000 C 
ENDROOT
BRANCH   1   2
ATOM      2  C   UNL     1       5.496  -3.618  35.444  1.00  0.00     0.000 C 
BRANCH   2   3
ATOM      3  C   UNL     1       6.196  -2.584  36.347  1.00  0.00     0.000 C 
BRANCH   3   4
ATOM      4  C   UNL     1       5.446  -1.237  36.400  1.00  0.00     0.000 C 
BRANCH   4   5
ATOM      5  C   UNL     1       6.317  -0.020  36.037  1.00  0.00     0.000 C 
BRANCH   5   6
ATOM      6  C   UNL     1       7.612  -0.409  35.305  1.00  0.00     0.000 C 
BRANCH   6   7
ATOM      7  C   UNL     1       8.866   0.200  35.956  1.00  0.00     0.000 C 
BRANCH   7   8
ATOM      8  C   UNL     1       9.270   1.542  35.316  1.00  0.00     0.000 C 
BRANCH   8   9
ATOM      9  C   UNL     1      10.081   1.356  34.020  1.00  0.00     0.000 C 
BRANCH   9  10
ATOM     10  C   UNL     1      11.119   0.219  34.080  1.00  0.00     0.000 C 
BRANCH  10  11
ATOM     11  C   UNL     1      12.374   0.608  34.882  1.00  0.00     0.000 C 
BRANCH  11  12
ATOM     12  C   UNL     1      13.094   1.840  34.296  1.00  0.00     0.006 C 
BRANCH  12  13
ATOM     13  C   UNL     1      13.434   2.914  35.342  1.00  0.00     0.053 C 
BRANCH  13  14
ATOM     14  C   UNL     1      12.473   4.062  35.316  1.00  0.00     0.041 C 
ATOM     15  O   UNL     1      12.059   4.567  36.393  1.00  0.00    -0.550 OA
ATOM     16  O   UNL     1      12.038   4.578  34.102  1.00  0.00    -0.550 OA
ENDBRANCH  13  14
ENDBRANCH  12  13
ENDBRANCH  11  12
ENDBRANCH  10  11
ENDBRANCH   9  10
ENDBRANCH   8   9
ENDBRANCH   7   8
ENDBRANCH   6   7
ENDBRANCH   5   6
ENDBRANCH   4   5
ENDBRANCH   3   4
ENDBRANCH   2   3
ENDBRANCH   1   2
BRANCH   1  17
ATOM     17  C   UNL     1       5.836  -5.359  33.600  1.00  0.00     0.000 C 
BRANCH  17  18
ATOM     18  C   UNL     1       6.923  -6.393  33.260  1.00  0.00     0.000 C 
BRANCH  18  19
ATOM     19  C   UNL     1       7.329  -7.244  34.475  1.00  0.00     0.000 C 
BRANCH  19  20
ATOM     20  C   UNL     1       6.528  -8.552  34.569  1.00  0.00     0.000 C 
BRANCH  20  21
ATOM     21  C   UNL     1       5.764  -8.676  35.898  1.00  0.00     0.000 C 
BRANCH  21  22
ATOM     22  C   UNL     1       5.782  -7.375  36.721  1.00  0.00    -0.000 C 
BRANCH  22  23
ATOM     23  C   UNL     1       4.461  -7.047  37.446  1.00  0.00    -0.000 C 
BRANCH  23  24
ATOM     24  C   UNL     1       3.447  -6.233  36.618  1.00  0.00    -0.000 C 
BRANCH  24  25
ATOM     25  C   UNL     1       2.459  -5.383  37.443  1.00  0.00    -0.000 C 
BRANCH  25  26
ATOM     26  C   UNL     1       2.975  -4.917  38.821  1.00  0.00    -0.000 C 
BRANCH  26  27
ATOM     27  C   UNL     1       3.435  -3.446  38.870  1.00  0.00    -0.000 C 
BRANCH  27  28
ATOM     28  C   UNL     1       2.626  -2.515  37.938  1.00  0.00    -0.000 C 
BRANCH  28  29
ATOM     29  C   UNL     1       2.190  -1.204  38.612  1.00  0.00    -0.003 C 
ATOM     30  C   UNL     1       2.636  -1.112  40.071  1.00  0.00     0.004 C 
ENDBRANCH  28  29
ENDBRANCH  27  28
ENDBRANCH  26  27
ENDBRANCH  25  26
ENDBRANCH  24  25
ENDBRANCH  23  24
ENDBRANCH  22  23
ENDBRANCH  21  22
ENDBRANCH  20  21
ENDBRANCH  19  20
ENDBRANCH  18  19
ENDBRANCH  17  18
ENDBRANCH   1  17
TORSDOF 26
ENDMDL
MODEL 4
REMARK VINA RESULT:    -5.408      4.021      9.501
REMARK INTER + INTRA:         -17.164
REMARK INTER:                 -14.327
REMARK INTRA:                  -2.836
REMARK UNBOUND:                -3.536
REMARK SMILES CCCCCCCCCCCCCCCCCCCCCCCCCCCC(=O)[O-]
REMARK SMILES IDX 15 1 16 2 17 3 18 4 19 5 20 6 21 7 22 8 23 9 24 10 25 11
REMARK SMILES IDX 26 12 27 13 28 14 29 15 30 16 14 17 13 18 12 19 11 20 10 21
REMARK SMILES IDX 9 22 8 23 7 24 6 25 5 26 4 27 3 28 2 29 1 30
REMARK H PARENT
REMARK Flexibility Score: inf
ROOT
ATOM      1  C   UNL     1       3.672   0.096  37.694  1.00  0.00     0.000 C 
ENDROOT
BRANCH   1   2
ATOM      2  C   UNL     1       2.962  -1.252  37.899  1.00  0.00     0.000 C 
BRANCH   2   3
ATOM      3  C   UNL     1       2.608  -1.515  39.375  1.00  0.00     0.000 C 
BRANCH   3   4
ATOM      4  C   UNL     1       2.942  -2.955  39.818  1.00  0.00     0.000 C 
BRANCH   4   5
ATOM      5  C   UNL     1       3.767  -3.751  38.790  1.00  0.00     0.000 C 
BRANCH   5   6
ATOM      6  C   UNL     1       3.221  -5.169  38.557  1.00  0.00     0.000 C 
BRANCH   6   7
ATOM      7  C   UNL     1       2.481  -5.306  37.215  1.00  0.00     0.000 C 
BRANCH   7   8
ATOM      8  C   UNL     1       3.046  -4.368  36.131  1.00  0.00     0.000 C 
BRANCH   8   9
ATOM      9  C   UNL     1       3.801  -5.132  35.026  1.00  0.00     0.000 C 
BRANCH   9  10
ATOM     10  C   UNL     1       5.063  -4.415  34.510  1.00  0.00     0.000 C 
BRANCH  10  11
ATOM     11  C   UNL     1       6.143  -5.397  34.025  1.00  0.00     0.000 C 
BRANCH  11  12
ATOM     12  C   UNL     1       6.727  -6.250  35.170  1.00  0.00     0.006 C 
BRANCH  12  13
ATOM     13  C   UNL     1       6.491  -7.760  35.000  1.00  0.00     0.053 C 
BRANCH  13  14
ATOM     14  C   UNL     1       5.841  -8.375  36.200  1.00  0.00     0.041 C 
ATOM     15  O   UNL     1       5.276  -7.647  37.058  1.00  0.00    -0.550 OA
ATOM     16  O   UNL     1       5.853  -9.754  36.368  1.00  0.00    -0.550 OA
ENDBRANCH  13  14
ENDBRANCH  12  13
ENDBRANCH  11  12
ENDBRANCH  10  11
ENDBRANCH   9  10
ENDBRANCH   8   9
ENDBRANCH   7   8
ENDBRANCH   6   7
ENDBRANCH   5   6
ENDBRANCH   4   5
ENDBRANCH   3   4
ENDBRANCH   2   3
ENDBRANCH   1   2
BRANCH   1  17
ATOM     17  C   UNL     1       4.879  -0.009  36.746  1.00  0.00     0.000 C 
BRANCH  17  18
ATOM     18  C   UNL     1       5.241  -1.463  36.401  1.00  0.00     0.000 C 
BRANCH  18  19
ATOM     19  C   UNL     1       6.721  -1.628  36.015  1.00  0.00     0.000 C 
BRANCH  19  20
ATOM     20  C   UNL     1       7.374  -0.295  35.613  1.00  0.00     0.000 C 
BRANCH  20  21
ATOM     21  C   UNL     1       8.225  -0.422  34.339  1.00  0.00     0.000 C 
BRANCH  21  22
ATOM     22  C   UNL     1       8.634   0.942  33.755  1.00  0.00    -0.000 C 
BRANCH  22  23
ATOM     23  C   UNL     1      10.145   1.248  33.814  1.00  0.00    -0.000 C 
BRANCH  23  24
ATOM     24  C   UNL     1      11.053   0.017  33.992  1.00  0.00    -0.000 C 
BRANCH  24  25
ATOM     25  C   UNL     1      12.464   0.317  34.541  1.00  0.00    -0.000 C 
BRANCH  25  26
ATOM     26  C   UNL     1      12.517   1.294  35.734  1.00  0.00    -0.000 C 
BRANCH  26  27
ATOM     27  C   UNL     1      13.241   2.624  35.444  1.00  0.00    -0.000 C 
BRANCH  27  28
ATOM     28  C   UNL     1      12.308   3.727  34.895  1.00  0.00    -0.000 C 
BRANCH  28  29
ATOM     29  C   UNL     1      12.740   4.263  33.520  1.00  0.00    -0.003 C 
ATOM     30  C   UNL     1      11.666   5.123  32.855  1.00  0.00     0.004 C 
ENDBRANCH  28  29
ENDBRANCH  27  28
ENDBRANCH  26  27
ENDBRANCH  25  26
ENDBRANCH  24  25
ENDBRANCH  23  24
ENDBRANCH  22  23
ENDBRANCH  21  22
ENDBRANCH  20  21
ENDBRANCH  19  20
ENDBRANCH  18  19
ENDBRANCH  17  18
ENDBRANCH   1  17
TORSDOF 26
ENDMDL
MODEL 5
REMARK VINA RESULT:    -5.393      3.747      8.278
REMARK INTER + INTRA:         -17.126
REMARK INTER:                 -13.499
REMARK INTRA:                  -3.626
REMARK UNBOUND:                -3.536
REMARK SMILES CCCCCCCCCCCCCCCCCCCCCCCCCCCC(=O)[O-]
REMARK SMILES IDX 15 1 16 2 17 3 18 4 19 5 20 6 21 7 22 8 23 9 24 10 25 11
REMARK SMILES IDX 26 12 27 13 28 14 29 15 30 16 14 17 13 18 12 19 11 20 10 21
REMARK SMILES IDX 9 22 8 23 7 24 6 25 5 26 4 27 3 28 2 29 1 30
REMARK H PARENT
REMARK Flexibility Score: inf
ROOT
ATOM      1  C   UNL     1       2.134  -2.427  41.218  1.00  0.00     0.000 C 
ENDROOT
BRANCH   1   2
ATOM      2  C   UNL     1       0.603  -2.466  41.356  1.00  0.00     0.000 C 
BRANCH   2   3
ATOM      3  C   UNL     1       0.041  -3.899  41.300  1.00  0.00     0.000 C 
BRANCH   3   4
ATOM      4  C   UNL     1       0.927  -4.853  40.473  1.00  0.00     0.000 C 
BRANCH   4   5
ATOM      5  C   UNL     1       0.616  -4.849  38.966  1.00  0.00     0.000 C 
BRANCH   5   6
ATOM      6  C   UNL     1       1.807  -5.308  38.108  1.00  0.00     0.000 C 
BRANCH   6   7
ATOM      7  C   UNL     1       3.163  -5.012  38.771  1.00  0.00     0.000 C 
BRANCH   7   8
ATOM      8  C   UNL     1       4.070  -4.132  37.891  1.00  0.00     0.000 C 
BRANCH   8   9
ATOM      9  C   UNL     1       3.419  -3.779  36.540  1.00  0.00     0.000 C 
BRANCH   9  10
ATOM     10  C   UNL     1       4.290  -4.108  35.313  1.00  0.00     0.000 C 
BRANCH  10  11
ATOM     11  C   UNL     1       5.792  -4.132  35.645  1.00  0.00     0.000 C 
BRANCH  11  12
ATOM     12  C   UNL     1       6.436  -5.509  35.378  1.00  0.00     0.006 C 
BRANCH  12  13
ATOM     13  C   UNL     1       5.429  -6.670  35.357  1.00  0.00     0.053 C 
BRANCH  13  14
ATOM     14  C   UNL     1       6.094  -8.004  35.502  1.00  0.00     0.041 C 
ATOM     15  O   UNL     1       7.098  -8.292  34.797  1.00  0.00    -0.550 OA
ATOM     16  O   UNL     1       5.609  -8.928  36.418  1.00  0.00    -0.550 OA
ENDBRANCH  13  14
ENDBRANCH  12  13
ENDBRANCH  11  12
ENDBRANCH  10  11
ENDBRANCH   9  10
ENDBRANCH   8   9
ENDBRANCH   7   8
ENDBRANCH   6   7
ENDBRANCH   5   6
ENDBRANCH   4   5
ENDBRANCH   3   4
ENDBRANCH   2   3
ENDBRANCH   1   2
BRANCH   1  17
ATOM     17  C   UNL     1       2.608  -1.409  40.166  1.00  0.00     0.000 C 
BRANCH  17  18
ATOM     18  C   UNL     1       1.675  -1.336  38.946  1.00  0.00     0.000 C 
BRANCH  18  19
ATOM     19  C   UNL     1       2.204  -0.390  37.854  1.00  0.00     0.000 C 
BRANCH  19  20
ATOM     20  C   UNL     1       3.677  -0.008  38.072  1.00  0.00     0.000 C 
BRANCH  20  21
ATOM     21  C   UNL     1       4.406   0.288  36.751  1.00  0.00     0.000 C 
BRANCH  21  22
ATOM     22  C   UNL     1       5.456  -0.779  36.395  1.00  0.00    -0.000 C 
BRANCH  22  23
ATOM     23  C   UNL     1       6.720  -0.239  35.695  1.00  0.00    -0.000 C 
BRANCH  23  24
ATOM     24  C   UNL     1       7.349   1.004  36.353  1.00  0.00    -0.000 C 
BRANCH  24  25
ATOM     25  C   UNL     1       8.857   1.194  36.088  1.00  0.00    -0.000 C 
BRANCH  25  26
ATOM     26  C   UNL     1       9.453   0.299  34.981  1.00  0.00    -0.000 C 
BRANCH  26  27
ATOM     27  C   UNL     1      10.668   0.905  34.250  1.00  0.00    -0.000 C 
BRANCH  27  28
ATOM     28  C   UNL     1      11.563   1.778  35.160  1.00  0.00    -0.000 C 
BRANCH  28  29
ATOM     29  C   UNL     1      12.877   1.091  35.564  1.00  0.00    -0.003 C 
ATOM     30  C   UNL     1      13.329   0.036  34.556  1.00  0.00     0.004 C 
ENDBRANCH  28  29
ENDBRANCH  27  28
ENDBRANCH  26  27
ENDBRANCH  25  26
ENDBRANCH  24  25
ENDBRANCH  23  24
ENDBRANCH  22  23
ENDBRANCH  21  22
ENDBRANCH  20  21
ENDBRANCH  19  20
ENDBRANCH  18  19
ENDBRANCH  17  18
ENDBRANCH   1  17
TORSDOF 26
ENDMDL
MODEL 6
REMARK VINA RESULT:    -5.358      1.866      5.214
REMARK INTER + INTRA:         -17.037
REMARK INTER:                 -13.100
REMARK INTRA:                  -3.937
REMARK UNBOUND:                -3.536
REMARK SMILES CCCCCCCCCCCCCCCCCCCCCCCCCCCC(=O)[O-]
REMARK SMILES IDX 15 1 16 2 17 3 18 4 19 5 20 6 21 7 22 8 23 9 24 10 25 11
REMARK SMILES IDX 26 12 27 13 28 14 29 15 30 16 14 17 13 18 12 19 11 20 10 21
REMARK SMILES IDX 9 22 8 23 7 24 6 25 5 26 4 27 3 28 2 29 1 30
REMARK H PARENT
REMARK Flexibility Score: inf
ROOT
ATOM      1  C   UNL     1       4.145  -3.708  38.037  1.00  0.00     0.000 C 
ENDROOT
BRANCH   1   2
ATOM      2  C   UNL     1       3.361  -3.542  39.349  1.00  0.00     0.000 C 
BRANCH   2   3
ATOM      3  C   UNL     1       2.166  -2.582  39.206  1.00  0.00     0.000 C 
BRANCH   3   4
ATOM      4  C   UNL     1       2.588  -1.098  39.244  1.00  0.00     0.000 C 
BRANCH   4   5
ATOM      5  C   UNL     1       2.386  -0.355  37.911  1.00  0.00     0.000 C 
BRANCH   5   6
ATOM      6  C   UNL     1       3.630   0.436  37.473  1.00  0.00     0.000 C 
BRANCH   6   7
ATOM      7  C   UNL     1       4.634  -0.426  36.688  1.00  0.00     0.000 C 
BRANCH   7   8
ATOM      8  C   UNL     1       5.901   0.357  36.295  1.00  0.00     0.000 C 
BRANCH   8   9
ATOM      9  C   UNL     1       7.039  -0.566  35.816  1.00  0.00     0.000 C 
BRANCH   9  10
ATOM     10  C   UNL     1       7.869   0.006  34.651  1.00  0.00     0.000 C 
BRANCH  10  11
ATOM     11  C   UNL     1       8.670   1.256  35.055  1.00  0.00     0.000 C 
BRANCH  11  12
ATOM     12  C   UNL     1       9.494   1.042  36.342  1.00  0.00     0.006 C 
BRANCH  12  13
ATOM     13  C   UNL     1      11.006   1.238  36.150  1.00  0.00     0.053 C 
BRANCH  13  14
ATOM     14  C   UNL     1      11.418   1.126  34.715  1.00  0.00     0.041 C 
ATOM     15  O   UNL     1      11.660   2.163  34.042  1.00  0.00    -0.550 OA
ATOM     16  O   UNL     1      11.542  -0.124  34.121  1.00  0.00    -0.550 OA
ENDBRANCH  13  14
ENDBRANCH  12  13
ENDBRANCH  11  12
ENDBRANCH  10  11
ENDBRANCH   9  10
ENDBRANCH   8   9
ENDBRANCH   7   8
ENDBRANCH   6   7
ENDBRANCH   5   6
ENDBRANCH   4   5
ENDBRANCH   3   4
ENDBRANCH   2   3
ENDBRANCH   1   2
BRANCH   1  17
ATOM     17  C   UNL     1       3.229  -3.760  36.802  1.00  0.00     0.000 C 
BRANCH  17  18
ATOM     18  C   UNL     1       3.990  -4.097  35.509  1.00  0.00     0.000 C 
BRANCH  18  19
ATOM     19  C   UNL     1       5.511  -3.919  35.656  1.00  0.00     0.000 C 
BRANCH  19  20
ATOM     20  C   UNL     1       6.253  -4.088  34.320  1.00  0.00     0.000 C 
BRANCH  20  21
ATOM     21  C   UNL     1       6.542  -5.563  33.995  1.00  0.00     0.000 C 
BRANCH  21  22
ATOM     22  C   UNL     1       6.893  -6.393  35.243  1.00  0.00    -0.000 C 
BRANCH  22  23
ATOM     23  C   UNL     1       6.550  -7.894  35.144  1.00  0.00    -0.000 C 
BRANCH  23  24
ATOM     24  C   UNL     1       5.362  -8.350  36.013  1.00  0.00    -0.000 C 
BRANCH  24  25
ATOM     25  C   UNL     1       4.928  -7.350  37.105  1.00  0.00    -0.000 C 
BRANCH  25  26
ATOM     26  C   UNL     1       3.724  -7.789  37.965  1.00  0.00    -0.000 C 
BRANCH  26  27
ATOM     27  C   UNL     1       2.443  -6.959  37.748  1.00  0.00    -0.000 C 
BRANCH  27  28
ATOM     28  C   UNL     1       1.604  -6.773  39.033  1.00  0.00    -0.000 C 
BRANCH  28  29
ATOM     29  C   UNL     1       0.280  -6.029  38.796  1.00  0.00    -0.003 C 
ATOM     30  C   UNL     1       0.017  -5.746  37.317  1.00  0.00     0.004 C 
ENDBRANCH  28  29
ENDBRANCH  27  28
ENDBRANCH  26  27
ENDBRANCH  25  26
ENDBRANCH  24  25
ENDBRANCH  23  24
ENDBRANCH  22  23
ENDBRANCH  21  22
ENDBRANCH  20  21
ENDBRANCH  19  20
ENDBRANCH  18  19
ENDBRANCH  17  18
ENDBRANCH   1  17
TORSDOF 26
ENDMDL
MODEL 7
REMARK VINA RESULT:    -5.349      3.891     10.157
REMARK INTER + INTRA:         -17.016
REMARK INTER:                 -13.433
REMARK INTRA:                  -3.583
REMARK UNBOUND:                -3.536
REMARK SMILES CCCCCCCCCCCCCCCCCCCCCCCCCCCC(=O)[O-]
REMARK SMILES IDX 15 1 16 2 17 3 18 4 19 5 20 6 21 7 22 8 23 9 24 10 25 11
REMARK SMILES IDX 26 12 27 13 28 14 29 15 30 16 14 17 13 18 12 19 11 20 10 21
REMARK SMILES IDX 9 22 8 23 7 24 6 25 5 26 4 27 3 28 2 29 1 30
REMARK H PARENT
REMARK Flexibility Score: inf
ROOT
ATOM      1  C   UNL     1       5.975  -3.969  35.507  1.00  0.00     0.000 C 
ENDROOT
BRANCH   1   2
ATOM      2  C   UNL     1       4.649  -4.169  34.754  1.00  0.00     0.000 C 
BRANCH   2   3
ATOM      3  C   UNL     1       4.707  -5.340  33.756  1.00  0.00     0.000 C 
BRANCH   3   4
ATOM      4  C   UNL     1       5.921  -6.263  33.992  1.00  0.00     0.000 C 
BRANCH   4   5
ATOM      5  C   UNL     1       5.566  -7.614  34.638  1.00  0.00     0.000 C 
BRANCH   5   6
ATOM      6  C   UNL     1       5.960  -7.688  36.122  1.00  0.00     0.000 C 
BRANCH   6   7
ATOM      7  C   UNL     1       4.740  -7.767  37.057  1.00  0.00     0.000 C 
BRANCH   7   8
ATOM      8  C   UNL     1       4.445  -6.426  37.755  1.00  0.00     0.000 C 
BRANCH   8   9
ATOM      9  C   UNL     1       3.045  -5.881  37.415  1.00  0.00     0.000 C 
BRANCH   9  10
ATOM     10  C   UNL     1       2.465  -4.921  38.472  1.00  0.00     0.000 C 
BRANCH  10  11
ATOM     11  C   UNL     1       1.682  -3.755  37.845  1.00  0.00     0.000 C 
BRANCH  11  12
ATOM     12  C   UNL     1       2.107  -2.384  38.409  1.00  0.00     0.006 C 
BRANCH  12  13
ATOM     13  C   UNL     1       3.078  -2.476  39.598  1.00  0.00     0.053 C 
BRANCH  13  14
ATOM     14  C   UNL     1       2.457  -2.012  40.879  1.00  0.00     0.041 C 
ATOM     15  O   UNL     1       2.697  -0.855  41.317  1.00  0.00    -0.550 OA
ATOM     16  O   UNL     1       1.609  -2.854  41.587  1.00  0.00    -0.550 OA
ENDBRANCH  13  14
ENDBRANCH  12  13
ENDBRANCH  11  12
ENDBRANCH  10  11
ENDBRANCH   9  10
ENDBRANCH   8   9
ENDBRANCH   7   8
ENDBRANCH   6   7
ENDBRANCH   5   6
ENDBRANCH   4   5
ENDBRANCH   3   4
ENDBRANCH   2   3
ENDBRANCH   1   2
BRANCH   1  17
ATOM     17  C   UNL     1       5.836  -3.018  36.708  1.00  0.00     0.000 C 
BRANCH  17  18
ATOM     18  C   UNL     1       5.921  -1.536  36.307  1.00  0.00     0.000 C 
BRANCH  18  19
ATOM     19  C   UNL     1       7.288  -1.164  35.707  1.00  0.00     0.000 C 
BRANCH  19  20
ATOM     20  C   UNL     1       7.383   0.326  35.343  1.00  0.00     0.000 C 
BRANCH  20  21
ATOM     21  C   UNL     1       8.685   0.970  35.849  1.00  0.00     0.000 C 
BRANCH  21  22
ATOM     22  C   UNL     1       9.392   1.813  34.772  1.00  0.00    -0.000 C 
BRANCH  22  23
ATOM     23  C   UNL     1      10.114   0.997  33.679  1.00  0.00    -0.000 C 
BRANCH  23  24
ATOM     24  C   UNL     1      11.169   0.001  34.199  1.00  0.00    -0.000 C 
BRANCH  24  25
ATOM     25  C   UNL     1      12.594   0.574  34.348  1.00  0.00    -0.000 C 
BRANCH  25  26
ATOM     26  C   UNL     1      12.929   1.166  35.733  1.00  0.00    -0.000 C 
BRANCH  26  27
ATOM     27  C   UNL     1      13.065   2.702  35.760  1.00  0.00    -0.000 C 
BRANCH  27  28
ATOM     28  C   UNL     1      13.216   3.332  34.356  1.00  0.00    -0.000 C 
BRANCH  28  29
ATOM     29  C   UNL     1      12.178   4.428  34.065  1.00  0.00    -0.003 C 
ATOM     30  C   UNL     1      11.527   4.278  32.691  1.00  0.00     0.004 C 
ENDBRANCH  28  29
ENDBRANCH  27  28
ENDBRANCH  26  27
ENDBRANCH  25  26
ENDBRANCH  24  25
ENDBRANCH  23  24
ENDBRANCH  22  23
ENDBRANCH  21  22
ENDBRANCH  20  21
ENDBRANCH  19  20
ENDBRANCH  18  19
ENDBRANCH  17  18
ENDBRANCH   1  17
TORSDOF 26
ENDMDL
MODEL 8
REMARK VINA RESULT:    -5.330      2.005      4.529
REMARK INTER + INTRA:         -16.967
REMARK INTER:                 -12.925
REMARK INTRA:                  -4.042
REMARK UNBOUND:                -3.536
REMARK SMILES CCCCCCCCCCCCCCCCCCCCCCCCCCCC(=O)[O-]
REMARK SMILES IDX 15 1 16 2 17 3 18 4 19 5 20 6 21 7 22 8 23 9 24 10 25 11
REMARK SMILES IDX 26 12 27 13 28 14 29 15 30 16 14 17 13 18 12 19 11 20 10 21
REMARK SMILES IDX 9 22 8 23 7 24 6 25 5 26 4 27 3 28 2 29 1 30
REMARK H PARENT
REMARK Flexibility Score: inf
ROOT
ATOM      1  C   UNL     1       2.905  -3.515  37.883  1.00  0.00     0.000 C 
ENDROOT
BRANCH   1   2
ATOM      2  C   UNL     1       2.978  -2.517  39.051  1.00  0.00     0.000 C 
BRANCH   2   3
ATOM      3  C   UNL     1       2.346  -1.155  38.706  1.00  0.00     0.000 C 
BRANCH   3   4
ATOM      4  C   UNL     1       3.397  -0.037  38.546  1.00  0.00     0.000 C 
BRANCH   4   5
ATOM      5  C   UNL     1       3.673   0.358  37.084  1.00  0.00     0.000 C 
BRANCH   5   6
ATOM      6  C   UNL     1       5.095  -0.003  36.625  1.00  0.00     0.000 C 
BRANCH   6   7
ATOM      7  C   UNL     1       5.272  -1.511  36.375  1.00  0.00     0.000 C 
BRANCH   7   8
ATOM      8  C   UNL     1       6.710  -1.875  35.960  1.00  0.00     0.000 C 
BRANCH   8   9
ATOM      9  C   UNL     1       7.570  -0.632  35.660  1.00  0.00     0.000 C 
BRANCH   9  10
ATOM     10  C   UNL     1       8.023  -0.516  34.192  1.00  0.00     0.000 C 
BRANCH  10  11
ATOM     11  C   UNL     1       8.657   0.849  33.876  1.00  0.00     0.000 C 
BRANCH  11  12
ATOM     12  C   UNL     1      10.199   0.813  33.924  1.00  0.00     0.006 C 
BRANCH  12  13
ATOM     13  C   UNL     1      10.863   2.144  33.537  1.00  0.00     0.053 C 
BRANCH  13  14
ATOM     14  C   UNL     1      12.223   2.301  34.143  1.00  0.00     0.041 C 
ATOM     15  O   UNL     1      12.549   3.383  34.700  1.00  0.00    -0.550 OA
ATOM     16  O   UNL     1      13.130   1.250  34.100  1.00  0.00    -0.550 OA
ENDBRANCH  13  14
ENDBRANCH  12  13
ENDBRANCH  11  12
ENDBRANCH  10  11
ENDBRANCH   9  10
ENDBRANCH   8   9
ENDBRANCH   7   8
ENDBRANCH   6   7
ENDBRANCH   5   6
ENDBRANCH   4   5
ENDBRANCH   3   4
ENDBRANCH   2   3
ENDBRANCH   1   2
BRANCH   1  17
ATOM     17  C   UNL     1       3.958  -4.631  37.991  1.00  0.00     0.000 C 
BRANCH  17  18
ATOM     18  C   UNL     1       3.333  -6.024  38.176  1.00  0.00     0.000 C 
BRANCH  18  19
ATOM     19  C   UNL     1       4.119  -7.125  37.444  1.00  0.00     0.000 C 
BRANCH  19  20
ATOM     20  C   UNL     1       3.244  -7.908  36.452  1.00  0.00     0.000 C 
BRANCH  20  21
ATOM     21  C   UNL     1       4.020  -8.327  35.192  1.00  0.00     0.000 C 
BRANCH  21  22
ATOM     22  C   UNL     1       5.479  -8.716  35.491  1.00  0.00    -0.000 C 
BRANCH  22  23
ATOM     23  C   UNL     1       6.538  -7.942  34.677  1.00  0.00    -0.000 C 
BRANCH  23  24
ATOM     24  C   UNL     1       7.146  -6.722  35.394  1.00  0.00    -0.000 C 
BRANCH  24  25
ATOM     25  C   UNL     1       6.379  -5.397  35.199  1.00  0.00    -0.000 C 
BRANCH  25  26
ATOM     26  C   UNL     1       6.333  -4.865  33.751  1.00  0.00    -0.000 C 
BRANCH  26  27
ATOM     27  C   UNL     1       4.923  -4.495  33.248  1.00  0.00    -0.000 C 
BRANCH  27  28
ATOM     28  C   UNL     1       3.845  -4.529  34.354  1.00  0.00    -0.000 C 
BRANCH  28  29
ATOM     29  C   UNL     1       2.476  -5.021  33.857  1.00  0.00    -0.003 C 
ATOM     30  C   UNL     1       1.428  -5.082  34.968  1.00  0.00     0.004 C 
ENDBRANCH  28  29
ENDBRANCH  27  28
ENDBRANCH  26  27
ENDBRANCH  25  26
ENDBRANCH  24  25
ENDBRANCH  23  24
ENDBRANCH  22  23
ENDBRANCH  21  22
ENDBRANCH  20  21
ENDBRANCH  19  20
ENDBRANCH  18  19
ENDBRANCH  17  18
ENDBRANCH   1  17
TORSDOF 26
ENDMDL
MODEL 9
REMARK VINA RESULT:    -5.303      4.023     10.696
REMARK INTER + INTRA:         -16.900
REMARK INTER:                 -13.816
REMARK INTRA:                  -3.084
REMARK UNBOUND:                -3.536
REMARK SMILES CCCCCCCCCCCCCCCCCCCCCCCCCCCC(=O)[O-]
REMARK SMILES IDX 15 1 16 2 17 3 18 4 19 5 20 6 21 7 22 8 23 9 24 10 25 11
REMARK SMILES IDX 26 12 27 13 28 14 29 15 30 16 14 17 13 18 12 19 11 20 10 21
REMARK SMILES IDX 9 22 8 23 7 24 6 25 5 26 4 27 3 28 2 29 1 30
REMARK H PARENT
REMARK Flexibility Score: inf
ROOT
ATOM      1  C   UNL     1       5.744  -1.439  36.397  1.00  0.00     0.000 C 
ENDROOT
BRANCH   1   2
ATOM      2  C   UNL     1       5.068  -2.818  36.340  1.00  0.00     0.000 C 
BRANCH   2   3
ATOM      3  C   UNL     1       5.891  -3.847  35.541  1.00  0.00     0.000 C 
BRANCH   3   4
ATOM      4  C   UNL     1       5.030  -4.650  34.544  1.00  0.00     0.000 C 
BRANCH   4   5
ATOM      5  C   UNL     1       5.378  -6.148  34.480  1.00  0.00     0.000 C 
BRANCH   5   6
ATOM      6  C   UNL     1       6.518  -6.538  35.436  1.00  0.00     0.000 C 
BRANCH   6   7
ATOM      7  C   UNL     1       6.026  -7.359  36.640  1.00  0.00     0.000 C 
BRANCH   7   8
ATOM      8  C   UNL     1       4.498  -7.286  36.820  1.00  0.00     0.000 C 
BRANCH   8   9
ATOM      9  C   UNL     1       4.078  -6.250  37.880  1.00  0.00     0.000 C 
BRANCH   9  10
ATOM     10  C   UNL     1       2.813  -5.450  37.517  1.00  0.00     0.000 C 
BRANCH  10  11
ATOM     11  C   UNL     1       2.083  -4.904  38.757  1.00  0.00     0.000 C 
BRANCH  11  12
ATOM     12  C   UNL     1       2.037  -3.362  38.787  1.00  0.00     0.006 C 
BRANCH  12  13
ATOM     13  C   UNL     1       3.075  -2.729  39.728  1.00  0.00     0.053 C 
BRANCH  13  14
ATOM     14  C   UNL     1       2.443  -2.071  40.915  1.00  0.00     0.041 C 
ATOM     15  O   UNL     1       2.680  -0.860  41.169  1.00  0.00    -0.550 OA
ATOM     16  O   UNL     1       1.588  -2.792  41.738  1.00  0.00    -0.550 OA
ENDBRANCH  13  14
ENDBRANCH  12  13
ENDBRANCH  11  12
ENDBRANCH  10  11
ENDBRANCH   9  10
ENDBRANCH   8   9
ENDBRANCH   7   8
ENDBRANCH   6   7
ENDBRANCH   5   6
ENDBRANCH   4   5
ENDBRANCH   3   4
ENDBRANCH   2   3
ENDBRANCH   1   2
BRANCH   1  17
ATOM     17  C   UNL     1       7.112  -1.420  35.693  1.00  0.00     0.000 C 
BRANCH  17  18
ATOM     18  C   UNL     1       7.698  -0.003  35.568  1.00  0.00     0.000 C 
BRANCH  18  19
ATOM     19  C   UNL     1       8.168   0.317  34.139  1.00  0.00     0.000 C 
BRANCH  19  20
ATOM     20  C   UNL     1       9.263   1.396  34.110  1.00  0.00     0.000 C 
BRANCH  20  21
ATOM     21  C   UNL     1      10.537   0.917  33.393  1.00  0.00     0.000 C 
BRANCH  21  22
ATOM     22  C   UNL     1      11.621   0.424  34.368  1.00  0.00    -0.000 C 
BRANCH  22  23
ATOM     23  C   UNL     1      11.728   1.227  35.682  1.00  0.00    -0.000 C 
BRANCH  23  24
ATOM     24  C   UNL     1      13.098   1.886  35.933  1.00  0.00    -0.000 C 
BRANCH  24  25
ATOM     25  C   UNL     1      13.113   3.425  35.824  1.00  0.00    -0.000 C 
BRANCH  25  26
ATOM     26  C   UNL     1      12.332   4.014  34.631  1.00  0.00    -0.000 C 
BRANCH  26  27
ATOM     27  C   UNL     1      13.061   3.916  33.275  1.00  0.00    -0.000 C 
BRANCH  27  28
ATOM     28  C   UNL     1      12.115   4.031  32.058  1.00  0.00    -0.000 C 
BRANCH  28  29
ATOM     29  C   UNL     1      10.761   4.676  32.395  1.00  0.00    -0.003 C 
ATOM     30  C   UNL     1      10.715   6.166  32.060  1.00  0.00     0.004 C 
ENDBRANCH  28  29
ENDBRANCH  27  28
ENDBRANCH  26  27
ENDBRANCH  25  26
ENDBRANCH  24  25
ENDBRANCH  23  24
ENDBRANCH  22  23
ENDBRANCH  21  22
ENDBRANCH  20  21
ENDBRANCH  19  20
ENDBRANCH  18  19
ENDBRANCH  17  18
ENDBRANCH   1  17
TORSDOF 26
ENDMDL
