MODEL 1
REMARK VINA RESULT:     2.294      0.000      0.000
REMARK INTER + INTRA:           5.959
REMARK INTER:                   5.244
REMARK INTRA:                   0.715
REMARK UNBOUND:                 0.715
REMARK SMILES CCCCCCCCCCCCCCCCCCCCCCCC(=O)[O-]
REMARK SMILES IDX 13 1 14 2 15 3 16 4 17 5 18 6 19 7 20 8 21 9 22 10 23 11
REMARK SMILES IDX 24 12 25 13 26 14 12 15 11 16 10 17 9 18 8 19 7 20 6 21 5 22
REMARK SMILES IDX 4 23 3 24 2 25 1 26
REMARK H PARENT
REMARK Flexibility Score: inf
ROOT
ATOM      1  C   UNL     1      20.581   4.810  18.431  1.00  0.00     0.000 C 
ENDROOT
BRANCH   1   2
ATOM      2  C   UNL     1      21.501   5.459  17.383  1.00  0.00     0.000 C 
BRANCH   2   3
ATOM      3  C   UNL     1      21.365   6.991  17.323  1.00  0.00     0.000 C 
BRANCH   3   4
ATOM      4  C   UNL     1      22.684   7.775  17.455  1.00  0.00     0.000 C 
BRANCH   4   5
ATOM      5  C   UNL     1      22.600   9.198  16.876  1.00  0.00     0.000 C 
BRANCH   5   6
ATOM      6  C   UNL     1      23.623  10.157  17.508  1.00  0.00     0.000 C 
BRANCH   6   7
ATOM      7  C   UNL     1      23.502  11.632  17.069  1.00  0.00     0.000 C 
BRANCH   7   8
ATOM      8  C   UNL     1      22.067  12.154  16.882  1.00  0.00     0.000 C 
BRANCH   8   9
ATOM      9  C   UNL     1      21.987  13.690  16.878  1.00  0.00     0.000 C 
BRANCH   9  10
ATOM     10  C   UNL     1      20.541  14.212  16.941  1.00  0.00     0.006 C 
BRANCH  10  11
ATOM     11  C   UNL     1      20.458  15.744  17.015  1.00  0.00     0.053 C 
BRANCH  11  12
ATOM     12  C   UNL     1      19.034  16.185  17.165  1.00  0.00     0.041 C 
ATOM     13  O   UNL     1      18.098  15.342  17.101  1.00  0.00    -0.550 OA
ATOM     14  O   UNL     1      18.743  17.522  17.409  1.00  0.00    -0.550 OA
ENDBRANCH  11  12
ENDBRANCH  10  11
ENDBRANCH   9  10
ENDBRANCH   8   9
ENDBRANCH   7   8
ENDBRANCH   6   7
ENDBRANCH   5   6
ENDBRANCH   4   5
ENDBRANCH   3   4
ENDBRANCH   2   3
ENDBRANCH   1   2
BRANCH   1  15
ATOM     15  C   UNL     1      21.097   5.007  19.867  1.00  0.00     0.000 C 
BRANCH  15  16
ATOM     16  C   UNL     1      21.654   3.705  20.474  1.00  0.00     0.000 C 
BRANCH  16  17
ATOM     17  C   UNL     1      22.473   2.887  19.451  1.00  0.00     0.000 C 
BRANCH  17  18
ATOM     18  C   UNL     1      23.696   2.179  20.060  1.00  0.00    -0.000 C 
BRANCH  18  19
ATOM     19  C   UNL     1      24.841   1.998  19.050  1.00  0.00    -0.000 C 
BRANCH  19  20
ATOM     20  C   UNL     1      24.523   2.597  17.667  1.00  0.00    -0.000 C 
BRANCH  20  21
ATOM     21  C   UNL     1      24.935   4.072  17.491  1.00  0.00    -0.000 C 
BRANCH  21  22
ATOM     22  C   UNL     1      26.077   4.496  18.437  1.00  0.00    -0.000 C 
BRANCH  22  23
ATOM     23  C   UNL     1      25.876   3.982  19.879  1.00  0.00    -0.000 C 
BRANCH  23  24
ATOM     24  C   UNL     1      26.061   5.063  20.966  1.00  0.00    -0.000 C 
BRANCH  24  25
ATOM     25  C   UNL     1      26.089   4.501  22.403  1.00  0.00    -0.003 C 
ATOM     26  C   UNL     1      25.912   2.982  22.439  1.00  0.00     0.004 C 
ENDBRANCH  24  25
ENDBRANCH  23  24
ENDBRANCH  22  23
ENDBRANCH  21  22
ENDBRANCH  20  21
ENDBRANCH  19  20
ENDBRANCH  18  19
ENDBRANCH  17  18
ENDBRANCH  16  17
ENDBRANCH  15  16
ENDBRANCH   1  15
TORSDOF 22
ENDMDL
MODEL 2
REMARK VINA RESULT:     2.695      2.549      6.044
REMARK INTER + INTRA:           6.875
REMARK INTER:                   7.872
REMARK INTRA:                  -0.997
REMARK UNBOUND:                 0.715
REMARK SMILES CCCCCCCCCCCCCCCCCCCCCCCC(=O)[O-]
REMARK SMILES IDX 13 1 14 2 15 3 16 4 17 5 18 6 19 7 20 8 21 9 22 10 23 11
REMARK SMILES IDX 24 12 25 13 26 14 12 15 11 16 10 17 9 18 8 19 7 20 6 21 5 22
REMARK SMILES IDX 4 23 3 24 2 25 1 26
REMARK H PARENT
REMARK Flexibility Score: inf
ROOT
ATOM      1  C   UNL     1      23.005  11.259  17.631  1.00  0.00     0.000 C 
ENDROOT
BRANCH   1   2
ATOM      2  C   UNL     1      22.058  12.206  16.875  1.00  0.00     0.000 C 
BRANCH   2   3
ATOM      3  C   UNL     1      21.339  13.207  17.799  1.00  0.00     0.000 C 
BRANCH   3   4
ATOM      4  C   UNL     1      20.414  14.211  17.087  1.00  0.00     0.000 C 
BRANCH   4   5
ATOM      5  C   UNL     1      20.862  15.672  17.264  1.00  0.00     0.000 C 
BRANCH   5   6
ATOM      6  C   UNL     1      19.731  16.677  16.983  1.00  0.00     0.000 C 
BRANCH   6   7
ATOM      7  C   UNL     1      18.604  16.712  18.037  1.00  0.00     0.000 C 
BRANCH   7   8
ATOM      8  C   UNL     1      17.858  18.052  18.167  1.00  0.00     0.000 C 
BRANCH   8   9
ATOM      9  C   UNL     1      18.706  19.252  17.713  1.00  0.00     0.000 C 
BRANCH   9  10
ATOM     10  C   UNL     1      18.820  20.344  18.791  1.00  0.00     0.006 C 
BRANCH  10  11
ATOM     11  C   UNL     1      20.256  20.855  18.980  1.00  0.00     0.053 C 
BRANCH  11  12
ATOM     12  C   UNL     1      20.822  21.326  17.675  1.00  0.00     0.041 C 
ATOM     13  O   UNL     1      20.155  22.101  16.937  1.00  0.00    -0.550 OA
ATOM     14  O   UNL     1      22.099  20.935  17.290  1.00  0.00    -0.550 OA
ENDBRANCH  11  12
ENDBRANCH  10  11
ENDBRANCH   9  10
ENDBRANCH   8   9
ENDBRANCH   7   8
ENDBRANCH   6   7
ENDBRANCH   5   6
ENDBRANCH   4   5
ENDBRANCH   3   4
ENDBRANCH   2   3
ENDBRANCH   1   2
BRANCH   1  15
ATOM     15  C   UNL     1      23.243   9.940  16.876  1.00  0.00     0.000 C 
BRANCH  15  16
ATOM     16  C   UNL     1      22.939   8.704  17.742  1.00  0.00     0.000 C 
BRANCH  16  17
ATOM     17  C   UNL     1      22.900   7.402  16.911  1.00  0.00     0.000 C 
BRANCH  17  18
ATOM     18  C   UNL     1      21.530   6.699  16.923  1.00  0.00    -0.000 C 
BRANCH  18  19
ATOM     19  C   UNL     1      21.554   5.369  17.694  1.00  0.00    -0.000 C 
BRANCH  19  20
ATOM     20  C   UNL     1      22.672   5.306  18.751  1.00  0.00    -0.000 C 
BRANCH  20  21
ATOM     21  C   UNL     1      23.839   4.361  18.403  1.00  0.00    -0.000 C 
BRANCH  21  22
ATOM     22  C   UNL     1      23.705   2.972  19.058  1.00  0.00    -0.000 C 
BRANCH  22  23
ATOM     23  C   UNL     1      22.470   2.194  18.556  1.00  0.00    -0.000 C 
BRANCH  23  24
ATOM     24  C   UNL     1      21.360   2.019  19.615  1.00  0.00    -0.000 C 
BRANCH  24  25
ATOM     25  C   UNL     1      20.010   2.649  19.212  1.00  0.00    -0.003 C 
ATOM     26  C   UNL     1      19.567   2.230  17.809  1.00  0.00     0.004 C 
ENDBRANCH  24  25
ENDBRANCH  23  24
ENDBRANCH  22  23
ENDBRANCH  21  22
ENDBRANCH  20  21
ENDBRANCH  19  20
ENDBRANCH  18  19
ENDBRANCH  17  18
ENDBRANCH  16  17
ENDBRANCH  15  16
ENDBRANCH   1  15
TORSDOF 22
ENDMDL
MODEL 3
REMARK VINA RESULT:     3.030      4.732     12.881
REMARK INTER + INTRA:           7.642
REMARK INTER:                   8.081
REMARK INTRA:                  -0.438
REMARK UNBOUND:                 0.715
REMARK SMILES CCCCCCCCCCCCCCCCCCCCCCCC(=O)[O-]
REMARK SMILES IDX 13 1 14 2 15 3 16 4 17 5 18 6 19 7 20 8 21 9 22 10 23 11
REMARK SMILES IDX 24 12 25 13 26 14 12 15 11 16 10 17 9 18 8 19 7 20 6 21 5 22
REMARK SMILES IDX 4 23 3 24 2 25 1 26
REMARK H PARENT
REMARK Flexibility Score: inf
ROOT
ATOM      1  C   UNL     1      20.839  14.379  17.963  1.00  0.00     0.000 C 
ENDROOT
BRANCH   1   2
ATOM      2  C   UNL     1      22.079  13.786  17.273  1.00  0.00     0.000 C 
BRANCH   2   3
ATOM      3  C   UNL     1      21.902  12.309  16.875  1.00  0.00     0.000 C 
BRANCH   3   4
ATOM      4  C   UNL     1      22.969  11.346  17.428  1.00  0.00     0.000 C 
BRANCH   4   5
ATOM      5  C   UNL     1      22.764   9.892  16.968  1.00  0.00     0.000 C 
BRANCH   5   6
ATOM      6  C   UNL     1      24.084   9.106  16.883  1.00  0.00     0.000 C 
BRANCH   6   7
ATOM      7  C   UNL     1      23.957   7.581  17.086  1.00  0.00     0.000 C 
BRANCH   7   8
ATOM      8  C   UNL     1      22.548   6.999  16.877  1.00  0.00     0.000 C 
BRANCH   8   9
ATOM      9  C   UNL     1      22.069   6.156  18.071  1.00  0.00     0.000 C 
BRANCH   9  10
ATOM     10  C   UNL     1      22.025   4.651  17.760  1.00  0.00     0.006 C 
BRANCH  10  11
ATOM     11  C   UNL     1      22.340   3.774  18.980  1.00  0.00     0.053 C 
BRANCH  11  12
ATOM     12  C   UNL     1      21.079   3.221  19.569  1.00  0.00     0.041 C 
ATOM     13  O   UNL     1      21.012   2.966  20.802  1.00  0.00    -0.550 OA
ATOM     14  O   UNL     1      19.966   3.018  18.762  1.00  0.00    -0.550 OA
ENDBRANCH  11  12
ENDBRANCH  10  11
ENDBRANCH   9  10
ENDBRANCH   8   9
ENDBRANCH   7   8
ENDBRANCH   6   7
ENDBRANCH   5   6
ENDBRANCH   4   5
ENDBRANCH   3   4
ENDBRANCH   2   3
ENDBRANCH   1   2
BRANCH   1  15
ATOM     15  C   UNL     1      19.852  15.003  16.961  1.00  0.00     0.000 C 
BRANCH  15  16
ATOM     16  C   UNL     1      18.725  15.787  17.659  1.00  0.00     0.000 C 
BRANCH  16  17
ATOM     17  C   UNL     1      18.349  17.075  16.893  1.00  0.00     0.000 C 
BRANCH  17  18
ATOM     18  C   UNL     1      19.284  18.263  17.180  1.00  0.00    -0.000 C 
BRANCH  18  19
ATOM     19  C   UNL     1      20.759  17.941  16.888  1.00  0.00    -0.000 C 
BRANCH  19  20
ATOM     20  C   UNL     1      21.726  19.012  17.425  1.00  0.00    -0.000 C 
BRANCH  20  21
ATOM     21  C   UNL     1      21.162  20.447  17.432  1.00  0.00    -0.000 C 
BRANCH  21  22
ATOM     22  C   UNL     1      22.074  21.449  18.169  1.00  0.00    -0.000 C 
BRANCH  22  23
ATOM     23  C   UNL     1      22.109  21.211  19.694  1.00  0.00    -0.000 C 
BRANCH  23  24
ATOM     24  C   UNL     1      21.058  20.198  20.199  1.00  0.00    -0.000 C 
BRANCH  24  25
ATOM     25  C   UNL     1      19.661  20.812  20.423  1.00  0.00    -0.003 C 
ATOM     26  C   UNL     1      19.650  21.842  21.554  1.00  0.00     0.004 C 
ENDBRANCH  24  25
ENDBRANCH  23  24
ENDBRANCH  22  23
ENDBRANCH  21  22
ENDBRANCH  20  21
ENDBRANCH  19  20
ENDBRANCH  18  19
ENDBRANCH  17  18
ENDBRANCH  16  17
ENDBRANCH  15  16
ENDBRANCH   1  15
TORSDOF 22
ENDMDL
MODEL 4
REMARK VINA RESULT:     3.155      2.533      5.731
REMARK INTER + INTRA:           7.929
REMARK INTER:                   7.826
REMARK INTRA:                   0.103
REMARK UNBOUND:                 0.715
REMARK SMILES CCCCCCCCCCCCCCCCCCCCCCCC(=O)[O-]
REMARK SMILES IDX 13 1 14 2 15 3 16 4 17 5 18 6 19 7 20 8 21 9 22 10 23 11
REMARK SMILES IDX 24 12 25 13 26 14 12 15 11 16 10 17 9 18 8 19 7 20 6 21 5 22
REMARK SMILES IDX 4 23 3 24 2 25 1 26
REMARK H PARENT
REMARK Flexibility Score: inf
ROOT
ATOM      1  C   UNL     1      22.993  11.276  17.642  1.00  0.00     0.000 C 
ENDROOT
BRANCH   1   2
ATOM      2  C   UNL     1      22.113  12.278  16.875  1.00  0.00     0.000 C 
BRANCH   2   3
ATOM      3  C   UNL     1      21.348  13.243  17.800  1.00  0.00     0.000 C 
BRANCH   3   4
ATOM      4  C   UNL     1      20.434  14.255  17.085  1.00  0.00     0.000 C 
BRANCH   4   5
ATOM      5  C   UNL     1      20.882  15.713  17.279  1.00  0.00     0.000 C 
BRANCH   5   6
ATOM      6  C   UNL     1      19.765  16.724  16.963  1.00  0.00     0.000 C 
BRANCH   6   7
ATOM      7  C   UNL     1      18.648  16.824  18.023  1.00  0.00     0.000 C 
BRANCH   7   8
ATOM      8  C   UNL     1      18.085  18.236  18.263  1.00  0.00     0.000 C 
BRANCH   8   9
ATOM      9  C   UNL     1      19.066  19.347  17.853  1.00  0.00     0.000 C 
BRANCH   9  10
ATOM     10  C   UNL     1      18.398  20.729  17.758  1.00  0.00     0.006 C 
BRANCH  10  11
ATOM     11  C   UNL     1      18.577  21.572  19.030  1.00  0.00     0.053 C 
BRANCH  11  12
ATOM     12  C   UNL     1      19.798  21.138  19.780  1.00  0.00     0.041 C 
ATOM     13  O   UNL     1      19.841  21.239  21.036  1.00  0.00    -0.550 OA
ATOM     14  O   UNL     1      20.876  20.590  19.095  1.00  0.00    -0.550 OA
ENDBRANCH  11  12
ENDBRANCH  10  11
ENDBRANCH   9  10
ENDBRANCH   8   9
ENDBRANCH   7   8
ENDBRANCH   6   7
ENDBRANCH   5   6
ENDBRANCH   4   5
ENDBRANCH   3   4
ENDBRANCH   2   3
ENDBRANCH   1   2
BRANCH   1  15
ATOM     15  C   UNL     1      23.183   9.956  16.875  1.00  0.00     0.000 C 
BRANCH  15  16
ATOM     16  C   UNL     1      23.201   8.732  17.810  1.00  0.00     0.000 C 
BRANCH  16  17
ATOM     17  C   UNL     1      23.284   7.402  17.029  1.00  0.00     0.000 C 
BRANCH  17  18
ATOM     18  C   UNL     1      22.051   6.498  17.210  1.00  0.00    -0.000 C 
BRANCH  18  19
ATOM     19  C   UNL     1      22.368   5.209  17.986  1.00  0.00    -0.000 C 
BRANCH  19  20
ATOM     20  C   UNL     1      21.117   4.553  18.598  1.00  0.00    -0.000 C 
BRANCH  20  21
ATOM     21  C   UNL     1      21.009   4.671  20.132  1.00  0.00    -0.000 C 
BRANCH  21  22
ATOM     22  C   UNL     1      21.545   3.428  20.870  1.00  0.00    -0.000 C 
BRANCH  22  23
ATOM     23  C   UNL     1      23.063   3.227  20.674  1.00  0.00    -0.000 C 
BRANCH  23  24
ATOM     24  C   UNL     1      23.927   4.398  21.192  1.00  0.00    -0.000 C 
BRANCH  24  25
ATOM     25  C   UNL     1      24.932   3.990  22.289  1.00  0.00    -0.003 C 
ATOM     26  C   UNL     1      25.958   2.970  21.792  1.00  0.00     0.004 C 
ENDBRANCH  24  25
ENDBRANCH  23  24
ENDBRANCH  22  23
ENDBRANCH  21  22
ENDBRANCH  20  21
ENDBRANCH  19  20
ENDBRANCH  18  19
ENDBRANCH  17  18
ENDBRANCH  16  17
ENDBRANCH  15  16
ENDBRANCH   1  15
TORSDOF 22
ENDMDL
MODEL 5
REMARK VINA RESULT:     3.220      2.154      4.865
REMARK INTER + INTRA:           8.076
REMARK INTER:                   8.627
REMARK INTRA:                  -0.552
REMARK UNBOUND:                 0.715
REMARK SMILES CCCCCCCCCCCCCCCCCCCCCCCC(=O)[O-]
REMARK SMILES IDX 13 1 14 2 15 3 16 4 17 5 18 6 19 7 20 8 21 9 22 10 23 11
REMARK SMILES IDX 24 12 25 13 26 14 12 15 11 16 10 17 9 18 8 19 7 20 6 21 5 22
REMARK SMILES IDX 4 23 3 24 2 25 1 26
REMARK H PARENT
REMARK Flexibility Score: inf
ROOT
ATOM      1  C   UNL     1      22.206  10.069  17.893  1.00  0.00     0.000 C 
ENDROOT
BRANCH   1   2
ATOM      2  C   UNL     1      23.430  10.885  17.444  1.00  0.00     0.000 C 
BRANCH   2   3
ATOM      3  C   UNL     1      23.115  12.376  17.223  1.00  0.00     0.000 C 
BRANCH   3   4
ATOM      4  C   UNL     1      21.644  12.777  17.438  1.00  0.00     0.000 C 
BRANCH   4   5
ATOM      5  C   UNL     1      21.311  14.169  16.875  1.00  0.00     0.000 C 
BRANCH   5   6
ATOM      6  C   UNL     1      20.216  14.889  17.682  1.00  0.00     0.000 C 
BRANCH   6   7
ATOM      7  C   UNL     1      19.815  16.282  17.152  1.00  0.00     0.000 C 
BRANCH   7   8
ATOM      8  C   UNL     1      18.639  16.957  17.880  1.00  0.00     0.000 C 
BRANCH   8   9
ATOM      9  C   UNL     1      18.209  18.278  17.220  1.00  0.00     0.000 C 
BRANCH   9  10
ATOM     10  C   UNL     1      16.818  18.748  17.677  1.00  0.00     0.006 C 
BRANCH  10  11
ATOM     11  C   UNL     1      16.875  19.875  18.719  1.00  0.00     0.053 C 
BRANCH  11  12
ATOM     12  C   UNL     1      17.529  21.092  18.141  1.00  0.00     0.041 C 
ATOM     13  O   UNL     1      17.131  21.565  17.042  1.00  0.00    -0.550 OA
ATOM     14  O   UNL     1      18.557  21.723  18.832  1.00  0.00    -0.550 OA
ENDBRANCH  11  12
ENDBRANCH  10  11
ENDBRANCH   9  10
ENDBRANCH   8   9
ENDBRANCH   7   8
ENDBRANCH   6   7
ENDBRANCH   5   6
ENDBRANCH   4   5
ENDBRANCH   3   4
ENDBRANCH   2   3
ENDBRANCH   1   2
BRANCH   1  15
ATOM     15  C   UNL     1      22.017   8.787  17.063  1.00  0.00     0.000 C 
BRANCH  15  16
ATOM     16  C   UNL     1      21.662   7.569  17.936  1.00  0.00     0.000 C 
BRANCH  16  17
ATOM     17  C   UNL     1      21.438   6.293  17.095  1.00  0.00     0.000 C 
BRANCH  17  18
ATOM     18  C   UNL     1      21.773   4.990  17.844  1.00  0.00    -0.000 C 
BRANCH  18  19
ATOM     19  C   UNL     1      20.519   4.255  18.343  1.00  0.00    -0.000 C 
BRANCH  19  20
ATOM     20  C   UNL     1      20.652   3.757  19.795  1.00  0.00    -0.000 C 
BRANCH  20  21
ATOM     21  C   UNL     1      21.474   2.464  19.963  1.00  0.00    -0.000 C 
BRANCH  21  22
ATOM     22  C   UNL     1      22.948   2.628  19.538  1.00  0.00    -0.000 C 
BRANCH  22  23
ATOM     23  C   UNL     1      23.789   3.383  20.588  1.00  0.00    -0.000 C 
BRANCH  23  24
ATOM     24  C   UNL     1      25.314   3.286  20.364  1.00  0.00    -0.000 C 
BRANCH  24  25
ATOM     25  C   UNL     1      26.121   4.379  21.097  1.00  0.00    -0.003 C 
ATOM     26  C   UNL     1      26.049   4.237  22.618  1.00  0.00     0.004 C 
ENDBRANCH  24  25
ENDBRANCH  23  24
ENDBRANCH  22  23
ENDBRANCH  21  22
ENDBRANCH  20  21
ENDBRANCH  19  20
ENDBRANCH  18  19
ENDBRANCH  17  18
ENDBRANCH  16  17
ENDBRANCH  15  16
ENDBRANCH   1  15
TORSDOF 22
ENDMDL
MODEL 6
REMARK VINA RESULT:     3.314      3.982     11.894
REMARK INTER + INTRA:           8.291
REMARK INTER:                   9.165
REMARK INTRA:                  -0.873
REMARK UNBOUND:                 0.715
REMARK SMILES CCCCCCCCCCCCCCCCCCCCCCCC(=O)[O-]
REMARK SMILES IDX 13 1 14 2 15 3 16 4 17 5 18 6 19 7 20 8 21 9 22 10 23 11
REMARK SMILES IDX 24 12 25 13 26 14 12 15 11 16 10 17 9 18 8 19 7 20 6 21 5 22
REMARK SMILES IDX 4 23 3 24 2 25 1 26
REMARK H PARENT
REMARK Flexibility Score: inf
ROOT
ATOM      1  C   UNL     1      23.014   8.965  17.809  1.00  0.00     0.000 C 
ENDROOT
BRANCH   1   2
ATOM      2  C   UNL     1      23.819   7.858  17.106  1.00  0.00     0.000 C 
BRANCH   2   3
ATOM      3  C   UNL     1      25.269   7.750  17.612  1.00  0.00     0.000 C 
BRANCH   3   4
ATOM      4  C   UNL     1      25.949   6.388  17.377  1.00  0.00     0.000 C 
BRANCH   4   5
ATOM      5  C   UNL     1      24.965   5.294  16.930  1.00  0.00     0.000 C 
BRANCH   5   6
ATOM      6  C   UNL     1      25.429   3.881  17.327  1.00  0.00     0.000 C 
BRANCH   6   7
ATOM      7  C   UNL     1      24.316   2.940  17.833  1.00  0.00     0.000 C 
BRANCH   7   8
ATOM      8  C   UNL     1      23.090   2.807  16.913  1.00  0.00     0.000 C 
BRANCH   8   9
ATOM      9  C   UNL     1      21.760   2.840  17.685  1.00  0.00     0.000 C 
BRANCH   9  10
ATOM     10  C   UNL     1      21.740   1.875  18.883  1.00  0.00     0.006 C 
BRANCH  10  11
ATOM     11  C   UNL     1      21.854   2.593  20.236  1.00  0.00     0.053 C 
BRANCH  11  12
ATOM     12  C   UNL     1      21.178   3.928  20.180  1.00  0.00     0.041 C 
ATOM     13  O   UNL     1      21.860   4.987  20.241  1.00  0.00    -0.550 OA
ATOM     14  O   UNL     1      19.799   4.003  20.026  1.00  0.00    -0.550 OA
ENDBRANCH  11  12
ENDBRANCH  10  11
ENDBRANCH   9  10
ENDBRANCH   8   9
ENDBRANCH   7   8
ENDBRANCH   6   7
ENDBRANCH   5   6
ENDBRANCH   4   5
ENDBRANCH   3   4
ENDBRANCH   2   3
ENDBRANCH   1   2
BRANCH   1  15
ATOM     15  C   UNL     1      22.808  10.199  16.915  1.00  0.00     0.000 C 
BRANCH  15  16
ATOM     16  C   UNL     1      23.127  11.515  17.648  1.00  0.00     0.000 C 
BRANCH  16  17
ATOM     17  C   UNL     1      22.618  12.753  16.876  1.00  0.00     0.000 C 
BRANCH  17  18
ATOM     18  C   UNL     1      21.238  13.250  17.342  1.00  0.00    -0.000 C 
BRANCH  18  19
ATOM     19  C   UNL     1      20.938  14.686  16.881  1.00  0.00    -0.000 C 
BRANCH  19  20
ATOM     20  C   UNL     1      19.796  15.346  17.676  1.00  0.00    -0.000 C 
BRANCH  20  21
ATOM     21  C   UNL     1      19.409  16.760  17.199  1.00  0.00    -0.000 C 
BRANCH  21  22
ATOM     22  C   UNL     1      17.884  16.978  17.138  1.00  0.00    -0.000 C 
BRANCH  22  23
ATOM     23  C   UNL     1      17.467  18.395  17.590  1.00  0.00    -0.000 C 
BRANCH  23  24
ATOM     24  C   UNL     1      18.602  19.206  18.252  1.00  0.00    -0.000 C 
BRANCH  24  25
ATOM     25  C   UNL     1      18.147  20.570  18.812  1.00  0.00    -0.003 C 
ATOM     26  C   UNL     1      16.816  21.030  18.216  1.00  0.00     0.004 C 
ENDBRANCH  24  25
ENDBRANCH  23  24
ENDBRANCH  22  23
ENDBRANCH  21  22
ENDBRANCH  20  21
ENDBRANCH  19  20
ENDBRANCH  18  19
ENDBRANCH  17  18
ENDBRANCH  16  17
ENDBRANCH  15  16
ENDBRANCH   1  15
TORSDOF 22
ENDMDL
MODEL 7
REMARK VINA RESULT:     3.326      4.346     12.252
REMARK INTER + INTRA:           8.318
REMARK INTER:                   8.447
REMARK INTRA:                  -0.129
REMARK UNBOUND:                 0.715
REMARK SMILES CCCCCCCCCCCCCCCCCCCCCCCC(=O)[O-]
REMARK SMILES IDX 13 1 14 2 15 3 16 4 17 5 18 6 19 7 20 8 21 9 22 10 23 11
REMARK SMILES IDX 24 12 25 13 26 14 12 15 11 16 10 17 9 18 8 19 7 20 6 21 5 22
REMARK SMILES IDX 4 23 3 24 2 25 1 26
REMARK H PARENT
REMARK Flexibility Score: inf
ROOT
ATOM      1  C   UNL     1      21.926  11.603  17.358  1.00  0.00     0.000 C 
ENDROOT
BRANCH   1   2
ATOM      2  C   UNL     1      23.269  11.094  17.908  1.00  0.00     0.000 C 
BRANCH   2   3
ATOM      3  C   UNL     1      24.461  11.987  17.519  1.00  0.00     0.000 C 
BRANCH   3   4
ATOM      4  C   UNL     1      25.851  11.364  17.740  1.00  0.00     0.000 C 
BRANCH   4   5
ATOM      5  C   UNL     1      26.092  10.109  16.885  1.00  0.00     0.000 C 
BRANCH   5   6
ATOM      6  C   UNL     1      24.991   9.048  17.065  1.00  0.00     0.000 C 
BRANCH   6   7
ATOM      7  C   UNL     1      25.456   7.584  16.916  1.00  0.00     0.000 C 
BRANCH   7   8
ATOM      8  C   UNL     1      24.335   6.531  16.886  1.00  0.00     0.000 C 
BRANCH   8   9
ATOM      9  C   UNL     1      22.931   7.153  16.965  1.00  0.00     0.000 C 
BRANCH   9  10
ATOM     10  C   UNL     1      22.083   6.572  18.109  1.00  0.00     0.006 C 
BRANCH  10  11
ATOM     11  C   UNL     1      22.194   5.044  18.224  1.00  0.00     0.053 C 
BRANCH  11  12
ATOM     12  C   UNL     1      20.840   4.411  18.123  1.00  0.00     0.041 C 
ATOM     13  O   UNL     1      20.684   3.351  17.459  1.00  0.00    -0.550 OA
ATOM     14  O   UNL     1      19.759   4.973  18.791  1.00  0.00    -0.550 OA
ENDBRANCH  11  12
ENDBRANCH  10  11
ENDBRANCH   9  10
ENDBRANCH   8   9
ENDBRANCH   7   8
ENDBRANCH   6   7
ENDBRANCH   5   6
ENDBRANCH   4   5
ENDBRANCH   3   4
ENDBRANCH   2   3
ENDBRANCH   1   2
BRANCH   1  15
ATOM     15  C   UNL     1      21.997  13.071  16.903  1.00  0.00     0.000 C 
BRANCH  15  16
ATOM     16  C   UNL     1      20.688  13.835  17.179  1.00  0.00     0.000 C 
BRANCH  16  17
ATOM     17  C   UNL     1      20.842  15.356  16.956  1.00  0.00     0.000 C 
BRANCH  17  18
ATOM     18  C   UNL     1      19.665  16.185  17.502  1.00  0.00    -0.000 C 
BRANCH  18  19
ATOM     19  C   UNL     1      19.587  17.588  16.878  1.00  0.00    -0.000 C 
BRANCH  19  20
ATOM     20  C   UNL     1      19.097  18.660  17.868  1.00  0.00    -0.000 C 
BRANCH  20  21
ATOM     21  C   UNL     1      19.419  20.112  17.461  1.00  0.00    -0.000 C 
BRANCH  21  22
ATOM     22  C   UNL     1      20.923  20.351  17.221  1.00  0.00    -0.000 C 
BRANCH  22  23
ATOM     23  C   UNL     1      21.650  20.874  18.479  1.00  0.00    -0.000 C 
BRANCH  23  24
ATOM     24  C   UNL     1      20.999  22.124  19.110  1.00  0.00    -0.000 C 
BRANCH  24  25
ATOM     25  C   UNL     1      19.935  21.797  20.179  1.00  0.00    -0.003 C 
ATOM     26  C   UNL     1      20.065  20.370  20.715  1.00  0.00     0.004 C 
ENDBRANCH  24  25
ENDBRANCH  23  24
ENDBRANCH  22  23
ENDBRANCH  21  22
ENDBRANCH  20  21
ENDBRANCH  19  20
ENDBRANCH  18  19
ENDBRANCH  17  18
ENDBRANCH  16  17
ENDBRANCH  15  16
ENDBRANCH   1  15
TORSDOF 22
ENDMDL
