MODEL 1
REMARK VINA RESULT:    -6.907      0.000      0.000
REMARK INTER + INTRA:          -8.633
REMARK INTER:                  -8.320
REMARK INTRA:                  -0.313
REMARK UNBOUND:                -0.313
REMARK SMILES O=c1c(O)c(-c2ccc(O)c(O)c2)oc2cc(O)cc(O)c12
REMARK SMILES IDX 5 1 3 2 2 3 1 4 22 5 20 6 19 7 17 8 16 9 15 10 14 11 6 12
REMARK SMILES IDX 7 13 8 14 9 15 13 16 11 17 10 18 12 20 4 22 21 24 18 26
REMARK H PARENT 10 19 12 21 4 23 21 25 18 27
REMARK Flexibility Score: inf
ROOT
ATOM      1  C   UNL     1      57.512  18.209  45.907  1.00  0.00     0.180 A 
ATOM      2  C   UNL     1      57.491  19.131  46.969  1.00  0.00     0.208 A 
ATOM      3  C   UNL     1      57.087  20.452  46.714  1.00  0.00     0.238 A 
ATOM      4  O   UNL     1      57.123  21.287  47.657  1.00  0.00    -0.285 OA
ATOM      5  C   UNL     1      56.693  20.830  45.408  1.00  0.00     0.111 A 
ATOM      6  C   UNL     1      56.227  22.129  45.046  1.00  0.00     0.134 A 
ATOM      7  C   UNL     1      55.989  22.427  43.699  1.00  0.00     0.093 A 
ATOM      8  C   UNL     1      56.136  21.456  42.710  1.00  0.00     0.123 A 
ATOM      9  C   UNL     1      56.533  20.165  43.060  1.00  0.00     0.094 A 
ATOM     10  C   UNL     1      56.813  19.847  44.392  1.00  0.00     0.146 A 
ATOM     11  O   UNL     1      57.199  18.611  44.681  1.00  0.00    -0.452 OA
ENDROOT
BRANCH   1  12
ATOM     12  C   UNL     1      57.901  16.794  46.101  1.00  0.00     0.025 A 
ATOM     13  C   UNL     1      56.997  15.849  46.617  1.00  0.00     0.016 A 
ATOM     14  C   UNL     1      57.379  14.514  46.769  1.00  0.00     0.051 A 
ATOM     15  C   UNL     1      58.661  14.099  46.398  1.00  0.00     0.157 A 
ATOM     16  C   UNL     1      59.182  16.369  45.710  1.00  0.00     0.062 A 
ATOM     17  C   UNL     1      59.568  15.029  45.862  1.00  0.00     0.158 A 
BRANCH  15  18
ATOM     18  O   UNL     1      59.015  12.760  46.563  1.00  0.00    -0.504 OA
ATOM     19  H   UNL     1      59.959  12.478  46.795  1.00  0.00     0.293 HD
ENDBRANCH  15  18
BRANCH  17  20
ATOM     20  O   UNL     1      60.845  14.621  45.483  1.00  0.00    -0.504 OA
ATOM     21  H   UNL     1      61.317  15.027  44.684  1.00  0.00     0.293 HD
ENDBRANCH  17  20
ENDBRANCH   1  12
BRANCH   2  22
ATOM     22  O   UNL     1      57.905  18.743  48.245  1.00  0.00    -0.502 OA
ATOM     23  H   UNL     1      58.751  18.209  48.404  1.00  0.00     0.293 HD
ENDBRANCH   2  22
BRANCH   6  24
ATOM     24  O   UNL     1      55.958  23.146  45.967  1.00  0.00    -0.507 OA
ATOM     25  H   UNL     1      55.108  23.225  46.505  1.00  0.00     0.293 HD
ENDBRANCH   6  24
BRANCH   8  26
ATOM     26  O   UNL     1      55.875  21.783  41.381  1.00  0.00    -0.508 OA
ATOM     27  H   UNL     1      54.972  22.137  41.090  1.00  0.00     0.293 HD
ENDBRANCH   8  26
TORSDOF 6
ENDMDL
MODEL 2
REMARK VINA RESULT:    -6.140      3.839      5.451
REMARK INTER + INTRA:          -7.709
REMARK INTER:                  -7.417
REMARK INTRA:                  -0.291
REMARK UNBOUND:                -0.313
REMARK SMILES O=c1c(O)c(-c2ccc(O)c(O)c2)oc2cc(O)cc(O)c12
REMARK SMILES IDX 5 1 3 2 2 3 1 4 22 5 20 6 19 7 17 8 16 9 15 10 14 11 6 12
REMARK SMILES IDX 7 13 8 14 9 15 13 16 11 17 10 18 12 20 4 22 21 24 18 26
REMARK H PARENT 10 19 12 21 4 23 21 25 18 27
REMARK Flexibility Score: inf
ROOT
ATOM      1  C   UNL     1      59.712  20.595  47.198  1.00  0.00     0.180 A 
ATOM      2  C   UNL     1      59.145  19.335  47.460  1.00  0.00     0.208 A 
ATOM      3  C   UNL     1      58.050  18.909  46.692  1.00  0.00     0.238 A 
ATOM      4  O   UNL     1      57.511  17.804  46.968  1.00  0.00    -0.285 OA
ATOM      5  C   UNL     1      57.547  19.738  45.660  1.00  0.00     0.111 A 
ATOM      6  C   UNL     1      56.469  19.388  44.793  1.00  0.00     0.134 A 
ATOM      7  C   UNL     1      55.970  20.339  43.894  1.00  0.00     0.093 A 
ATOM      8  C   UNL     1      56.551  21.601  43.784  1.00  0.00     0.123 A 
ATOM      9  C   UNL     1      57.645  21.932  44.585  1.00  0.00     0.094 A 
ATOM     10  C   UNL     1      58.142  21.017  45.517  1.00  0.00     0.146 A 
ATOM     11  O   UNL     1      59.177  21.376  46.267  1.00  0.00    -0.452 OA
ENDROOT
BRANCH   1  12
ATOM     12  C   UNL     1      60.883  21.103  47.948  1.00  0.00     0.025 A 
ATOM     13  C   UNL     1      60.734  22.005  49.016  1.00  0.00     0.016 A 
ATOM     14  C   UNL     1      61.851  22.454  49.725  1.00  0.00     0.051 A 
ATOM     15  C   UNL     1      63.130  22.001  49.388  1.00  0.00     0.157 A 
ATOM     16  C   UNL     1      62.168  20.635  47.626  1.00  0.00     0.062 A 
ATOM     17  C   UNL     1      63.291  21.084  48.335  1.00  0.00     0.158 A 
BRANCH  15  18
ATOM     18  O   UNL     1      64.227  22.467  50.112  1.00  0.00    -0.504 OA
ATOM     19  H   UNL     1      65.148  22.057  50.017  1.00  0.00     0.293 HD
ENDBRANCH  15  18
BRANCH  17  20
ATOM     20  O   UNL     1      64.562  20.623  48.000  1.00  0.00    -0.504 OA
ATOM     21  H   UNL     1      65.232  21.213  47.521  1.00  0.00     0.293 HD
ENDBRANCH  17  20
ENDBRANCH   1  12
BRANCH   2  22
ATOM     22  O   UNL     1      59.643  18.543  48.498  1.00  0.00    -0.502 OA
ATOM     23  H   UNL     1      59.039  18.012  49.115  1.00  0.00     0.293 HD
ENDBRANCH   2  22
BRANCH   6  24
ATOM     24  O   UNL     1      55.875  18.123  44.757  1.00  0.00    -0.507 OA
ATOM     25  H   UNL     1      54.946  17.914  45.090  1.00  0.00     0.293 HD
ENDBRANCH   6  24
BRANCH   8  26
ATOM     26  O   UNL     1      56.040  22.516  42.867  1.00  0.00    -0.508 OA
ATOM     27  H   UNL     1      56.647  23.102  42.307  1.00  0.00     0.293 HD
ENDBRANCH   8  26
TORSDOF 6
ENDMDL
MODEL 3
REMARK VINA RESULT:    -6.043      1.987      3.820
REMARK INTER + INTRA:          -7.592
REMARK INTER:                  -7.272
REMARK INTRA:                  -0.320
REMARK UNBOUND:                -0.313
REMARK SMILES O=c1c(O)c(-c2ccc(O)c(O)c2)oc2cc(O)cc(O)c12
REMARK SMILES IDX 5 1 3 2 2 3 1 4 22 5 20 6 19 7 17 8 16 9 15 10 14 11 6 12
REMARK SMILES IDX 7 13 8 14 9 15 13 16 11 17 10 18 12 20 4 22 21 24 18 26
REMARK H PARENT 10 19 12 21 4 23 21 25 18 27
REMARK Flexibility Score: inf
ROOT
ATOM      1  C   UNL     1      57.553  17.031  46.465  1.00  0.00     0.180 A 
ATOM      2  C   UNL     1      57.194  17.682  45.271  1.00  0.00     0.208 A 
ATOM      3  C   UNL     1      56.979  19.070  45.292  1.00  0.00     0.238 A 
ATOM      4  O   UNL     1      56.604  19.639  44.233  1.00  0.00    -0.285 OA
ATOM      5  C   UNL     1      57.142  19.791  46.499  1.00  0.00     0.111 A 
ATOM      6  C   UNL     1      56.990  21.204  46.626  1.00  0.00     0.134 A 
ATOM      7  C   UNL     1      57.045  21.793  47.895  1.00  0.00     0.093 A 
ATOM      8  C   UNL     1      57.314  21.032  49.032  1.00  0.00     0.123 A 
ATOM      9  C   UNL     1      57.524  19.658  48.911  1.00  0.00     0.094 A 
ATOM     10  C   UNL     1      57.438  19.035  47.663  1.00  0.00     0.146 A 
ATOM     11  O   UNL     1      57.634  17.724  47.594  1.00  0.00    -0.452 OA
ENDROOT
BRANCH   1  12
ATOM     12  C   UNL     1      57.820  15.575  46.518  1.00  0.00     0.025 A 
ATOM     13  C   UNL     1      59.126  15.067  46.410  1.00  0.00     0.016 A 
ATOM     14  C   UNL     1      59.358  13.691  46.487  1.00  0.00     0.051 A 
ATOM     15  C   UNL     1      58.295  12.805  46.685  1.00  0.00     0.157 A 
ATOM     16  C   UNL     1      56.757  14.684  46.737  1.00  0.00     0.062 A 
ATOM     17  C   UNL     1      56.987  13.303  46.815  1.00  0.00     0.158 A 
BRANCH  15  18
ATOM     18  O   UNL     1      58.556  11.437  46.756  1.00  0.00    -0.504 OA
ATOM     19  H   UNL     1      58.087  10.833  47.420  1.00  0.00     0.293 HD
ENDBRANCH  15  18
BRANCH  17  20
ATOM     20  O   UNL     1      55.924  12.426  47.020  1.00  0.00    -0.504 OA
ATOM     21  H   UNL     1      55.759  11.637  46.405  1.00  0.00     0.293 HD
ENDBRANCH  17  20
ENDBRANCH   1  12
BRANCH   2  22
ATOM     22  O   UNL     1      57.017  16.948  44.096  1.00  0.00    -0.502 OA
ATOM     23  H   UNL     1      56.101  16.690  43.748  1.00  0.00     0.293 HD
ENDBRANCH   2  22
BRANCH   6  24
ATOM     24  O   UNL     1      56.810  22.070  45.543  1.00  0.00    -0.507 OA
ATOM     25  H   UNL     1      56.226  22.892  45.555  1.00  0.00     0.293 HD
ENDBRANCH   6  24
BRANCH   8  26
ATOM     26  O   UNL     1      57.378  21.654  50.276  1.00  0.00    -0.508 OA
ATOM     27  H   UNL     1      58.257  21.979  50.661  1.00  0.00     0.293 HD
ENDBRANCH   8  26
TORSDOF 6
ENDMDL
MODEL 4
REMARK VINA RESULT:    -6.035      3.457      7.529
REMARK INTER + INTRA:          -7.583
REMARK INTER:                  -7.326
REMARK INTRA:                  -0.257
REMARK UNBOUND:                -0.313
REMARK SMILES O=c1c(O)c(-c2ccc(O)c(O)c2)oc2cc(O)cc(O)c12
REMARK SMILES IDX 5 1 3 2 2 3 1 4 22 5 20 6 19 7 17 8 16 9 15 10 14 11 6 12
REMARK SMILES IDX 7 13 8 14 9 15 13 16 11 17 10 18 12 20 4 22 21 24 18 26
REMARK H PARENT 10 19 12 21 4 23 21 25 18 27
REMARK Flexibility Score: inf
ROOT
ATOM      1  C   UNL     1      60.485  19.633  47.272  1.00  0.00     0.180 A 
ATOM      2  C   UNL     1      61.463  19.949  48.232  1.00  0.00     0.208 A 
ATOM      3  C   UNL     1      62.533  19.062  48.430  1.00  0.00     0.238 A 
ATOM      4  O   UNL     1      63.375  19.323  49.330  1.00  0.00    -0.285 OA
ATOM      5  C   UNL     1      62.622  17.881  47.655  1.00  0.00     0.111 A 
ATOM      6  C   UNL     1      63.685  16.932  47.744  1.00  0.00     0.134 A 
ATOM      7  C   UNL     1      63.603  15.735  47.023  1.00  0.00     0.093 A 
ATOM      8  C   UNL     1      62.533  15.480  46.167  1.00  0.00     0.123 A 
ATOM      9  C   UNL     1      61.518  16.428  46.027  1.00  0.00     0.094 A 
ATOM     10  C   UNL     1      61.553  17.617  46.762  1.00  0.00     0.146 A 
ATOM     11  O   UNL     1      60.562  18.486  46.608  1.00  0.00    -0.452 OA
ENDROOT
BRANCH   1  12
ATOM     12  C   UNL     1      59.341  20.529  46.989  1.00  0.00     0.025 A 
ATOM     13  C   UNL     1      58.051  20.245  47.471  1.00  0.00     0.016 A 
ATOM     14  C   UNL     1      56.990  21.117  47.210  1.00  0.00     0.051 A 
ATOM     15  C   UNL     1      57.203  22.289  46.478  1.00  0.00     0.157 A 
ATOM     16  C   UNL     1      59.554  21.718  46.271  1.00  0.00     0.062 A 
ATOM     17  C   UNL     1      58.492  22.594  46.008  1.00  0.00     0.158 A 
BRANCH  15  18
ATOM     18  O   UNL     1      56.125  23.140  46.233  1.00  0.00    -0.504 OA
ATOM     19  H   UNL     1      55.220  23.000  46.665  1.00  0.00     0.293 HD
ENDBRANCH  15  18
BRANCH  17  20
ATOM     20  O   UNL     1      58.712  23.765  45.285  1.00  0.00    -0.504 OA
ATOM     21  H   UNL     1      59.411  23.814  44.554  1.00  0.00     0.293 HD
ENDBRANCH  17  20
ENDBRANCH   1  12
BRANCH   2  22
ATOM     22  O   UNL     1      61.343  21.109  49.002  1.00  0.00    -0.502 OA
ATOM     23  H   UNL     1      61.829  21.230  49.883  1.00  0.00     0.293 HD
ENDBRANCH   2  22
BRANCH   6  24
ATOM     24  O   UNL     1      64.846  17.129  48.498  1.00  0.00    -0.507 OA
ATOM     25  H   UNL     1      65.726  17.452  48.125  1.00  0.00     0.293 HD
ENDBRANCH   6  24
BRANCH   8  26
ATOM     26  O   UNL     1      62.492  14.286  45.452  1.00  0.00    -0.508 OA
ATOM     27  H   UNL     1      63.173  14.074  44.734  1.00  0.00     0.293 HD
ENDBRANCH   8  26
TORSDOF 6
ENDMDL
MODEL 5
REMARK VINA RESULT:    -5.978      4.172      6.227
REMARK INTER + INTRA:          -7.514
REMARK INTER:                  -7.218
REMARK INTRA:                  -0.297
REMARK UNBOUND:                -0.313
REMARK SMILES O=c1c(O)c(-c2ccc(O)c(O)c2)oc2cc(O)cc(O)c12
REMARK SMILES IDX 5 1 3 2 2 3 1 4 22 5 20 6 19 7 17 8 16 9 15 10 14 11 6 12
REMARK SMILES IDX 7 13 8 14 9 15 13 16 11 17 10 18 12 20 4 22 21 24 18 26
REMARK H PARENT 10 19 12 21 4 23 21 25 18 27
REMARK Flexibility Score: inf
ROOT
ATOM      1  C   UNL     1      60.057  21.098  47.141  1.00  0.00     0.180 A 
ATOM      2  C   UNL     1      59.653  22.022  46.160  1.00  0.00     0.208 A 
ATOM      3  C   UNL     1      58.501  21.751  45.405  1.00  0.00     0.238 A 
ATOM      4  O   UNL     1      58.175  22.555  44.491  1.00  0.00    -0.285 OA
ATOM      5  C   UNL     1      57.758  20.571  45.650  1.00  0.00     0.111 A 
ATOM      6  C   UNL     1      56.552  20.218  44.972  1.00  0.00     0.134 A 
ATOM      7  C   UNL     1      55.974  18.964  45.203  1.00  0.00     0.093 A 
ATOM      8  C   UNL     1      56.517  18.079  46.134  1.00  0.00     0.123 A 
ATOM      9  C   UNL     1      57.661  18.441  46.846  1.00  0.00     0.094 A 
ATOM     10  C   UNL     1      58.283  19.670  46.611  1.00  0.00     0.146 A 
ATOM     11  O   UNL     1      59.376  19.970  47.302  1.00  0.00    -0.452 OA
ENDROOT
BRANCH   1  12
ATOM     12  C   UNL     1      61.245  21.325  47.994  1.00  0.00     0.025 A 
ATOM     13  C   UNL     1      62.487  20.738  47.692  1.00  0.00     0.016 A 
ATOM     14  C   UNL     1      63.601  20.984  48.499  1.00  0.00     0.051 A 
ATOM     15  C   UNL     1      63.497  21.828  49.608  1.00  0.00     0.157 A 
ATOM     16  C   UNL     1      61.150  22.187  49.098  1.00  0.00     0.062 A 
ATOM     17  C   UNL     1      62.266  22.436  49.910  1.00  0.00     0.158 A 
BRANCH  15  18
ATOM     18  O   UNL     1      64.625  22.054  50.396  1.00  0.00    -0.504 OA
ATOM     19  H   UNL     1      64.565  22.479  51.314  1.00  0.00     0.293 HD
ENDBRANCH  15  18
BRANCH  17  20
ATOM     20  O   UNL     1      62.158  23.284  51.010  1.00  0.00    -0.504 OA
ATOM     21  H   UNL     1      62.863  23.983  51.214  1.00  0.00     0.293 HD
ENDBRANCH  17  20
ENDBRANCH   1  12
BRANCH   2  22
ATOM     22  O   UNL     1      60.413  23.169  45.920  1.00  0.00    -0.502 OA
ATOM     23  H   UNL     1      60.033  23.987  45.457  1.00  0.00     0.293 HD
ENDBRANCH   2  22
BRANCH   6  24
ATOM     24  O   UNL     1      55.875  21.065  44.091  1.00  0.00    -0.507 OA
ATOM     25  H   UNL     1      56.320  21.660  43.408  1.00  0.00     0.293 HD
ENDBRANCH   6  24
BRANCH   8  26
ATOM     26  O   UNL     1      55.905  16.847  46.351  1.00  0.00    -0.508 OA
ATOM     27  H   UNL     1      55.645  16.541  47.280  1.00  0.00     0.293 HD
ENDBRANCH   8  26
TORSDOF 6
ENDMDL
MODEL 6
REMARK VINA RESULT:    -5.919      3.927      6.599
REMARK INTER + INTRA:          -7.444
REMARK INTER:                  -7.359
REMARK INTRA:                  -0.085
REMARK UNBOUND:                -0.313
REMARK SMILES O=c1c(O)c(-c2ccc(O)c(O)c2)oc2cc(O)cc(O)c12
REMARK SMILES IDX 5 1 3 2 2 3 1 4 22 5 20 6 19 7 17 8 16 9 15 10 14 11 6 12
REMARK SMILES IDX 7 13 8 14 9 15 13 16 11 17 10 18 12 20 4 22 21 24 18 26
REMARK H PARENT 10 19 12 21 4 23 21 25 18 27
REMARK Flexibility Score: inf
ROOT
ATOM      1  C   UNL     1      60.156  19.371  47.942  1.00  0.00     0.180 A 
ATOM      2  C   UNL     1      58.806  19.428  48.330  1.00  0.00     0.208 A 
ATOM      3  C   UNL     1      57.914  18.465  47.831  1.00  0.00     0.238 A 
ATOM      4  O   UNL     1      56.695  18.554  48.137  1.00  0.00    -0.285 OA
ATOM      5  C   UNL     1      58.386  17.447  46.967  1.00  0.00     0.111 A 
ATOM      6  C   UNL     1      57.579  16.397  46.437  1.00  0.00     0.134 A 
ATOM      7  C   UNL     1      58.121  15.522  45.488  1.00  0.00     0.093 A 
ATOM      8  C   UNL     1      59.457  15.616  45.101  1.00  0.00     0.123 A 
ATOM      9  C   UNL     1      60.272  16.603  45.660  1.00  0.00     0.094 A 
ATOM     10  C   UNL     1      59.749  17.514  46.581  1.00  0.00     0.146 A 
ATOM     11  O   UNL     1      60.554  18.444  47.080  1.00  0.00    -0.452 OA
ENDROOT
BRANCH   1  12
ATOM     12  C   UNL     1      61.161  20.336  48.445  1.00  0.00     0.025 A 
ATOM     13  C   UNL     1      61.009  21.720  48.251  1.00  0.00     0.016 A 
ATOM     14  C   UNL     1      61.959  22.613  48.754  1.00  0.00     0.051 A 
ATOM     15  C   UNL     1      63.065  22.141  49.467  1.00  0.00     0.157 A 
ATOM     16  C   UNL     1      62.263  19.867  49.179  1.00  0.00     0.062 A 
ATOM     17  C   UNL     1      63.218  20.761  49.684  1.00  0.00     0.158 A 
BRANCH  15  18
ATOM     18  O   UNL     1      63.997  23.056  49.956  1.00  0.00    -0.504 OA
ATOM     19  H   UNL     1      63.845  24.056  49.908  1.00  0.00     0.293 HD
ENDBRANCH  15  18
BRANCH  17  20
ATOM     20  O   UNL     1      64.314  20.285  50.401  1.00  0.00    -0.504 OA
ATOM     21  H   UNL     1      65.125  20.865  50.578  1.00  0.00     0.293 HD
ENDBRANCH  17  20
ENDBRANCH   1  12
BRANCH   2  22
ATOM     22  O   UNL     1      58.357  20.454  49.165  1.00  0.00    -0.502 OA
ATOM     23  H   UNL     1      57.438  20.870  49.071  1.00  0.00     0.293 HD
ENDBRANCH   2  22
BRANCH   6  24
ATOM     24  O   UNL     1      56.258  16.155  46.825  1.00  0.00    -0.507 OA
ATOM     25  H   UNL     1      55.467  16.722  46.558  1.00  0.00     0.293 HD
ENDBRANCH   6  24
BRANCH   8  26
ATOM     26  O   UNL     1      59.969  14.718  44.167  1.00  0.00    -0.508 OA
ATOM     27  H   UNL     1      59.374  14.274  43.478  1.00  0.00     0.293 HD
ENDBRANCH   8  26
TORSDOF 6
ENDMDL
MODEL 7
REMARK VINA RESULT:    -5.871      2.017      7.187
REMARK INTER + INTRA:          -7.385
REMARK INTER:                  -7.128
REMARK INTRA:                  -0.257
REMARK UNBOUND:                -0.313
REMARK SMILES O=c1c(O)c(-c2ccc(O)c(O)c2)oc2cc(O)cc(O)c12
REMARK SMILES IDX 5 1 3 2 2 3 1 4 22 5 20 6 19 7 17 8 16 9 15 10 14 11 6 12
REMARK SMILES IDX 7 13 8 14 9 15 13 16 11 17 10 18 12 20 4 22 21 24 18 26
REMARK H PARENT 10 19 12 21 4 23 21 25 18 27
REMARK Flexibility Score: inf
ROOT
ATOM      1  C   UNL     1      58.506  18.246  46.555  1.00  0.00     0.180 A 
ATOM      2  C   UNL     1      57.802  17.029  46.574  1.00  0.00     0.208 A 
ATOM      3  C   UNL     1      58.519  15.830  46.716  1.00  0.00     0.238 A 
ATOM      4  O   UNL     1      57.889  14.741  46.676  1.00  0.00    -0.285 OA
ATOM      5  C   UNL     1      59.928  15.864  46.854  1.00  0.00     0.111 A 
ATOM      6  C   UNL     1      60.751  14.713  47.044  1.00  0.00     0.134 A 
ATOM      7  C   UNL     1      62.144  14.853  47.038  1.00  0.00     0.093 A 
ATOM      8  C   UNL     1      62.742  16.106  46.914  1.00  0.00     0.123 A 
ATOM      9  C   UNL     1      61.945  17.245  46.788  1.00  0.00     0.094 A 
ATOM     10  C   UNL     1      60.553  17.133  46.754  1.00  0.00     0.146 A 
ATOM     11  O   UNL     1      59.832  18.240  46.622  1.00  0.00    -0.452 OA
ENDROOT
BRANCH   1  12
ATOM     12  C   UNL     1      57.818  19.552  46.435  1.00  0.00     0.025 A 
ATOM     13  C   UNL     1      57.697  20.420  47.534  1.00  0.00     0.016 A 
ATOM     14  C   UNL     1      57.065  21.658  47.392  1.00  0.00     0.051 A 
ATOM     15  C   UNL     1      56.557  22.053  46.151  1.00  0.00     0.157 A 
ATOM     16  C   UNL     1      57.324  19.961  45.185  1.00  0.00     0.062 A 
ATOM     17  C   UNL     1      56.689  21.203  45.039  1.00  0.00     0.158 A 
BRANCH  15  18
ATOM     18  O   UNL     1      55.929  23.294  46.039  1.00  0.00    -0.504 OA
ATOM     19  H   UNL     1      55.036  23.486  46.475  1.00  0.00     0.293 HD
ENDBRANCH  15  18
BRANCH  17  20
ATOM     20  O   UNL     1      56.191  21.594  43.798  1.00  0.00    -0.504 OA
ATOM     21  H   UNL     1      56.063  22.571  43.561  1.00  0.00     0.293 HD
ENDBRANCH  17  20
ENDBRANCH   1  12
BRANCH   2  22
ATOM     22  O   UNL     1      56.414  17.017  46.413  1.00  0.00    -0.502 OA
ATOM     23  H   UNL     1      55.954  17.443  45.617  1.00  0.00     0.293 HD
ENDBRANCH   2  22
BRANCH   6  24
ATOM     24  O   UNL     1      60.253  13.427  47.270  1.00  0.00    -0.507 OA
ATOM     25  H   UNL     1      60.433  12.877  48.096  1.00  0.00     0.293 HD
ENDBRANCH   6  24
BRANCH   8  26
ATOM     26  O   UNL     1      64.131  16.209  46.928  1.00  0.00    -0.508 OA
ATOM     27  H   UNL     1      64.724  15.389  46.902  1.00  0.00     0.293 HD
ENDBRANCH   8  26
TORSDOF 6
ENDMDL
MODEL 8
REMARK VINA RESULT:    -5.846      4.898      6.475
REMARK INTER + INTRA:          -7.355
REMARK INTER:                  -7.026
REMARK INTRA:                  -0.328
REMARK UNBOUND:                -0.313
REMARK SMILES O=c1c(O)c(-c2ccc(O)c(O)c2)oc2cc(O)cc(O)c12
REMARK SMILES IDX 5 1 3 2 2 3 1 4 22 5 20 6 19 7 17 8 16 9 15 10 14 11 6 12
REMARK SMILES IDX 7 13 8 14 9 15 13 16 11 17 10 18 12 20 4 22 21 24 18 26
REMARK H PARENT 10 19 12 21 4 23 21 25 18 27
REMARK Flexibility Score: inf
ROOT
ATOM      1  C   UNL     1      60.762  21.816  47.616  1.00  0.00     0.180 A 
ATOM      2  C   UNL     1      59.658  21.002  47.923  1.00  0.00     0.208 A 
ATOM      3  C   UNL     1      58.583  20.945  47.021  1.00  0.00     0.238 A 
ATOM      4  O   UNL     1      57.573  20.257  47.328  1.00  0.00    -0.285 OA
ATOM      5  C   UNL     1      58.633  21.688  45.817  1.00  0.00     0.111 A 
ATOM      6  C   UNL     1      57.618  21.672  44.814  1.00  0.00     0.134 A 
ATOM      7  C   UNL     1      57.712  22.547  43.725  1.00  0.00     0.093 A 
ATOM      8  C   UNL     1      58.813  23.388  43.568  1.00  0.00     0.123 A 
ATOM      9  C   UNL     1      59.840  23.368  44.513  1.00  0.00     0.094 A 
ATOM     10  C   UNL     1      59.757  22.532  45.630  1.00  0.00     0.146 A 
ATOM     11  O   UNL     1      60.750  22.551  46.510  1.00  0.00    -0.452 OA
ENDROOT
BRANCH   1  12
ATOM     12  C   UNL     1      61.944  21.909  48.504  1.00  0.00     0.025 A 
ATOM     13  C   UNL     1      62.988  20.971  48.434  1.00  0.00     0.016 A 
ATOM     14  C   UNL     1      64.105  21.091  49.265  1.00  0.00     0.051 A 
ATOM     15  C   UNL     1      64.202  22.155  50.167  1.00  0.00     0.157 A 
ATOM     16  C   UNL     1      62.055  22.987  49.397  1.00  0.00     0.062 A 
ATOM     17  C   UNL     1      63.174  23.111  50.233  1.00  0.00     0.158 A 
BRANCH  15  18
ATOM     18  O   UNL     1      65.327  22.249  50.986  1.00  0.00    -0.504 OA
ATOM     19  H   UNL     1      66.118  22.836  50.749  1.00  0.00     0.293 HD
ENDBRANCH  15  18
BRANCH  17  20
ATOM     20  O   UNL     1      63.269  24.178  51.125  1.00  0.00    -0.504 OA
ATOM     21  H   UNL     1      63.558  25.100  50.820  1.00  0.00     0.293 HD
ENDBRANCH  17  20
ENDBRANCH   1  12
BRANCH   2  22
ATOM     22  O   UNL     1      59.620  20.294  49.127  1.00  0.00    -0.502 OA
ATOM     23  H   UNL     1      58.872  20.407  49.802  1.00  0.00     0.293 HD
ENDBRANCH   2  22
BRANCH   6  24
ATOM     24  O   UNL     1      56.522  20.805  44.825  1.00  0.00    -0.507 OA
ATOM     25  H   UNL     1      55.560  21.093  44.726  1.00  0.00     0.293 HD
ENDBRANCH   6  24
BRANCH   8  26
ATOM     26  O   UNL     1      58.881  24.234  42.463  1.00  0.00    -0.508 OA
ATOM     27  H   UNL     1      59.756  24.412  41.985  1.00  0.00     0.293 HD
ENDBRANCH   8  26
TORSDOF 6
ENDMDL
MODEL 9
REMARK VINA RESULT:    -5.810      3.332      6.662
REMARK INTER + INTRA:          -7.311
REMARK INTER:                  -7.214
REMARK INTRA:                  -0.097
REMARK UNBOUND:                -0.313
REMARK SMILES O=c1c(O)c(-c2ccc(O)c(O)c2)oc2cc(O)cc(O)c12
REMARK SMILES IDX 5 1 3 2 2 3 1 4 22 5 20 6 19 7 17 8 16 9 15 10 14 11 6 12
REMARK SMILES IDX 7 13 8 14 9 15 13 16 11 17 10 18 12 20 4 22 21 24 18 26
REMARK H PARENT 10 19 12 21 4 23 21 25 18 27
REMARK Flexibility Score: inf
ROOT
ATOM      1  C   UNL     1      59.614  18.697  47.089  1.00  0.00     0.180 A 
ATOM      2  C   UNL     1      58.429  18.996  46.393  1.00  0.00     0.208 A 
ATOM      3  C   UNL     1      57.599  17.943  45.979  1.00  0.00     0.238 A 
ATOM      4  O   UNL     1      56.568  18.214  45.308  1.00  0.00    -0.285 OA
ATOM      5  C   UNL     1      57.953  16.605  46.279  1.00  0.00     0.111 A 
ATOM      6  C   UNL     1      57.166  15.463  45.944  1.00  0.00     0.134 A 
ATOM      7  C   UNL     1      57.677  14.181  46.174  1.00  0.00     0.093 A 
ATOM      8  C   UNL     1      58.916  13.998  46.788  1.00  0.00     0.123 A 
ATOM      9  C   UNL     1      59.667  15.108  47.175  1.00  0.00     0.094 A 
ATOM     10  C   UNL     1      59.200  16.401  46.925  1.00  0.00     0.146 A 
ATOM     11  O   UNL     1      59.951  17.430  47.299  1.00  0.00    -0.452 OA
ENDROOT
BRANCH   1  12
ATOM     12  C   UNL     1      60.527  19.753  47.581  1.00  0.00     0.025 A 
ATOM     13  C   UNL     1      60.073  20.779  48.429  1.00  0.00     0.016 A 
ATOM     14  C   UNL     1      60.958  21.752  48.899  1.00  0.00     0.051 A 
ATOM     15  C   UNL     1      62.309  21.710  48.543  1.00  0.00     0.157 A 
ATOM     16  C   UNL     1      61.889  19.703  47.241  1.00  0.00     0.062 A 
ATOM     17  C   UNL     1      62.780  20.679  47.712  1.00  0.00     0.158 A 
BRANCH  15  18
ATOM     18  O   UNL     1      63.168  22.696  49.026  1.00  0.00    -0.504 OA
ATOM     19  H   UNL     1      63.546  23.422  48.428  1.00  0.00     0.293 HD
ENDBRANCH  15  18
BRANCH  17  20
ATOM     20  O   UNL     1      64.127  20.627  47.359  1.00  0.00    -0.504 OA
ATOM     21  H   UNL     1      64.448  20.081  46.569  1.00  0.00     0.293 HD
ENDBRANCH  17  20
ENDBRANCH   1  12
BRANCH   2  22
ATOM     22  O   UNL     1      58.110  20.322  46.087  1.00  0.00    -0.502 OA
ATOM     23  H   UNL     1      57.181  20.605  45.797  1.00  0.00     0.293 HD
ENDBRANCH   2  22
BRANCH   6  24
ATOM     24  O   UNL     1      55.876  15.534  45.411  1.00  0.00    -0.507 OA
ATOM     25  H   UNL     1      55.407  16.389  45.151  1.00  0.00     0.293 HD
ENDBRANCH   6  24
BRANCH   8  26
ATOM     26  O   UNL     1      59.386  12.707  47.017  1.00  0.00    -0.508 OA
ATOM     27  H   UNL     1      59.504  12.344  47.955  1.00  0.00     0.293 HD
ENDBRANCH   8  26
TORSDOF 6
ENDMDL
