MODEL 1
REMARK VINA RESULT:    -6.607      0.000      0.000
REMARK INTER + INTRA:          -6.993
REMARK INTER:                  -6.993
REMARK INTRA:                   0.000
REMARK UNBOUND:                 0.000
REMARK SMILES O=c1ccc2cc(O)c(O)cc2o1
REMARK SMILES IDX 4 1 3 2 2 3 1 4 13 5 12 6 11 7 9 8 7 9 6 10 5 11 8 12 10 14
REMARK H PARENT 8 13 10 15
REMARK Flexibility Score: inf
ROOT
ATOM      1  C   UNL     1      -6.796   5.465   7.992  1.00  0.00     0.019 A 
ATOM      2  C   UNL     1      -6.390   4.131   7.941  1.00  0.00     0.094 A 
ATOM      3  C   UNL     1      -5.217   3.806   7.251  1.00  0.00     0.336 A 
ATOM      4  O   UNL     1      -4.834   2.609   7.193  1.00  0.00    -0.246 OA
ATOM      5  O   UNL     1      -4.500   4.757   6.655  1.00  0.00    -0.423 OA
ATOM      6  C   UNL     1      -4.851   6.040   6.680  1.00  0.00     0.142 A 
ATOM      7  C   UNL     1      -4.058   6.994   6.037  1.00  0.00     0.098 A 
ATOM      8  C   UNL     1      -4.424   8.348   6.059  1.00  0.00     0.161 A 
ATOM      9  C   UNL     1      -5.589   8.749   6.731  1.00  0.00     0.158 A 
ATOM     10  C   UNL     1      -6.388   7.796   7.379  1.00  0.00     0.062 A 
ATOM     11  C   UNL     1      -6.023   6.442   7.357  1.00  0.00     0.022 A 
ENDROOT
BRANCH   9  12
ATOM     12  O   UNL     1      -5.945  10.096   6.749  1.00  0.00    -0.504 OA
ATOM     13  H   UNL     1      -6.878  10.402   6.496  1.00  0.00     0.293 HD
ENDBRANCH   9  12
BRANCH   8  14
ATOM     14  O   UNL     1      -3.636   9.302   5.418  1.00  0.00    -0.504 OA
ATOM     15  H   UNL     1      -3.996   9.859   4.652  1.00  0.00     0.293 HD
ENDBRANCH   8  14
TORSDOF 2
ENDMDL
MODEL 2
REMARK VINA RESULT:    -6.326      1.187      2.272
REMARK INTER + INTRA:          -6.696
REMARK INTER:                  -6.696
REMARK INTRA:                   0.000
REMARK UNBOUND:                 0.000
REMARK SMILES O=c1ccc2cc(O)c(O)cc2o1
REMARK SMILES IDX 4 1 3 2 2 3 1 4 13 5 12 6 11 7 9 8 7 9 6 10 5 11 8 12 10 14
REMARK H PARENT 8 13 10 15
REMARK Flexibility Score: inf
ROOT
ATOM      1  C   UNL     1      -4.510   4.701   6.741  1.00  0.00     0.019 A 
ATOM      2  C   UNL     1      -5.340   3.814   7.425  1.00  0.00     0.094 A 
ATOM      3  C   UNL     1      -6.488   4.308   8.055  1.00  0.00     0.336 A 
ATOM      4  O   UNL     1      -7.250   3.523   8.677  1.00  0.00    -0.246 OA
ATOM      5  O   UNL     1      -6.780   5.606   8.000  1.00  0.00    -0.423 OA
ATOM      6  C   UNL     1      -6.015   6.486   7.358  1.00  0.00     0.142 A 
ATOM      7  C   UNL     1      -6.374   7.837   7.334  1.00  0.00     0.098 A 
ATOM      8  C   UNL     1      -5.571   8.768   6.661  1.00  0.00     0.161 A 
ATOM      9  C   UNL     1      -4.404   8.346   6.005  1.00  0.00     0.158 A 
ATOM     10  C   UNL     1      -4.041   6.991   6.026  1.00  0.00     0.062 A 
ATOM     11  C   UNL     1      -4.842   6.059   6.700  1.00  0.00     0.022 A 
ENDROOT
BRANCH   9  12
ATOM     12  O   UNL     1      -3.613   9.278   5.338  1.00  0.00    -0.504 OA
ATOM     13  H   UNL     1      -3.892  10.250   5.258  1.00  0.00     0.293 HD
ENDBRANCH   9  12
BRANCH   8  14
ATOM     14  O   UNL     1      -5.925  10.116   6.635  1.00  0.00    -0.504 OA
ATOM     15  H   UNL     1      -6.867  10.420   6.849  1.00  0.00     0.293 HD
ENDBRANCH   8  14
TORSDOF 2
ENDMDL
MODEL 3
REMARK VINA RESULT:    -6.174      1.096      5.050
REMARK INTER + INTRA:          -6.535
REMARK INTER:                  -6.535
REMARK INTRA:                   0.000
REMARK UNBOUND:                 0.000
REMARK SMILES O=c1ccc2cc(O)c(O)cc2o1
REMARK SMILES IDX 4 1 3 2 2 3 1 4 13 5 12 6 11 7 9 8 7 9 6 10 5 11 8 12 10 14
REMARK H PARENT 8 13 10 15
REMARK Flexibility Score: inf
ROOT
ATOM      1  C   UNL     1      -4.133   7.191   5.928  1.00  0.00     0.019 A 
ATOM      2  C   UNL     1      -4.518   8.530   5.988  1.00  0.00     0.094 A 
ATOM      3  C   UNL     1      -5.656   8.875   6.724  1.00  0.00     0.336 A 
ATOM      4  O   UNL     1      -6.020  10.079   6.790  1.00  0.00    -0.246 OA
ATOM      5  O   UNL     1      -6.359   7.939   7.358  1.00  0.00    -0.423 OA
ATOM      6  C   UNL     1      -6.027   6.651   7.327  1.00  0.00     0.142 A 
ATOM      7  C   UNL     1      -6.802   5.712   8.013  1.00  0.00     0.098 A 
ATOM      8  C   UNL     1      -6.458   4.353   7.983  1.00  0.00     0.161 A 
ATOM      9  C   UNL     1      -5.328   3.931   7.265  1.00  0.00     0.158 A 
ATOM     10  C   UNL     1      -4.546   4.870   6.575  1.00  0.00     0.062 A 
ATOM     11  C   UNL     1      -4.891   6.228   6.604  1.00  0.00     0.022 A 
ENDROOT
BRANCH   9  12
ATOM     12  O   UNL     1      -4.992   2.580   7.241  1.00  0.00    -0.504 OA
ATOM     13  H   UNL     1      -4.485   2.146   8.005  1.00  0.00     0.293 HD
ENDBRANCH   9  12
BRANCH   8  14
ATOM     14  O   UNL     1      -7.229   3.415   8.666  1.00  0.00    -0.504 OA
ATOM     15  H   UNL     1      -7.866   2.796   8.178  1.00  0.00     0.293 HD
ENDBRANCH   8  14
TORSDOF 2
ENDMDL
MODEL 4
REMARK VINA RESULT:    -6.005     14.166     15.534
REMARK INTER + INTRA:          -6.356
REMARK INTER:                  -6.356
REMARK INTRA:                   0.000
REMARK UNBOUND:                 0.000
REMARK SMILES O=c1ccc2cc(O)c(O)cc2o1
REMARK SMILES IDX 4 1 3 2 2 3 1 4 13 5 12 6 11 7 9 8 7 9 6 10 5 11 8 12 10 14
REMARK H PARENT 8 13 10 15
REMARK Flexibility Score: inf
ROOT
ATOM      1  C   UNL     1       8.372  11.125   1.707  1.00  0.00     0.019 A 
ATOM      2  C   UNL     1       8.209  10.816   3.057  1.00  0.00     0.094 A 
ATOM      3  C   UNL     1       8.027   9.479   3.429  1.00  0.00     0.336 A 
ATOM      4  O   UNL     1       7.878   9.180   4.643  1.00  0.00    -0.246 OA
ATOM      5  O   UNL     1       8.009   8.519   2.507  1.00  0.00    -0.423 OA
ATOM      6  C   UNL     1       8.161   8.771   1.208  1.00  0.00     0.142 A 
ATOM      7  C   UNL     1       8.134   7.722   0.286  1.00  0.00     0.098 A 
ATOM      8  C   UNL     1       8.292   7.981  -1.084  1.00  0.00     0.161 A 
ATOM      9  C   UNL     1       8.480   9.298  -1.531  1.00  0.00     0.158 A 
ATOM     10  C   UNL     1       8.508  10.354  -0.609  1.00  0.00     0.062 A 
ATOM     11  C   UNL     1       8.349  10.096   0.760  1.00  0.00     0.022 A 
ENDROOT
BRANCH   9  12
ATOM     12  O   UNL     1       8.637   9.547  -2.893  1.00  0.00    -0.504 OA
ATOM     13  H   UNL     1       8.276   8.908  -3.594  1.00  0.00     0.293 HD
ENDBRANCH   9  12
BRANCH   8  14
ATOM     14  O   UNL     1       8.266   6.937  -2.007  1.00  0.00    -0.504 OA
ATOM     15  H   UNL     1       7.399   6.487  -2.273  1.00  0.00     0.293 HD
ENDBRANCH   8  14
TORSDOF 2
ENDMDL
MODEL 5
REMARK VINA RESULT:    -5.926     13.982     15.595
REMARK INTER + INTRA:          -6.272
REMARK INTER:                  -6.272
REMARK INTRA:                   0.000
REMARK UNBOUND:                 0.000
REMARK SMILES O=c1ccc2cc(O)c(O)cc2o1
REMARK SMILES IDX 4 1 3 2 2 3 1 4 13 5 12 6 11 7 9 8 7 9 6 10 5 11 8 12 10 14
REMARK H PARENT 8 13 10 15
REMARK Flexibility Score: inf
ROOT
ATOM      1  C   UNL     1       7.107  10.929   0.734  1.00  0.00     0.019 A 
ATOM      2  C   UNL     1       7.474  10.997  -0.610  1.00  0.00     0.094 A 
ATOM      3  C   UNL     1       8.557  10.232  -1.056  1.00  0.00     0.336 A 
ATOM      4  O   UNL     1       8.904  10.280  -2.265  1.00  0.00    -0.246 OA
ATOM      5  O   UNL     1       9.226   9.452  -0.209  1.00  0.00    -0.423 OA
ATOM      6  C   UNL     1       8.909   9.358   1.080  1.00  0.00     0.142 A 
ATOM      7  C   UNL     1       9.647   8.522   1.922  1.00  0.00     0.098 A 
ATOM      8  C   UNL     1       9.318   8.420   3.282  1.00  0.00     0.161 A 
ATOM      9  C   UNL     1       8.243   9.158   3.801  1.00  0.00     0.158 A 
ATOM     10  C   UNL     1       7.499   9.998   2.960  1.00  0.00     0.062 A 
ATOM     11  C   UNL     1       7.827  10.101   1.601  1.00  0.00     0.022 A 
ENDROOT
BRANCH   9  12
ATOM     12  O   UNL     1       7.922   9.049   5.153  1.00  0.00    -0.504 OA
ATOM     13  H   UNL     1       7.920   9.859   5.764  1.00  0.00     0.293 HD
ENDBRANCH   9  12
BRANCH   8  14
ATOM     14  O   UNL     1      10.052   7.587   4.124  1.00  0.00    -0.504 OA
ATOM     15  H   UNL     1      10.883   7.107   3.801  1.00  0.00     0.293 HD
ENDBRANCH   8  14
TORSDOF 2
ENDMDL
MODEL 6
REMARK VINA RESULT:    -5.869      1.125      4.501
REMARK INTER + INTRA:          -6.212
REMARK INTER:                  -6.212
REMARK INTRA:                   0.000
REMARK UNBOUND:                 0.000
REMARK SMILES O=c1ccc2cc(O)c(O)cc2o1
REMARK SMILES IDX 4 1 3 2 2 3 1 4 13 5 12 6 11 7 9 8 7 9 6 10 5 11 8 12 10 14
REMARK H PARENT 8 13 10 15
REMARK Flexibility Score: inf
ROOT
ATOM      1  C   UNL     1      -6.253   8.085   7.359  1.00  0.00     0.019 A 
ATOM      2  C   UNL     1      -5.422   8.954   6.653  1.00  0.00     0.094 A 
ATOM      3  C   UNL     1      -4.332   8.427   5.951  1.00  0.00     0.336 A 
ATOM      4  O   UNL     1      -3.569   9.195   5.308  1.00  0.00    -0.246 OA
ATOM      5  O   UNL     1      -4.095   7.117   5.958  1.00  0.00    -0.423 OA
ATOM      6  C   UNL     1      -4.864   6.254   6.618  1.00  0.00     0.142 A 
ATOM      7  C   UNL     1      -4.566   4.889   6.588  1.00  0.00     0.098 A 
ATOM      8  C   UNL     1      -5.372   3.975   7.283  1.00  0.00     0.161 A 
ATOM      9  C   UNL     1      -6.483   4.430   8.010  1.00  0.00     0.158 A 
ATOM     10  C   UNL     1      -6.786   5.799   8.042  1.00  0.00     0.062 A 
ATOM     11  C   UNL     1      -5.981   6.713   7.349  1.00  0.00     0.022 A 
ENDROOT
BRANCH   9  12
ATOM     12  O   UNL     1      -7.279   3.516   8.697  1.00  0.00    -0.504 OA
ATOM     13  H   UNL     1      -6.918   2.614   8.989  1.00  0.00     0.293 HD
ENDBRANCH   9  12
BRANCH   8  14
ATOM     14  O   UNL     1      -5.078   2.613   7.256  1.00  0.00    -0.504 OA
ATOM     15  H   UNL     1      -4.311   2.226   7.793  1.00  0.00     0.293 HD
ENDBRANCH   8  14
TORSDOF 2
ENDMDL
MODEL 7
REMARK VINA RESULT:    -5.642     14.106     15.844
REMARK INTER + INTRA:          -5.971
REMARK INTER:                  -5.971
REMARK INTRA:                   0.000
REMARK UNBOUND:                 0.000
REMARK SMILES O=c1ccc2cc(O)c(O)cc2o1
REMARK SMILES IDX 4 1 3 2 2 3 1 4 13 5 12 6 11 7 9 8 7 9 6 10 5 11 8 12 10 14
REMARK H PARENT 8 13 10 15
REMARK Flexibility Score: inf
ROOT
ATOM      1  C   UNL     1       9.753   8.446   0.030  1.00  0.00     0.019 A 
ATOM      2  C   UNL     1       9.545   9.235  -1.101  1.00  0.00     0.094 A 
ATOM      3  C   UNL     1       8.780  10.400  -0.983  1.00  0.00     0.336 A 
ATOM      4  O   UNL     1       8.581  11.125  -1.993  1.00  0.00    -0.246 OA
ATOM      5  O   UNL     1       8.258  10.748   0.191  1.00  0.00    -0.423 OA
ATOM      6  C   UNL     1       8.432  10.024   1.294  1.00  0.00     0.142 A 
ATOM      7  C   UNL     1       7.861  10.441   2.500  1.00  0.00     0.098 A 
ATOM      8  C   UNL     1       8.040   9.681   3.666  1.00  0.00     0.161 A 
ATOM      9  C   UNL     1       8.797   8.500   3.624  1.00  0.00     0.158 A 
ATOM     10  C   UNL     1       9.373   8.079   2.417  1.00  0.00     0.062 A 
ATOM     11  C   UNL     1       9.194   8.837   1.251  1.00  0.00     0.022 A 
ENDROOT
BRANCH   9  12
ATOM     12  O   UNL     1       8.971   7.752   4.787  1.00  0.00    -0.504 OA
ATOM     13  H   UNL     1       8.359   7.867   5.588  1.00  0.00     0.293 HD
ENDBRANCH   9  12
BRANCH   8  14
ATOM     14  O   UNL     1       7.472  10.093   4.870  1.00  0.00    -0.504 OA
ATOM     15  H   UNL     1       8.040  10.457   5.626  1.00  0.00     0.293 HD
ENDBRANCH   8  14
TORSDOF 2
ENDMDL
MODEL 8
REMARK VINA RESULT:    -5.039      1.273      1.796
REMARK INTER + INTRA:          -5.333
REMARK INTER:                  -5.333
REMARK INTRA:                   0.000
REMARK UNBOUND:                 0.000
REMARK SMILES O=c1ccc2cc(O)c(O)cc2o1
REMARK SMILES IDX 4 1 3 2 2 3 1 4 13 5 12 6 11 7 9 8 7 9 6 10 5 11 8 12 10 14
REMARK H PARENT 8 13 10 15
REMARK Flexibility Score: inf
ROOT
ATOM      1  C   UNL     1      -6.735   6.758   8.117  1.00  0.00     0.019 A 
ATOM      2  C   UNL     1      -7.203   5.509   8.522  1.00  0.00     0.094 A 
ATOM      3  C   UNL     1      -6.601   4.358   8.002  1.00  0.00     0.336 A 
ATOM      4  O   UNL     1      -7.009   3.221   8.355  1.00  0.00    -0.246 OA
ATOM      5  O   UNL     1      -5.596   4.457   7.134  1.00  0.00    -0.423 OA
ATOM      6  C   UNL     1      -5.119   5.629   6.721  1.00  0.00     0.142 A 
ATOM      7  C   UNL     1      -4.062   5.671   5.809  1.00  0.00     0.098 A 
ATOM      8  C   UNL     1      -3.556   6.904   5.370  1.00  0.00     0.161 A 
ATOM      9  C   UNL     1      -4.111   8.101   5.849  1.00  0.00     0.158 A 
ATOM     10  C   UNL     1      -5.172   8.064   6.765  1.00  0.00     0.062 A 
ATOM     11  C   UNL     1      -5.678   6.832   7.204  1.00  0.00     0.022 A 
ENDROOT
BRANCH   9  12
ATOM     12  O   UNL     1      -3.602   9.320   5.408  1.00  0.00    -0.504 OA
ATOM     13  H   UNL     1      -2.859   9.797   5.908  1.00  0.00     0.293 HD
ENDBRANCH   9  12
BRANCH   8  14
ATOM     14  O   UNL     1      -2.501   6.949   4.459  1.00  0.00    -0.504 OA
ATOM     15  H   UNL     1      -2.656   6.841   3.464  1.00  0.00     0.293 HD
ENDBRANCH   8  14
TORSDOF 2
ENDMDL
MODEL 9
REMARK VINA RESULT:    -4.921     13.832     15.130
REMARK INTER + INTRA:          -5.209
REMARK INTER:                  -5.209
REMARK INTRA:                   0.000
REMARK UNBOUND:                 0.000
REMARK SMILES O=c1ccc2cc(O)c(O)cc2o1
REMARK SMILES IDX 4 1 3 2 2 3 1 4 13 5 12 6 11 7 9 8 7 9 6 10 5 11 8 12 10 14
REMARK H PARENT 8 13 10 15
REMARK Flexibility Score: inf
ROOT
ATOM      1  C   UNL     1       9.630   7.167   0.498  1.00  0.00     0.019 A 
ATOM      2  C   UNL     1       9.320   6.629  -0.751  1.00  0.00     0.094 A 
ATOM      3  C   UNL     1       8.189   7.097  -1.428  1.00  0.00     0.336 A 
ATOM      4  O   UNL     1       7.892   6.625  -2.556  1.00  0.00    -0.246 OA
ATOM      5  O   UNL     1       7.421   8.041  -0.886  1.00  0.00    -0.423 OA
ATOM      6  C   UNL     1       7.681   8.580   0.303  1.00  0.00     0.142 A 
ATOM      7  C   UNL     1       6.840   9.568   0.821  1.00  0.00     0.098 A 
ATOM      8  C   UNL     1       7.109  10.139   2.073  1.00  0.00     0.161 A 
ATOM      9  C   UNL     1       8.227   9.720   2.810  1.00  0.00     0.158 A 
ATOM     10  C   UNL     1       9.075   8.729   2.294  1.00  0.00     0.062 A 
ATOM     11  C   UNL     1       8.807   8.157   1.043  1.00  0.00     0.022 A 
ENDROOT
BRANCH   9  12
ATOM     12  O   UNL     1       8.487  10.293   4.053  1.00  0.00    -0.504 OA
ATOM     13  H   UNL     1       7.892  11.019   4.437  1.00  0.00     0.293 HD
ENDBRANCH   9  12
BRANCH   8  14
ATOM     14  O   UNL     1       6.272  11.125   2.593  1.00  0.00    -0.504 OA
ATOM     15  H   UNL     1       5.276  11.127   2.405  1.00  0.00     0.293 HD
ENDBRANCH   8  14
TORSDOF 2
ENDMDL
