MODEL 1
REMARK VINA RESULT:    -3.035      0.000      0.000
REMARK INTER + INTRA:          -6.634
REMARK INTER:                  -6.584
REMARK INTRA:                  -0.050
REMARK UNBOUND:                -0.050
REMARK SMILES CCCCCCCCCCCCCCCCCCCCCC(=O)[O-]
REMARK SMILES IDX 12 1 11 2 10 3 9 4 8 5 7 6 6 7 5 8 4 9 3 10 2 11 1 12 13 13
REMARK SMILES IDX 14 14 15 15 16 16 17 17 18 18 19 19 20 20 21 21 22 22 23 23
REMARK SMILES IDX 24 24
REMARK H PARENT
REMARK Flexibility Score: inf
ROOT
ATOM      1  C   UNL     1     121.396  69.924  -0.048  1.00  0.00     0.000 C 
ENDROOT
BRANCH   1   2
ATOM      2  C   UNL     1     121.078  71.039   0.964  1.00  0.00     0.000 C 
BRANCH   2   3
ATOM      3  C   UNL     1     120.264  70.540   2.172  1.00  0.00     0.000 C 
BRANCH   3   4
ATOM      4  C   UNL     1     120.425  71.376   3.454  1.00  0.00    -0.000 C 
BRANCH   4   5
ATOM      5  C   UNL     1     119.930  70.642   4.712  1.00  0.00    -0.000 C 
BRANCH   5   6
ATOM      6  C   UNL     1     119.923  71.545   5.956  1.00  0.00    -0.000 C 
BRANCH   6   7
ATOM      7  C   UNL     1     120.785  70.987   7.101  1.00  0.00    -0.000 C 
BRANCH   7   8
ATOM      8  C   UNL     1     121.006  72.009   8.228  1.00  0.00    -0.000 C 
BRANCH   8   9
ATOM      9  C   UNL     1     120.404  71.550   9.569  1.00  0.00    -0.000 C 
BRANCH   9  10
ATOM     10  C   UNL     1     120.091  72.737  10.504  1.00  0.00    -0.000 C 
BRANCH  10  11
ATOM     11  C   UNL     1     120.042  74.094   9.781  1.00  0.00    -0.003 C 
ATOM     12  C   UNL     1     120.015  75.284  10.740  1.00  0.00     0.004 C 
ENDBRANCH  10  11
ENDBRANCH   9  10
ENDBRANCH   8   9
ENDBRANCH   7   8
ENDBRANCH   6   7
ENDBRANCH   5   6
ENDBRANCH   4   5
ENDBRANCH   3   4
ENDBRANCH   2   3
ENDBRANCH   1   2
BRANCH   1  13
ATOM     13  C   UNL     1     121.132  70.352  -1.499  1.00  0.00     0.000 C 
BRANCH  13  14
ATOM     14  C   UNL     1     120.106  69.445  -2.204  1.00  0.00     0.000 C 
BRANCH  14  15
ATOM     15  C   UNL     1     119.978  69.756  -3.702  1.00  0.00     0.000 C 
BRANCH  15  16
ATOM     16  C   UNL     1     120.038  68.488  -4.573  1.00  0.00     0.000 C 
BRANCH  16  17
ATOM     17  C   UNL     1     120.096  67.195  -3.739  1.00  0.00     0.000 C 
BRANCH  17  18
ATOM     18  C   UNL     1     120.433  65.920  -4.539  1.00  0.00     0.000 C 
BRANCH  18  19
ATOM     19  C   UNL     1     119.935  65.912  -5.999  1.00  0.00     0.000 C 
BRANCH  19  20
ATOM     20  C   UNL     1     120.594  66.958  -6.917  1.00  0.00     0.006 C 
BRANCH  20  21
ATOM     21  C   UNL     1     120.671  66.501  -8.380  1.00  0.00     0.053 C 
BRANCH  21  22
ATOM     22  C   UNL     1     120.883  65.022  -8.459  1.00  0.00     0.041 C 
ATOM     23  O   UNL     1     121.980  64.519  -8.102  1.00  0.00    -0.550 OA
ATOM     24  O   UNL     1     119.876  64.199  -8.949  1.00  0.00    -0.550 OA
ENDBRANCH  21  22
ENDBRANCH  20  21
ENDBRANCH  19  20
ENDBRANCH  18  19
ENDBRANCH  17  18
ENDBRANCH  16  17
ENDBRANCH  15  16
ENDBRANCH  14  15
ENDBRANCH  13  14
ENDBRANCH   1  13
TORSDOF 20
ENDMDL
MODEL 2
REMARK VINA RESULT:    -2.549      5.701     13.818
REMARK INTER + INTRA:          -5.580
REMARK INTER:                  -6.879
REMARK INTRA:                   1.299
REMARK UNBOUND:                -0.050
REMARK SMILES CCCCCCCCCCCCCCCCCCCCCC(=O)[O-]
REMARK SMILES IDX 12 1 11 2 10 3 9 4 8 5 7 6 6 7 5 8 4 9 3 10 2 11 1 12 13 13
REMARK SMILES IDX 14 14 15 15 16 16 17 17 18 18 19 19 20 20 21 21 22 22 23 23
REMARK SMILES IDX 24 24
REMARK H PARENT
REMARK Flexibility Score: inf
ROOT
ATOM      1  C   UNL     1     121.290  70.883   0.916  1.00  0.00     0.000 C 
ENDROOT
BRANCH   1   2
ATOM      2  C   UNL     1     120.803  69.628   0.171  1.00  0.00     0.000 C 
BRANCH   2   3
ATOM      3  C   UNL     1     120.501  69.891  -1.315  1.00  0.00     0.000 C 
BRANCH   3   4
ATOM      4  C   UNL     1     119.875  68.704  -2.072  1.00  0.00    -0.000 C 
BRANCH   4   5
ATOM      5  C   UNL     1     119.993  68.841  -3.599  1.00  0.00    -0.000 C 
BRANCH   5   6
ATOM      6  C   UNL     1     120.473  67.543  -4.270  1.00  0.00    -0.000 C 
BRANCH   6   7
ATOM      7  C   UNL     1     119.982  67.408  -5.722  1.00  0.00    -0.000 C 
BRANCH   7   8
ATOM      8  C   UNL     1     119.926  65.946  -6.194  1.00  0.00    -0.000 C 
BRANCH   8   9
ATOM      9  C   UNL     1     121.282  65.228  -6.052  1.00  0.00    -0.000 C 
BRANCH   9  10
ATOM     10  C   UNL     1     121.339  63.924  -6.876  1.00  0.00    -0.000 C 
BRANCH  10  11
ATOM     11  C   UNL     1     121.964  64.104  -8.271  1.00  0.00    -0.003 C 
ATOM     12  C   UNL     1     121.755  65.504  -8.846  1.00  0.00     0.004 C 
ENDBRANCH  10  11
ENDBRANCH   9  10
ENDBRANCH   8   9
ENDBRANCH   7   8
ENDBRANCH   6   7
ENDBRANCH   5   6
ENDBRANCH   4   5
ENDBRANCH   3   4
ENDBRANCH   2   3
ENDBRANCH   1   2
BRANCH   1  13
ATOM     13  C   UNL     1     120.307  72.057   0.799  1.00  0.00     0.000 C 
BRANCH  13  14
ATOM     14  C   UNL     1     120.780  73.301   1.574  1.00  0.00     0.000 C 
BRANCH  14  15
ATOM     15  C   UNL     1     121.358  72.950   2.952  1.00  0.00     0.000 C 
BRANCH  15  16
ATOM     16  C   UNL     1     120.428  72.029   3.762  1.00  0.00     0.000 C 
BRANCH  16  17
ATOM     17  C   UNL     1     121.056  71.567   5.091  1.00  0.00     0.000 C 
BRANCH  17  18
ATOM     18  C   UNL     1     120.295  70.435   5.810  1.00  0.00     0.000 C 
BRANCH  18  19
ATOM     19  C   UNL     1     119.875  70.746   7.262  1.00  0.00     0.000 C 
BRANCH  19  20
ATOM     20  C   UNL     1     120.102  72.202   7.707  1.00  0.00     0.006 C 
BRANCH  20  21
ATOM     21  C   UNL     1     120.731  72.305   9.103  1.00  0.00     0.053 C 
BRANCH  21  22
ATOM     22  C   UNL     1     120.486  71.053   9.885  1.00  0.00     0.041 C 
ATOM     23  O   UNL     1     120.701  71.028  11.125  1.00  0.00    -0.550 OA
ATOM     24  O   UNL     1     120.042  69.905   9.240  1.00  0.00    -0.550 OA
ENDBRANCH  21  22
ENDBRANCH  20  21
ENDBRANCH  19  20
ENDBRANCH  18  19
ENDBRANCH  17  18
ENDBRANCH  16  17
ENDBRANCH  15  16
ENDBRANCH  14  15
ENDBRANCH  13  14
ENDBRANCH   1  13
TORSDOF 20
ENDMDL
MODEL 3
REMARK VINA RESULT:    -2.293      1.234      2.443
REMARK INTER + INTRA:          -5.024
REMARK INTER:                  -5.645
REMARK INTRA:                   0.621
REMARK UNBOUND:                -0.050
REMARK SMILES CCCCCCCCCCCCCCCCCCCCCC(=O)[O-]
REMARK SMILES IDX 12 1 11 2 10 3 9 4 8 5 7 6 6 7 5 8 4 9 3 10 2 11 1 12 13 13
REMARK SMILES IDX 14 14 15 15 16 16 17 17 18 18 19 19 20 20 21 21 22 22 23 23
REMARK SMILES IDX 24 24
REMARK H PARENT
REMARK Flexibility Score: inf
ROOT
ATOM      1  C   UNL     1     121.076  72.344   1.127  1.00  0.00     0.000 C 
ENDROOT
BRANCH   1   2
ATOM      2  C   UNL     1     121.495  72.125   2.591  1.00  0.00     0.000 C 
BRANCH   2   3
ATOM      3  C   UNL     1     120.754  70.954   3.259  1.00  0.00     0.000 C 
BRANCH   3   4
ATOM      4  C   UNL     1     119.928  71.331   4.502  1.00  0.00    -0.000 C 
BRANCH   4   5
ATOM      5  C   UNL     1     120.534  70.791   5.808  1.00  0.00    -0.000 C 
BRANCH   5   6
ATOM      6  C   UNL     1     120.089  71.597   7.040  1.00  0.00    -0.000 C 
BRANCH   6   7
ATOM      7  C   UNL     1     121.242  71.864   8.024  1.00  0.00    -0.000 C 
BRANCH   7   8
ATOM      8  C   UNL     1     121.281  73.322   8.508  1.00  0.00    -0.000 C 
BRANCH   8   9
ATOM      9  C   UNL     1     120.103  73.668   9.438  1.00  0.00    -0.000 C 
BRANCH   9  10
ATOM     10  C   UNL     1     119.922  72.625  10.561  1.00  0.00    -0.000 C 
BRANCH  10  11
ATOM     11  C   UNL     1     119.889  71.173  10.053  1.00  0.00    -0.003 C 
ATOM     12  C   UNL     1     120.371  70.162  11.093  1.00  0.00     0.004 C 
ENDBRANCH  10  11
ENDBRANCH   9  10
ENDBRANCH   8   9
ENDBRANCH   7   8
ENDBRANCH   6   7
ENDBRANCH   5   6
ENDBRANCH   4   5
ENDBRANCH   3   4
ENDBRANCH   2   3
ENDBRANCH   1   2
BRANCH   1  13
ATOM     13  C   UNL     1     119.989  71.359   0.671  1.00  0.00     0.000 C 
BRANCH  13  14
ATOM     14  C   UNL     1     120.472  70.428  -0.456  1.00  0.00     0.000 C 
BRANCH  14  15
ATOM     15  C   UNL     1     119.875  69.017  -0.349  1.00  0.00     0.000 C 
BRANCH  15  16
ATOM     16  C   UNL     1     119.927  68.254  -1.684  1.00  0.00     0.000 C 
BRANCH  16  17
ATOM     17  C   UNL     1     120.806  68.955  -2.737  1.00  0.00     0.000 C 
BRANCH  17  18
ATOM     18  C   UNL     1     120.027  69.699  -3.841  1.00  0.00     0.000 C 
BRANCH  18  19
ATOM     19  C   UNL     1     119.881  68.932  -5.171  1.00  0.00     0.000 C 
BRANCH  19  20
ATOM     20  C   UNL     1     120.794  67.700  -5.315  1.00  0.00     0.006 C 
BRANCH  20  21
ATOM     21  C   UNL     1     120.147  66.574  -6.132  1.00  0.00     0.053 C 
BRANCH  21  22
ATOM     22  C   UNL     1     120.778  66.474  -7.485  1.00  0.00     0.041 C 
ATOM     23  O   UNL     1     121.597  67.349  -7.869  1.00  0.00    -0.550 OA
ATOM     24  O   UNL     1     120.444  65.425  -8.334  1.00  0.00    -0.550 OA
ENDBRANCH  21  22
ENDBRANCH  20  21
ENDBRANCH  19  20
ENDBRANCH  18  19
ENDBRANCH  17  18
ENDBRANCH  16  17
ENDBRANCH  15  16
ENDBRANCH  14  15
ENDBRANCH  13  14
ENDBRANCH   1  13
TORSDOF 20
ENDMDL
MODEL 4
REMARK VINA RESULT:    -2.159      1.442      2.089
REMARK INTER + INTRA:          -4.734
REMARK INTER:                  -3.986
REMARK INTRA:                  -0.747
REMARK UNBOUND:                -0.050
REMARK SMILES CCCCCCCCCCCCCCCCCCCCCC(=O)[O-]
REMARK SMILES IDX 12 1 11 2 10 3 9 4 8 5 7 6 6 7 5 8 4 9 3 10 2 11 1 12 13 13
REMARK SMILES IDX 14 14 15 15 16 16 17 17 18 18 19 19 20 20 21 21 22 22 23 23
REMARK SMILES IDX 24 24
REMARK H PARENT
REMARK Flexibility Score: inf
ROOT
ATOM      1  C   UNL     1     121.839  70.685   0.723  1.00  0.00     0.000 C 
ENDROOT
BRANCH   1   2
ATOM      2  C   UNL     1     121.227  71.988   0.178  1.00  0.00     0.000 C 
BRANCH   2   3
ATOM      3  C   UNL     1     120.506  72.812   1.260  1.00  0.00     0.000 C 
BRANCH   3   4
ATOM      4  C   UNL     1     120.779  72.365   2.708  1.00  0.00    -0.000 C 
BRANCH   4   5
ATOM      5  C   UNL     1     120.247  73.361   3.751  1.00  0.00    -0.000 C 
BRANCH   5   6
ATOM      6  C   UNL     1     119.875  72.680   5.079  1.00  0.00    -0.000 C 
BRANCH   6   7
ATOM      7  C   UNL     1     120.129  71.163   5.060  1.00  0.00    -0.000 C 
BRANCH   7   8
ATOM      8  C   UNL     1     120.959  70.687   6.265  1.00  0.00    -0.000 C 
BRANCH   8   9
ATOM      9  C   UNL     1     120.170  70.749   7.586  1.00  0.00    -0.000 C 
BRANCH   9  10
ATOM     10  C   UNL     1     120.211  72.153   8.225  1.00  0.00    -0.000 C 
BRANCH  10  11
ATOM     11  C   UNL     1     120.231  72.130   9.763  1.00  0.00    -0.003 C 
ATOM     12  C   UNL     1     120.023  70.732  10.345  1.00  0.00     0.004 C 
ENDBRANCH  10  11
ENDBRANCH   9  10
ENDBRANCH   8   9
ENDBRANCH   7   8
ENDBRANCH   6   7
ENDBRANCH   5   6
ENDBRANCH   4   5
ENDBRANCH   3   4
ENDBRANCH   2   3
ENDBRANCH   1   2
BRANCH   1  13
ATOM     13  C   UNL     1     120.998  69.448   0.373  1.00  0.00     0.000 C 
BRANCH  13  14
ATOM     14  C   UNL     1     119.876  69.764  -0.633  1.00  0.00     0.000 C 
BRANCH  14  15
ATOM     15  C   UNL     1     120.141  69.156  -2.018  1.00  0.00     0.000 C 
BRANCH  15  16
ATOM     16  C   UNL     1     120.404  67.641  -1.955  1.00  0.00     0.000 C 
BRANCH  16  17
ATOM     17  C   UNL     1     120.503  66.995  -3.349  1.00  0.00     0.000 C 
BRANCH  17  18
ATOM     18  C   UNL     1     119.903  67.833  -4.498  1.00  0.00     0.000 C 
BRANCH  18  19
ATOM     19  C   UNL     1     120.773  67.919  -5.769  1.00  0.00     0.000 C 
BRANCH  19  20
ATOM     20  C   UNL     1     120.016  68.320  -7.049  1.00  0.00     0.006 C 
BRANCH  20  21
ATOM     21  C   UNL     1     120.691  67.801  -8.325  1.00  0.00     0.053 C 
BRANCH  21  22
ATOM     22  C   UNL     1     120.862  66.316  -8.264  1.00  0.00     0.041 C 
ATOM     23  O   UNL     1     121.818  65.762  -8.866  1.00  0.00    -0.550 OA
ATOM     24  O   UNL     1     119.949  65.539  -7.561  1.00  0.00    -0.550 OA
ENDBRANCH  21  22
ENDBRANCH  20  21
ENDBRANCH  19  20
ENDBRANCH  18  19
ENDBRANCH  17  18
ENDBRANCH  16  17
ENDBRANCH  15  16
ENDBRANCH  14  15
ENDBRANCH  13  14
ENDBRANCH   1  13
TORSDOF 20
ENDMDL
MODEL 5
REMARK VINA RESULT:    -1.822      1.395      2.546
REMARK INTER + INTRA:          -4.004
REMARK INTER:                  -4.386
REMARK INTRA:                   0.382
REMARK UNBOUND:                -0.050
REMARK SMILES CCCCCCCCCCCCCCCCCCCCCC(=O)[O-]
REMARK SMILES IDX 12 1 11 2 10 3 9 4 8 5 7 6 6 7 5 8 4 9 3 10 2 11 1 12 13 13
REMARK SMILES IDX 14 14 15 15 16 16 17 17 18 18 19 19 20 20 21 21 22 22 23 23
REMARK SMILES IDX 24 24
REMARK H PARENT
REMARK Flexibility Score: inf
ROOT
ATOM      1  C   UNL     1     120.620  73.193   2.255  1.00  0.00     0.000 C 
ENDROOT
BRANCH   1   2
ATOM      2  C   UNL     1     121.265  71.969   2.928  1.00  0.00     0.000 C 
BRANCH   2   3
ATOM      3  C   UNL     1     120.337  71.286   3.948  1.00  0.00     0.000 C 
BRANCH   3   4
ATOM      4  C   UNL     1     121.005  70.903   5.281  1.00  0.00    -0.000 C 
BRANCH   4   5
ATOM      5  C   UNL     1     120.063  71.055   6.487  1.00  0.00    -0.000 C 
BRANCH   5   6
ATOM      6  C   UNL     1     119.887  72.521   6.915  1.00  0.00    -0.000 C 
BRANCH   6   7
ATOM      7  C   UNL     1     120.238  72.754   8.395  1.00  0.00    -0.000 C 
BRANCH   7   8
ATOM      8  C   UNL     1     120.634  71.458   9.121  1.00  0.00    -0.000 C 
BRANCH   8   9
ATOM      9  C   UNL     1     120.657  71.622  10.652  1.00  0.00    -0.000 C 
BRANCH   9  10
ATOM     10  C   UNL     1     119.959  72.920  11.110  1.00  0.00    -0.000 C 
BRANCH  10  11
ATOM     11  C   UNL     1     120.531  74.190  10.457  1.00  0.00    -0.003 C 
ATOM     12  C   UNL     1     119.875  75.474  10.964  1.00  0.00     0.004 C 
ENDBRANCH  10  11
ENDBRANCH   9  10
ENDBRANCH   8   9
ENDBRANCH   7   8
ENDBRANCH   6   7
ENDBRANCH   5   6
ENDBRANCH   4   5
ENDBRANCH   3   4
ENDBRANCH   2   3
ENDBRANCH   1   2
BRANCH   1  13
ATOM     13  C   UNL     1     120.073  72.876   0.855  1.00  0.00     0.000 C 
BRANCH  13  14
ATOM     14  C   UNL     1     119.875  71.365   0.629  1.00  0.00     0.000 C 
BRANCH  14  15
ATOM     15  C   UNL     1     120.208  70.937  -0.808  1.00  0.00     0.000 C 
BRANCH  15  16
ATOM     16  C   UNL     1     120.913  69.571  -0.867  1.00  0.00     0.000 C 
BRANCH  16  17
ATOM     17  C   UNL     1     120.015  68.462  -1.449  1.00  0.00     0.000 C 
BRANCH  17  18
ATOM     18  C   UNL     1     120.601  67.728  -2.672  1.00  0.00     0.000 C 
BRANCH  18  19
ATOM     19  C   UNL     1     120.299  66.216  -2.736  1.00  0.00     0.000 C 
BRANCH  19  20
ATOM     20  C   UNL     1     120.130  65.647  -4.157  1.00  0.00     0.006 C 
BRANCH  20  21
ATOM     21  C   UNL     1     120.001  66.741  -5.225  1.00  0.00     0.053 C 
BRANCH  21  22
ATOM     22  C   UNL     1     120.492  66.247  -6.549  1.00  0.00     0.041 C 
ATOM     23  O   UNL     1     121.198  65.207  -6.615  1.00  0.00    -0.550 OA
ATOM     24  O   UNL     1     120.190  66.949  -7.709  1.00  0.00    -0.550 OA
ENDBRANCH  21  22
ENDBRANCH  20  21
ENDBRANCH  19  20
ENDBRANCH  18  19
ENDBRANCH  17  18
ENDBRANCH  16  17
ENDBRANCH  15  16
ENDBRANCH  14  15
ENDBRANCH  13  14
ENDBRANCH   1  13
TORSDOF 20
ENDMDL
MODEL 6
REMARK VINA RESULT:    -1.329      2.244      3.551
REMARK INTER + INTRA:          -2.934
REMARK INTER:                  -5.576
REMARK INTRA:                   2.641
REMARK UNBOUND:                -0.050
REMARK SMILES CCCCCCCCCCCCCCCCCCCCCC(=O)[O-]
REMARK SMILES IDX 12 1 11 2 10 3 9 4 8 5 7 6 6 7 5 8 4 9 3 10 2 11 1 12 13 13
REMARK SMILES IDX 14 14 15 15 16 16 17 17 18 18 19 19 20 20 21 21 22 22 23 23
REMARK SMILES IDX 24 24
REMARK H PARENT
REMARK Flexibility Score: inf
ROOT
ATOM      1  C   UNL     1     120.646  72.891   2.419  1.00  0.00     0.000 C 
ENDROOT
BRANCH   1   2
ATOM      2  C   UNL     1     121.376  71.824   3.254  1.00  0.00     0.000 C 
BRANCH   2   3
ATOM      3  C   UNL     1     120.449  71.102   4.248  1.00  0.00     0.000 C 
BRANCH   3   4
ATOM      4  C   UNL     1     121.073  70.812   5.626  1.00  0.00    -0.000 C 
BRANCH   4   5
ATOM      5  C   UNL     1     120.099  71.066   6.788  1.00  0.00    -0.000 C 
BRANCH   5   6
ATOM      6  C   UNL     1     119.883  72.564   7.058  1.00  0.00    -0.000 C 
BRANCH   6   7
ATOM      7  C   UNL     1     120.270  72.971   8.490  1.00  0.00    -0.000 C 
BRANCH   7   8
ATOM      8  C   UNL     1     120.166  74.488   8.722  1.00  0.00    -0.000 C 
BRANCH   8   9
ATOM      9  C   UNL     1     120.099  74.853  10.217  1.00  0.00    -0.000 C 
BRANCH   9  10
ATOM     10  C   UNL     1     120.154  73.606  11.125  1.00  0.00    -0.000 C 
BRANCH  10  11
ATOM     11  C   UNL     1     119.875  72.290  10.380  1.00  0.00    -0.003 C 
ATOM     12  C   UNL     1     120.702  71.116  10.904  1.00  0.00     0.004 C 
ENDBRANCH  10  11
ENDBRANCH   9  10
ENDBRANCH   8   9
ENDBRANCH   7   8
ENDBRANCH   6   7
ENDBRANCH   5   6
ENDBRANCH   4   5
ENDBRANCH   3   4
ENDBRANCH   2   3
ENDBRANCH   1   2
BRANCH   1  13
ATOM     13  C   UNL     1     120.489  72.481   0.946  1.00  0.00     0.000 C 
BRANCH  13  14
ATOM     14  C   UNL     1     119.976  71.038   0.788  1.00  0.00     0.000 C 
BRANCH  14  15
ATOM     15  C   UNL     1     120.962  70.145   0.021  1.00  0.00     0.000 C 
BRANCH  15  16
ATOM     16  C   UNL     1     120.390  68.744  -0.261  1.00  0.00     0.000 C 
BRANCH  16  17
ATOM     17  C   UNL     1     120.006  68.544  -1.739  1.00  0.00     0.000 C 
BRANCH  17  18
ATOM     18  C   UNL     1     120.678  67.339  -2.428  1.00  0.00     0.000 C 
BRANCH  18  19
ATOM     19  C   UNL     1     119.908  66.758  -3.632  1.00  0.00     0.000 C 
BRANCH  19  20
ATOM     20  C   UNL     1     119.937  67.628  -4.903  1.00  0.00     0.006 C 
BRANCH  20  21
ATOM     21  C   UNL     1     120.023  69.128  -4.593  1.00  0.00     0.053 C 
BRANCH  21  22
ATOM     22  C   UNL     1     120.357  69.903  -5.829  1.00  0.00     0.041 C 
ATOM     23  O   UNL     1     121.037  69.372  -6.746  1.00  0.00    -0.550 OA
ATOM     24  O   UNL     1     119.936  71.221  -5.960  1.00  0.00    -0.550 OA
ENDBRANCH  21  22
ENDBRANCH  20  21
ENDBRANCH  19  20
ENDBRANCH  18  19
ENDBRANCH  17  18
ENDBRANCH  16  17
ENDBRANCH  15  16
ENDBRANCH  14  15
ENDBRANCH  13  14
ENDBRANCH   1  13
TORSDOF 20
ENDMDL
MODEL 7
REMARK VINA RESULT:    -0.442      5.983     13.330
REMARK INTER + INTRA:          -1.009
REMARK INTER:                  -1.628
REMARK INTRA:                   0.618
REMARK UNBOUND:                -0.050
REMARK SMILES CCCCCCCCCCCCCCCCCCCCCC(=O)[O-]
REMARK SMILES IDX 12 1 11 2 10 3 9 4 8 5 7 6 6 7 5 8 4 9 3 10 2 11 1 12 13 13
REMARK SMILES IDX 14 14 15 15 16 16 17 17 18 18 19 19 20 20 21 21 22 22 23 23
REMARK SMILES IDX 24 24
REMARK H PARENT
REMARK Flexibility Score: inf
ROOT
ATOM      1  C   UNL     1     120.838  71.441  -0.986  1.00  0.00     0.000 C 
ENDROOT
BRANCH   1   2
ATOM      2  C   UNL     1     120.567  69.928  -1.058  1.00  0.00     0.000 C 
BRANCH   2   3
ATOM      3  C   UNL     1     120.816  69.209   0.281  1.00  0.00     0.000 C 
BRANCH   3   4
ATOM      4  C   UNL     1     120.198  67.802   0.388  1.00  0.00    -0.000 C 
BRANCH   4   5
ATOM      5  C   UNL     1     120.347  66.985  -0.906  1.00  0.00    -0.000 C 
BRANCH   5   6
ATOM      6  C   UNL     1     119.883  67.762  -2.149  1.00  0.00    -0.000 C 
BRANCH   6   7
ATOM      7  C   UNL     1     120.171  67.011  -3.461  1.00  0.00    -0.000 C 
BRANCH   7   8
ATOM      8  C   UNL     1     120.148  67.935  -4.689  1.00  0.00    -0.000 C 
BRANCH   8   9
ATOM      9  C   UNL     1     120.742  67.266  -5.943  1.00  0.00    -0.000 C 
BRANCH   9  10
ATOM     10  C   UNL     1     119.909  66.052  -6.406  1.00  0.00    -0.000 C 
BRANCH  10  11
ATOM     11  C   UNL     1     120.447  64.705  -5.893  1.00  0.00    -0.003 C 
ATOM     12  C   UNL     1     121.401  64.026  -6.875  1.00  0.00     0.004 C 
ENDBRANCH  10  11
ENDBRANCH   9  10
ENDBRANCH   8   9
ENDBRANCH   7   8
ENDBRANCH   6   7
ENDBRANCH   5   6
ENDBRANCH   4   5
ENDBRANCH   3   4
ENDBRANCH   2   3
ENDBRANCH   1   2
BRANCH   1  13
ATOM     13  C   UNL     1     119.895  72.164  -0.012  1.00  0.00     0.000 C 
BRANCH  13  14
ATOM     14  C   UNL     1     120.638  72.746   1.205  1.00  0.00     0.000 C 
BRANCH  14  15
ATOM     15  C   UNL     1     121.085  71.660   2.194  1.00  0.00     0.000 C 
BRANCH  15  16
ATOM     16  C   UNL     1     120.126  71.524   3.390  1.00  0.00     0.000 C 
BRANCH  16  17
ATOM     17  C   UNL     1     120.347  72.611   4.458  1.00  0.00     0.000 C 
BRANCH  17  18
ATOM     18  C   UNL     1     120.266  72.115   5.917  1.00  0.00     0.000 C 
BRANCH  18  19
ATOM     19  C   UNL     1     120.275  73.224   6.988  1.00  0.00     0.000 C 
BRANCH  19  20
ATOM     20  C   UNL     1     119.876  72.766   8.403  1.00  0.00     0.006 C 
BRANCH  20  21
ATOM     21  C   UNL     1     120.346  71.340   8.720  1.00  0.00     0.053 C 
BRANCH  21  22
ATOM     22  C   UNL     1     120.487  71.148  10.198  1.00  0.00     0.041 C 
ATOM     23  O   UNL     1     120.847  70.034  10.661  1.00  0.00    -0.550 OA
ATOM     24  O   UNL     1     120.199  72.193  11.066  1.00  0.00    -0.550 OA
ENDBRANCH  21  22
ENDBRANCH  20  21
ENDBRANCH  19  20
ENDBRANCH  18  19
ENDBRANCH  17  18
ENDBRANCH  16  17
ENDBRANCH  15  16
ENDBRANCH  14  15
ENDBRANCH  13  14
ENDBRANCH   1  13
TORSDOF 20
ENDMDL
