MODEL 1
REMARK VINA RESULT:    -5.631      0.000      0.000
REMARK INTER + INTRA:          -6.339
REMARK INTER:                  -6.783
REMARK INTRA:                   0.444
REMARK UNBOUND:                 0.444
REMARK SMILES O=c1c(O)c(-c2ccc(O)c(O)c2)oc2cc(O)cc(O)c12
REMARK SMILES IDX 5 1 3 2 2 3 1 4 22 5 20 6 19 7 17 8 16 9 15 10 14 11 6 12
REMARK SMILES IDX 7 13 8 14 9 15 13 16 11 17 10 18 12 20 4 22 21 24 18 26
REMARK H PARENT 10 19 12 21 4 23 21 25 18 27
REMARK Flexibility Score: inf
ROOT
ATOM      1  C   UNL     1       4.415 -15.676   7.758  1.00  0.00     0.180 A 
ATOM      2  C   UNL     1       4.032 -16.162   6.497  1.00  0.00     0.208 A 
ATOM      3  C   UNL     1       3.958 -15.269   5.415  1.00  0.00     0.238 A 
ATOM      4  O   UNL     1       3.542 -15.697   4.307  1.00  0.00    -0.285 OA
ATOM      5  C   UNL     1       4.323 -13.914   5.595  1.00  0.00     0.111 A 
ATOM      6  C   UNL     1       4.329 -12.929   4.559  1.00  0.00     0.134 A 
ATOM      7  C   UNL     1       4.606 -11.594   4.878  1.00  0.00     0.093 A 
ATOM      8  C   UNL     1       4.940 -11.217   6.177  1.00  0.00     0.123 A 
ATOM      9  C   UNL     1       4.990 -12.179   7.187  1.00  0.00     0.094 A 
ATOM     10  C   UNL     1       4.681 -13.512   6.909  1.00  0.00     0.146 A 
ATOM     11  O   UNL     1       4.720 -14.392   7.903  1.00  0.00    -0.452 OA
ENDROOT
BRANCH   1  12
ATOM     12  C   UNL     1       4.502 -16.552   8.948  1.00  0.00     0.025 A 
ATOM     13  C   UNL     1       4.420 -17.951   8.836  1.00  0.00     0.016 A 
ATOM     14  C   UNL     1       4.481 -18.756   9.976  1.00  0.00     0.051 A 
ATOM     15  C   UNL     1       4.610 -18.179  11.243  1.00  0.00     0.157 A 
ATOM     16  C   UNL     1       4.611 -15.975  10.224  1.00  0.00     0.062 A 
ATOM     17  C   UNL     1       4.673 -16.782  11.370  1.00  0.00     0.158 A 
BRANCH  15  18
ATOM     18  O   UNL     1       4.670 -19.009  12.363  1.00  0.00    -0.504 OA
ATOM     19  H   UNL     1       5.535 -19.434  12.672  1.00  0.00     0.293 HD
ENDBRANCH  15  18
BRANCH  17  20
ATOM     20  O   UNL     1       4.795 -16.199  12.630  1.00  0.00    -0.504 OA
ATOM     21  H   UNL     1       4.305 -15.345  12.870  1.00  0.00     0.293 HD
ENDBRANCH  17  20
ENDBRANCH   1  12
BRANCH   2  22
ATOM     22  O   UNL     1       3.749 -17.520   6.323  1.00  0.00    -0.502 OA
ATOM     23  H   UNL     1       4.476 -18.221   6.236  1.00  0.00     0.293 HD
ENDBRANCH   2  22
BRANCH   6  24
ATOM     24  O   UNL     1       4.097 -13.211   3.210  1.00  0.00    -0.507 OA
ATOM     25  H   UNL     1       4.061 -14.137   2.811  1.00  0.00     0.293 HD
ENDBRANCH   6  24
BRANCH   8  26
ATOM     26  O   UNL     1       5.226  -9.881   6.454  1.00  0.00    -0.508 OA
ATOM     27  H   UNL     1       4.542  -9.151   6.303  1.00  0.00     0.293 HD
ENDBRANCH   8  26
TORSDOF 6
ENDMDL
MODEL 2
REMARK VINA RESULT:    -5.253      5.599      9.594
REMARK INTER + INTRA:          -5.884
REMARK INTER:                  -5.680
REMARK INTRA:                  -0.204
REMARK UNBOUND:                 0.444
REMARK SMILES O=c1c(O)c(-c2ccc(O)c(O)c2)oc2cc(O)cc(O)c12
REMARK SMILES IDX 5 1 3 2 2 3 1 4 22 5 20 6 19 7 17 8 16 9 15 10 14 11 6 12
REMARK SMILES IDX 7 13 8 14 9 15 13 16 11 17 10 18 12 20 4 22 21 24 18 26
REMARK H PARENT 10 19 12 21 4 23 21 25 18 27
REMARK Flexibility Score: inf
ROOT
ATOM      1  C   UNL     1       5.072  -6.907   5.431  1.00  0.00     0.180 A 
ATOM      2  C   UNL     1       4.249  -5.824   5.781  1.00  0.00     0.208 A 
ATOM      3  C   UNL     1       4.819  -4.546   5.908  1.00  0.00     0.238 A 
ATOM      4  O   UNL     1       4.090  -3.596   6.295  1.00  0.00    -0.285 OA
ATOM      5  C   UNL     1       6.193  -4.358   5.627  1.00  0.00     0.111 A 
ATOM      6  C   UNL     1       6.868  -3.099   5.679  1.00  0.00     0.134 A 
ATOM      7  C   UNL     1       8.254  -3.051   5.485  1.00  0.00     0.093 A 
ATOM      8  C   UNL     1       8.980  -4.200   5.177  1.00  0.00     0.123 A 
ATOM      9  C   UNL     1       8.322  -5.427   5.070  1.00  0.00     0.094 A 
ATOM     10  C   UNL     1       6.947  -5.514   5.296  1.00  0.00     0.146 A 
ATOM     11  O   UNL     1       6.365  -6.704   5.205  1.00  0.00    -0.452 OA
ENDROOT
BRANCH   1  12
ATOM     12  C   UNL     1       4.548  -8.285   5.292  1.00  0.00     0.025 A 
ATOM     13  C   UNL     1       3.663  -8.631   4.257  1.00  0.00     0.016 A 
ATOM     14  C   UNL     1       3.162  -9.932   4.160  1.00  0.00     0.051 A 
ATOM     15  C   UNL     1       3.526 -10.901   5.101  1.00  0.00     0.157 A 
ATOM     16  C   UNL     1       4.894  -9.254   6.247  1.00  0.00     0.062 A 
ATOM     17  C   UNL     1       4.394 -10.561   6.152  1.00  0.00     0.158 A 
BRANCH  15  18
ATOM     18  O   UNL     1       3.011 -12.191   4.978  1.00  0.00    -0.504 OA
ATOM     19  H   UNL     1       2.570 -12.516   4.127  1.00  0.00     0.293 HD
ENDBRANCH  15  18
BRANCH  17  20
ATOM     20  O   UNL     1       4.754 -11.520   7.097  1.00  0.00    -0.504 OA
ATOM     21  H   UNL     1       4.083 -12.188   7.458  1.00  0.00     0.293 HD
ENDBRANCH  17  20
ENDBRANCH   1  12
BRANCH   2  22
ATOM     22  O   UNL     1       2.879  -6.017   5.981  1.00  0.00    -0.502 OA
ATOM     23  H   UNL     1       2.515  -6.625   6.706  1.00  0.00     0.293 HD
ENDBRANCH   2  22
BRANCH   6  24
ATOM     24  O   UNL     1       6.227  -1.875   5.891  1.00  0.00    -0.507 OA
ATOM     25  H   UNL     1       5.437  -1.735   6.502  1.00  0.00     0.293 HD
ENDBRANCH   6  24
BRANCH   8  26
ATOM     26  O   UNL     1      10.356  -4.112   4.973  1.00  0.00    -0.508 OA
ATOM     27  H   UNL     1      10.993  -4.797   5.360  1.00  0.00     0.293 HD
ENDBRANCH   8  26
TORSDOF 6
ENDMDL
MODEL 3
REMARK VINA RESULT:    -5.221      1.856      2.747
REMARK INTER + INTRA:          -5.845
REMARK INTER:                  -6.263
REMARK INTRA:                   0.417
REMARK UNBOUND:                 0.444
REMARK SMILES O=c1c(O)c(-c2ccc(O)c(O)c2)oc2cc(O)cc(O)c12
REMARK SMILES IDX 5 1 3 2 2 3 1 4 22 5 20 6 19 7 17 8 16 9 15 10 14 11 6 12
REMARK SMILES IDX 7 13 8 14 9 15 13 16 11 17 10 18 12 20 4 22 21 24 18 26
REMARK H PARENT 10 19 12 21 4 23 21 25 18 27
REMARK Flexibility Score: inf
ROOT
ATOM      1  C   UNL     1       4.071 -17.665   7.975  1.00  0.00     0.180 A 
ATOM      2  C   UNL     1       3.631 -18.685   7.115  1.00  0.00     0.208 A 
ATOM      3  C   UNL     1       3.340 -18.371   5.777  1.00  0.00     0.238 A 
ATOM      4  O   UNL     1       2.876 -19.273   5.034  1.00  0.00    -0.285 OA
ATOM      5  C   UNL     1       3.547 -17.054   5.302  1.00  0.00     0.111 A 
ATOM      6  C   UNL     1       3.328 -16.632   3.955  1.00  0.00     0.134 A 
ATOM      7  C   UNL     1       3.464 -15.279   3.624  1.00  0.00     0.093 A 
ATOM      8  C   UNL     1       3.872 -14.342   4.572  1.00  0.00     0.123 A 
ATOM      9  C   UNL     1       4.141 -14.751   5.879  1.00  0.00     0.094 A 
ATOM     10  C   UNL     1       3.977 -16.088   6.250  1.00  0.00     0.146 A 
ATOM     11  O   UNL     1       4.224 -16.431   7.508  1.00  0.00    -0.452 OA
ENDROOT
BRANCH   1  12
ATOM     12  C   UNL     1       4.383 -17.914   9.401  1.00  0.00     0.025 A 
ATOM     13  C   UNL     1       4.563 -19.218   9.894  1.00  0.00     0.016 A 
ATOM     14  C   UNL     1       4.833 -19.430  11.248  1.00  0.00     0.051 A 
ATOM     15  C   UNL     1       4.915 -18.349  12.131  1.00  0.00     0.157 A 
ATOM     16  C   UNL     1       4.444 -16.832  10.294  1.00  0.00     0.062 A 
ATOM     17  C   UNL     1       4.716 -17.043  11.654  1.00  0.00     0.158 A 
BRANCH  15  18
ATOM     18  O   UNL     1       5.188 -18.592  13.477  1.00  0.00    -0.504 OA
ATOM     19  H   UNL     1       5.781 -19.355  13.777  1.00  0.00     0.293 HD
ENDBRANCH  15  18
BRANCH  17  20
ATOM     20  O   UNL     1       4.789 -15.961  12.530  1.00  0.00    -0.504 OA
ATOM     21  H   UNL     1       5.315 -16.012  13.394  1.00  0.00     0.293 HD
ENDBRANCH  17  20
ENDBRANCH   1  12
BRANCH   2  22
ATOM     22  O   UNL     1       3.506 -19.995   7.585  1.00  0.00    -0.502 OA
ATOM     23  H   UNL     1       2.859 -20.249   8.323  1.00  0.00     0.293 HD
ENDBRANCH   2  22
BRANCH   6  24
ATOM     24  O   UNL     1       3.003 -17.498   2.906  1.00  0.00    -0.507 OA
ATOM     25  H   UNL     1       3.307 -18.458   2.835  1.00  0.00     0.293 HD
ENDBRANCH   6  24
BRANCH   8  26
ATOM     26  O   UNL     1       4.013 -13.005   4.203  1.00  0.00    -0.508 OA
ATOM     27  H   UNL     1       3.941 -12.258   4.883  1.00  0.00     0.293 HD
ENDBRANCH   8  26
TORSDOF 6
ENDMDL
MODEL 4
REMARK VINA RESULT:    -5.158      2.043      6.602
REMARK INTER + INTRA:          -5.770
REMARK INTER:                  -5.563
REMARK INTRA:                  -0.207
REMARK UNBOUND:                 0.444
REMARK SMILES O=c1c(O)c(-c2ccc(O)c(O)c2)oc2cc(O)cc(O)c12
REMARK SMILES IDX 5 1 3 2 2 3 1 4 22 5 20 6 19 7 17 8 16 9 15 10 14 11 6 12
REMARK SMILES IDX 7 13 8 14 9 15 13 16 11 17 10 18 12 20 4 22 21 24 18 26
REMARK H PARENT 10 19 12 21 4 23 21 25 18 27
REMARK Flexibility Score: inf
ROOT
ATOM      1  C   UNL     1       4.055 -13.360   5.686  1.00  0.00     0.180 A 
ATOM      2  C   UNL     1       3.726 -13.932   4.445  1.00  0.00     0.208 A 
ATOM      3  C   UNL     1       3.732 -15.331   4.316  1.00  0.00     0.238 A 
ATOM      4  O   UNL     1       3.510 -15.832   3.184  1.00  0.00    -0.285 OA
ATOM      5  C   UNL     1       4.010 -16.141   5.443  1.00  0.00     0.111 A 
ATOM      6  C   UNL     1       4.000 -17.570   5.439  1.00  0.00     0.134 A 
ATOM      7  C   UNL     1       4.396 -18.266   6.587  1.00  0.00     0.093 A 
ATOM      8  C   UNL     1       4.740 -17.591   7.757  1.00  0.00     0.123 A 
ATOM      9  C   UNL     1       4.701 -16.196   7.789  1.00  0.00     0.094 A 
ATOM     10  C   UNL     1       4.348 -15.472   6.649  1.00  0.00     0.146 A 
ATOM     11  O   UNL     1       4.344 -14.146   6.716  1.00  0.00    -0.452 OA
ENDROOT
BRANCH   1  12
ATOM     12  C   UNL     1       4.086 -11.895   5.896  1.00  0.00     0.025 A 
ATOM     13  C   UNL     1       2.909 -11.127   5.870  1.00  0.00     0.016 A 
ATOM     14  C   UNL     1       2.965  -9.742   6.048  1.00  0.00     0.051 A 
ATOM     15  C   UNL     1       4.193  -9.103   6.240  1.00  0.00     0.157 A 
ATOM     16  C   UNL     1       5.320 -11.248   6.068  1.00  0.00     0.062 A 
ATOM     17  C   UNL     1       5.378  -9.858   6.248  1.00  0.00     0.158 A 
BRANCH  15  18
ATOM     18  O   UNL     1       4.218  -7.719   6.417  1.00  0.00    -0.504 OA
ATOM     19  H   UNL     1       3.833  -7.083   5.730  1.00  0.00     0.293 HD
ENDBRANCH  15  18
BRANCH  17  20
ATOM     20  O   UNL     1       6.607  -9.226   6.431  1.00  0.00    -0.504 OA
ATOM     21  H   UNL     1       7.446  -9.551   5.964  1.00  0.00     0.293 HD
ENDBRANCH  17  20
ENDBRANCH   1  12
BRANCH   2  22
ATOM     22  O   UNL     1       3.380 -13.116   3.365  1.00  0.00    -0.502 OA
ATOM     23  H   UNL     1       2.420 -12.990   3.064  1.00  0.00     0.293 HD
ENDBRANCH   2  22
BRANCH   6  24
ATOM     24  O   UNL     1       3.589 -18.347   4.352  1.00  0.00    -0.507 OA
ATOM     25  H   UNL     1       3.826 -18.164   3.389  1.00  0.00     0.293 HD
ENDBRANCH   6  24
BRANCH   8  26
ATOM     26  O   UNL     1       5.113 -18.318   8.886  1.00  0.00    -0.508 OA
ATOM     27  H   UNL     1       4.437 -18.580   9.594  1.00  0.00     0.293 HD
ENDBRANCH   8  26
TORSDOF 6
ENDMDL
MODEL 5
REMARK VINA RESULT:    -4.977      4.242      9.329
REMARK INTER + INTRA:          -5.552
REMARK INTER:                  -5.418
REMARK INTRA:                  -0.134
REMARK UNBOUND:                 0.444
REMARK SMILES O=c1c(O)c(-c2ccc(O)c(O)c2)oc2cc(O)cc(O)c12
REMARK SMILES IDX 5 1 3 2 2 3 1 4 22 5 20 6 19 7 17 8 16 9 15 10 14 11 6 12
REMARK SMILES IDX 7 13 8 14 9 15 13 16 11 17 10 18 12 20 4 22 21 24 18 26
REMARK H PARENT 10 19 12 21 4 23 21 25 18 27
REMARK Flexibility Score: inf
ROOT
ATOM      1  C   UNL     1       4.956  -7.958   5.407  1.00  0.00     0.180 A 
ATOM      2  C   UNL     1       4.261  -8.245   4.221  1.00  0.00     0.208 A 
ATOM      3  C   UNL     1       3.851  -9.565   3.974  1.00  0.00     0.238 A 
ATOM      4  O   UNL     1       3.296  -9.829   2.875  1.00  0.00    -0.285 OA
ATOM      5  C   UNL     1       4.089 -10.570   4.941  1.00  0.00     0.111 A 
ATOM      6  C   UNL     1       3.677 -11.933   4.817  1.00  0.00     0.134 A 
ATOM      7  C   UNL     1       4.063 -12.862   5.791  1.00  0.00     0.093 A 
ATOM      8  C   UNL     1       4.788 -12.469   6.915  1.00  0.00     0.123 A 
ATOM      9  C   UNL     1       5.149 -11.131   7.074  1.00  0.00     0.094 A 
ATOM     10  C   UNL     1       4.813 -10.187   6.102  1.00  0.00     0.146 A 
ATOM     11  O   UNL     1       5.194  -8.928   6.281  1.00  0.00    -0.452 OA
ENDROOT
BRANCH   1  12
ATOM     12  C   UNL     1       5.434  -6.594   5.732  1.00  0.00     0.025 A 
ATOM     13  C   UNL     1       6.802  -6.321   5.908  1.00  0.00     0.016 A 
ATOM     14  C   UNL     1       7.228  -5.032   6.237  1.00  0.00     0.051 A 
ATOM     15  C   UNL     1       6.298  -4.002   6.408  1.00  0.00     0.157 A 
ATOM     16  C   UNL     1       4.501  -5.563   5.925  1.00  0.00     0.062 A 
ATOM     17  C   UNL     1       4.927  -4.268   6.256  1.00  0.00     0.158 A 
BRANCH  15  18
ATOM     18  O   UNL     1       6.753  -2.724   6.735  1.00  0.00    -0.504 OA
ATOM     19  H   UNL     1       7.059  -2.066   6.030  1.00  0.00     0.293 HD
ENDBRANCH  15  18
BRANCH  17  20
ATOM     20  O   UNL     1       3.994  -3.248   6.433  1.00  0.00    -0.504 OA
ATOM     21  H   UNL     1       3.695  -2.662   5.661  1.00  0.00     0.293 HD
ENDBRANCH  17  20
ENDBRANCH   1  12
BRANCH   2  22
ATOM     22  O   UNL     1       3.969  -7.224   3.312  1.00  0.00    -0.502 OA
ATOM     23  H   UNL     1       3.434  -6.403   3.570  1.00  0.00     0.293 HD
ENDBRANCH   2  22
BRANCH   6  24
ATOM     24  O   UNL     1       2.875 -12.417   3.779  1.00  0.00    -0.507 OA
ATOM     25  H   UNL     1       2.369 -11.841   3.124  1.00  0.00     0.293 HD
ENDBRANCH   6  24
BRANCH   8  26
ATOM     26  O   UNL     1       5.139 -13.419   7.873  1.00  0.00    -0.508 OA
ATOM     27  H   UNL     1       4.451 -13.820   8.498  1.00  0.00     0.293 HD
ENDBRANCH   8  26
TORSDOF 6
ENDMDL
MODEL 6
REMARK VINA RESULT:    -4.914      2.524      4.503
REMARK INTER + INTRA:          -5.475
REMARK INTER:                  -5.971
REMARK INTRA:                   0.496
REMARK UNBOUND:                 0.444
REMARK SMILES O=c1c(O)c(-c2ccc(O)c(O)c2)oc2cc(O)cc(O)c12
REMARK SMILES IDX 5 1 3 2 2 3 1 4 22 5 20 6 19 7 17 8 16 9 15 10 14 11 6 12
REMARK SMILES IDX 7 13 8 14 9 15 13 16 11 17 10 18 12 20 4 22 21 24 18 26
REMARK H PARENT 10 19 12 21 4 23 21 25 18 27
REMARK Flexibility Score: inf
ROOT
ATOM      1  C   UNL     1       4.269 -17.641   7.861  1.00  0.00     0.180 A 
ATOM      2  C   UNL     1       4.386 -16.354   7.309  1.00  0.00     0.208 A 
ATOM      3  C   UNL     1       4.169 -16.180   5.932  1.00  0.00     0.238 A 
ATOM      4  O   UNL     1       4.349 -15.039   5.433  1.00  0.00    -0.285 OA
ATOM      5  C   UNL     1       3.783 -17.284   5.135  1.00  0.00     0.111 A 
ATOM      6  C   UNL     1       3.494 -17.216   3.737  1.00  0.00     0.134 A 
ATOM      7  C   UNL     1       3.226 -18.394   3.030  1.00  0.00     0.093 A 
ATOM      8  C   UNL     1       3.171 -19.627   3.677  1.00  0.00     0.123 A 
ATOM      9  C   UNL     1       3.399 -19.699   5.052  1.00  0.00     0.094 A 
ATOM     10  C   UNL     1       3.707 -18.548   5.779  1.00  0.00     0.146 A 
ATOM     11  O   UNL     1       3.937 -18.663   7.081  1.00  0.00    -0.452 OA
ENDROOT
BRANCH   1  12
ATOM     12  C   UNL     1       4.496 -17.906   9.300  1.00  0.00     0.025 A 
ATOM     13  C   UNL     1       4.615 -19.217   9.792  1.00  0.00     0.016 A 
ATOM     14  C   UNL     1       4.806 -19.444  11.158  1.00  0.00     0.051 A 
ATOM     15  C   UNL     1       4.867 -18.371  12.051  1.00  0.00     0.157 A 
ATOM     16  C   UNL     1       4.536 -16.831  10.202  1.00  0.00     0.062 A 
ATOM     17  C   UNL     1       4.728 -17.057  11.574  1.00  0.00     0.158 A 
BRANCH  15  18
ATOM     18  O   UNL     1       5.059 -18.629  13.409  1.00  0.00    -0.504 OA
ATOM     19  H   UNL     1       5.775 -19.264  13.739  1.00  0.00     0.293 HD
ENDBRANCH  15  18
BRANCH  17  20
ATOM     20  O   UNL     1       4.780 -15.983  12.460  1.00  0.00    -0.504 OA
ATOM     21  H   UNL     1       4.067 -15.842  13.166  1.00  0.00     0.293 HD
ENDBRANCH  17  20
ENDBRANCH   1  12
BRANCH   2  22
ATOM     22  O   UNL     1       4.694 -15.263   8.127  1.00  0.00    -0.502 OA
ATOM     23  H   UNL     1       5.377 -14.562   7.864  1.00  0.00     0.293 HD
ENDBRANCH   2  22
BRANCH   6  24
ATOM     24  O   UNL     1       3.433 -16.025   3.008  1.00  0.00    -0.507 OA
ATOM     25  H   UNL     1       3.899 -15.167   3.262  1.00  0.00     0.293 HD
ENDBRANCH   6  24
BRANCH   8  26
ATOM     26  O   UNL     1       2.884 -20.777   2.943  1.00  0.00    -0.508 OA
ATOM     27  H   UNL     1       3.490 -21.588   2.971  1.00  0.00     0.293 HD
ENDBRANCH   8  26
TORSDOF 6
ENDMDL
MODEL 7
REMARK VINA RESULT:    -4.771      2.518      7.140
REMARK INTER + INTRA:          -5.303
REMARK INTER:                  -5.472
REMARK INTRA:                   0.169
REMARK UNBOUND:                 0.444
REMARK SMILES O=c1c(O)c(-c2ccc(O)c(O)c2)oc2cc(O)cc(O)c12
REMARK SMILES IDX 5 1 3 2 2 3 1 4 22 5 20 6 19 7 17 8 16 9 15 10 14 11 6 12
REMARK SMILES IDX 7 13 8 14 9 15 13 16 11 17 10 18 12 20 4 22 21 24 18 26
REMARK H PARENT 10 19 12 21 4 23 21 25 18 27
REMARK Flexibility Score: inf
ROOT
ATOM      1  C   UNL     1       4.286 -16.573   6.765  1.00  0.00     0.180 A 
ATOM      2  C   UNL     1       4.434 -16.815   8.140  1.00  0.00     0.208 A 
ATOM      3  C   UNL     1       4.692 -18.125   8.578  1.00  0.00     0.238 A 
ATOM      4  O   UNL     1       4.750 -18.346   9.816  1.00  0.00    -0.285 OA
ATOM      5  C   UNL     1       4.855 -19.165   7.632  1.00  0.00     0.111 A 
ATOM      6  C   UNL     1       5.163 -20.521   7.960  1.00  0.00     0.134 A 
ATOM      7  C   UNL     1       5.194 -21.486   6.947  1.00  0.00     0.093 A 
ATOM      8  C   UNL     1       4.993 -21.137   5.612  1.00  0.00     0.123 A 
ATOM      9  C   UNL     1       4.746 -19.806   5.274  1.00  0.00     0.094 A 
ATOM     10  C   UNL     1       4.670 -18.826   6.266  1.00  0.00     0.146 A 
ATOM     11  O   UNL     1       4.411 -17.576   5.903  1.00  0.00    -0.452 OA
ENDROOT
BRANCH   1  12
ATOM     12  C   UNL     1       3.998 -15.224   6.227  1.00  0.00     0.025 A 
ATOM     13  C   UNL     1       3.113 -15.038   5.151  1.00  0.00     0.016 A 
ATOM     14  C   UNL     1       2.875 -13.757   4.645  1.00  0.00     0.051 A 
ATOM     15  C   UNL     1       3.525 -12.648   5.194  1.00  0.00     0.157 A 
ATOM     16  C   UNL     1       4.666 -14.110   6.762  1.00  0.00     0.062 A 
ATOM     17  C   UNL     1       4.428 -12.824   6.256  1.00  0.00     0.158 A 
BRANCH  15  18
ATOM     18  O   UNL     1       3.267 -11.382   4.669  1.00  0.00    -0.504 OA
ATOM     19  H   UNL     1       3.857 -10.585   4.871  1.00  0.00     0.293 HD
ENDBRANCH  15  18
BRANCH  17  20
ATOM     20  O   UNL     1       5.086 -11.723   6.803  1.00  0.00    -0.504 OA
ATOM     21  H   UNL     1       5.519 -11.019   6.218  1.00  0.00     0.293 HD
ENDBRANCH  17  20
ENDBRANCH   1  12
BRANCH   2  22
ATOM     22  O   UNL     1       4.346 -15.761   9.054  1.00  0.00    -0.502 OA
ATOM     23  H   UNL     1       4.598 -14.809   8.812  1.00  0.00     0.293 HD
ENDBRANCH   2  22
BRANCH   6  24
ATOM     24  O   UNL     1       5.468 -20.965   9.250  1.00  0.00    -0.507 OA
ATOM     25  H   UNL     1       4.841 -20.921  10.039  1.00  0.00     0.293 HD
ENDBRANCH   6  24
BRANCH   8  26
ATOM     26  O   UNL     1       5.049 -22.122   4.627  1.00  0.00    -0.508 OA
ATOM     27  H   UNL     1       4.208 -22.537   4.246  1.00  0.00     0.293 HD
ENDBRANCH   8  26
TORSDOF 6
ENDMDL
MODEL 8
REMARK VINA RESULT:    -3.517      1.404      6.671
REMARK INTER + INTRA:          -3.793
REMARK INTER:                  -3.862
REMARK INTRA:                   0.069
REMARK UNBOUND:                 0.444
REMARK SMILES O=c1c(O)c(-c2ccc(O)c(O)c2)oc2cc(O)cc(O)c12
REMARK SMILES IDX 5 1 3 2 2 3 1 4 22 5 20 6 19 7 17 8 16 9 15 10 14 11 6 12
REMARK SMILES IDX 7 13 8 14 9 15 13 16 11 17 10 18 12 20 4 22 21 24 18 26
REMARK H PARENT 10 19 12 21 4 23 21 25 18 27
REMARK Flexibility Score: inf
ROOT
ATOM      1  C   UNL     1       4.140 -15.891   6.833  1.00  0.00     0.180 A 
ATOM      2  C   UNL     1       4.261 -17.168   6.260  1.00  0.00     0.208 A 
ATOM      3  C   UNL     1       4.456 -18.277   7.100  1.00  0.00     0.238 A 
ATOM      4  O   UNL     1       4.639 -19.406   6.575  1.00  0.00    -0.285 OA
ATOM      5  C   UNL     1       4.471 -18.103   8.504  1.00  0.00     0.111 A 
ATOM      6  C   UNL     1       4.617 -19.161   9.454  1.00  0.00     0.134 A 
ATOM      7  C   UNL     1       4.725 -18.857  10.816  1.00  0.00     0.093 A 
ATOM      8  C   UNL     1       4.627 -17.543  11.271  1.00  0.00     0.123 A 
ATOM      9  C   UNL     1       4.430 -16.506  10.358  1.00  0.00     0.094 A 
ATOM     10  C   UNL     1       4.358 -16.773   8.989  1.00  0.00     0.146 A 
ATOM     11  O   UNL     1       4.191 -15.755   8.153  1.00  0.00    -0.452 OA
ENDROOT
BRANCH   1  12
ATOM     12  C   UNL     1       3.948 -14.673   6.014  1.00  0.00     0.025 A 
ATOM     13  C   UNL     1       3.023 -14.641   4.956  1.00  0.00     0.016 A 
ATOM     14  C   UNL     1       2.875 -13.488   4.181  1.00  0.00     0.051 A 
ATOM     15  C   UNL     1       3.655 -12.357   4.440  1.00  0.00     0.157 A 
ATOM     16  C   UNL     1       4.745 -13.544   6.258  1.00  0.00     0.062 A 
ATOM     17  C   UNL     1       4.598 -12.385   5.481  1.00  0.00     0.158 A 
BRANCH  15  18
ATOM     18  O   UNL     1       3.485 -11.220   3.651  1.00  0.00    -0.504 OA
ATOM     19  H   UNL     1       3.953 -11.108   2.760  1.00  0.00     0.293 HD
ENDBRANCH  15  18
BRANCH  17  20
ATOM     20  O   UNL     1       5.385 -11.263   5.741  1.00  0.00    -0.504 OA
ATOM     21  H   UNL     1       5.959 -10.840   5.021  1.00  0.00     0.293 HD
ENDBRANCH  17  20
ENDBRANCH   1  12
BRANCH   2  22
ATOM     22  O   UNL     1       4.168 -17.329   4.875  1.00  0.00    -0.502 OA
ATOM     23  H   UNL     1       3.304 -17.593   4.415  1.00  0.00     0.293 HD
ENDBRANCH   2  22
BRANCH   6  24
ATOM     24  O   UNL     1       4.636 -20.518   9.116  1.00  0.00    -0.507 OA
ATOM     25  H   UNL     1       5.169 -20.917   8.358  1.00  0.00     0.293 HD
ENDBRANCH   6  24
BRANCH   8  26
ATOM     26  O   UNL     1       4.722 -17.279  12.636  1.00  0.00    -0.508 OA
ATOM     27  H   UNL     1       5.611 -17.307  13.120  1.00  0.00     0.293 HD
ENDBRANCH   8  26
TORSDOF 6
ENDMDL
