MODEL 1
REMARK VINA RESULT:    -7.648      0.000      0.000
REMARK INTER + INTRA:          -9.421
REMARK INTER:                  -9.213
REMARK INTRA:                  -0.209
REMARK UNBOUND:                -0.209
REMARK SMILES O=c1c(O)c(-c2ccc(O)c(O)c2)oc2cc(O)cc(O)c12
REMARK SMILES IDX 5 1 3 2 2 3 1 4 22 5 20 6 19 7 17 8 16 9 15 10 14 11 6 12
REMARK SMILES IDX 7 13 8 14 9 15 13 16 11 17 10 18 12 20 4 22 21 24 18 26
REMARK H PARENT 10 19 12 21 4 23 21 25 18 27
REMARK Flexibility Score: inf
ROOT
ATOM      1  C   UNL     1      39.592 -11.879   8.659  1.00  0.00     0.180 A 
ATOM      2  C   UNL     1      39.889 -10.675   9.322  1.00  0.00     0.208 A 
ATOM      3  C   UNL     1      40.924 -10.657  10.270  1.00  0.00     0.238 A 
ATOM      4  O   UNL     1      41.150  -9.590  10.898  1.00  0.00    -0.285 OA
ATOM      5  C   UNL     1      41.661 -11.837  10.533  1.00  0.00     0.111 A 
ATOM      6  C   UNL     1      42.755 -11.923  11.444  1.00  0.00     0.134 A 
ATOM      7  C   UNL     1      43.326 -13.172  11.721  1.00  0.00     0.093 A 
ATOM      8  C   UNL     1      42.883 -14.327  11.073  1.00  0.00     0.123 A 
ATOM      9  C   UNL     1      41.854 -14.244  10.137  1.00  0.00     0.094 A 
ATOM     10  C   UNL     1      41.242 -13.018   9.865  1.00  0.00     0.146 A 
ATOM     11  O   UNL     1      40.257 -12.985   8.976  1.00  0.00    -0.452 OA
ENDROOT
BRANCH   1  12
ATOM     12  C   UNL     1      38.533 -11.972   7.629  1.00  0.00     0.025 A 
ATOM     13  C   UNL     1      37.329 -12.656   7.877  1.00  0.00     0.016 A 
ATOM     14  C   UNL     1      36.333 -12.710   6.898  1.00  0.00     0.051 A 
ATOM     15  C   UNL     1      36.518 -12.072   5.665  1.00  0.00     0.157 A 
ATOM     16  C   UNL     1      38.704 -11.316   6.398  1.00  0.00     0.062 A 
ATOM     17  C   UNL     1      37.706 -11.371   5.416  1.00  0.00     0.158 A 
BRANCH  15  18
ATOM     18  O   UNL     1      35.529 -12.125   4.686  1.00  0.00    -0.504 OA
ATOM     19  H   UNL     1      35.465 -11.424   3.957  1.00  0.00     0.293 HD
ENDBRANCH  15  18
BRANCH  17  20
ATOM     20  O   UNL     1      37.885 -10.730   4.191  1.00  0.00    -0.504 OA
ATOM     21  H   UNL     1      37.114 -10.592   3.548  1.00  0.00     0.293 HD
ENDBRANCH  17  20
ENDBRANCH   1  12
BRANCH   2  22
ATOM     22  O   UNL     1      39.136  -9.527   9.063  1.00  0.00    -0.502 OA
ATOM     23  H   UNL     1      38.170  -9.567   8.762  1.00  0.00     0.293 HD
ENDBRANCH   2  22
BRANCH   6  24
ATOM     24  O   UNL     1      43.334 -10.818  12.075  1.00  0.00    -0.507 OA
ATOM     25  H   UNL     1      44.108 -10.287  11.707  1.00  0.00     0.293 HD
ENDBRANCH   6  24
BRANCH   8  26
ATOM     26  O   UNL     1      43.467 -15.563  11.343  1.00  0.00    -0.508 OA
ATOM     27  H   UNL     1      43.729 -16.199  10.600  1.00  0.00     0.293 HD
ENDBRANCH   8  26
TORSDOF 6
ENDMDL
MODEL 2
REMARK VINA RESULT:    -7.541      0.676      1.464
REMARK INTER + INTRA:          -9.292
REMARK INTER:                  -9.031
REMARK INTRA:                  -0.261
REMARK UNBOUND:                -0.209
REMARK SMILES O=c1c(O)c(-c2ccc(O)c(O)c2)oc2cc(O)cc(O)c12
REMARK SMILES IDX 5 1 3 2 2 3 1 4 22 5 20 6 19 7 17 8 16 9 15 10 14 11 6 12
REMARK SMILES IDX 7 13 8 14 9 15 13 16 11 17 10 18 12 20 4 22 21 24 18 26
REMARK H PARENT 10 19 12 21 4 23 21 25 18 27
REMARK Flexibility Score: inf
ROOT
ATOM      1  C   UNL     1      39.444 -11.808   8.381  1.00  0.00     0.180 A 
ATOM      2  C   UNL     1      39.664 -10.635   9.123  1.00  0.00     0.208 A 
ATOM      3  C   UNL     1      40.649 -10.635  10.123  1.00  0.00     0.238 A 
ATOM      4  O   UNL     1      40.804  -9.599  10.821  1.00  0.00    -0.285 OA
ATOM      5  C   UNL     1      41.414 -11.804  10.358  1.00  0.00     0.111 A 
ATOM      6  C   UNL     1      42.464 -11.905  11.319  1.00  0.00     0.134 A 
ATOM      7  C   UNL     1      43.065 -13.148  11.557  1.00  0.00     0.093 A 
ATOM      8  C   UNL     1      42.697 -14.278  10.823  1.00  0.00     0.123 A 
ATOM      9  C   UNL     1      41.713 -14.176   9.841  1.00  0.00     0.094 A 
ATOM     10  C   UNL     1      41.072 -12.958   9.606  1.00  0.00     0.146 A 
ATOM     11  O   UNL     1      40.132 -12.907   8.670  1.00  0.00    -0.452 OA
ENDROOT
BRANCH   1  12
ATOM     12  C   UNL     1      38.442 -11.877   7.293  1.00  0.00     0.025 A 
ATOM     13  C   UNL     1      38.653 -11.234   6.060  1.00  0.00     0.016 A 
ATOM     14  C   UNL     1      37.703 -11.333   5.040  1.00  0.00     0.051 A 
ATOM     15  C   UNL     1      36.537 -12.085   5.231  1.00  0.00     0.157 A 
ATOM     16  C   UNL     1      37.279 -12.646   7.472  1.00  0.00     0.062 A 
ATOM     17  C   UNL     1      36.326 -12.745   6.449  1.00  0.00     0.158 A 
BRANCH  15  18
ATOM     18  O   UNL     1      35.587 -12.184   4.217  1.00  0.00    -0.504 OA
ATOM     19  H   UNL     1      35.144 -11.362   3.823  1.00  0.00     0.293 HD
ENDBRANCH  15  18
BRANCH  17  20
ATOM     20  O   UNL     1      35.168 -13.499   6.633  1.00  0.00    -0.504 OA
ATOM     21  H   UNL     1      35.006 -14.356   6.118  1.00  0.00     0.293 HD
ENDBRANCH  17  20
ENDBRANCH   1  12
BRANCH   2  22
ATOM     22  O   UNL     1      38.884  -9.499   8.889  1.00  0.00    -0.502 OA
ATOM     23  H   UNL     1      38.868  -8.710   9.523  1.00  0.00     0.293 HD
ENDBRANCH   2  22
BRANCH   6  24
ATOM     24  O   UNL     1      42.970 -10.820  12.040  1.00  0.00    -0.507 OA
ATOM     25  H   UNL     1      42.621  -9.876  11.977  1.00  0.00     0.293 HD
ENDBRANCH   6  24
BRANCH   8  26
ATOM     26  O   UNL     1      43.311 -15.508  11.055  1.00  0.00    -0.508 OA
ATOM     27  H   UNL     1      43.849 -15.975  10.335  1.00  0.00     0.293 HD
ENDBRANCH   8  26
TORSDOF 6
ENDMDL
MODEL 3
REMARK VINA RESULT:    -7.435      6.615     10.063
REMARK INTER + INTRA:          -9.165
REMARK INTER:                  -8.886
REMARK INTRA:                  -0.279
REMARK UNBOUND:                -0.209
REMARK SMILES O=c1c(O)c(-c2ccc(O)c(O)c2)oc2cc(O)cc(O)c12
REMARK SMILES IDX 5 1 3 2 2 3 1 4 22 5 20 6 19 7 17 8 16 9 15 10 14 11 6 12
REMARK SMILES IDX 7 13 8 14 9 15 13 16 11 17 10 18 12 20 4 22 21 24 18 26
REMARK H PARENT 10 19 12 21 4 23 21 25 18 27
REMARK Flexibility Score: inf
ROOT
ATOM      1  C   UNL     1      33.505 -14.094   1.839  1.00  0.00     0.180 A 
ATOM      2  C   UNL     1      34.148 -14.914   2.782  1.00  0.00     0.208 A 
ATOM      3  C   UNL     1      35.238 -14.399   3.502  1.00  0.00     0.238 A 
ATOM      4  O   UNL     1      35.843 -15.155   4.306  1.00  0.00    -0.285 OA
ATOM      5  C   UNL     1      35.663 -13.066   3.281  1.00  0.00     0.111 A 
ATOM      6  C   UNL     1      36.730 -12.429   3.982  1.00  0.00     0.134 A 
ATOM      7  C   UNL     1      37.147 -11.151   3.590  1.00  0.00     0.093 A 
ATOM      8  C   UNL     1      36.494 -10.463   2.565  1.00  0.00     0.123 A 
ATOM      9  C   UNL     1      35.413 -11.053   1.915  1.00  0.00     0.094 A 
ATOM     10  C   UNL     1      34.996 -12.340   2.260  1.00  0.00     0.146 A 
ATOM     11  O   UNL     1      33.968 -12.871   1.607  1.00  0.00    -0.452 OA
ENDROOT
BRANCH   1  12
ATOM     12  C   UNL     1      32.334 -14.556   1.060  1.00  0.00     0.025 A 
ATOM     13  C   UNL     1      32.464 -14.981  -0.275  1.00  0.00     0.016 A 
ATOM     14  C   UNL     1      31.348 -15.436  -0.983  1.00  0.00     0.051 A 
ATOM     15  C   UNL     1      30.092 -15.487  -0.366  1.00  0.00     0.157 A 
ATOM     16  C   UNL     1      31.075 -14.629   1.680  1.00  0.00     0.062 A 
ATOM     17  C   UNL     1      29.956 -15.085   0.969  1.00  0.00     0.158 A 
BRANCH  15  18
ATOM     18  O   UNL     1      28.978 -15.937  -1.069  1.00  0.00    -0.504 OA
ATOM     19  H   UNL     1      28.182 -15.335  -1.247  1.00  0.00     0.293 HD
ENDBRANCH  15  18
BRANCH  17  20
ATOM     20  O   UNL     1      28.706 -15.143   1.584  1.00  0.00    -0.504 OA
ATOM     21  H   UNL     1      28.101 -15.949   1.478  1.00  0.00     0.293 HD
ENDBRANCH  17  20
ENDBRANCH   1  12
BRANCH   2  22
ATOM     22  O   UNL     1      33.727 -16.233   2.969  1.00  0.00    -0.502 OA
ATOM     23  H   UNL     1      34.368 -16.981   3.201  1.00  0.00     0.293 HD
ENDBRANCH   2  22
BRANCH   6  24
ATOM     24  O   UNL     1      37.389 -12.992   5.079  1.00  0.00    -0.507 OA
ATOM     25  H   UNL     1      37.258 -12.704   6.037  1.00  0.00     0.293 HD
ENDBRANCH   6  24
BRANCH   8  26
ATOM     26  O   UNL     1      36.906  -9.184   2.192  1.00  0.00    -0.508 OA
ATOM     27  H   UNL     1      36.547  -8.357   2.653  1.00  0.00     0.293 HD
ENDBRANCH   8  26
TORSDOF 6
ENDMDL
MODEL 4
REMARK VINA RESULT:    -7.420      1.586      7.128
REMARK INTER + INTRA:          -9.147
REMARK INTER:                  -8.829
REMARK INTRA:                  -0.318
REMARK UNBOUND:                -0.209
REMARK SMILES O=c1c(O)c(-c2ccc(O)c(O)c2)oc2cc(O)cc(O)c12
REMARK SMILES IDX 5 1 3 2 2 3 1 4 22 5 20 6 19 7 17 8 16 9 15 10 14 11 6 12
REMARK SMILES IDX 7 13 8 14 9 15 13 16 11 17 10 18 12 20 4 22 21 24 18 26
REMARK H PARENT 10 19 12 21 4 23 21 25 18 27
REMARK Flexibility Score: inf
ROOT
ATOM      1  C   UNL     1      39.665 -11.447   8.442  1.00  0.00     0.180 A 
ATOM      2  C   UNL     1      38.419 -11.975   8.821  1.00  0.00     0.208 A 
ATOM      3  C   UNL     1      37.406 -12.088   7.856  1.00  0.00     0.238 A 
ATOM      4  O   UNL     1      36.275 -12.511   8.213  1.00  0.00    -0.285 OA
ATOM      5  C   UNL     1      37.656 -11.688   6.521  1.00  0.00     0.111 A 
ATOM      6  C   UNL     1      36.715 -11.796   5.453  1.00  0.00     0.134 A 
ATOM      7  C   UNL     1      37.026 -11.249   4.201  1.00  0.00     0.093 A 
ATOM      8  C   UNL     1      38.267 -10.655   3.963  1.00  0.00     0.123 A 
ATOM      9  C   UNL     1      39.215 -10.598   4.983  1.00  0.00     0.094 A 
ATOM     10  C   UNL     1      38.921 -11.104   6.251  1.00  0.00     0.146 A 
ATOM     11  O   UNL     1      39.848 -11.019   7.198  1.00  0.00    -0.452 OA
ENDROOT
BRANCH   1  12
ATOM     12  C   UNL     1      40.790 -11.319   9.397  1.00  0.00     0.025 A 
ATOM     13  C   UNL     1      40.920 -10.192  10.228  1.00  0.00     0.016 A 
ATOM     14  C   UNL     1      41.977 -10.104  11.138  1.00  0.00     0.051 A 
ATOM     15  C   UNL     1      42.910 -11.144  11.241  1.00  0.00     0.157 A 
ATOM     16  C   UNL     1      41.717 -12.368   9.518  1.00  0.00     0.062 A 
ATOM     17  C   UNL     1      42.778 -12.279  10.431  1.00  0.00     0.158 A 
BRANCH  15  18
ATOM     18  O   UNL     1      43.966 -11.059  12.145  1.00  0.00    -0.504 OA
ATOM     19  H   UNL     1      44.735 -10.414  12.004  1.00  0.00     0.293 HD
ENDBRANCH  15  18
BRANCH  17  20
ATOM     20  O   UNL     1      43.704 -13.316  10.539  1.00  0.00    -0.504 OA
ATOM     21  H   UNL     1      43.580 -14.069  11.206  1.00  0.00     0.293 HD
ENDBRANCH  17  20
ENDBRANCH   1  12
BRANCH   2  22
ATOM     22  O   UNL     1      38.186 -12.344  10.149  1.00  0.00    -0.502 OA
ATOM     23  H   UNL     1      38.427 -11.745  10.929  1.00  0.00     0.293 HD
ENDBRANCH   2  22
BRANCH   6  24
ATOM     24  O   UNL     1      35.485 -12.451   5.559  1.00  0.00    -0.507 OA
ATOM     25  H   UNL     1      34.780 -12.240   6.249  1.00  0.00     0.293 HD
ENDBRANCH   6  24
BRANCH   8  26
ATOM     26  O   UNL     1      38.574 -10.127   2.710  1.00  0.00    -0.508 OA
ATOM     27  H   UNL     1      38.699 -10.723   1.901  1.00  0.00     0.293 HD
ENDBRANCH   8  26
TORSDOF 6
ENDMDL
MODEL 5
REMARK VINA RESULT:    -7.410      1.884      7.205
REMARK INTER + INTRA:          -9.135
REMARK INTER:                  -8.908
REMARK INTRA:                  -0.226
REMARK UNBOUND:                -0.209
REMARK SMILES O=c1c(O)c(-c2ccc(O)c(O)c2)oc2cc(O)cc(O)c12
REMARK SMILES IDX 5 1 3 2 2 3 1 4 22 5 20 6 19 7 17 8 16 9 15 10 14 11 6 12
REMARK SMILES IDX 7 13 8 14 9 15 13 16 11 17 10 18 12 20 4 22 21 24 18 26
REMARK H PARENT 10 19 12 21 4 23 21 25 18 27
REMARK Flexibility Score: inf
ROOT
ATOM      1  C   UNL     1      39.239 -11.476   8.047  1.00  0.00     0.180 A 
ATOM      2  C   UNL     1      38.009 -12.056   8.403  1.00  0.00     0.208 A 
ATOM      3  C   UNL     1      37.039 -12.260   7.409  1.00  0.00     0.238 A 
ATOM      4  O   UNL     1      35.920 -12.729   7.743  1.00  0.00    -0.285 OA
ATOM      5  C   UNL     1      37.316 -11.896   6.069  1.00  0.00     0.111 A 
ATOM      6  C   UNL     1      36.422 -12.094   4.974  1.00  0.00     0.134 A 
ATOM      7  C   UNL     1      36.749 -11.577   3.714  1.00  0.00     0.093 A 
ATOM      8  C   UNL     1      37.966 -10.927   3.495  1.00  0.00     0.123 A 
ATOM      9  C   UNL     1      38.871 -10.781   4.544  1.00  0.00     0.094 A 
ATOM     10  C   UNL     1      38.558 -11.255   5.820  1.00  0.00     0.146 A 
ATOM     11  O   UNL     1      39.444 -11.086   6.795  1.00  0.00    -0.452 OA
ENDROOT
BRANCH   1  12
ATOM     12  C   UNL     1      40.320 -11.253   9.034  1.00  0.00     0.025 A 
ATOM     13  C   UNL     1      41.508 -12.006   9.002  1.00  0.00     0.016 A 
ATOM     14  C   UNL     1      42.525 -11.761   9.929  1.00  0.00     0.051 A 
ATOM     15  C   UNL     1      42.376 -10.754  10.891  1.00  0.00     0.157 A 
ATOM     16  C   UNL     1      40.186 -10.231   9.989  1.00  0.00     0.062 A 
ATOM     17  C   UNL     1      41.205  -9.986  10.919  1.00  0.00     0.158 A 
BRANCH  15  18
ATOM     18  O   UNL     1      43.386 -10.509  11.818  1.00  0.00    -0.504 OA
ATOM     19  H   UNL     1      43.326  -9.743  12.479  1.00  0.00     0.293 HD
ENDBRANCH  15  18
BRANCH  17  20
ATOM     20  O   UNL     1      41.063  -8.979  11.873  1.00  0.00    -0.504 OA
ATOM     21  H   UNL     1      40.517  -9.121  12.715  1.00  0.00     0.293 HD
ENDBRANCH  17  20
ENDBRANCH   1  12
BRANCH   2  22
ATOM     22  O   UNL     1      37.747 -12.388   9.735  1.00  0.00    -0.502 OA
ATOM     23  H   UNL     1      37.314 -11.740  10.382  1.00  0.00     0.293 HD
ENDBRANCH   2  22
BRANCH   6  24
ATOM     24  O   UNL     1      35.225 -12.809   5.063  1.00  0.00    -0.507 OA
ATOM     25  H   UNL     1      34.451 -12.563   5.662  1.00  0.00     0.293 HD
ENDBRANCH   6  24
BRANCH   8  26
ATOM     26  O   UNL     1      38.290 -10.430   2.234  1.00  0.00    -0.508 OA
ATOM     27  H   UNL     1      38.895  -9.626   2.121  1.00  0.00     0.293 HD
ENDBRANCH   8  26
TORSDOF 6
ENDMDL
MODEL 6
REMARK VINA RESULT:    -7.301      6.520     10.179
REMARK INTER + INTRA:          -9.003
REMARK INTER:                  -8.773
REMARK INTRA:                  -0.230
REMARK UNBOUND:                -0.209
REMARK SMILES O=c1c(O)c(-c2ccc(O)c(O)c2)oc2cc(O)cc(O)c12
REMARK SMILES IDX 5 1 3 2 2 3 1 4 22 5 20 6 19 7 17 8 16 9 15 10 14 11 6 12
REMARK SMILES IDX 7 13 8 14 9 15 13 16 11 17 10 18 12 20 4 22 21 24 18 26
REMARK H PARENT 10 19 12 21 4 23 21 25 18 27
REMARK Flexibility Score: inf
ROOT
ATOM      1  C   UNL     1      32.610 -13.872   1.780  1.00  0.00     0.180 A 
ATOM      2  C   UNL     1      33.236 -12.784   1.147  1.00  0.00     0.208 A 
ATOM      3  C   UNL     1      34.469 -12.328   1.637  1.00  0.00     0.238 A 
ATOM      4  O   UNL     1      34.998 -11.320   1.100  1.00  0.00    -0.285 OA
ATOM      5  C   UNL     1      35.071 -12.975   2.743  1.00  0.00     0.111 A 
ATOM      6  C   UNL     1      36.338 -12.623   3.298  1.00  0.00     0.134 A 
ATOM      7  C   UNL     1      36.775 -13.247   4.473  1.00  0.00     0.093 A 
ATOM      8  C   UNL     1      36.019 -14.256   5.077  1.00  0.00     0.123 A 
ATOM      9  C   UNL     1      34.809 -14.648   4.509  1.00  0.00     0.094 A 
ATOM     10  C   UNL     1      34.330 -14.019   3.358  1.00  0.00     0.146 A 
ATOM     11  O   UNL     1      33.167 -14.415   2.856  1.00  0.00    -0.452 OA
ENDROOT
BRANCH   1  12
ATOM     12  C   UNL     1      31.321 -14.425   1.305  1.00  0.00     0.025 A 
ATOM     13  C   UNL     1      31.223 -15.105   0.078  1.00  0.00     0.016 A 
ATOM     14  C   UNL     1      30.000 -15.640  -0.338  1.00  0.00     0.051 A 
ATOM     15  C   UNL     1      28.863 -15.515   0.470  1.00  0.00     0.157 A 
ATOM     16  C   UNL     1      30.181 -14.320   2.121  1.00  0.00     0.062 A 
ATOM     17  C   UNL     1      28.955 -14.856   1.703  1.00  0.00     0.158 A 
BRANCH  15  18
ATOM     18  O   UNL     1      27.643 -16.044   0.058  1.00  0.00    -0.504 OA
ATOM     19  H   UNL     1      26.767 -15.739   0.466  1.00  0.00     0.293 HD
ENDBRANCH  15  18
BRANCH  17  20
ATOM     20  O   UNL     1      27.823 -14.739   2.509  1.00  0.00    -0.504 OA
ATOM     21  H   UNL     1      27.251 -15.544   2.739  1.00  0.00     0.293 HD
ENDBRANCH  17  20
ENDBRANCH   1  12
BRANCH   2  22
ATOM     22  O   UNL     1      32.614 -12.145   0.069  1.00  0.00    -0.502 OA
ATOM     23  H   UNL     1      31.666 -11.794   0.119  1.00  0.00     0.293 HD
ENDBRANCH   2  22
BRANCH   6  24
ATOM     24  O   UNL     1      37.211 -11.695   2.723  1.00  0.00    -0.507 OA
ATOM     25  H   UNL     1      37.958 -11.229   3.214  1.00  0.00     0.293 HD
ENDBRANCH   6  24
BRANCH   8  26
ATOM     26  O   UNL     1      36.469 -14.882   6.237  1.00  0.00    -0.508 OA
ATOM     27  H   UNL     1      37.394 -14.706   6.610  1.00  0.00     0.293 HD
ENDBRANCH   8  26
TORSDOF 6
ENDMDL
MODEL 7
REMARK VINA RESULT:    -7.285      6.444     12.334
REMARK INTER + INTRA:          -8.985
REMARK INTER:                  -8.798
REMARK INTRA:                  -0.186
REMARK UNBOUND:                -0.209
REMARK SMILES O=c1c(O)c(-c2ccc(O)c(O)c2)oc2cc(O)cc(O)c12
REMARK SMILES IDX 5 1 3 2 2 3 1 4 22 5 20 6 19 7 17 8 16 9 15 10 14 11 6 12
REMARK SMILES IDX 7 13 8 14 9 15 13 16 11 17 10 18 12 20 4 22 21 24 18 26
REMARK H PARENT 10 19 12 21 4 23 21 25 18 27
REMARK Flexibility Score: inf
ROOT
ATOM      1  C   UNL     1      33.091 -14.281   2.223  1.00  0.00     0.180 A 
ATOM      2  C   UNL     1      33.226 -14.824   0.934  1.00  0.00     0.208 A 
ATOM      3  C   UNL     1      32.074 -15.229   0.242  1.00  0.00     0.238 A 
ATOM      4  O   UNL     1      32.205 -15.764  -0.890  1.00  0.00    -0.285 OA
ATOM      5  C   UNL     1      30.800 -15.071   0.840  1.00  0.00     0.111 A 
ATOM      6  C   UNL     1      29.563 -15.410   0.214  1.00  0.00     0.134 A 
ATOM      7  C   UNL     1      28.373 -15.333   0.949  1.00  0.00     0.093 A 
ATOM      8  C   UNL     1      28.369 -14.868   2.266  1.00  0.00     0.123 A 
ATOM      9  C   UNL     1      29.565 -14.478   2.866  1.00  0.00     0.094 A 
ATOM     10  C   UNL     1      30.772 -14.578   2.171  1.00  0.00     0.146 A 
ATOM     11  O   UNL     1      31.890 -14.207   2.783  1.00  0.00    -0.452 OA
ENDROOT
BRANCH   1  12
ATOM     12  C   UNL     1      34.257 -13.809   3.006  1.00  0.00     0.025 A 
ATOM     13  C   UNL     1      35.041 -12.726   2.569  1.00  0.00     0.016 A 
ATOM     14  C   UNL     1      36.122 -12.282   3.336  1.00  0.00     0.051 A 
ATOM     15  C   UNL     1      36.426 -12.903   4.554  1.00  0.00     0.157 A 
ATOM     16  C   UNL     1      34.554 -14.414   4.238  1.00  0.00     0.062 A 
ATOM     17  C   UNL     1      35.639 -13.970   5.007  1.00  0.00     0.158 A 
BRANCH  15  18
ATOM     18  O   UNL     1      37.504 -12.465   5.320  1.00  0.00    -0.504 OA
ATOM     19  H   UNL     1      37.947 -11.569   5.149  1.00  0.00     0.293 HD
ENDBRANCH  15  18
BRANCH  17  20
ATOM     20  O   UNL     1      35.940 -14.581   6.223  1.00  0.00    -0.504 OA
ATOM     21  H   UNL     1      36.273 -14.047   7.017  1.00  0.00     0.293 HD
ENDBRANCH  17  20
ENDBRANCH   1  12
BRANCH   2  22
ATOM     22  O   UNL     1      34.494 -14.991   0.371  1.00  0.00    -0.502 OA
ATOM     23  H   UNL     1      34.870 -15.902   0.138  1.00  0.00     0.293 HD
ENDBRANCH   2  22
BRANCH   6  24
ATOM     24  O   UNL     1      29.446 -15.797  -1.124  1.00  0.00    -0.507 OA
ATOM     25  H   UNL     1      28.575 -16.008  -1.587  1.00  0.00     0.293 HD
ENDBRANCH   6  24
BRANCH   8  26
ATOM     26  O   UNL     1      27.179 -14.779   2.985  1.00  0.00    -0.508 OA
ATOM     27  H   UNL     1      27.136 -15.014   3.969  1.00  0.00     0.293 HD
ENDBRANCH   8  26
TORSDOF 6
ENDMDL
MODEL 8
REMARK VINA RESULT:    -7.135      1.531      6.941
REMARK INTER + INTRA:          -8.804
REMARK INTER:                  -8.501
REMARK INTRA:                  -0.302
REMARK UNBOUND:                -0.209
REMARK SMILES O=c1c(O)c(-c2ccc(O)c(O)c2)oc2cc(O)cc(O)c12
REMARK SMILES IDX 5 1 3 2 2 3 1 4 22 5 20 6 19 7 17 8 16 9 15 10 14 11 6 12
REMARK SMILES IDX 7 13 8 14 9 15 13 16 11 17 10 18 12 20 4 22 21 24 18 26
REMARK H PARENT 10 19 12 21 4 23 21 25 18 27
REMARK Flexibility Score: inf
ROOT
ATOM      1  C   UNL     1      40.426 -11.326   8.121  1.00  0.00     0.180 A 
ATOM      2  C   UNL     1      40.735 -10.591   6.963  1.00  0.00     0.208 A 
ATOM      3  C   UNL     1      39.795 -10.533   5.923  1.00  0.00     0.238 A 
ATOM      4  O   UNL     1      40.098  -9.919   4.867  1.00  0.00    -0.285 OA
ATOM      5  C   UNL     1      38.551 -11.196   6.059  1.00  0.00     0.111 A 
ATOM      6  C   UNL     1      37.508 -11.171   5.085  1.00  0.00     0.134 A 
ATOM      7  C   UNL     1      36.372 -11.970   5.268  1.00  0.00     0.093 A 
ATOM      8  C   UNL     1      36.213 -12.742   6.421  1.00  0.00     0.123 A 
ATOM      9  C   UNL     1      37.199 -12.727   7.406  1.00  0.00     0.094 A 
ATOM     10  C   UNL     1      38.359 -11.968   7.234  1.00  0.00     0.146 A 
ATOM     11  O   UNL     1      39.279 -11.991   8.192  1.00  0.00    -0.452 OA
ENDROOT
BRANCH   1  12
ATOM     12  C   UNL     1      41.356 -11.413   9.271  1.00  0.00     0.025 A 
ATOM     13  C   UNL     1      41.480 -10.359  10.193  1.00  0.00     0.016 A 
ATOM     14  C   UNL     1      42.347 -10.473  11.284  1.00  0.00     0.051 A 
ATOM     15  C   UNL     1      43.089 -11.645  11.477  1.00  0.00     0.157 A 
ATOM     16  C   UNL     1      42.088 -12.594   9.481  1.00  0.00     0.062 A 
ATOM     17  C   UNL     1      42.957 -12.709  10.574  1.00  0.00     0.158 A 
BRANCH  15  18
ATOM     18  O   UNL     1      43.955 -11.762  12.561  1.00  0.00    -0.504 OA
ATOM     19  H   UNL     1      44.756 -11.151  12.669  1.00  0.00     0.293 HD
ENDBRANCH  15  18
BRANCH  17  20
ATOM     20  O   UNL     1      43.692 -13.877  10.772  1.00  0.00    -0.504 OA
ATOM     21  H   UNL     1      44.381 -14.189  10.099  1.00  0.00     0.293 HD
ENDBRANCH  17  20
ENDBRANCH   1  12
BRANCH   2  22
ATOM     22  O   UNL     1      41.977  -9.963   6.840  1.00  0.00    -0.502 OA
ATOM     23  H   UNL     1      42.769 -10.205   7.423  1.00  0.00     0.293 HD
ENDBRANCH   2  22
BRANCH   6  24
ATOM     24  O   UNL     1      37.526 -10.364   3.943  1.00  0.00    -0.507 OA
ATOM     25  H   UNL     1      37.853 -10.659   3.036  1.00  0.00     0.293 HD
ENDBRANCH   6  24
BRANCH   8  26
ATOM     26  O   UNL     1      35.072 -13.522   6.603  1.00  0.00    -0.508 OA
ATOM     27  H   UNL     1      35.047 -14.272   7.282  1.00  0.00     0.293 HD
ENDBRANCH   8  26
TORSDOF 6
ENDMDL
MODEL 9
REMARK VINA RESULT:    -7.055      1.458      2.139
REMARK INTER + INTRA:          -8.708
REMARK INTER:                  -8.384
REMARK INTRA:                  -0.323
REMARK UNBOUND:                -0.209
REMARK SMILES O=c1c(O)c(-c2ccc(O)c(O)c2)oc2cc(O)cc(O)c12
REMARK SMILES IDX 5 1 3 2 2 3 1 4 22 5 20 6 19 7 17 8 16 9 15 10 14 11 6 12
REMARK SMILES IDX 7 13 8 14 9 15 13 16 11 17 10 18 12 20 4 22 21 24 18 26
REMARK H PARENT 10 19 12 21 4 23 21 25 18 27
REMARK Flexibility Score: inf
ROOT
ATOM      1  C   UNL     1      38.137 -12.353   7.564  1.00  0.00     0.180 A 
ATOM      2  C   UNL     1      38.309 -10.989   7.854  1.00  0.00     0.208 A 
ATOM      3  C   UNL     1      39.372 -10.598   8.684  1.00  0.00     0.238 A 
ATOM      4  O   UNL     1      39.490  -9.381   8.984  1.00  0.00    -0.285 OA
ATOM      5  C   UNL     1      40.259 -11.574   9.200  1.00  0.00     0.111 A 
ATOM      6  C   UNL     1      41.393 -11.287  10.018  1.00  0.00     0.134 A 
ATOM      7  C   UNL     1      42.125 -12.342  10.578  1.00  0.00     0.093 A 
ATOM      8  C   UNL     1      41.801 -13.671  10.299  1.00  0.00     0.123 A 
ATOM      9  C   UNL     1      40.732 -13.961   9.454  1.00  0.00     0.094 A 
ATOM     10  C   UNL     1      39.962 -12.931   8.908  1.00  0.00     0.146 A 
ATOM     11  O   UNL     1      38.945 -13.250   8.116  1.00  0.00    -0.452 OA
ENDROOT
BRANCH   1  12
ATOM     12  C   UNL     1      37.055 -12.840   6.678  1.00  0.00     0.025 A 
ATOM     13  C   UNL     1      35.782 -13.160   7.184  1.00  0.00     0.016 A 
ATOM     14  C   UNL     1      34.770 -13.596   6.324  1.00  0.00     0.051 A 
ATOM     15  C   UNL     1      35.008 -13.703   4.948  1.00  0.00     0.157 A 
ATOM     16  C   UNL     1      37.282 -12.931   5.294  1.00  0.00     0.062 A 
ATOM     17  C   UNL     1      36.267 -13.368   4.432  1.00  0.00     0.158 A 
BRANCH  15  18
ATOM     18  O   UNL     1      34.002 -14.139   4.089  1.00  0.00    -0.504 OA
ATOM     19  H   UNL     1      33.940 -15.105   3.791  1.00  0.00     0.293 HD
ENDBRANCH  15  18
BRANCH  17  20
ATOM     20  O   UNL     1      36.499 -13.469   3.061  1.00  0.00    -0.504 OA
ATOM     21  H   UNL     1      36.281 -14.315   2.548  1.00  0.00     0.293 HD
ENDBRANCH  17  20
ENDBRANCH   1  12
BRANCH   2  22
ATOM     22  O   UNL     1      37.410 -10.044   7.352  1.00  0.00    -0.502 OA
ATOM     23  H   UNL     1      37.110 -10.040   6.385  1.00  0.00     0.293 HD
ENDBRANCH   2  22
BRANCH   6  24
ATOM     24  O   UNL     1      41.856  -9.995  10.284  1.00  0.00    -0.507 OA
ATOM     25  H   UNL     1      41.452  -9.151   9.909  1.00  0.00     0.293 HD
ENDBRANCH   6  24
BRANCH   8  26
ATOM     26  O   UNL     1      42.544 -14.714  10.848  1.00  0.00    -0.508 OA
ATOM     27  H   UNL     1      42.745 -15.556  10.322  1.00  0.00     0.293 HD
ENDBRANCH   8  26
TORSDOF 6
ENDMDL
