MODEL 1
REMARK VINA RESULT:    -4.436      0.000      0.000
REMARK INTER + INTRA:         -15.863
REMARK INTER:                 -11.698
REMARK INTRA:                  -4.165
REMARK UNBOUND:                -4.165
REMARK SMILES CCCCCCCCCCCCCCCCCCCCCCCCCCCCCC(=O)[O-]
REMARK SMILES IDX 16 1 17 2 18 3 19 4 20 5 21 6 22 7 23 8 24 9 25 10 26 11
REMARK SMILES IDX 27 12 28 13 29 14 30 15 31 16 32 17 15 18 14 19 13 20 12 21
REMARK SMILES IDX 11 22 10 23 9 24 8 25 7 26 6 27 5 28 4 29 3 30 2 31 1 32
REMARK H PARENT
REMARK Flexibility Score: inf
ROOT
ATOM      1  C   UNL     1      21.837  -5.025  -2.786  1.00  0.00     0.000 C 
ENDROOT
BRANCH   1   2
ATOM      2  C   UNL     1      21.655  -6.371  -3.510  1.00  0.00     0.000 C 
BRANCH   2   3
ATOM      3  C   UNL     1      22.591  -6.567  -4.721  1.00  0.00     0.000 C 
BRANCH   3   4
ATOM      4  C   UNL     1      21.829  -6.621  -6.058  1.00  0.00     0.000 C 
BRANCH   4   5
ATOM      5  C   UNL     1      20.359  -6.181  -5.931  1.00  0.00     0.000 C 
BRANCH   5   6
ATOM      6  C   UNL     1      20.080  -4.717  -6.316  1.00  0.00     0.000 C 
BRANCH   6   7
ATOM      7  C   UNL     1      19.263  -3.960  -5.259  1.00  0.00     0.000 C 
BRANCH   7   8
ATOM      8  C   UNL     1      17.842  -4.529  -5.156  1.00  0.00     0.000 C 
BRANCH   8   9
ATOM      9  C   UNL     1      17.541  -5.013  -3.729  1.00  0.00     0.000 C 
BRANCH   9  10
ATOM     10  C   UNL     1      16.719  -3.988  -2.917  1.00  0.00     0.000 C 
BRANCH  10  11
ATOM     11  C   UNL     1      17.093  -3.931  -1.423  1.00  0.00     0.000 C 
BRANCH  11  12
ATOM     12  C   UNL     1      18.592  -3.720  -1.131  1.00  0.00     0.000 C 
BRANCH  12  13
ATOM     13  C   UNL     1      19.184  -2.399  -1.667  1.00  0.00     0.006 C 
BRANCH  13  14
ATOM     14  C   UNL     1      19.354  -1.301  -0.605  1.00  0.00     0.053 C 
BRANCH  14  15
ATOM     15  C   UNL     1      20.349  -0.262  -1.023  1.00  0.00     0.041 C 
ATOM     16  O   UNL     1      21.538  -0.320  -0.610  1.00  0.00    -0.550 OA
ATOM     17  O   UNL     1      19.953   0.793  -1.838  1.00  0.00    -0.550 OA
ENDBRANCH  14  15
ENDBRANCH  13  14
ENDBRANCH  12  13
ENDBRANCH  11  12
ENDBRANCH  10  11
ENDBRANCH   9  10
ENDBRANCH   8   9
ENDBRANCH   7   8
ENDBRANCH   6   7
ENDBRANCH   5   6
ENDBRANCH   4   5
ENDBRANCH   3   4
ENDBRANCH   2   3
ENDBRANCH   1   2
BRANCH   1  18
ATOM     18  C   UNL     1      22.232  -5.189  -1.309  1.00  0.00     0.000 C 
BRANCH  18  19
ATOM     19  C   UNL     1      22.502  -3.847  -0.601  1.00  0.00     0.000 C 
BRANCH  19  20
ATOM     20  C   UNL     1      22.052  -3.773   0.873  1.00  0.00     0.000 C 
BRANCH  20  21
ATOM     21  C   UNL     1      21.210  -4.965   1.366  1.00  0.00     0.000 C 
BRANCH  21  22
ATOM     22  C   UNL     1      21.468  -5.303   2.841  1.00  0.00     0.000 C 
BRANCH  22  23
ATOM     23  C   UNL     1      21.412  -6.821   3.072  1.00  0.00     0.000 C 
BRANCH  23  24
ATOM     24  C   UNL     1      21.935  -7.628   1.871  1.00  0.00    -0.000 C 
BRANCH  24  25
ATOM     25  C   UNL     1      22.981  -8.703   2.219  1.00  0.00    -0.000 C 
BRANCH  25  26
ATOM     26  C   UNL     1      24.417  -8.337   1.784  1.00  0.00    -0.000 C 
BRANCH  26  27
ATOM     27  C   UNL     1      24.446  -7.165   0.791  1.00  0.00    -0.000 C 
BRANCH  27  28
ATOM     28  C   UNL     1      25.395  -7.414  -0.395  1.00  0.00    -0.000 C 
BRANCH  28  29
ATOM     29  C   UNL     1      26.573  -8.351  -0.050  1.00  0.00    -0.000 C 
BRANCH  29  30
ATOM     30  C   UNL     1      27.168  -9.022  -1.299  1.00  0.00    -0.000 C 
BRANCH  30  31
ATOM     31  C   UNL     1      28.389  -8.246  -1.811  1.00  0.00    -0.003 C 
ATOM     32  C   UNL     1      28.028  -7.384  -3.021  1.00  0.00     0.004 C 
ENDBRANCH  30  31
ENDBRANCH  29  30
ENDBRANCH  28  29
ENDBRANCH  27  28
ENDBRANCH  26  27
ENDBRANCH  25  26
ENDBRANCH  24  25
ENDBRANCH  23  24
ENDBRANCH  22  23
ENDBRANCH  21  22
ENDBRANCH  20  21
ENDBRANCH  19  20
ENDBRANCH  18  19
ENDBRANCH   1  18
TORSDOF 28
ENDMDL
MODEL 2
REMARK VINA RESULT:    -4.358      9.851     13.328
REMARK INTER + INTRA:         -15.658
REMARK INTER:                 -11.613
REMARK INTRA:                  -4.045
REMARK UNBOUND:                -4.165
REMARK SMILES CCCCCCCCCCCCCCCCCCCCCCCCCCCCCC(=O)[O-]
REMARK SMILES IDX 16 1 17 2 18 3 19 4 20 5 21 6 22 7 23 8 24 9 25 10 26 11
REMARK SMILES IDX 27 12 28 13 29 14 30 15 31 16 32 17 15 18 14 19 13 20 12 21
REMARK SMILES IDX 11 22 10 23 9 24 8 25 7 26 6 27 5 28 4 29 3 30 2 31 1 32
REMARK H PARENT
REMARK Flexibility Score: inf
ROOT
ATOM      1  C   UNL     1      23.416   4.581   3.239  1.00  0.00     0.000 C 
ENDROOT
BRANCH   1   2
ATOM      2  C   UNL     1      23.248   5.660   4.323  1.00  0.00     0.000 C 
BRANCH   2   3
ATOM      3  C   UNL     1      23.433   5.141   5.764  1.00  0.00     0.000 C 
BRANCH   3   4
ATOM      4  C   UNL     1      23.433   6.274   6.808  1.00  0.00     0.000 C 
BRANCH   4   5
ATOM      5  C   UNL     1      22.088   6.413   7.545  1.00  0.00     0.000 C 
BRANCH   5   6
ATOM      6  C   UNL     1      21.062   7.336   6.863  1.00  0.00     0.000 C 
BRANCH   6   7
ATOM      7  C   UNL     1      19.609   6.896   7.092  1.00  0.00     0.000 C 
BRANCH   7   8
ATOM      8  C   UNL     1      18.749   8.075   7.567  1.00  0.00     0.000 C 
BRANCH   8   9
ATOM      9  C   UNL     1      17.285   7.903   7.131  1.00  0.00     0.000 C 
BRANCH   9  10
ATOM     10  C   UNL     1      16.736   9.148   6.400  1.00  0.00     0.000 C 
BRANCH  10  11
ATOM     11  C   UNL     1      16.669   8.993   4.869  1.00  0.00     0.000 C 
BRANCH  11  12
ATOM     12  C   UNL     1      17.986   9.284   4.122  1.00  0.00     0.000 C 
BRANCH  12  13
ATOM     13  C   UNL     1      18.743   8.037   3.619  1.00  0.00     0.006 C 
BRANCH  13  14
ATOM     14  C   UNL     1      17.837   6.876   3.180  1.00  0.00     0.053 C 
BRANCH  14  15
ATOM     15  C   UNL     1      17.756   6.757   1.689  1.00  0.00     0.041 C 
ATOM     16  O   UNL     1      17.789   7.789   0.967  1.00  0.00    -0.550 OA
ATOM     17  O   UNL     1      17.605   5.507   1.098  1.00  0.00    -0.550 OA
ENDBRANCH  14  15
ENDBRANCH  13  14
ENDBRANCH  12  13
ENDBRANCH  11  12
ENDBRANCH  10  11
ENDBRANCH   9  10
ENDBRANCH   8   9
ENDBRANCH   7   8
ENDBRANCH   6   7
ENDBRANCH   5   6
ENDBRANCH   4   5
ENDBRANCH   3   4
ENDBRANCH   2   3
ENDBRANCH   1   2
BRANCH   1  18
ATOM     18  C   UNL     1      24.144   5.099   1.988  1.00  0.00     0.000 C 
BRANCH  18  19
ATOM     19  C   UNL     1      24.571   3.974   1.025  1.00  0.00     0.000 C 
BRANCH  19  20
ATOM     20  C   UNL     1      23.774   2.658   1.146  1.00  0.00     0.000 C 
BRANCH  20  21
ATOM     21  C   UNL     1      24.613   1.408   1.470  1.00  0.00     0.000 C 
BRANCH  21  22
ATOM     22  C   UNL     1      25.964   1.751   2.114  1.00  0.00     0.000 C 
BRANCH  22  23
ATOM     23  C   UNL     1      25.887   1.632   3.644  1.00  0.00     0.000 C 
BRANCH  23  24
ATOM     24  C   UNL     1      26.573   2.804   4.368  1.00  0.00    -0.000 C 
BRANCH  24  25
ATOM     25  C   UNL     1      27.226   3.846   3.441  1.00  0.00    -0.000 C 
BRANCH  25  26
ATOM     26  C   UNL     1      27.224   5.279   4.017  1.00  0.00    -0.000 C 
BRANCH  26  27
ATOM     27  C   UNL     1      28.052   5.391   5.306  1.00  0.00    -0.000 C 
BRANCH  27  28
ATOM     28  C   UNL     1      29.495   5.858   5.046  1.00  0.00    -0.000 C 
BRANCH  28  29
ATOM     29  C   UNL     1      30.556   4.784   5.373  1.00  0.00    -0.000 C 
BRANCH  29  30
ATOM     30  C   UNL     1      30.765   3.800   4.210  1.00  0.00    -0.000 C 
BRANCH  30  31
ATOM     31  C   UNL     1      31.323   4.519   2.975  1.00  0.00    -0.003 C 
ATOM     32  C   UNL     1      30.457   4.256   1.744  1.00  0.00     0.004 C 
ENDBRANCH  30  31
ENDBRANCH  29  30
ENDBRANCH  28  29
ENDBRANCH  27  28
ENDBRANCH  26  27
ENDBRANCH  25  26
ENDBRANCH  24  25
ENDBRANCH  23  24
ENDBRANCH  22  23
ENDBRANCH  21  22
ENDBRANCH  20  21
ENDBRANCH  19  20
ENDBRANCH  18  19
ENDBRANCH   1  18
TORSDOF 28
ENDMDL
MODEL 3
REMARK VINA RESULT:    -4.342      2.524      8.266
REMARK INTER + INTRA:         -15.614
REMARK INTER:                 -10.413
REMARK INTRA:                  -5.201
REMARK UNBOUND:                -4.165
REMARK SMILES CCCCCCCCCCCCCCCCCCCCCCCCCCCCCC(=O)[O-]
REMARK SMILES IDX 16 1 17 2 18 3 19 4 20 5 21 6 22 7 23 8 24 9 25 10 26 11
REMARK SMILES IDX 27 12 28 13 29 14 30 15 31 16 32 17 15 18 14 19 13 20 12 21
REMARK SMILES IDX 11 22 10 23 9 24 8 25 7 26 6 27 5 28 4 29 3 30 2 31 1 32
REMARK H PARENT
REMARK Flexibility Score: inf
ROOT
ATOM      1  C   UNL     1      21.585  -2.848  -0.938  1.00  0.00     0.000 C 
ENDROOT
BRANCH   1   2
ATOM      2  C   UNL     1      20.480  -3.030   0.116  1.00  0.00     0.000 C 
BRANCH   2   3
ATOM      3  C   UNL     1      20.713  -4.214   1.077  1.00  0.00     0.000 C 
BRANCH   3   4
ATOM      4  C   UNL     1      21.426  -3.794   2.376  1.00  0.00     0.000 C 
BRANCH   4   5
ATOM      5  C   UNL     1      21.338  -4.861   3.483  1.00  0.00     0.000 C 
BRANCH   5   6
ATOM      6  C   UNL     1      20.705  -6.196   3.054  1.00  0.00     0.000 C 
BRANCH   6   7
ATOM      7  C   UNL     1      20.975  -7.338   4.045  1.00  0.00     0.000 C 
BRANCH   7   8
ATOM      8  C   UNL     1      20.784  -8.703   3.371  1.00  0.00     0.000 C 
BRANCH   8   9
ATOM      9  C   UNL     1      21.350  -8.699   1.941  1.00  0.00     0.000 C 
BRANCH   9  10
ATOM     10  C   UNL     1      22.844  -9.085   1.895  1.00  0.00     0.000 C 
BRANCH  10  11
ATOM     11  C   UNL     1      23.748  -8.005   1.271  1.00  0.00     0.000 C 
BRANCH  11  12
ATOM     12  C   UNL     1      23.045  -7.050   0.286  1.00  0.00     0.000 C 
BRANCH  12  13
ATOM     13  C   UNL     1      23.764  -5.705   0.052  1.00  0.00     0.006 C 
BRANCH  13  14
ATOM     14  C   UNL     1      24.992  -5.475   0.947  1.00  0.00     0.053 C 
BRANCH  14  15
ATOM     15  C   UNL     1      24.961  -4.133   1.612  1.00  0.00     0.041 C 
ATOM     16  O   UNL     1      24.984  -3.081   0.920  1.00  0.00    -0.550 OA
ATOM     17  O   UNL     1      24.947  -4.045   3.000  1.00  0.00    -0.550 OA
ENDBRANCH  14  15
ENDBRANCH  13  14
ENDBRANCH  12  13
ENDBRANCH  11  12
ENDBRANCH  10  11
ENDBRANCH   9  10
ENDBRANCH   8   9
ENDBRANCH   7   8
ENDBRANCH   6   7
ENDBRANCH   5   6
ENDBRANCH   4   5
ENDBRANCH   3   4
ENDBRANCH   2   3
ENDBRANCH   1   2
BRANCH   1  18
ATOM     18  C   UNL     1      21.147  -3.284  -2.346  1.00  0.00     0.000 C 
BRANCH  18  19
ATOM     19  C   UNL     1      21.177  -4.812  -2.545  1.00  0.00     0.000 C 
BRANCH  19  20
ATOM     20  C   UNL     1      21.789  -5.296  -3.876  1.00  0.00     0.000 C 
BRANCH  20  21
ATOM     21  C   UNL     1      22.117  -6.799  -3.942  1.00  0.00     0.000 C 
BRANCH  21  22
ATOM     22  C   UNL     1      22.225  -7.320  -5.383  1.00  0.00     0.000 C 
BRANCH  22  23
ATOM     23  C   UNL     1      21.677  -6.287  -6.380  1.00  0.00     0.000 C 
BRANCH  23  24
ATOM     24  C   UNL     1      20.620  -6.877  -7.330  1.00  0.00    -0.000 C 
BRANCH  24  25
ATOM     25  C   UNL     1      19.165  -6.504  -6.990  1.00  0.00    -0.000 C 
BRANCH  25  26
ATOM     26  C   UNL     1      18.582  -7.298  -5.800  1.00  0.00    -0.000 C 
BRANCH  26  27
ATOM     27  C   UNL     1      18.120  -6.381  -4.656  1.00  0.00    -0.000 C 
BRANCH  27  28
ATOM     28  C   UNL     1      18.355  -4.890  -4.959  1.00  0.00    -0.000 C 
BRANCH  28  29
ATOM     29  C   UNL     1      17.696  -3.945  -3.930  1.00  0.00    -0.000 C 
BRANCH  29  30
ATOM     30  C   UNL     1      17.097  -4.709  -2.738  1.00  0.00    -0.000 C 
BRANCH  30  31
ATOM     31  C   UNL     1      17.249  -3.907  -1.439  1.00  0.00    -0.003 C 
ATOM     32  C   UNL     1      17.492  -2.426  -1.730  1.00  0.00     0.004 C 
ENDBRANCH  30  31
ENDBRANCH  29  30
ENDBRANCH  28  29
ENDBRANCH  27  28
ENDBRANCH  26  27
ENDBRANCH  25  26
ENDBRANCH  24  25
ENDBRANCH  23  24
ENDBRANCH  22  23
ENDBRANCH  21  22
ENDBRANCH  20  21
ENDBRANCH  19  20
ENDBRANCH  18  19
ENDBRANCH   1  18
TORSDOF 28
ENDMDL
MODEL 4
REMARK VINA RESULT:    -4.318     10.702     13.898
REMARK INTER + INTRA:         -15.552
REMARK INTER:                 -11.451
REMARK INTRA:                  -4.100
REMARK UNBOUND:                -4.165
REMARK SMILES CCCCCCCCCCCCCCCCCCCCCCCCCCCCCC(=O)[O-]
REMARK SMILES IDX 16 1 17 2 18 3 19 4 20 5 21 6 22 7 23 8 24 9 25 10 26 11
REMARK SMILES IDX 27 12 28 13 29 14 30 15 31 16 32 17 15 18 14 19 13 20 12 21
REMARK SMILES IDX 11 22 10 23 9 24 8 25 7 26 6 27 5 28 4 29 3 30 2 31 1 32
REMARK H PARENT
REMARK Flexibility Score: inf
ROOT
ATOM      1  C   UNL     1      23.732   4.416   3.326  1.00  0.00     0.000 C 
ENDROOT
BRANCH   1   2
ATOM      2  C   UNL     1      23.499   5.494   4.400  1.00  0.00     0.000 C 
BRANCH   2   3
ATOM      3  C   UNL     1      23.993   5.100   5.807  1.00  0.00     0.000 C 
BRANCH   3   4
ATOM      4  C   UNL     1      23.043   5.572   6.924  1.00  0.00     0.000 C 
BRANCH   4   5
ATOM      5  C   UNL     1      21.992   6.584   6.431  1.00  0.00     0.000 C 
BRANCH   5   6
ATOM      6  C   UNL     1      21.431   7.522   7.514  1.00  0.00     0.000 C 
BRANCH   6   7
ATOM      7  C   UNL     1      19.988   7.969   7.236  1.00  0.00     0.000 C 
BRANCH   7   8
ATOM      8  C   UNL     1      19.031   6.770   7.258  1.00  0.00     0.000 C 
BRANCH   8   9
ATOM      9  C   UNL     1      17.565   7.231   7.237  1.00  0.00     0.000 C 
BRANCH   9  10
ATOM     10  C   UNL     1      17.398   8.695   7.700  1.00  0.00     0.000 C 
BRANCH  10  11
ATOM     11  C   UNL     1      16.807   9.625   6.622  1.00  0.00     0.000 C 
BRANCH  11  12
ATOM     12  C   UNL     1      16.363   8.925   5.323  1.00  0.00     0.000 C 
BRANCH  12  13
ATOM     13  C   UNL     1      17.111   9.373   4.049  1.00  0.00     0.006 C 
BRANCH  13  14
ATOM     14  C   UNL     1      18.487   8.717   3.854  1.00  0.00     0.053 C 
BRANCH  14  15
ATOM     15  C   UNL     1      18.401   7.456   3.051  1.00  0.00     0.041 C 
ATOM     16  O   UNL     1      18.174   7.506   1.813  1.00  0.00    -0.550 OA
ATOM     17  O   UNL     1      18.532   6.221   3.678  1.00  0.00    -0.550 OA
ENDBRANCH  14  15
ENDBRANCH  13  14
ENDBRANCH  12  13
ENDBRANCH  11  12
ENDBRANCH  10  11
ENDBRANCH   9  10
ENDBRANCH   8   9
ENDBRANCH   7   8
ENDBRANCH   6   7
ENDBRANCH   5   6
ENDBRANCH   4   5
ENDBRANCH   3   4
ENDBRANCH   2   3
ENDBRANCH   1   2
BRANCH   1  18
ATOM     18  C   UNL     1      24.302   4.989   2.018  1.00  0.00     0.000 C 
BRANCH  18  19
ATOM     19  C   UNL     1      25.138   3.968   1.222  1.00  0.00     0.000 C 
BRANCH  19  20
ATOM     20  C   UNL     1      25.653   2.758   2.030  1.00  0.00     0.000 C 
BRANCH  20  21
ATOM     21  C   UNL     1      27.124   2.842   2.478  1.00  0.00     0.000 C 
BRANCH  21  22
ATOM     22  C   UNL     1      27.278   3.371   3.911  1.00  0.00     0.000 C 
BRANCH  22  23
ATOM     23  C   UNL     1      27.478   4.895   3.913  1.00  0.00     0.000 C 
BRANCH  23  24
ATOM     24  C   UNL     1      27.622   5.475   5.331  1.00  0.00    -0.000 C 
BRANCH  24  25
ATOM     25  C   UNL     1      28.970   6.164   5.615  1.00  0.00    -0.000 C 
BRANCH  25  26
ATOM     26  C   UNL     1      29.735   5.562   6.815  1.00  0.00    -0.000 C 
BRANCH  26  27
ATOM     27  C   UNL     1      31.037   4.867   6.389  1.00  0.00    -0.000 C 
BRANCH  27  28
ATOM     28  C   UNL     1      30.826   3.390   6.013  1.00  0.00    -0.000 C 
BRANCH  28  29
ATOM     29  C   UNL     1      30.794   3.145   4.488  1.00  0.00    -0.000 C 
BRANCH  29  30
ATOM     30  C   UNL     1      31.743   4.084   3.727  1.00  0.00    -0.000 C 
BRANCH  30  31
ATOM     31  C   UNL     1      30.969   4.963   2.736  1.00  0.00    -0.003 C 
ATOM     32  C   UNL     1      30.414   4.134   1.579  1.00  0.00     0.004 C 
ENDBRANCH  30  31
ENDBRANCH  29  30
ENDBRANCH  28  29
ENDBRANCH  27  28
ENDBRANCH  26  27
ENDBRANCH  25  26
ENDBRANCH  24  25
ENDBRANCH  23  24
ENDBRANCH  22  23
ENDBRANCH  21  22
ENDBRANCH  20  21
ENDBRANCH  19  20
ENDBRANCH  18  19
ENDBRANCH   1  18
TORSDOF 28
ENDMDL
MODEL 5
REMARK VINA RESULT:    -4.314     11.003     14.435
REMARK INTER + INTRA:         -15.540
REMARK INTER:                 -11.556
REMARK INTRA:                  -3.984
REMARK UNBOUND:                -4.165
REMARK SMILES CCCCCCCCCCCCCCCCCCCCCCCCCCCCCC(=O)[O-]
REMARK SMILES IDX 16 1 17 2 18 3 19 4 20 5 21 6 22 7 23 8 24 9 25 10 26 11
REMARK SMILES IDX 27 12 28 13 29 14 30 15 31 16 32 17 15 18 14 19 13 20 12 21
REMARK SMILES IDX 11 22 10 23 9 24 8 25 7 26 6 27 5 28 4 29 3 30 2 31 1 32
REMARK H PARENT
REMARK Flexibility Score: inf
ROOT
ATOM      1  C   UNL     1      20.210  10.422   7.411  1.00  0.00     0.000 C 
ENDROOT
BRANCH   1   2
ATOM      2  C   UNL     1      19.250  11.125   6.437  1.00  0.00     0.000 C 
BRANCH   2   3
ATOM      3  C   UNL     1      18.843  10.266   5.221  1.00  0.00     0.000 C 
BRANCH   3   4
ATOM      4  C   UNL     1      17.547  10.760   4.551  1.00  0.00     0.000 C 
BRANCH   4   5
ATOM      5  C   UNL     1      16.325   9.885   4.889  1.00  0.00     0.000 C 
BRANCH   5   6
ATOM      6  C   UNL     1      16.473   9.016   6.150  1.00  0.00     0.000 C 
BRANCH   6   7
ATOM      7  C   UNL     1      16.133   7.538   5.908  1.00  0.00     0.000 C 
BRANCH   7   8
ATOM      8  C   UNL     1      17.407   6.685   5.864  1.00  0.00     0.000 C 
BRANCH   8   9
ATOM      9  C   UNL     1      17.672   6.157   4.446  1.00  0.00     0.000 C 
BRANCH   9  10
ATOM     10  C   UNL     1      18.858   6.871   3.760  1.00  0.00     0.000 C 
BRANCH  10  11
ATOM     11  C   UNL     1      18.445   7.770   2.579  1.00  0.00     0.000 C 
BRANCH  11  12
ATOM     12  C   UNL     1      17.020   7.533   2.041  1.00  0.00     0.000 C 
BRANCH  12  13
ATOM     13  C   UNL     1      16.361   8.759   1.373  1.00  0.00     0.006 C 
BRANCH  13  14
ATOM     14  C   UNL     1      17.213   9.424   0.281  1.00  0.00     0.053 C 
BRANCH  14  15
ATOM     15  C   UNL     1      16.810   8.986  -1.094  1.00  0.00     0.041 C 
ATOM     16  O   UNL     1      16.066   7.981  -1.247  1.00  0.00    -0.550 OA
ATOM     17  O   UNL     1      17.289   9.665  -2.209  1.00  0.00    -0.550 OA
ENDBRANCH  14  15
ENDBRANCH  13  14
ENDBRANCH  12  13
ENDBRANCH  11  12
ENDBRANCH  10  11
ENDBRANCH   9  10
ENDBRANCH   8   9
ENDBRANCH   7   8
ENDBRANCH   6   7
ENDBRANCH   5   6
ENDBRANCH   4   5
ENDBRANCH   3   4
ENDBRANCH   2   3
ENDBRANCH   1   2
BRANCH   1  18
ATOM     18  C   UNL     1      19.816   8.963   7.692  1.00  0.00     0.000 C 
BRANCH  18  19
ATOM     19  C   UNL     1      21.026   8.014   7.788  1.00  0.00     0.000 C 
BRANCH  19  20
ATOM     20  C   UNL     1      21.174   7.008   6.627  1.00  0.00     0.000 C 
BRANCH  20  21
ATOM     21  C   UNL     1      22.376   6.051   6.735  1.00  0.00     0.000 C 
BRANCH  21  22
ATOM     22  C   UNL     1      23.675   6.668   6.199  1.00  0.00     0.000 C 
BRANCH  22  23
ATOM     23  C   UNL     1      24.764   6.678   7.284  1.00  0.00     0.000 C 
BRANCH  23  24
ATOM     24  C   UNL     1      26.004   5.854   6.893  1.00  0.00    -0.000 C 
BRANCH  24  25
ATOM     25  C   UNL     1      25.816   4.946   5.664  1.00  0.00    -0.000 C 
BRANCH  25  26
ATOM     26  C   UNL     1      25.393   3.503   6.016  1.00  0.00    -0.000 C 
BRANCH  26  27
ATOM     27  C   UNL     1      24.178   3.035   5.200  1.00  0.00    -0.000 C 
BRANCH  27  28
ATOM     28  C   UNL     1      24.420   3.103   3.682  1.00  0.00    -0.000 C 
BRANCH  28  29
ATOM     29  C   UNL     1      25.818   2.599   3.261  1.00  0.00    -0.000 C 
BRANCH  29  30
ATOM     30  C   UNL     1      26.322   3.284   1.980  1.00  0.00    -0.000 C 
BRANCH  30  31
ATOM     31  C   UNL     1      27.855   3.322   1.945  1.00  0.00    -0.003 C 
ATOM     32  C   UNL     1      28.423   3.898   3.242  1.00  0.00     0.004 C 
ENDBRANCH  30  31
ENDBRANCH  29  30
ENDBRANCH  28  29
ENDBRANCH  27  28
ENDBRANCH  26  27
ENDBRANCH  25  26
ENDBRANCH  24  25
ENDBRANCH  23  24
ENDBRANCH  22  23
ENDBRANCH  21  22
ENDBRANCH  20  21
ENDBRANCH  19  20
ENDBRANCH  18  19
ENDBRANCH   1  18
TORSDOF 28
ENDMDL
MODEL 6
REMARK VINA RESULT:    -4.263      4.016      8.412
REMARK INTER + INTRA:         -15.406
REMARK INTER:                  -9.661
REMARK INTRA:                  -5.745
REMARK UNBOUND:                -4.165
REMARK SMILES CCCCCCCCCCCCCCCCCCCCCCCCCCCCCC(=O)[O-]
REMARK SMILES IDX 16 1 17 2 18 3 19 4 20 5 21 6 22 7 23 8 24 9 25 10 26 11
REMARK SMILES IDX 27 12 28 13 29 14 30 15 31 16 32 17 15 18 14 19 13 20 12 21
REMARK SMILES IDX 11 22 10 23 9 24 8 25 7 26 6 27 5 28 4 29 3 30 2 31 1 32
REMARK H PARENT
REMARK Flexibility Score: inf
ROOT
ATOM      1  C   UNL     1      22.592  -5.735  -0.577  1.00  0.00     0.000 C 
ENDROOT
BRANCH   1   2
ATOM      2  C   UNL     1      23.801  -6.053   0.319  1.00  0.00     0.000 C 
BRANCH   2   3
ATOM      3  C   UNL     1      23.647  -7.342   1.153  1.00  0.00     0.000 C 
BRANCH   3   4
ATOM      4  C   UNL     1      24.000  -7.134   2.638  1.00  0.00     0.000 C 
BRANCH   4   5
ATOM      5  C   UNL     1      22.987  -7.790   3.594  1.00  0.00     0.000 C 
BRANCH   5   6
ATOM      6  C   UNL     1      21.956  -6.830   4.213  1.00  0.00     0.000 C 
BRANCH   6   7
ATOM      7  C   UNL     1      20.695  -6.663   3.353  1.00  0.00     0.000 C 
BRANCH   7   8
ATOM      8  C   UNL     1      20.721  -5.326   2.601  1.00  0.00     0.000 C 
BRANCH   8   9
ATOM      9  C   UNL     1      21.109  -4.170   3.537  1.00  0.00     0.000 C 
BRANCH   9  10
ATOM     10  C   UNL     1      22.016  -3.128   2.845  1.00  0.00     0.000 C 
BRANCH  10  11
ATOM     11  C   UNL     1      23.518  -3.320   3.133  1.00  0.00     0.000 C 
BRANCH  11  12
ATOM     12  C   UNL     1      24.460  -2.945   1.972  1.00  0.00     0.000 C 
BRANCH  12  13
ATOM     13  C   UNL     1      25.966  -3.011   2.305  1.00  0.00     0.006 C 
BRANCH  13  14
ATOM     14  C   UNL     1      26.792  -3.885   1.347  1.00  0.00     0.053 C 
BRANCH  14  15
ATOM     15  C   UNL     1      27.088  -5.233   1.928  1.00  0.00     0.041 C 
ATOM     16  O   UNL     1      27.197  -6.238   1.177  1.00  0.00    -0.550 OA
ATOM     17  O   UNL     1      27.207  -5.386   3.306  1.00  0.00    -0.550 OA
ENDBRANCH  14  15
ENDBRANCH  13  14
ENDBRANCH  12  13
ENDBRANCH  11  12
ENDBRANCH  10  11
ENDBRANCH   9  10
ENDBRANCH   8   9
ENDBRANCH   7   8
ENDBRANCH   6   7
ENDBRANCH   5   6
ENDBRANCH   4   5
ENDBRANCH   3   4
ENDBRANCH   2   3
ENDBRANCH   1   2
BRANCH   1  18
ATOM     18  C   UNL     1      22.387  -4.227  -0.793  1.00  0.00     0.000 C 
BRANCH  18  19
ATOM     19  C   UNL     1      20.953  -3.865  -1.226  1.00  0.00     0.000 C 
BRANCH  19  20
ATOM     20  C   UNL     1      20.235  -2.825  -0.340  1.00  0.00     0.000 C 
BRANCH  20  21
ATOM     21  C   UNL     1      20.872  -1.423  -0.321  1.00  0.00     0.000 C 
BRANCH  21  22
ATOM     22  C   UNL     1      21.079  -0.847  -1.729  1.00  0.00     0.000 C 
BRANCH  22  23
ATOM     23  C   UNL     1      22.440  -0.142  -1.837  1.00  0.00     0.000 C 
BRANCH  23  24
ATOM     24  C   UNL     1      23.439  -0.605  -0.762  1.00  0.00    -0.000 C 
BRANCH  24  25
ATOM     25  C   UNL     1      24.067   0.528   0.071  1.00  0.00    -0.000 C 
BRANCH  25  26
ATOM     26  C   UNL     1      23.254   1.841   0.045  1.00  0.00    -0.000 C 
BRANCH  26  27
ATOM     27  C   UNL     1      23.764   2.864   1.072  1.00  0.00    -0.000 C 
BRANCH  27  28
ATOM     28  C   UNL     1      25.280   2.761   1.310  1.00  0.00    -0.000 C 
BRANCH  28  29
ATOM     29  C   UNL     1      25.653   2.507   2.787  1.00  0.00    -0.000 C 
BRANCH  29  30
ATOM     30  C   UNL     1      24.552   1.743   3.542  1.00  0.00    -0.000 C 
BRANCH  30  31
ATOM     31  C   UNL     1      25.007   0.318   3.883  1.00  0.00    -0.003 C 
ATOM     32  C   UNL     1      24.163  -0.277   5.009  1.00  0.00     0.004 C 
ENDBRANCH  30  31
ENDBRANCH  29  30
ENDBRANCH  28  29
ENDBRANCH  27  28
ENDBRANCH  26  27
ENDBRANCH  25  26
ENDBRANCH  24  25
ENDBRANCH  23  24
ENDBRANCH  22  23
ENDBRANCH  21  22
ENDBRANCH  20  21
ENDBRANCH  19  20
ENDBRANCH  18  19
ENDBRANCH   1  18
TORSDOF 28
ENDMDL
MODEL 7
REMARK VINA RESULT:    -4.250      3.080      7.605
REMARK INTER + INTRA:         -15.373
REMARK INTER:                  -9.395
REMARK INTRA:                  -5.978
REMARK UNBOUND:                -4.165
REMARK SMILES CCCCCCCCCCCCCCCCCCCCCCCCCCCCCC(=O)[O-]
REMARK SMILES IDX 16 1 17 2 18 3 19 4 20 5 21 6 22 7 23 8 24 9 25 10 26 11
REMARK SMILES IDX 27 12 28 13 29 14 30 15 31 16 32 17 15 18 14 19 13 20 12 21
REMARK SMILES IDX 11 22 10 23 9 24 8 25 7 26 6 27 5 28 4 29 3 30 2 31 1 32
REMARK H PARENT
REMARK Flexibility Score: inf
ROOT
ATOM      1  C   UNL     1      17.082  -2.896  -1.674  1.00  0.00     0.000 C 
ENDROOT
BRANCH   1   2
ATOM      2  C   UNL     1      16.664  -4.085  -2.558  1.00  0.00     0.000 C 
BRANCH   2   3
ATOM      3  C   UNL     1      17.826  -4.722  -3.349  1.00  0.00     0.000 C 
BRANCH   3   4
ATOM      4  C   UNL     1      17.790  -4.366  -4.847  1.00  0.00     0.000 C 
BRANCH   4   5
ATOM      5  C   UNL     1      19.169  -4.473  -5.524  1.00  0.00     0.000 C 
BRANCH   5   6
ATOM      6  C   UNL     1      19.433  -5.797  -6.263  1.00  0.00     0.000 C 
BRANCH   6   7
ATOM      7  C   UNL     1      20.893  -5.957  -6.712  1.00  0.00     0.000 C 
BRANCH   7   8
ATOM      8  C   UNL     1      21.855  -5.652  -5.556  1.00  0.00     0.000 C 
BRANCH   8   9
ATOM      9  C   UNL     1      21.965  -6.848  -4.597  1.00  0.00     0.000 C 
BRANCH   9  10
ATOM     10  C   UNL     1      22.094  -6.413  -3.121  1.00  0.00     0.000 C 
BRANCH  10  11
ATOM     11  C   UNL     1      21.441  -5.052  -2.813  1.00  0.00     0.000 C 
BRANCH  11  12
ATOM     12  C   UNL     1      22.193  -4.181  -1.787  1.00  0.00     0.000 C 
BRANCH  12  13
ATOM     13  C   UNL     1      21.724  -4.342  -0.325  1.00  0.00     0.006 C 
BRANCH  13  14
ATOM     14  C   UNL     1      22.842  -4.708   0.665  1.00  0.00     0.053 C 
BRANCH  14  15
ATOM     15  C   UNL     1      23.405  -6.070   0.400  1.00  0.00     0.041 C 
ATOM     16  O   UNL     1      24.637  -6.217   0.182  1.00  0.00    -0.550 OA
ATOM     17  O   UNL     1      22.561  -7.175   0.356  1.00  0.00    -0.550 OA
ENDBRANCH  14  15
ENDBRANCH  13  14
ENDBRANCH  12  13
ENDBRANCH  11  12
ENDBRANCH  10  11
ENDBRANCH   9  10
ENDBRANCH   8   9
ENDBRANCH   7   8
ENDBRANCH   6   7
ENDBRANCH   5   6
ENDBRANCH   4   5
ENDBRANCH   3   4
ENDBRANCH   2   3
ENDBRANCH   1   2
BRANCH   1  18
ATOM     18  C   UNL     1      18.595  -2.853  -1.406  1.00  0.00     0.000 C 
BRANCH  18  19
ATOM     19  C   UNL     1      19.255  -1.538  -1.862  1.00  0.00     0.000 C 
BRANCH  19  20
ATOM     20  C   UNL     1      19.968  -1.593  -3.230  1.00  0.00     0.000 C 
BRANCH  20  21
ATOM     21  C   UNL     1      19.484  -0.561  -4.266  1.00  0.00     0.000 C 
BRANCH  21  22
ATOM     22  C   UNL     1      17.978  -0.660  -4.542  1.00  0.00     0.000 C 
BRANCH  22  23
ATOM     23  C   UNL     1      17.217   0.476  -3.840  1.00  0.00     0.000 C 
BRANCH  23  24
ATOM     24  C   UNL     1      18.089   1.722  -3.605  1.00  0.00    -0.000 C 
BRANCH  24  25
ATOM     25  C   UNL     1      18.352   2.057  -2.125  1.00  0.00    -0.000 C 
BRANCH  25  26
ATOM     26  C   UNL     1      19.749   2.663  -1.864  1.00  0.00    -0.000 C 
BRANCH  26  27
ATOM     27  C   UNL     1      20.469   3.053  -3.164  1.00  0.00    -0.000 C 
BRANCH  27  28
ATOM     28  C   UNL     1      21.746   2.230  -3.406  1.00  0.00    -0.000 C 
BRANCH  28  29
ATOM     29  C   UNL     1      22.231   1.469  -2.154  1.00  0.00    -0.000 C 
BRANCH  29  30
ATOM     30  C   UNL     1      23.360   0.476  -2.476  1.00  0.00    -0.000 C 
BRANCH  30  31
ATOM     31  C   UNL     1      23.210  -0.812  -1.657  1.00  0.00    -0.003 C 
ATOM     32  C   UNL     1      22.448  -0.555  -0.358  1.00  0.00     0.004 C 
ENDBRANCH  30  31
ENDBRANCH  29  30
ENDBRANCH  28  29
ENDBRANCH  27  28
ENDBRANCH  26  27
ENDBRANCH  25  26
ENDBRANCH  24  25
ENDBRANCH  23  24
ENDBRANCH  22  23
ENDBRANCH  21  22
ENDBRANCH  20  21
ENDBRANCH  19  20
ENDBRANCH  18  19
ENDBRANCH   1  18
TORSDOF 28
ENDMDL
MODEL 8
REMARK VINA RESULT:    -4.223      9.973     14.795
REMARK INTER + INTRA:         -15.301
REMARK INTER:                 -11.102
REMARK INTRA:                  -4.198
REMARK UNBOUND:                -4.165
REMARK SMILES CCCCCCCCCCCCCCCCCCCCCCCCCCCCCC(=O)[O-]
REMARK SMILES IDX 16 1 17 2 18 3 19 4 20 5 21 6 22 7 23 8 24 9 25 10 26 11
REMARK SMILES IDX 27 12 28 13 29 14 30 15 31 16 32 17 15 18 14 19 13 20 12 21
REMARK SMILES IDX 11 22 10 23 9 24 8 25 7 26 6 27 5 28 4 29 3 30 2 31 1 32
REMARK H PARENT
REMARK Flexibility Score: inf
ROOT
ATOM      1  C   UNL     1      24.151   2.979   5.287  1.00  0.00     0.000 C 
ENDROOT
BRANCH   1   2
ATOM      2  C   UNL     1      23.802   1.548   5.733  1.00  0.00     0.000 C 
BRANCH   2   3
ATOM      3  C   UNL     1      24.572   0.446   4.977  1.00  0.00     0.000 C 
BRANCH   3   4
ATOM      4  C   UNL     1      25.361   0.991   3.772  1.00  0.00     0.000 C 
BRANCH   4   5
ATOM      5  C   UNL     1      25.126   0.182   2.483  1.00  0.00     0.000 C 
BRANCH   5   6
ATOM      6  C   UNL     1      24.724   1.016   1.253  1.00  0.00     0.000 C 
BRANCH   6   7
ATOM      7  C   UNL     1      24.037   2.339   1.619  1.00  0.00     0.000 C 
BRANCH   7   8
ATOM      8  C   UNL     1      24.777   3.530   0.995  1.00  0.00     0.000 C 
BRANCH   8   9
ATOM      9  C   UNL     1      25.766   4.153   1.993  1.00  0.00     0.000 C 
BRANCH   9  10
ATOM     10  C   UNL     1      27.185   3.556   1.870  1.00  0.00     0.000 C 
BRANCH  10  11
ATOM     11  C   UNL     1      28.133   3.962   3.016  1.00  0.00     0.000 C 
BRANCH  11  12
ATOM     12  C   UNL     1      27.464   4.122   4.395  1.00  0.00     0.000 C 
BRANCH  12  13
ATOM     13  C   UNL     1      27.337   5.577   4.896  1.00  0.00     0.006 C 
BRANCH  13  14
ATOM     14  C   UNL     1      27.117   5.712   6.411  1.00  0.00     0.053 C 
BRANCH  14  15
ATOM     15  C   UNL     1      27.456   7.083   6.910  1.00  0.00     0.041 C 
ATOM     16  O   UNL     1      27.031   8.102   6.303  1.00  0.00    -0.550 OA
ATOM     17  O   UNL     1      28.273   7.236   8.025  1.00  0.00    -0.550 OA
ENDBRANCH  14  15
ENDBRANCH  13  14
ENDBRANCH  12  13
ENDBRANCH  11  12
ENDBRANCH  10  11
ENDBRANCH   9  10
ENDBRANCH   8   9
ENDBRANCH   7   8
ENDBRANCH   6   7
ENDBRANCH   5   6
ENDBRANCH   4   5
ENDBRANCH   3   4
ENDBRANCH   2   3
ENDBRANCH   1   2
BRANCH   1  18
ATOM     18  C   UNL     1      23.748   4.043   6.322  1.00  0.00     0.000 C 
BRANCH  18  19
ATOM     19  C   UNL     1      23.370   5.395   5.687  1.00  0.00     0.000 C 
BRANCH  19  20
ATOM     20  C   UNL     1      23.496   6.622   6.614  1.00  0.00     0.000 C 
BRANCH  20  21
ATOM     21  C   UNL     1      22.218   6.995   7.389  1.00  0.00     0.000 C 
BRANCH  21  22
ATOM     22  C   UNL     1      20.962   6.974   6.507  1.00  0.00     0.000 C 
BRANCH  22  23
ATOM     23  C   UNL     1      19.751   7.541   7.265  1.00  0.00     0.000 C 
BRANCH  23  24
ATOM     24  C   UNL     1      19.676   9.077   7.208  1.00  0.00    -0.000 C 
BRANCH  24  25
ATOM     25  C   UNL     1      19.226   9.653   5.853  1.00  0.00    -0.000 C 
BRANCH  25  26
ATOM     26  C   UNL     1      17.894  10.432   5.921  1.00  0.00    -0.000 C 
BRANCH  26  27
ATOM     27  C   UNL     1      16.755   9.591   6.517  1.00  0.00    -0.000 C 
BRANCH  27  28
ATOM     28  C   UNL     1      16.137   8.619   5.496  1.00  0.00    -0.000 C 
BRANCH  28  29
ATOM     29  C   UNL     1      16.317   7.134   5.877  1.00  0.00    -0.000 C 
BRANCH  29  30
ATOM     30  C   UNL     1      16.776   6.279   4.684  1.00  0.00    -0.000 C 
BRANCH  30  31
ATOM     31  C   UNL     1      17.491   7.139   3.634  1.00  0.00    -0.003 C 
ATOM     32  C   UNL     1      18.958   6.733   3.494  1.00  0.00     0.004 C 
ENDBRANCH  30  31
ENDBRANCH  29  30
ENDBRANCH  28  29
ENDBRANCH  27  28
ENDBRANCH  26  27
ENDBRANCH  25  26
ENDBRANCH  24  25
ENDBRANCH  23  24
ENDBRANCH  22  23
ENDBRANCH  21  22
ENDBRANCH  20  21
ENDBRANCH  19  20
ENDBRANCH  18  19
ENDBRANCH   1  18
TORSDOF 28
ENDMDL
MODEL 9
REMARK VINA RESULT:    -4.182      2.854      8.022
REMARK INTER + INTRA:         -15.194
REMARK INTER:                  -9.725
REMARK INTRA:                  -5.468
REMARK UNBOUND:                -4.165
REMARK SMILES CCCCCCCCCCCCCCCCCCCCCCCCCCCCCC(=O)[O-]
REMARK SMILES IDX 16 1 17 2 18 3 19 4 20 5 21 6 22 7 23 8 24 9 25 10 26 11
REMARK SMILES IDX 27 12 28 13 29 14 30 15 31 16 32 17 15 18 14 19 13 20 12 21
REMARK SMILES IDX 11 22 10 23 9 24 8 25 7 26 6 27 5 28 4 29 3 30 2 31 1 32
REMARK H PARENT
REMARK Flexibility Score: inf
ROOT
ATOM      1  C   UNL     1      20.312  -3.900  -0.828  1.00  0.00     0.000 C 
ENDROOT
BRANCH   1   2
ATOM      2  C   UNL     1      21.850  -3.918  -0.788  1.00  0.00     0.000 C 
BRANCH   2   3
ATOM      3  C   UNL     1      22.505  -2.550  -1.070  1.00  0.00     0.000 C 
BRANCH   3   4
ATOM      4  C   UNL     1      23.484  -2.120   0.039  1.00  0.00     0.000 C 
BRANCH   4   5
ATOM      5  C   UNL     1      23.870  -3.274   0.982  1.00  0.00     0.000 C 
BRANCH   5   6
ATOM      6  C   UNL     1      23.844  -2.929   2.482  1.00  0.00     0.000 C 
BRANCH   6   7
ATOM      7  C   UNL     1      22.964  -3.881   3.304  1.00  0.00     0.000 C 
BRANCH   7   8
ATOM      8  C   UNL     1      21.479  -3.675   2.974  1.00  0.00     0.000 C 
BRANCH   8   9
ATOM      9  C   UNL     1      20.800  -5.008   2.620  1.00  0.00     0.000 C 
BRANCH   9  10
ATOM     10  C   UNL     1      21.628  -6.232   3.070  1.00  0.00     0.000 C 
BRANCH  10  11
ATOM     11  C   UNL     1      21.877  -7.262   1.951  1.00  0.00     0.000 C 
BRANCH  11  12
ATOM     12  C   UNL     1      22.979  -6.881   0.943  1.00  0.00     0.000 C 
BRANCH  12  13
ATOM     13  C   UNL     1      24.366  -7.495   1.227  1.00  0.00     0.006 C 
BRANCH  13  14
ATOM     14  C   UNL     1      25.310  -6.588   2.033  1.00  0.00     0.053 C 
BRANCH  14  15
ATOM     15  C   UNL     1      26.464  -6.103   1.210  1.00  0.00     0.041 C 
ATOM     16  O   UNL     1      27.041  -5.022   1.501  1.00  0.00    -0.550 OA
ATOM     17  O   UNL     1      26.878  -6.827   0.097  1.00  0.00    -0.550 OA
ENDBRANCH  14  15
ENDBRANCH  13  14
ENDBRANCH  12  13
ENDBRANCH  11  12
ENDBRANCH  10  11
ENDBRANCH   9  10
ENDBRANCH   8   9
ENDBRANCH   7   8
ENDBRANCH   6   7
ENDBRANCH   5   6
ENDBRANCH   4   5
ENDBRANCH   3   4
ENDBRANCH   2   3
ENDBRANCH   1   2
BRANCH   1  18
ATOM     18  C   UNL     1      19.726  -2.489  -0.656  1.00  0.00     0.000 C 
BRANCH  18  19
ATOM     19  C   UNL     1      18.234  -2.402  -1.032  1.00  0.00     0.000 C 
BRANCH  19  20
ATOM     20  C   UNL     1      17.562  -3.742  -1.397  1.00  0.00     0.000 C 
BRANCH  20  21
ATOM     21  C   UNL     1      16.268  -3.626  -2.223  1.00  0.00     0.000 C 
BRANCH  21  22
ATOM     22  C   UNL     1      16.484  -3.938  -3.711  1.00  0.00     0.000 C 
BRANCH  22  23
ATOM     23  C   UNL     1      15.919  -2.813  -4.593  1.00  0.00     0.000 C 
BRANCH  23  24
ATOM     24  C   UNL     1      16.074  -1.420  -3.957  1.00  0.00    -0.000 C 
BRANCH  24  25
ATOM     25  C   UNL     1      17.121  -0.514  -4.630  1.00  0.00    -0.000 C 
BRANCH  25  26
ATOM     26  C   UNL     1      18.560  -0.740  -4.116  1.00  0.00    -0.000 C 
BRANCH  26  27
ATOM     27  C   UNL     1      19.379  -1.644  -5.052  1.00  0.00    -0.000 C 
BRANCH  27  28
ATOM     28  C   UNL     1      20.276  -2.633  -4.286  1.00  0.00    -0.000 C 
BRANCH  28  29
ATOM     29  C   UNL     1      20.013  -4.110  -4.655  1.00  0.00    -0.000 C 
BRANCH  29  30
ATOM     30  C   UNL     1      21.210  -5.015  -4.320  1.00  0.00    -0.000 C 
BRANCH  30  31
ATOM     31  C   UNL     1      21.815  -5.621  -5.593  1.00  0.00    -0.003 C 
ATOM     32  C   UNL     1      22.928  -6.613  -5.258  1.00  0.00     0.004 C 
ENDBRANCH  30  31
ENDBRANCH  29  30
ENDBRANCH  28  29
ENDBRANCH  27  28
ENDBRANCH  26  27
ENDBRANCH  25  26
ENDBRANCH  24  25
ENDBRANCH  23  24
ENDBRANCH  22  23
ENDBRANCH  21  22
ENDBRANCH  20  21
ENDBRANCH  19  20
ENDBRANCH  18  19
ENDBRANCH   1  18
TORSDOF 28
ENDMDL
