MODEL 1
REMARK VINA RESULT:    -6.266      0.000      0.000
REMARK INTER + INTRA:         -12.961
REMARK INTER:                 -12.128
REMARK INTRA:                  -0.833
REMARK UNBOUND:                -0.833
REMARK SMILES CCCCCCCCCCCCCCCCCC(=O)[O-]
REMARK SMILES IDX 10 1 11 2 12 3 13 4 14 5 15 6 16 7 17 8 18 9 19 10 20 11
REMARK SMILES IDX 9 12 8 13 7 14 6 15 5 16 4 17 3 18 2 19 1 20
REMARK H PARENT
REMARK Flexibility Score: inf
ROOT
ATOM      1  C   UNL     1      96.088 124.213 124.380  1.00  0.00     0.000 C 
ENDROOT
BRANCH   1   2
ATOM      2  C   UNL     1      96.887 123.919 125.660  1.00  0.00     0.000 C 
BRANCH   2   3
ATOM      3  C   UNL     1      97.780 125.100 126.082  1.00  0.00     0.000 C 
BRANCH   3   4
ATOM      4  C   UNL     1      97.726 126.270 125.086  1.00  0.00     0.000 C 
BRANCH   4   5
ATOM      5  C   UNL     1      98.590 127.467 125.522  1.00  0.00     0.000 C 
BRANCH   5   6
ATOM      6  C   UNL     1      98.166 128.017 126.900  1.00  0.00     0.000 C 
BRANCH   6   7
ATOM      7  C   UNL     1      99.353 128.386 127.806  1.00  0.00     0.006 C 
BRANCH   7   8
ATOM      8  C   UNL     1     100.692 128.406 127.059  1.00  0.00     0.053 C 
BRANCH   8   9
ATOM      9  C   UNL     1     101.200 129.808 126.934  1.00  0.00     0.041 C 
ATOM     10  O   UNL     1     101.251 130.555 127.946  1.00  0.00    -0.550 OA
ATOM     11  O   UNL     1     101.578 130.304 125.692  1.00  0.00    -0.550 OA
ENDBRANCH   8   9
ENDBRANCH   7   8
ENDBRANCH   6   7
ENDBRANCH   5   6
ENDBRANCH   4   5
ENDBRANCH   3   4
ENDBRANCH   2   3
ENDBRANCH   1   2
BRANCH   1  12
ATOM     12  C   UNL     1      95.994 122.996 123.442  1.00  0.00     0.000 C 
BRANCH  12  13
ATOM     13  C   UNL     1      94.589 122.845 122.824  1.00  0.00    -0.000 C 
BRANCH  13  14
ATOM     14  C   UNL     1      94.262 121.409 122.377  1.00  0.00    -0.000 C 
BRANCH  14  15
ATOM     15  C   UNL     1      93.645 121.345 120.970  1.00  0.00    -0.000 C 
BRANCH  15  16
ATOM     16  C   UNL     1      94.711 121.134 119.875  1.00  0.00    -0.000 C 
BRANCH  16  17
ATOM     17  C   UNL     1      94.131 121.116 118.449  1.00  0.00    -0.000 C 
BRANCH  17  18
ATOM     18  C   UNL     1      92.763 121.809 118.351  1.00  0.00    -0.000 C 
BRANCH  18  19
ATOM     19  C   UNL     1      92.317 122.029 116.896  1.00  0.00    -0.003 C 
ATOM     20  C   UNL     1      92.804 120.929 115.955  1.00  0.00     0.004 C 
ENDBRANCH  18  19
ENDBRANCH  17  18
ENDBRANCH  16  17
ENDBRANCH  15  16
ENDBRANCH  14  15
ENDBRANCH  13  14
ENDBRANCH  12  13
ENDBRANCH   1  12
TORSDOF 16
ENDMDL
MODEL 2
REMARK VINA RESULT:    -6.149      1.518      1.986
REMARK INTER + INTRA:         -12.733
REMARK INTER:                 -11.821
REMARK INTRA:                  -0.913
REMARK UNBOUND:                -0.833
REMARK SMILES CCCCCCCCCCCCCCCCCC(=O)[O-]
REMARK SMILES IDX 10 1 11 2 12 3 13 4 14 5 15 6 16 7 17 8 18 9 19 10 20 11
REMARK SMILES IDX 9 12 8 13 7 14 6 15 5 16 4 17 3 18 2 19 1 20
REMARK H PARENT
REMARK Flexibility Score: inf
ROOT
ATOM      1  C   UNL     1      95.918 124.058 123.979  1.00  0.00     0.000 C 
ENDROOT
BRANCH   1   2
ATOM      2  C   UNL     1      96.778 124.664 125.100  1.00  0.00     0.000 C 
BRANCH   2   3
ATOM      3  C   UNL     1      97.525 123.592 125.915  1.00  0.00     0.000 C 
BRANCH   3   4
ATOM      4  C   UNL     1      97.859 124.059 127.341  1.00  0.00     0.000 C 
BRANCH   4   5
ATOM      5  C   UNL     1      98.873 125.217 127.369  1.00  0.00     0.000 C 
BRANCH   5   6
ATOM      6  C   UNL     1      98.179 126.594 127.415  1.00  0.00     0.000 C 
BRANCH   6   7
ATOM      7  C   UNL     1      98.970 127.706 126.706  1.00  0.00     0.006 C 
BRANCH   7   8
ATOM      8  C   UNL     1      99.415 127.313 125.292  1.00  0.00     0.053 C 
BRANCH   8   9
ATOM      9  C   UNL     1     100.791 127.832 125.013  1.00  0.00     0.041 C 
ATOM     10  O   UNL     1     101.041 128.409 123.922  1.00  0.00    -0.550 OA
ATOM     11  O   UNL     1     101.809 127.639 125.941  1.00  0.00    -0.550 OA
ENDBRANCH   8   9
ENDBRANCH   7   8
ENDBRANCH   6   7
ENDBRANCH   5   6
ENDBRANCH   4   5
ENDBRANCH   3   4
ENDBRANCH   2   3
ENDBRANCH   1   2
BRANCH   1  12
ATOM     12  C   UNL     1      96.368 122.641 123.581  1.00  0.00     0.000 C 
BRANCH  12  13
ATOM     13  C   UNL     1      95.745 122.186 122.245  1.00  0.00    -0.000 C 
BRANCH  13  14
ATOM     14  C   UNL     1      94.275 121.748 122.368  1.00  0.00    -0.000 C 
BRANCH  14  15
ATOM     15  C   UNL     1      93.711 121.169 121.059  1.00  0.00    -0.000 C 
BRANCH  15  16
ATOM     16  C   UNL     1      94.772 121.119 119.939  1.00  0.00    -0.000 C 
BRANCH  16  17
ATOM     17  C   UNL     1      94.168 121.068 118.524  1.00  0.00    -0.000 C 
BRANCH  17  18
ATOM     18  C   UNL     1      92.710 121.554 118.478  1.00  0.00    -0.000 C 
BRANCH  18  19
ATOM     19  C   UNL     1      92.324 122.134 117.107  1.00  0.00    -0.003 C 
ATOM     20  C   UNL     1      92.648 123.621 116.982  1.00  0.00     0.004 C 
ENDBRANCH  18  19
ENDBRANCH  17  18
ENDBRANCH  16  17
ENDBRANCH  15  16
ENDBRANCH  14  15
ENDBRANCH  13  14
ENDBRANCH  12  13
ENDBRANCH   1  12
TORSDOF 16
ENDMDL
MODEL 3
REMARK VINA RESULT:    -6.088      5.013     11.056
REMARK INTER + INTRA:         -12.615
REMARK INTER:                 -11.754
REMARK INTRA:                  -0.861
REMARK UNBOUND:                -0.833
REMARK SMILES CCCCCCCCCCCCCCCCCC(=O)[O-]
REMARK SMILES IDX 10 1 11 2 12 3 13 4 14 5 15 6 16 7 17 8 18 9 19 10 20 11
REMARK SMILES IDX 9 12 8 13 7 14 6 15 5 16 4 17 3 18 2 19 1 20
REMARK H PARENT
REMARK Flexibility Score: inf
ROOT
ATOM      1  C   UNL     1      95.807 123.971 124.154  1.00  0.00     0.000 C 
ENDROOT
BRANCH   1   2
ATOM      2  C   UNL     1      96.499 122.660 123.748  1.00  0.00     0.000 C 
BRANCH   2   3
ATOM      3  C   UNL     1      95.938 122.077 122.438  1.00  0.00     0.000 C 
BRANCH   3   4
ATOM      4  C   UNL     1      94.447 121.718 122.542  1.00  0.00     0.000 C 
BRANCH   4   5
ATOM      5  C   UNL     1      93.822 121.363 121.180  1.00  0.00     0.000 C 
BRANCH   5   6
ATOM      6  C   UNL     1      94.890 121.176 120.082  1.00  0.00     0.000 C 
BRANCH   6   7
ATOM      7  C   UNL     1      94.299 121.006 118.672  1.00  0.00     0.006 C 
BRANCH   7   8
ATOM      8  C   UNL     1      92.869 121.546 118.554  1.00  0.00     0.053 C 
BRANCH   8   9
ATOM      9  C   UNL     1      92.622 122.076 117.177  1.00  0.00     0.041 C 
ATOM     10  O   UNL     1      92.569 123.318 116.977  1.00  0.00    -0.550 OA
ATOM     11  O   UNL     1      92.407 121.198 116.121  1.00  0.00    -0.550 OA
ENDBRANCH   8   9
ENDBRANCH   7   8
ENDBRANCH   6   7
ENDBRANCH   5   6
ENDBRANCH   4   5
ENDBRANCH   3   4
ENDBRANCH   2   3
ENDBRANCH   1   2
BRANCH   1  12
ATOM     12  C   UNL     1      96.770 124.974 124.816  1.00  0.00     0.000 C 
BRANCH  12  13
ATOM     13  C   UNL     1      97.523 124.355 126.012  1.00  0.00    -0.000 C 
BRANCH  13  14
ATOM     14  C   UNL     1      98.168 125.399 126.941  1.00  0.00    -0.000 C 
BRANCH  14  15
ATOM     15  C   UNL     1      99.149 126.329 126.206  1.00  0.00    -0.000 C 
BRANCH  15  16
ATOM     16  C   UNL     1      98.953 127.809 126.597  1.00  0.00    -0.000 C 
BRANCH  16  17
ATOM     17  C   UNL     1      97.564 128.108 127.190  1.00  0.00    -0.000 C 
BRANCH  17  18
ATOM     18  C   UNL     1      97.626 128.576 128.653  1.00  0.00    -0.000 C 
BRANCH  18  19
ATOM     19  C   UNL     1      97.378 130.087 128.799  1.00  0.00    -0.003 C 
ATOM     20  C   UNL     1      96.413 130.420 129.936  1.00  0.00     0.004 C 
ENDBRANCH  18  19
ENDBRANCH  17  18
ENDBRANCH  16  17
ENDBRANCH  15  16
ENDBRANCH  14  15
ENDBRANCH  13  14
ENDBRANCH  12  13
ENDBRANCH   1  12
TORSDOF 16
ENDMDL
MODEL 4
REMARK VINA RESULT:    -6.052      1.941      2.349
REMARK INTER + INTRA:         -12.547
REMARK INTER:                 -11.682
REMARK INTRA:                  -0.864
REMARK UNBOUND:                -0.833
REMARK SMILES CCCCCCCCCCCCCCCCCC(=O)[O-]
REMARK SMILES IDX 10 1 11 2 12 3 13 4 14 5 15 6 16 7 17 8 18 9 19 10 20 11
REMARK SMILES IDX 9 12 8 13 7 14 6 15 5 16 4 17 3 18 2 19 1 20
REMARK H PARENT
REMARK Flexibility Score: inf
ROOT
ATOM      1  C   UNL     1      96.511 124.612 124.536  1.00  0.00     0.000 C 
ENDROOT
BRANCH   1   2
ATOM      2  C   UNL     1      96.962 123.863 125.800  1.00  0.00     0.000 C 
BRANCH   2   3
ATOM      3  C   UNL     1      98.204 124.498 126.451  1.00  0.00     0.000 C 
BRANCH   3   4
ATOM      4  C   UNL     1      98.042 126.008 126.688  1.00  0.00     0.000 C 
BRANCH   4   5
ATOM      5  C   UNL     1      98.991 126.855 125.819  1.00  0.00     0.000 C 
BRANCH   5   6
ATOM      6  C   UNL     1      99.156 128.287 126.368  1.00  0.00     0.000 C 
BRANCH   6   7
ATOM      7  C   UNL     1      99.322 128.345 127.897  1.00  0.00     0.006 C 
BRANCH   7   8
ATOM      8  C   UNL     1      98.811 129.656 128.504  1.00  0.00     0.053 C 
BRANCH   8   9
ATOM      9  C   UNL     1      97.338 129.576 128.758  1.00  0.00     0.041 C 
ATOM     10  O   UNL     1      96.655 130.629 128.859  1.00  0.00    -0.550 OA
ATOM     11  O   UNL     1      96.726 128.339 128.925  1.00  0.00    -0.550 OA
ENDBRANCH   8   9
ENDBRANCH   7   8
ENDBRANCH   6   7
ENDBRANCH   5   6
ENDBRANCH   4   5
ENDBRANCH   3   4
ENDBRANCH   2   3
ENDBRANCH   1   2
BRANCH   1  12
ATOM     12  C   UNL     1      95.696 123.726 123.576  1.00  0.00     0.000 C 
BRANCH  12  13
ATOM     13  C   UNL     1      94.301 123.387 124.141  1.00  0.00    -0.000 C 
BRANCH  13  14
ATOM     14  C   UNL     1      93.494 122.423 123.254  1.00  0.00    -0.000 C 
BRANCH  14  15
ATOM     15  C   UNL     1      94.384 121.541 122.362  1.00  0.00    -0.000 C 
BRANCH  15  16
ATOM     16  C   UNL     1      93.753 121.286 120.978  1.00  0.00    -0.000 C 
BRANCH  16  17
ATOM     17  C   UNL     1      94.789 121.132 119.849  1.00  0.00    -0.000 C 
BRANCH  17  18
ATOM     18  C   UNL     1      94.143 120.940 118.467  1.00  0.00    -0.000 C 
BRANCH  18  19
ATOM     19  C   UNL     1      92.815 121.702 118.326  1.00  0.00    -0.003 C 
ATOM     20  C   UNL     1      92.422 121.940 116.869  1.00  0.00     0.004 C 
ENDBRANCH  18  19
ENDBRANCH  17  18
ENDBRANCH  16  17
ENDBRANCH  15  16
ENDBRANCH  14  15
ENDBRANCH  13  14
ENDBRANCH  12  13
ENDBRANCH   1  12
TORSDOF 16
ENDMDL
MODEL 5
REMARK VINA RESULT:    -5.884      5.014     10.768
REMARK INTER + INTRA:         -12.222
REMARK INTER:                 -11.299
REMARK INTRA:                  -0.923
REMARK UNBOUND:                -0.833
REMARK SMILES CCCCCCCCCCCCCCCCCC(=O)[O-]
REMARK SMILES IDX 10 1 11 2 12 3 13 4 14 5 15 6 16 7 17 8 18 9 19 10 20 11
REMARK SMILES IDX 9 12 8 13 7 14 6 15 5 16 4 17 3 18 2 19 1 20
REMARK H PARENT
REMARK Flexibility Score: inf
ROOT
ATOM      1  C   UNL     1      95.900 124.049 124.198  1.00  0.00     0.000 C 
ENDROOT
BRANCH   1   2
ATOM      2  C   UNL     1      96.470 122.733 123.644  1.00  0.00     0.000 C 
BRANCH   2   3
ATOM      3  C   UNL     1      95.855 122.348 122.287  1.00  0.00     0.000 C 
BRANCH   3   4
ATOM      4  C   UNL     1      94.399 121.869 122.411  1.00  0.00     0.000 C 
BRANCH   4   5
ATOM      5  C   UNL     1      93.891 121.166 121.139  1.00  0.00     0.000 C 
BRANCH   5   6
ATOM      6  C   UNL     1      94.977 121.087 120.046  1.00  0.00     0.000 C 
BRANCH   6   7
ATOM      7  C   UNL     1      94.411 120.906 118.628  1.00  0.00     0.006 C 
BRANCH   7   8
ATOM      8  C   UNL     1      92.967 121.406 118.492  1.00  0.00     0.053 C 
BRANCH   8   9
ATOM      9  C   UNL     1      92.703 121.868 117.094  1.00  0.00     0.041 C 
ATOM     10  O   UNL     1      92.383 123.066 116.873  1.00  0.00    -0.550 OA
ATOM     11  O   UNL     1      92.768 120.966 116.038  1.00  0.00    -0.550 OA
ENDBRANCH   8   9
ENDBRANCH   7   8
ENDBRANCH   6   7
ENDBRANCH   5   6
ENDBRANCH   4   5
ENDBRANCH   3   4
ENDBRANCH   2   3
ENDBRANCH   1   2
BRANCH   1  12
ATOM     12  C   UNL     1      96.920 124.832 125.043  1.00  0.00     0.000 C 
BRANCH  12  13
ATOM     13  C   UNL     1      97.467 123.996 126.218  1.00  0.00    -0.000 C 
BRANCH  13  14
ATOM     14  C   UNL     1      97.984 124.845 127.392  1.00  0.00    -0.000 C 
BRANCH  14  15
ATOM     15  C   UNL     1      99.520 124.871 127.482  1.00  0.00    -0.000 C 
BRANCH  15  16
ATOM     16  C   UNL     1     100.093 126.284 127.243  1.00  0.00    -0.000 C 
BRANCH  16  17
ATOM     17  C   UNL     1     100.727 126.462 125.851  1.00  0.00    -0.000 C 
BRANCH  17  18
ATOM     18  C   UNL     1     100.085 127.601 125.043  1.00  0.00    -0.000 C 
BRANCH  18  19
ATOM     19  C   UNL     1     100.999 128.833 124.934  1.00  0.00    -0.003 C 
ATOM     20  C   UNL     1     100.853 129.784 126.120  1.00  0.00     0.004 C 
ENDBRANCH  18  19
ENDBRANCH  17  18
ENDBRANCH  16  17
ENDBRANCH  15  16
ENDBRANCH  14  15
ENDBRANCH  13  14
ENDBRANCH  12  13
ENDBRANCH   1  12
TORSDOF 16
ENDMDL
MODEL 6
REMARK VINA RESULT:    -5.827      4.957     10.547
REMARK INTER + INTRA:         -12.110
REMARK INTER:                 -10.955
REMARK INTRA:                  -1.156
REMARK UNBOUND:                -0.833
REMARK SMILES CCCCCCCCCCCCCCCCCC(=O)[O-]
REMARK SMILES IDX 10 1 11 2 12 3 13 4 14 5 15 6 16 7 17 8 18 9 19 10 20 11
REMARK SMILES IDX 9 12 8 13 7 14 6 15 5 16 4 17 3 18 2 19 1 20
REMARK H PARENT
REMARK Flexibility Score: inf
ROOT
ATOM      1  C   UNL     1      96.105 124.467 124.612  1.00  0.00     0.000 C 
ENDROOT
BRANCH   1   2
ATOM      2  C   UNL     1      95.583 123.390 123.647  1.00  0.00     0.000 C 
BRANCH   2   3
ATOM      3  C   UNL     1      94.047 123.296 123.642  1.00  0.00     0.000 C 
BRANCH   3   4
ATOM      4  C   UNL     1      93.522 122.231 122.667  1.00  0.00     0.000 C 
BRANCH   4   5
ATOM      5  C   UNL     1      94.618 121.254 122.202  1.00  0.00     0.000 C 
BRANCH   5   6
ATOM      6  C   UNL     1      94.898 121.375 120.689  1.00  0.00     0.000 C 
BRANCH   6   7
ATOM      7  C   UNL     1      93.653 121.157 119.813  1.00  0.00     0.006 C 
BRANCH   7   8
ATOM      8  C   UNL     1      93.887 121.519 118.342  1.00  0.00     0.053 C 
BRANCH   8   9
ATOM      9  C   UNL     1      92.646 122.106 117.745  1.00  0.00     0.041 C 
ATOM     10  O   UNL     1      92.665 123.270 117.264  1.00  0.00    -0.550 OA
ATOM     11  O   UNL     1      91.458 121.385 117.758  1.00  0.00    -0.550 OA
ENDBRANCH   8   9
ENDBRANCH   7   8
ENDBRANCH   6   7
ENDBRANCH   5   6
ENDBRANCH   4   5
ENDBRANCH   3   4
ENDBRANCH   2   3
ENDBRANCH   1   2
BRANCH   1  12
ATOM     12  C   UNL     1      97.092 123.908 125.653  1.00  0.00     0.000 C 
BRANCH  12  13
ATOM     13  C   UNL     1      97.937 125.018 126.310  1.00  0.00    -0.000 C 
BRANCH  13  14
ATOM     14  C   UNL     1      98.062 126.288 125.451  1.00  0.00    -0.000 C 
BRANCH  14  15
ATOM     15  C   UNL     1      98.322 127.554 126.286  1.00  0.00    -0.000 C 
BRANCH  15  16
ATOM     16  C   UNL     1      99.646 128.245 125.899  1.00  0.00    -0.000 C 
BRANCH  16  17
ATOM     17  C   UNL     1     100.654 127.302 125.216  1.00  0.00    -0.000 C 
BRANCH  17  18
ATOM     18  C   UNL     1     101.664 126.692 126.201  1.00  0.00    -0.000 C 
BRANCH  18  19
ATOM     19  C   UNL     1     101.788 125.167 126.050  1.00  0.00    -0.003 C 
ATOM     20  C   UNL     1     101.542 124.421 127.360  1.00  0.00     0.004 C 
ENDBRANCH  18  19
ENDBRANCH  17  18
ENDBRANCH  16  17
ENDBRANCH  15  16
ENDBRANCH  14  15
ENDBRANCH  13  14
ENDBRANCH  12  13
ENDBRANCH   1  12
TORSDOF 16
ENDMDL
MODEL 7
REMARK VINA RESULT:    -5.704      1.884      2.577
REMARK INTER + INTRA:         -11.872
REMARK INTER:                 -10.771
REMARK INTRA:                  -1.101
REMARK UNBOUND:                -0.833
REMARK SMILES CCCCCCCCCCCCCCCCCC(=O)[O-]
REMARK SMILES IDX 10 1 11 2 12 3 13 4 14 5 15 6 16 7 17 8 18 9 19 10 20 11
REMARK SMILES IDX 9 12 8 13 7 14 6 15 5 16 4 17 3 18 2 19 1 20
REMARK H PARENT
REMARK Flexibility Score: inf
ROOT
ATOM      1  C   UNL     1      96.866 124.660 125.130  1.00  0.00     0.000 C 
ENDROOT
BRANCH   1   2
ATOM      2  C   UNL     1      97.563 123.694 126.101  1.00  0.00     0.000 C 
BRANCH   2   3
ATOM      3  C   UNL     1      98.497 124.419 127.087  1.00  0.00     0.000 C 
BRANCH   3   4
ATOM      4  C   UNL     1      99.969 124.010 126.920  1.00  0.00     0.000 C 
BRANCH   4   5
ATOM      5  C   UNL     1     100.948 125.150 127.254  1.00  0.00     0.000 C 
BRANCH   5   6
ATOM      6  C   UNL     1     101.740 125.617 126.015  1.00  0.00     0.000 C 
BRANCH   6   7
ATOM      7  C   UNL     1     101.403 127.052 125.575  1.00  0.00     0.006 C 
BRANCH   7   8
ATOM      8  C   UNL     1      99.938 127.221 125.156  1.00  0.00     0.053 C 
BRANCH   8   9
ATOM      9  C   UNL     1      99.224 128.131 126.105  1.00  0.00     0.041 C 
ATOM     10  O   UNL     1      99.871 128.976 126.779  1.00  0.00    -0.550 OA
ATOM     11  O   UNL     1      97.850 128.017 126.278  1.00  0.00    -0.550 OA
ENDBRANCH   8   9
ENDBRANCH   7   8
ENDBRANCH   6   7
ENDBRANCH   5   6
ENDBRANCH   4   5
ENDBRANCH   3   4
ENDBRANCH   2   3
ENDBRANCH   1   2
BRANCH   1  12
ATOM     12  C   UNL     1      95.855 123.954 124.209  1.00  0.00     0.000 C 
BRANCH  12  13
ATOM     13  C   UNL     1      96.409 122.629 123.644  1.00  0.00    -0.000 C 
BRANCH  13  14
ATOM     14  C   UNL     1      95.958 122.337 122.202  1.00  0.00    -0.000 C 
BRANCH  14  15
ATOM     15  C   UNL     1      94.743 121.396 122.133  1.00  0.00    -0.000 C 
BRANCH  15  16
ATOM     16  C   UNL     1      93.445 122.147 121.767  1.00  0.00    -0.000 C 
BRANCH  16  17
ATOM     17  C   UNL     1      92.788 121.639 120.471  1.00  0.00    -0.000 C 
BRANCH  17  18
ATOM     18  C   UNL     1      93.781 121.521 119.303  1.00  0.00    -0.000 C 
BRANCH  18  19
ATOM     19  C   UNL     1      93.090 121.171 117.975  1.00  0.00    -0.003 C 
ATOM     20  C   UNL     1      92.435 122.382 117.312  1.00  0.00     0.004 C 
ENDBRANCH  18  19
ENDBRANCH  17  18
ENDBRANCH  16  17
ENDBRANCH  15  16
ENDBRANCH  14  15
ENDBRANCH  13  14
ENDBRANCH  12  13
ENDBRANCH   1  12
TORSDOF 16
ENDMDL
MODEL 8
REMARK VINA RESULT:    -5.693      4.632     10.600
REMARK INTER + INTRA:         -11.852
REMARK INTER:                 -10.095
REMARK INTRA:                  -1.757
REMARK UNBOUND:                -0.833
REMARK SMILES CCCCCCCCCCCCCCCCCC(=O)[O-]
REMARK SMILES IDX 10 1 11 2 12 3 13 4 14 5 15 6 16 7 17 8 18 9 19 10 20 11
REMARK SMILES IDX 9 12 8 13 7 14 6 15 5 16 4 17 3 18 2 19 1 20
REMARK H PARENT
REMARK Flexibility Score: inf
ROOT
ATOM      1  C   UNL     1      98.005 126.522 125.495  1.00  0.00     0.000 C 
ENDROOT
BRANCH   1   2
ATOM      2  C   UNL     1      97.934 125.192 126.262  1.00  0.00     0.000 C 
BRANCH   2   3
ATOM      3  C   UNL     1      96.849 124.250 125.709  1.00  0.00     0.000 C 
BRANCH   3   4
ATOM      4  C   UNL     1      96.392 124.638 124.294  1.00  0.00     0.000 C 
BRANCH   4   5
ATOM      5  C   UNL     1      95.750 123.466 123.530  1.00  0.00     0.000 C 
BRANCH   5   6
ATOM      6  C   UNL     1      94.281 123.239 123.945  1.00  0.00     0.000 C 
BRANCH   6   7
ATOM      7  C   UNL     1      93.470 122.430 122.917  1.00  0.00     0.006 C 
BRANCH   7   8
ATOM      8  C   UNL     1      94.300 121.341 122.225  1.00  0.00     0.053 C 
BRANCH   8   9
ATOM      9  C   UNL     1      94.017 121.324 120.756  1.00  0.00     0.041 C 
ATOM     10  O   UNL     1      94.914 120.978 119.943  1.00  0.00    -0.550 OA
ATOM     11  O   UNL     1      92.776 121.731 120.280  1.00  0.00    -0.550 OA
ENDBRANCH   8   9
ENDBRANCH   7   8
ENDBRANCH   6   7
ENDBRANCH   5   6
ENDBRANCH   4   5
ENDBRANCH   3   4
ENDBRANCH   2   3
ENDBRANCH   1   2
BRANCH   1  12
ATOM     12  C   UNL     1      98.903 127.563 126.188  1.00  0.00     0.000 C 
BRANCH  12  13
ATOM     13  C   UNL     1     100.024 126.904 127.019  1.00  0.00    -0.000 C 
BRANCH  13  14
ATOM     14  C   UNL     1     100.505 127.766 128.199  1.00  0.00    -0.000 C 
BRANCH  14  15
ATOM     15  C   UNL     1      99.789 129.125 128.279  1.00  0.00    -0.000 C 
BRANCH  15  16
ATOM     16  C   UNL     1      99.524 129.560 129.736  1.00  0.00    -0.000 C 
BRANCH  16  17
ATOM     17  C   UNL     1      98.028 129.641 130.090  1.00  0.00    -0.000 C 
BRANCH  17  18
ATOM     18  C   UNL     1      97.113 129.280 128.908  1.00  0.00    -0.000 C 
BRANCH  18  19
ATOM     19  C   UNL     1      96.245 128.044 129.192  1.00  0.00    -0.003 C 
ATOM     20  C   UNL     1      97.072 126.806 129.534  1.00  0.00     0.004 C 
ENDBRANCH  18  19
ENDBRANCH  17  18
ENDBRANCH  16  17
ENDBRANCH  15  16
ENDBRANCH  14  15
ENDBRANCH  13  14
ENDBRANCH  12  13
ENDBRANCH   1  12
TORSDOF 16
ENDMDL
MODEL 9
REMARK VINA RESULT:    -5.576      4.637     10.663
REMARK INTER + INTRA:         -11.625
REMARK INTER:                 -10.241
REMARK INTRA:                  -1.384
REMARK UNBOUND:                -0.833
REMARK SMILES CCCCCCCCCCCCCCCCCC(=O)[O-]
REMARK SMILES IDX 10 1 11 2 12 3 13 4 14 5 15 6 16 7 17 8 18 9 19 10 20 11
REMARK SMILES IDX 9 12 8 13 7 14 6 15 5 16 4 17 3 18 2 19 1 20
REMARK H PARENT
REMARK Flexibility Score: inf
ROOT
ATOM      1  C   UNL     1      98.742 126.917 125.528  1.00  0.00     0.000 C 
ENDROOT
BRANCH   1   2
ATOM      2  C   UNL     1      98.582 125.738 126.501  1.00  0.00     0.000 C 
BRANCH   2   3
ATOM      3  C   UNL     1      97.585 124.682 125.990  1.00  0.00     0.000 C 
BRANCH   3   4
ATOM      4  C   UNL     1      96.839 125.135 124.724  1.00  0.00     0.000 C 
BRANCH   4   5
ATOM      5  C   UNL     1      95.809 124.101 124.235  1.00  0.00     0.000 C 
BRANCH   5   6
ATOM      6  C   UNL     1      96.464 122.746 123.896  1.00  0.00     0.000 C 
BRANCH   6   7
ATOM      7  C   UNL     1      96.048 122.188 122.524  1.00  0.00     0.006 C 
BRANCH   7   8
ATOM      8  C   UNL     1      94.633 121.596 122.524  1.00  0.00     0.053 C 
BRANCH   8   9
ATOM      9  C   UNL     1      94.148 121.400 121.122  1.00  0.00     0.041 C 
ATOM     10  O   UNL     1      94.962 121.103 120.207  1.00  0.00    -0.550 OA
ATOM     11  O   UNL     1      92.805 121.587 120.816  1.00  0.00    -0.550 OA
ENDBRANCH   8   9
ENDBRANCH   7   8
ENDBRANCH   6   7
ENDBRANCH   5   6
ENDBRANCH   4   5
ENDBRANCH   3   4
ENDBRANCH   2   3
ENDBRANCH   1   2
BRANCH   1  12
ATOM     12  C   UNL     1     100.205 127.152 125.110  1.00  0.00     0.000 C 
BRANCH  12  13
ATOM     13  C   UNL     1     100.985 127.972 126.159  1.00  0.00    -0.000 C 
BRANCH  13  14
ATOM     14  C   UNL     1     100.695 129.481 126.102  1.00  0.00    -0.000 C 
BRANCH  14  15
ATOM     15  C   UNL     1     100.347 130.076 127.477  1.00  0.00    -0.000 C 
BRANCH  15  16
ATOM     16  C   UNL     1     100.315 129.003 128.586  1.00  0.00    -0.000 C 
BRANCH  16  17
ATOM     17  C   UNL     1      99.028 129.031 129.431  1.00  0.00    -0.000 C 
BRANCH  17  18
ATOM     18  C   UNL     1      97.751 129.045 128.575  1.00  0.00    -0.000 C 
BRANCH  18  19
ATOM     19  C   UNL     1      96.867 130.270 128.856  1.00  0.00    -0.003 C 
ATOM     20  C   UNL     1      96.095 130.154 130.170  1.00  0.00     0.004 C 
ENDBRANCH  18  19
ENDBRANCH  17  18
ENDBRANCH  16  17
ENDBRANCH  15  16
ENDBRANCH  14  15
ENDBRANCH  13  14
ENDBRANCH  12  13
ENDBRANCH   1  12
TORSDOF 16
ENDMDL
