MODEL 1
REMARK VINA RESULT:    -5.702      0.000      0.000
REMARK INTER + INTRA:          -6.036
REMARK INTER:                  -6.036
REMARK INTRA:                   0.000
REMARK UNBOUND:                 0.000
REMARK SMILES O=c1ccc2cc(O)c(O)cc2o1
REMARK SMILES IDX 4 1 3 2 2 3 1 4 13 5 12 6 11 7 9 8 7 9 6 10 5 11 8 12 10 14
REMARK H PARENT 8 13 10 15
REMARK Flexibility Score: inf
ROOT
ATOM      1  C   UNL     1       7.909 -32.702 -19.905  1.00  0.00     0.019 A 
ATOM      2  C   UNL     1       7.747 -31.391 -20.352  1.00  0.00     0.094 A 
ATOM      3  C   UNL     1       8.876 -30.579 -20.494  1.00  0.00     0.336 A 
ATOM      4  O   UNL     1       8.751 -29.392 -20.896  1.00  0.00    -0.246 OA
ATOM      5  O   UNL     1      10.086 -31.051 -20.206  1.00  0.00    -0.423 OA
ATOM      6  C   UNL     1      10.285 -32.296 -19.777  1.00  0.00     0.142 A 
ATOM      7  C   UNL     1      11.579 -32.738 -19.489  1.00  0.00     0.098 A 
ATOM      8  C   UNL     1      11.803 -34.045 -19.037  1.00  0.00     0.161 A 
ATOM      9  C   UNL     1      10.705 -34.926 -18.869  1.00  0.00     0.158 A 
ATOM     10  C   UNL     1       9.410 -34.479 -19.158  1.00  0.00     0.062 A 
ATOM     11  C   UNL     1       9.193 -33.172 -19.610  1.00  0.00     0.022 A 
ENDROOT
BRANCH   9  12
ATOM     12  O   UNL     1      10.857 -36.240 -18.422  1.00  0.00    -0.504 OA
ATOM     13  H   UNL     1      11.641 -36.564 -17.875  1.00  0.00     0.293 HD
ENDBRANCH   9  12
BRANCH   8  14
ATOM     14  O   UNL     1      13.121 -34.422 -18.768  1.00  0.00    -0.504 OA
ATOM     15  H   UNL     1      13.886 -34.302 -19.417  1.00  0.00     0.293 HD
ENDBRANCH   8  14
TORSDOF 2
ENDMDL
MODEL 2
REMARK VINA RESULT:    -5.546      1.616      5.237
REMARK INTER + INTRA:          -5.870
REMARK INTER:                  -5.870
REMARK INTRA:                   0.000
REMARK UNBOUND:                 0.000
REMARK SMILES O=c1ccc2cc(O)c(O)cc2o1
REMARK SMILES IDX 4 1 3 2 2 3 1 4 13 5 12 6 11 7 9 8 7 9 6 10 5 11 8 12 10 14
REMARK H PARENT 8 13 10 15
REMARK Flexibility Score: inf
ROOT
ATOM      1  C   UNL     1       7.742 -32.444 -19.592  1.00  0.00     0.019 A 
ATOM      2  C   UNL     1       8.801 -33.336 -19.435  1.00  0.00     0.094 A 
ATOM      3  C   UNL     1      10.091 -32.927 -19.789  1.00  0.00     0.336 A 
ATOM      4  O   UNL     1      11.061 -33.719 -19.655  1.00  0.00    -0.246 OA
ATOM      5  O   UNL     1      10.302 -31.704 -20.268  1.00  0.00    -0.423 OA
ATOM      6  C   UNL     1       9.319 -30.821 -20.434  1.00  0.00     0.142 A 
ATOM      7  C   UNL     1       9.599 -29.550 -20.941  1.00  0.00     0.098 A 
ATOM      8  C   UNL     1       8.575 -28.611 -21.122  1.00  0.00     0.161 A 
ATOM      9  C   UNL     1       7.243 -28.955 -20.785  1.00  0.00     0.158 A 
ATOM     10  C   UNL     1       6.965 -30.230 -20.276  1.00  0.00     0.062 A 
ATOM     11  C   UNL     1       7.993 -31.164 -20.098  1.00  0.00     0.022 A 
ENDROOT
BRANCH   9  12
ATOM     12  O   UNL     1       6.175 -28.069 -20.939  1.00  0.00    -0.504 OA
ATOM     13  H   UNL     1       5.584 -27.758 -20.181  1.00  0.00     0.293 HD
ENDBRANCH   9  12
BRANCH   8  14
ATOM     14  O   UNL     1       8.925 -27.359 -21.633  1.00  0.00    -0.504 OA
ATOM     15  H   UNL     1       9.574 -26.728 -21.186  1.00  0.00     0.293 HD
ENDBRANCH   8  14
TORSDOF 2
ENDMDL
MODEL 3
REMARK VINA RESULT:    -5.536     11.193     12.375
REMARK INTER + INTRA:          -5.859
REMARK INTER:                  -5.859
REMARK INTRA:                   0.000
REMARK UNBOUND:                 0.000
REMARK SMILES O=c1ccc2cc(O)c(O)cc2o1
REMARK SMILES IDX 4 1 3 2 2 3 1 4 13 5 12 6 11 7 9 8 7 9 6 10 5 11 8 12 10 14
REMARK H PARENT 8 13 10 15
REMARK Flexibility Score: inf
ROOT
ATOM      1  C   UNL     1      10.980 -25.919 -10.091  1.00  0.00     0.019 A 
ATOM      2  C   UNL     1      11.940 -25.835 -11.098  1.00  0.00     0.094 A 
ATOM      3  C   UNL     1      11.581 -25.281 -12.332  1.00  0.00     0.336 A 
ATOM      4  O   UNL     1      12.434 -25.197 -13.255  1.00  0.00    -0.246 OA
ATOM      5  O   UNL     1      10.342 -24.841 -12.538  1.00  0.00    -0.423 OA
ATOM      6  C   UNL     1       9.397 -24.902 -11.603  1.00  0.00     0.142 A 
ATOM      7  C   UNL     1       8.112 -24.424 -11.876  1.00  0.00     0.098 A 
ATOM      8  C   UNL     1       7.107 -24.482 -10.902  1.00  0.00     0.161 A 
ATOM      9  C   UNL     1       7.397 -25.031  -9.628  1.00  0.00     0.158 A 
ATOM     10  C   UNL     1       8.685 -25.509  -9.358  1.00  0.00     0.062 A 
ATOM     11  C   UNL     1       9.685 -25.448 -10.336  1.00  0.00     0.022 A 
ENDROOT
BRANCH   9  12
ATOM     12  O   UNL     1       6.443 -25.120  -8.612  1.00  0.00    -0.504 OA
ATOM     13  H   UNL     1       5.508 -25.476  -8.744  1.00  0.00     0.293 HD
ENDBRANCH   9  12
BRANCH   8  14
ATOM     14  O   UNL     1       5.845 -23.987 -11.241  1.00  0.00    -0.504 OA
ATOM     15  H   UNL     1       4.979 -24.344 -10.864  1.00  0.00     0.293 HD
ENDBRANCH   8  14
TORSDOF 2
ENDMDL
MODEL 4
REMARK VINA RESULT:    -5.497      5.434      7.283
REMARK INTER + INTRA:          -5.818
REMARK INTER:                  -5.818
REMARK INTRA:                   0.000
REMARK UNBOUND:                 0.000
REMARK SMILES O=c1ccc2cc(O)c(O)cc2o1
REMARK SMILES IDX 4 1 3 2 2 3 1 4 13 5 12 6 11 7 9 8 7 9 6 10 5 11 8 12 10 14
REMARK H PARENT 8 13 10 15
REMARK Flexibility Score: inf
ROOT
ATOM      1  C   UNL     1      15.215 -30.701 -20.543  1.00  0.00     0.019 A 
ATOM      2  C   UNL     1      13.986 -31.272 -20.214  1.00  0.00     0.094 A 
ATOM      3  C   UNL     1      13.865 -32.665 -20.214  1.00  0.00     0.336 A 
ATOM      4  O   UNL     1      12.764 -33.201 -19.920  1.00  0.00    -0.246 OA
ATOM      5  O   UNL     1      14.908 -33.432 -20.523  1.00  0.00    -0.423 OA
ATOM      6  C   UNL     1      16.098 -32.927 -20.842  1.00  0.00     0.142 A 
ATOM      7  C   UNL     1      17.158 -33.781 -21.158  1.00  0.00     0.098 A 
ATOM      8  C   UNL     1      18.415 -33.264 -21.496  1.00  0.00     0.161 A 
ATOM      9  C   UNL     1      18.612 -31.861 -21.517  1.00  0.00     0.158 A 
ATOM     10  C   UNL     1      17.548 -31.007 -21.201  1.00  0.00     0.062 A 
ATOM     11  C   UNL     1      16.294 -31.531 -20.863  1.00  0.00     0.022 A 
ENDROOT
BRANCH   9  12
ATOM     12  O   UNL     1      19.838 -31.278 -21.845  1.00  0.00    -0.504 OA
ATOM     13  H   UNL     1      20.192 -31.197 -22.787  1.00  0.00     0.293 HD
ENDBRANCH   9  12
BRANCH   8  14
ATOM     14  O   UNL     1      19.431 -34.174 -21.801  1.00  0.00    -0.504 OA
ATOM     15  H   UNL     1      19.818 -34.298 -22.725  1.00  0.00     0.293 HD
ENDBRANCH   8  14
TORSDOF 2
ENDMDL
MODEL 5
REMARK VINA RESULT:    -5.481      2.301      2.397
REMARK INTER + INTRA:          -5.802
REMARK INTER:                  -5.802
REMARK INTRA:                   0.000
REMARK UNBOUND:                 0.000
REMARK SMILES O=c1ccc2cc(O)c(O)cc2o1
REMARK SMILES IDX 4 1 3 2 2 3 1 4 13 5 12 6 11 7 9 8 7 9 6 10 5 11 8 12 10 14
REMARK H PARENT 8 13 10 15
REMARK Flexibility Score: inf
ROOT
ATOM      1  C   UNL     1       7.999 -32.502 -19.260  1.00  0.00     0.019 A 
ATOM      2  C   UNL     1       7.405 -31.398 -18.651  1.00  0.00     0.094 A 
ATOM      3  C   UNL     1       7.873 -30.980 -17.401  1.00  0.00     0.336 A 
ATOM      4  O   UNL     1       7.349 -29.985 -16.834  1.00  0.00    -0.246 OA
ATOM      5  O   UNL     1       8.870 -31.628 -16.804  1.00  0.00    -0.423 OA
ATOM      6  C   UNL     1       9.465 -32.686 -17.351  1.00  0.00     0.142 A 
ATOM      7  C   UNL     1      10.508 -33.327 -16.679  1.00  0.00     0.098 A 
ATOM      8  C   UNL     1      11.144 -34.441 -17.242  1.00  0.00     0.161 A 
ATOM      9  C   UNL     1      10.723 -34.922 -18.507  1.00  0.00     0.158 A 
ATOM     10  C   UNL     1       9.677 -34.277 -19.178  1.00  0.00     0.062 A 
ATOM     11  C   UNL     1       9.046 -33.163 -18.610  1.00  0.00     0.022 A 
ENDROOT
BRANCH   9  12
ATOM     12  O   UNL     1      11.311 -36.027 -19.125  1.00  0.00    -0.504 OA
ATOM     13  H   UNL     1      11.670 -36.021 -20.069  1.00  0.00     0.293 HD
ENDBRANCH   9  12
BRANCH   8  14
ATOM     14  O   UNL     1      12.179 -35.034 -16.515  1.00  0.00    -0.504 OA
ATOM     15  H   UNL     1      12.585 -34.634 -15.681  1.00  0.00     0.293 HD
ENDBRANCH   8  14
TORSDOF 2
ENDMDL
MODEL 6
REMARK VINA RESULT:    -5.477      5.611      7.050
REMARK INTER + INTRA:          -5.797
REMARK INTER:                  -5.797
REMARK INTRA:                   0.000
REMARK UNBOUND:                 0.000
REMARK SMILES O=c1ccc2cc(O)c(O)cc2o1
REMARK SMILES IDX 4 1 3 2 2 3 1 4 13 5 12 6 11 7 9 8 7 9 6 10 5 11 8 12 10 14
REMARK H PARENT 8 13 10 15
REMARK Flexibility Score: inf
ROOT
ATOM      1  C   UNL     1      14.876 -33.289 -20.443  1.00  0.00     0.019 A 
ATOM      2  C   UNL     1      13.880 -32.357 -20.153  1.00  0.00     0.094 A 
ATOM      3  C   UNL     1      14.177 -30.994 -20.257  1.00  0.00     0.336 A 
ATOM      4  O   UNL     1      13.291 -30.137 -20.000  1.00  0.00    -0.246 OA
ATOM      5  O   UNL     1      15.391 -30.595 -20.626  1.00  0.00    -0.423 OA
ATOM      6  C   UNL     1      16.369 -31.451 -20.911  1.00  0.00     0.142 A 
ATOM      7  C   UNL     1      17.626 -30.975 -21.295  1.00  0.00     0.098 A 
ATOM      8  C   UNL     1      18.665 -31.864 -21.597  1.00  0.00     0.161 A 
ATOM      9  C   UNL     1      18.439 -33.260 -21.514  1.00  0.00     0.158 A 
ATOM     10  C   UNL     1      17.179 -33.735 -21.129  1.00  0.00     0.062 A 
ATOM     11  C   UNL     1      16.144 -32.841 -20.829  1.00  0.00     0.022 A 
ENDROOT
BRANCH   9  12
ATOM     12  O   UNL     1      19.429 -34.202 -21.801  1.00  0.00    -0.504 OA
ATOM     13  H   UNL     1      19.522 -34.672 -22.690  1.00  0.00     0.293 HD
ENDBRANCH   9  12
BRANCH   8  14
ATOM     14  O   UNL     1      19.896 -31.320 -21.973  1.00  0.00    -0.504 OA
ATOM     15  H   UNL     1      20.787 -31.762 -21.793  1.00  0.00     0.293 HD
ENDBRANCH   8  14
TORSDOF 2
ENDMDL
MODEL 7
REMARK VINA RESULT:    -5.260      7.849      9.243
REMARK INTER + INTRA:          -5.567
REMARK INTER:                  -5.567
REMARK INTRA:                   0.000
REMARK UNBOUND:                 0.000
REMARK SMILES O=c1ccc2cc(O)c(O)cc2o1
REMARK SMILES IDX 4 1 3 2 2 3 1 4 13 5 12 6 11 7 9 8 7 9 6 10 5 11 8 12 10 14
REMARK H PARENT 8 13 10 15
REMARK Flexibility Score: inf
ROOT
ATOM      1  C   UNL     1      17.288 -29.086 -21.770  1.00  0.00     0.019 A 
ATOM      2  C   UNL     1      18.056 -28.070 -22.335  1.00  0.00     0.094 A 
ATOM      3  C   UNL     1      19.301 -28.389 -22.887  1.00  0.00     0.336 A 
ATOM      4  O   UNL     1      20.011 -27.485 -23.402  1.00  0.00    -0.246 OA
ATOM      5  O   UNL     1      19.744 -29.644 -22.871  1.00  0.00    -0.423 OA
ATOM      6  C   UNL     1      19.041 -30.643 -22.341  1.00  0.00     0.142 A 
ATOM      7  C   UNL     1      19.556 -31.942 -22.353  1.00  0.00     0.098 A 
ATOM      8  C   UNL     1      18.828 -33.004 -21.799  1.00  0.00     0.161 A 
ATOM      9  C   UNL     1      17.558 -32.756 -21.222  1.00  0.00     0.158 A 
ATOM     10  C   UNL     1      17.045 -31.453 -21.211  1.00  0.00     0.062 A 
ATOM     11  C   UNL     1      17.777 -30.397 -21.767  1.00  0.00     0.022 A 
ENDROOT
BRANCH   9  12
ATOM     12  O   UNL     1      16.780 -33.766 -20.652  1.00  0.00    -0.504 OA
ATOM     13  H   UNL     1      16.086 -34.297 -21.157  1.00  0.00     0.293 HD
ENDBRANCH   9  12
BRANCH   8  14
ATOM     14  O   UNL     1      19.402 -34.277 -21.844  1.00  0.00    -0.504 OA
ATOM     15  H   UNL     1      20.180 -34.566 -21.268  1.00  0.00     0.293 HD
ENDBRANCH   8  14
TORSDOF 2
ENDMDL
MODEL 8
REMARK VINA RESULT:    -5.176      1.739      1.953
REMARK INTER + INTRA:          -5.478
REMARK INTER:                  -5.478
REMARK INTRA:                   0.000
REMARK UNBOUND:                 0.000
REMARK SMILES O=c1ccc2cc(O)c(O)cc2o1
REMARK SMILES IDX 4 1 3 2 2 3 1 4 13 5 12 6 11 7 9 8 7 9 6 10 5 11 8 12 10 14
REMARK H PARENT 8 13 10 15
REMARK Flexibility Score: inf
ROOT
ATOM      1  C   UNL     1       8.522 -31.422 -17.417  1.00  0.00     0.019 A 
ATOM      2  C   UNL     1       7.899 -30.629 -18.380  1.00  0.00     0.094 A 
ATOM      3  C   UNL     1       8.031 -30.972 -19.729  1.00  0.00     0.336 A 
ATOM      4  O   UNL     1       7.476 -30.269 -20.614  1.00  0.00    -0.246 OA
ATOM      5  O   UNL     1       8.742 -32.039 -20.087  1.00  0.00    -0.423 OA
ATOM      6  C   UNL     1       9.353 -32.821 -19.200  1.00  0.00     0.142 A 
ATOM      7  C   UNL     1      10.086 -33.929 -19.633  1.00  0.00     0.098 A 
ATOM      8  C   UNL     1      10.734 -34.762 -18.711  1.00  0.00     0.161 A 
ATOM      9  C   UNL     1      10.644 -34.476 -17.326  1.00  0.00     0.158 A 
ATOM     10  C   UNL     1       9.909 -33.365 -16.895  1.00  0.00     0.062 A 
ATOM     11  C   UNL     1       9.263 -32.537 -17.822  1.00  0.00     0.022 A 
ENDROOT
BRANCH   9  12
ATOM     12  O   UNL     1      11.265 -35.263 -16.353  1.00  0.00    -0.504 OA
ATOM     13  H   UNL     1      10.887 -35.426 -15.432  1.00  0.00     0.293 HD
ENDBRANCH   9  12
BRANCH   8  14
ATOM     14  O   UNL     1      11.450 -35.852 -19.212  1.00  0.00    -0.504 OA
ATOM     15  H   UNL     1      12.458 -35.895 -19.252  1.00  0.00     0.293 HD
ENDBRANCH   8  14
TORSDOF 2
ENDMDL
MODEL 9
REMARK VINA RESULT:    -5.158      2.313      2.547
REMARK INTER + INTRA:          -5.460
REMARK INTER:                  -5.460
REMARK INTRA:                   0.000
REMARK UNBOUND:                 0.000
REMARK SMILES O=c1ccc2cc(O)c(O)cc2o1
REMARK SMILES IDX 4 1 3 2 2 3 1 4 13 5 12 6 11 7 9 8 7 9 6 10 5 11 8 12 10 14
REMARK H PARENT 8 13 10 15
REMARK Flexibility Score: inf
ROOT
ATOM      1  C   UNL     1       8.738 -32.486 -20.520  1.00  0.00     0.019 A 
ATOM      2  C   UNL     1       8.019 -31.370 -20.944  1.00  0.00     0.094 A 
ATOM      3  C   UNL     1       7.607 -30.429 -19.995  1.00  0.00     0.336 A 
ATOM      4  O   UNL     1       6.956 -29.413 -20.358  1.00  0.00    -0.246 OA
ATOM      5  O   UNL     1       7.897 -30.599 -18.707  1.00  0.00    -0.423 OA
ATOM      6  C   UNL     1       8.581 -31.651 -18.261  1.00  0.00     0.142 A 
ATOM      7  C   UNL     1       8.857 -31.777 -16.897  1.00  0.00     0.098 A 
ATOM      8  C   UNL     1       9.575 -32.878 -16.413  1.00  0.00     0.161 A 
ATOM      9  C   UNL     1      10.025 -33.873 -17.317  1.00  0.00     0.158 A 
ATOM     10  C   UNL     1       9.747 -33.743 -18.683  1.00  0.00     0.062 A 
ATOM     11  C   UNL     1       9.029 -32.640 -19.160  1.00  0.00     0.022 A 
ENDROOT
BRANCH   9  12
ATOM     12  O   UNL     1      10.746 -34.995 -16.902  1.00  0.00    -0.504 OA
ATOM     13  H   UNL     1      10.539 -35.939 -17.195  1.00  0.00     0.293 HD
ENDBRANCH   9  12
BRANCH   8  14
ATOM     14  O   UNL     1       9.816 -32.943 -15.038  1.00  0.00    -0.504 OA
ATOM     15  H   UNL     1      10.530 -33.520 -14.617  1.00  0.00     0.293 HD
ENDBRANCH   8  14
TORSDOF 2
ENDMDL
