MODEL 1
REMARK VINA RESULT:    -4.897      0.000      0.000
REMARK INTER + INTRA:          -9.997
REMARK INTER:                  -8.906
REMARK INTRA:                  -1.092
REMARK UNBOUND:                -1.092
REMARK SMILES CCCCCCCCCCCCCCCC(=O)[O-]
REMARK SMILES IDX 9 1 10 2 11 3 12 4 13 5 14 6 15 7 16 8 17 9 18 10 8 11 7 12
REMARK SMILES IDX 6 13 5 14 4 15 3 16 2 17 1 18
REMARK H PARENT
REMARK Flexibility Score: inf
ROOT
ATOM      1  C   UNL     1       4.730 -35.977  22.319  1.00  0.00     0.000 C 
ENDROOT
BRANCH   1   2
ATOM      2  C   UNL     1       5.621 -36.145  21.078  1.00  0.00     0.000 C 
BRANCH   2   3
ATOM      3  C   UNL     1       5.177 -37.314  20.183  1.00  0.00     0.000 C 
BRANCH   3   4
ATOM      4  C   UNL     1       3.982 -36.956  19.281  1.00  0.00     0.000 C 
BRANCH   4   5
ATOM      5  C   UNL     1       2.962 -38.103  19.125  1.00  0.00     0.000 C 
BRANCH   5   6
ATOM      6  C   UNL     1       2.195 -38.023  17.797  1.00  0.00     0.006 C 
BRANCH   6   7
ATOM      7  C   UNL     1       2.898 -37.086  16.811  1.00  0.00     0.053 C 
BRANCH   7   8
ATOM      8  C   UNL     1       2.848 -37.648  15.426  1.00  0.00     0.041 C 
ATOM      9  O   UNL     1       2.289 -37.002  14.499  1.00  0.00    -0.550 OA
ATOM     10  O   UNL     1       3.463 -38.862  15.144  1.00  0.00    -0.550 OA
ENDBRANCH   7   8
ENDBRANCH   6   7
ENDBRANCH   5   6
ENDBRANCH   4   5
ENDBRANCH   3   4
ENDBRANCH   2   3
ENDBRANCH   1   2
BRANCH   1  11
ATOM     11  C   UNL     1       5.384 -35.096  23.398  1.00  0.00     0.000 C 
BRANCH  11  12
ATOM     12  C   UNL     1       6.042 -35.922  24.514  1.00  0.00    -0.000 C 
BRANCH  12  13
ATOM     13  C   UNL     1       6.109 -37.424  24.180  1.00  0.00    -0.000 C 
BRANCH  13  14
ATOM     14  C   UNL     1       5.032 -38.243  24.911  1.00  0.00    -0.000 C 
BRANCH  14  15
ATOM     15  C   UNL     1       4.899 -39.671  24.356  1.00  0.00    -0.000 C 
BRANCH  15  16
ATOM     16  C   UNL     1       4.763 -39.707  22.823  1.00  0.00    -0.000 C 
BRANCH  16  17
ATOM     17  C   UNL     1       5.581 -40.808  22.123  1.00  0.00    -0.003 C 
ATOM     18  C   UNL     1       5.812 -42.035  23.005  1.00  0.00     0.004 C 
ENDBRANCH  16  17
ENDBRANCH  15  16
ENDBRANCH  14  15
ENDBRANCH  13  14
ENDBRANCH  12  13
ENDBRANCH  11  12
ENDBRANCH   1  11
TORSDOF 14
ENDMDL
MODEL 2
REMARK VINA RESULT:    -4.789      0.862      1.806
REMARK INTER + INTRA:          -9.801
REMARK INTER:                  -8.858
REMARK INTRA:                  -0.942
REMARK UNBOUND:                -1.092
REMARK SMILES CCCCCCCCCCCCCCCC(=O)[O-]
REMARK SMILES IDX 9 1 10 2 11 3 12 4 13 5 14 6 15 7 16 8 17 9 18 10 8 11 7 12
REMARK SMILES IDX 6 13 5 14 4 15 3 16 2 17 1 18
REMARK H PARENT
REMARK Flexibility Score: inf
ROOT
ATOM      1  C   UNL     1       5.557 -35.319  23.662  1.00  0.00     0.000 C 
ENDROOT
BRANCH   1   2
ATOM      2  C   UNL     1       4.865 -35.685  22.339  1.00  0.00     0.000 C 
BRANCH   2   3
ATOM      3  C   UNL     1       5.827 -36.319  21.321  1.00  0.00     0.000 C 
BRANCH   3   4
ATOM      4  C   UNL     1       5.284 -36.278  19.882  1.00  0.00     0.000 C 
BRANCH   4   5
ATOM      5  C   UNL     1       3.827 -36.769  19.758  1.00  0.00     0.000 C 
BRANCH   5   6
ATOM      6  C   UNL     1       3.670 -37.864  18.692  1.00  0.00     0.006 C 
BRANCH   6   7
ATOM      7  C   UNL     1       2.250 -37.876  18.120  1.00  0.00     0.053 C 
BRANCH   7   8
ATOM      8  C   UNL     1       2.284 -37.783  16.628  1.00  0.00     0.041 C 
ATOM      9  O   UNL     1       3.142 -38.430  15.972  1.00  0.00    -0.550 OA
ATOM     10  O   UNL     1       1.336 -37.021  15.956  1.00  0.00    -0.550 OA
ENDBRANCH   7   8
ENDBRANCH   6   7
ENDBRANCH   5   6
ENDBRANCH   4   5
ENDBRANCH   3   4
ENDBRANCH   2   3
ENDBRANCH   1   2
BRANCH   1  11
ATOM     11  C   UNL     1       6.125 -36.549  24.390  1.00  0.00     0.000 C 
BRANCH  11  12
ATOM     12  C   UNL     1       5.103 -37.199  25.337  1.00  0.00    -0.000 C 
BRANCH  12  13
ATOM     13  C   UNL     1       4.695 -38.614  24.887  1.00  0.00    -0.000 C 
BRANCH  13  14
ATOM     14  C   UNL     1       5.186 -38.950  23.470  1.00  0.00    -0.000 C 
BRANCH  14  15
ATOM     15  C   UNL     1       4.611 -40.277  22.945  1.00  0.00    -0.000 C 
BRANCH  15  16
ATOM     16  C   UNL     1       5.641 -41.105  22.155  1.00  0.00    -0.000 C 
BRANCH  16  17
ATOM     17  C   UNL     1       6.116 -42.391  22.853  1.00  0.00    -0.003 C 
ATOM     18  C   UNL     1       5.801 -42.413  24.349  1.00  0.00     0.004 C 
ENDBRANCH  16  17
ENDBRANCH  15  16
ENDBRANCH  14  15
ENDBRANCH  13  14
ENDBRANCH  12  13
ENDBRANCH  11  12
ENDBRANCH   1  11
TORSDOF 14
ENDMDL
MODEL 3
REMARK VINA RESULT:    -4.738      3.059      7.297
REMARK INTER + INTRA:          -9.707
REMARK INTER:                  -8.829
REMARK INTRA:                  -0.878
REMARK UNBOUND:                -1.092
REMARK SMILES CCCCCCCCCCCCCCCC(=O)[O-]
REMARK SMILES IDX 9 1 10 2 11 3 12 4 13 5 14 6 15 7 16 8 17 9 18 10 8 11 7 12
REMARK SMILES IDX 6 13 5 14 4 15 3 16 2 17 1 18
REMARK H PARENT
REMARK Flexibility Score: inf
ROOT
ATOM      1  C   UNL     1       5.148 -37.269  21.185  1.00  0.00     0.000 C 
ENDROOT
BRANCH   1   2
ATOM      2  C   UNL     1       5.983 -36.022  21.516  1.00  0.00     0.000 C 
BRANCH   2   3
ATOM      3  C   UNL     1       6.113 -35.780  23.029  1.00  0.00     0.000 C 
BRANCH   3   4
ATOM      4  C   UNL     1       5.080 -36.569  23.851  1.00  0.00     0.000 C 
BRANCH   4   5
ATOM      5  C   UNL     1       5.706 -37.421  24.974  1.00  0.00     0.000 C 
BRANCH   5   6
ATOM      6  C   UNL     1       5.027 -38.792  25.113  1.00  0.00     0.006 C 
BRANCH   6   7
ATOM      7  C   UNL     1       4.544 -39.307  23.755  1.00  0.00     0.053 C 
BRANCH   7   8
ATOM      8  C   UNL     1       5.275 -40.556  23.378  1.00  0.00     0.041 C 
ATOM      9  O   UNL     1       5.548 -41.420  24.253  1.00  0.00    -0.550 OA
ATOM     10  O   UNL     1       5.609 -40.793  22.050  1.00  0.00    -0.550 OA
ENDBRANCH   7   8
ENDBRANCH   6   7
ENDBRANCH   5   6
ENDBRANCH   4   5
ENDBRANCH   3   4
ENDBRANCH   2   3
ENDBRANCH   1   2
BRANCH   1  11
ATOM     11  C   UNL     1       4.925 -37.445  19.673  1.00  0.00     0.000 C 
BRANCH  11  12
ATOM     12  C   UNL     1       3.436 -37.508  19.299  1.00  0.00    -0.000 C 
BRANCH  12  13
ATOM     13  C   UNL     1       3.192 -38.213  17.951  1.00  0.00    -0.000 C 
BRANCH  13  14
ATOM     14  C   UNL     1       1.937 -37.694  17.230  1.00  0.00    -0.000 C 
BRANCH  14  15
ATOM     15  C   UNL     1       2.264 -36.638  16.160  1.00  0.00    -0.000 C 
BRANCH  15  16
ATOM     16  C   UNL     1       2.174 -37.191  14.726  1.00  0.00    -0.000 C 
BRANCH  16  17
ATOM     17  C   UNL     1       3.522 -37.572  14.090  1.00  0.00    -0.003 C 
ATOM     18  C   UNL     1       3.895 -39.038  14.309  1.00  0.00     0.004 C 
ENDBRANCH  16  17
ENDBRANCH  15  16
ENDBRANCH  14  15
ENDBRANCH  13  14
ENDBRANCH  12  13
ENDBRANCH  11  12
ENDBRANCH   1  11
TORSDOF 14
ENDMDL
MODEL 4
REMARK VINA RESULT:    -4.266      2.650      6.427
REMARK INTER + INTRA:          -8.848
REMARK INTER:                  -7.795
REMARK INTRA:                  -1.053
REMARK UNBOUND:                -1.092
REMARK SMILES CCCCCCCCCCCCCCCC(=O)[O-]
REMARK SMILES IDX 9 1 10 2 11 3 12 4 13 5 14 6 15 7 16 8 17 9 18 10 8 11 7 12
REMARK SMILES IDX 6 13 5 14 4 15 3 16 2 17 1 18
REMARK H PARENT
REMARK Flexibility Score: inf
ROOT
ATOM      1  C   UNL     1       5.086 -35.606  22.492  1.00  0.00     0.000 C 
ENDROOT
BRANCH   1   2
ATOM      2  C   UNL     1       6.088 -35.297  23.616  1.00  0.00     0.000 C 
BRANCH   2   3
ATOM      3  C   UNL     1       6.124 -36.390  24.696  1.00  0.00     0.000 C 
BRANCH   3   4
ATOM      4  C   UNL     1       4.852 -37.256  24.712  1.00  0.00     0.000 C 
BRANCH   4   5
ATOM      5  C   UNL     1       4.992 -38.542  25.552  1.00  0.00     0.000 C 
BRANCH   5   6
ATOM      6  C   UNL     1       5.032 -39.807  24.681  1.00  0.00     0.006 C 
BRANCH   6   7
ATOM      7  C   UNL     1       4.786 -39.467  23.208  1.00  0.00     0.053 C 
BRANCH   7   8
ATOM      8  C   UNL     1       5.383 -40.514  22.322  1.00  0.00     0.041 C 
ATOM      9  O   UNL     1       5.685 -40.239  21.130  1.00  0.00    -0.550 OA
ATOM     10  O   UNL     1       5.655 -41.780  22.826  1.00  0.00    -0.550 OA
ENDBRANCH   7   8
ENDBRANCH   6   7
ENDBRANCH   5   6
ENDBRANCH   4   5
ENDBRANCH   3   4
ENDBRANCH   2   3
ENDBRANCH   1   2
BRANCH   1  11
ATOM     11  C   UNL     1       5.640 -36.612  21.468  1.00  0.00     0.000 C 
BRANCH  11  12
ATOM     12  C   UNL     1       5.284 -36.237  20.021  1.00  0.00    -0.000 C 
BRANCH  12  13
ATOM     13  C   UNL     1       4.608 -37.392  19.258  1.00  0.00    -0.000 C 
BRANCH  13  14
ATOM     14  C   UNL     1       3.084 -37.422  19.458  1.00  0.00    -0.000 C 
BRANCH  14  15
ATOM     15  C   UNL     1       2.355 -38.165  18.326  1.00  0.00    -0.000 C 
BRANCH  15  16
ATOM     16  C   UNL     1       3.143 -38.162  17.003  1.00  0.00    -0.000 C 
BRANCH  16  17
ATOM     17  C   UNL     1       2.813 -36.998  16.052  1.00  0.00    -0.003 C 
ATOM     18  C   UNL     1       1.324 -36.654  16.020  1.00  0.00     0.004 C 
ENDBRANCH  16  17
ENDBRANCH  15  16
ENDBRANCH  14  15
ENDBRANCH  13  14
ENDBRANCH  12  13
ENDBRANCH  11  12
ENDBRANCH   1  11
TORSDOF 14
ENDMDL
MODEL 5
REMARK VINA RESULT:    -4.073      1.012      3.199
REMARK INTER + INTRA:          -8.499
REMARK INTER:                  -7.502
REMARK INTRA:                  -0.997
REMARK UNBOUND:                -1.092
REMARK SMILES CCCCCCCCCCCCCCCC(=O)[O-]
REMARK SMILES IDX 9 1 10 2 11 3 12 4 13 5 14 6 15 7 16 8 17 9 18 10 8 11 7 12
REMARK SMILES IDX 6 13 5 14 4 15 3 16 2 17 1 18
REMARK H PARENT
REMARK Flexibility Score: inf
ROOT
ATOM      1  C   UNL     1       4.785 -38.938  20.647  1.00  0.00     0.000 C 
ENDROOT
BRANCH   1   2
ATOM      2  C   UNL     1       5.125 -37.443  20.546  1.00  0.00     0.000 C 
BRANCH   2   3
ATOM      3  C   UNL     1       4.293 -36.715  19.478  1.00  0.00     0.000 C 
BRANCH   3   4
ATOM      4  C   UNL     1       3.877 -37.635  18.316  1.00  0.00     0.000 C 
BRANCH   4   5
ATOM      5  C   UNL     1       2.370 -37.963  18.300  1.00  0.00     0.000 C 
BRANCH   5   6
ATOM      6  C   UNL     1       1.715 -37.629  16.951  1.00  0.00     0.006 C 
BRANCH   6   7
ATOM      7  C   UNL     1       2.684 -36.866  16.044  1.00  0.00     0.053 C 
BRANCH   7   8
ATOM      8  C   UNL     1       2.692 -37.457  14.670  1.00  0.00     0.041 C 
ATOM      9  O   UNL     1       1.741 -37.227  13.875  1.00  0.00    -0.550 OA
ATOM     10  O   UNL     1       3.773 -38.219  14.246  1.00  0.00    -0.550 OA
ENDBRANCH   7   8
ENDBRANCH   6   7
ENDBRANCH   5   6
ENDBRANCH   4   5
ENDBRANCH   3   4
ENDBRANCH   2   3
ENDBRANCH   1   2
BRANCH   1  11
ATOM     11  C   UNL     1       5.761 -39.706  21.555  1.00  0.00     0.000 C 
BRANCH  11  12
ATOM     12  C   UNL     1       5.087 -40.237  22.830  1.00  0.00    -0.000 C 
BRANCH  12  13
ATOM     13  C   UNL     1       4.392 -39.126  23.640  1.00  0.00    -0.000 C 
BRANCH  13  14
ATOM     14  C   UNL     1       4.938 -39.008  25.073  1.00  0.00    -0.000 C 
BRANCH  14  15
ATOM     15  C   UNL     1       5.136 -37.546  25.510  1.00  0.00    -0.000 C 
BRANCH  15  16
ATOM     16  C   UNL     1       6.124 -36.781  24.610  1.00  0.00    -0.000 C 
BRANCH  16  17
ATOM     17  C   UNL     1       5.483 -35.730  23.687  1.00  0.00    -0.003 C 
ATOM     18  C   UNL     1       6.064 -34.329  23.880  1.00  0.00     0.004 C 
ENDBRANCH  16  17
ENDBRANCH  15  16
ENDBRANCH  14  15
ENDBRANCH  13  14
ENDBRANCH  12  13
ENDBRANCH  11  12
ENDBRANCH   1  11
TORSDOF 14
ENDMDL
MODEL 6
REMARK VINA RESULT:    -3.935      1.157      3.209
REMARK INTER + INTRA:          -8.246
REMARK INTER:                  -6.979
REMARK INTRA:                  -1.268
REMARK UNBOUND:                -1.092
REMARK SMILES CCCCCCCCCCCCCCCC(=O)[O-]
REMARK SMILES IDX 9 1 10 2 11 3 12 4 13 5 14 6 15 7 16 8 17 9 18 10 8 11 7 12
REMARK SMILES IDX 6 13 5 14 4 15 3 16 2 17 1 18
REMARK H PARENT
REMARK Flexibility Score: inf
ROOT
ATOM      1  C   UNL     1       4.030 -38.052  20.555  1.00  0.00     0.000 C 
ENDROOT
BRANCH   1   2
ATOM      2  C   UNL     1       4.195 -36.524  20.550  1.00  0.00     0.000 C 
BRANCH   2   3
ATOM      3  C   UNL     1       5.598 -36.080  20.103  1.00  0.00     0.000 C 
BRANCH   3   4
ATOM      4  C   UNL     1       5.613 -35.492  18.681  1.00  0.00     0.000 C 
BRANCH   4   5
ATOM      5  C   UNL     1       4.223 -35.454  18.014  1.00  0.00     0.000 C 
BRANCH   5   6
ATOM      6  C   UNL     1       3.900 -36.755  17.265  1.00  0.00     0.006 C 
BRANCH   6   7
ATOM      7  C   UNL     1       2.560 -36.650  16.532  1.00  0.00     0.053 C 
BRANCH   7   8
ATOM      8  C   UNL     1       2.599 -37.425  15.253  1.00  0.00     0.041 C 
ATOM      9  O   UNL     1       1.910 -37.055  14.266  1.00  0.00    -0.550 OA
ATOM     10  O   UNL     1       3.436 -38.527  15.132  1.00  0.00    -0.550 OA
ENDBRANCH   7   8
ENDBRANCH   6   7
ENDBRANCH   5   6
ENDBRANCH   4   5
ENDBRANCH   3   4
ENDBRANCH   2   3
ENDBRANCH   1   2
BRANCH   1  11
ATOM     11  C   UNL     1       5.370 -38.789  20.721  1.00  0.00     0.000 C 
BRANCH  11  12
ATOM     12  C   UNL     1       5.303 -39.905  21.776  1.00  0.00    -0.000 C 
BRANCH  12  13
ATOM     13  C   UNL     1       4.325 -39.580  22.921  1.00  0.00    -0.000 C 
BRANCH  13  14
ATOM     14  C   UNL     1       4.998 -39.620  24.303  1.00  0.00    -0.000 C 
BRANCH  14  15
ATOM     15  C   UNL     1       5.052 -38.236  24.973  1.00  0.00    -0.000 C 
BRANCH  15  16
ATOM     16  C   UNL     1       6.083 -37.296  24.323  1.00  0.00    -0.000 C 
BRANCH  16  17
ATOM     17  C   UNL     1       5.984 -35.822  24.756  1.00  0.00    -0.003 C 
ATOM     18  C   UNL     1       6.065 -34.846  23.582  1.00  0.00     0.004 C 
ENDBRANCH  16  17
ENDBRANCH  15  16
ENDBRANCH  14  15
ENDBRANCH  13  14
ENDBRANCH  12  13
ENDBRANCH  11  12
ENDBRANCH   1  11
TORSDOF 14
ENDMDL
MODEL 7
REMARK VINA RESULT:    -3.934      3.269      7.479
REMARK INTER + INTRA:          -8.246
REMARK INTER:                  -7.752
REMARK INTRA:                  -0.494
REMARK UNBOUND:                -1.092
REMARK SMILES CCCCCCCCCCCCCCCC(=O)[O-]
REMARK SMILES IDX 9 1 10 2 11 3 12 4 13 5 14 6 15 7 16 8 17 9 18 10 8 11 7 12
REMARK SMILES IDX 6 13 5 14 4 15 3 16 2 17 1 18
REMARK H PARENT
REMARK Flexibility Score: inf
ROOT
ATOM      1  C   UNL     1       5.166 -38.431  21.217  1.00  0.00     0.000 C 
ENDROOT
BRANCH   1   2
ATOM      2  C   UNL     1       5.125 -39.833  21.845  1.00  0.00     0.000 C 
BRANCH   2   3
ATOM      3  C   UNL     1       4.258 -39.891  23.114  1.00  0.00     0.000 C 
BRANCH   3   4
ATOM      4  C   UNL     1       5.092 -39.915  24.406  1.00  0.00     0.000 C 
BRANCH   4   5
ATOM      5  C   UNL     1       4.999 -38.610  25.225  1.00  0.00     0.000 C 
BRANCH   5   6
ATOM      6  C   UNL     1       5.900 -37.502  24.659  1.00  0.00     0.006 C 
BRANCH   6   7
ATOM      7  C   UNL     1       5.244 -36.128  24.811  1.00  0.00     0.053 C 
BRANCH   7   8
ATOM      8  C   UNL     1       5.654 -35.224  23.692  1.00  0.00     0.041 C 
ATOM      9  O   UNL     1       6.125 -34.082  23.940  1.00  0.00    -0.550 OA
ATOM     10  O   UNL     1       5.565 -35.660  22.376  1.00  0.00    -0.550 OA
ENDBRANCH   7   8
ENDBRANCH   6   7
ENDBRANCH   5   6
ENDBRANCH   4   5
ENDBRANCH   3   4
ENDBRANCH   2   3
ENDBRANCH   1   2
BRANCH   1  11
ATOM     11  C   UNL     1       4.759 -38.437  19.733  1.00  0.00     0.000 C 
BRANCH  11  12
ATOM     12  C   UNL     1       3.771 -37.312  19.388  1.00  0.00    -0.000 C 
BRANCH  12  13
ATOM     13  C   UNL     1       3.676 -37.051  17.873  1.00  0.00    -0.000 C 
BRANCH  13  14
ATOM     14  C   UNL     1       2.445 -37.716  17.234  1.00  0.00    -0.000 C 
BRANCH  14  15
ATOM     15  C   UNL     1       1.757 -36.811  16.198  1.00  0.00    -0.000 C 
BRANCH  15  16
ATOM     16  C   UNL     1       2.033 -37.243  14.747  1.00  0.00    -0.000 C 
BRANCH  16  17
ATOM     17  C   UNL     1       3.514 -37.497  14.414  1.00  0.00    -0.003 C 
ATOM     18  C   UNL     1       3.845 -38.980  14.246  1.00  0.00     0.004 C 
ENDBRANCH  16  17
ENDBRANCH  15  16
ENDBRANCH  14  15
ENDBRANCH  13  14
ENDBRANCH  12  13
ENDBRANCH  11  12
ENDBRANCH   1  11
TORSDOF 14
ENDMDL
MODEL 8
REMARK VINA RESULT:    -3.815      3.556      7.687
REMARK INTER + INTRA:          -8.028
REMARK INTER:                  -7.857
REMARK INTRA:                  -0.171
REMARK UNBOUND:                -1.092
REMARK SMILES CCCCCCCCCCCCCCCC(=O)[O-]
REMARK SMILES IDX 9 1 10 2 11 3 12 4 13 5 14 6 15 7 16 8 17 9 18 10 8 11 7 12
REMARK SMILES IDX 6 13 5 14 4 15 3 16 2 17 1 18
REMARK H PARENT
REMARK Flexibility Score: inf
ROOT
ATOM      1  C   UNL     1       4.645 -37.582  19.544  1.00  0.00     0.000 C 
ENDROOT
BRANCH   1   2
ATOM      2  C   UNL     1       5.331 -36.292  20.021  1.00  0.00     0.000 C 
BRANCH   2   3
ATOM      3  C   UNL     1       6.125 -36.487  21.323  1.00  0.00     0.000 C 
BRANCH   3   4
ATOM      4  C   UNL     1       6.091 -35.248  22.235  1.00  0.00     0.000 C 
BRANCH   4   5
ATOM      5  C   UNL     1       5.159 -35.404  23.454  1.00  0.00     0.000 C 
BRANCH   5   6
ATOM      6  C   UNL     1       5.831 -36.165  24.607  1.00  0.00     0.006 C 
BRANCH   6   7
ATOM      7  C   UNL     1       6.124 -37.615  24.213  1.00  0.00     0.053 C 
BRANCH   7   8
ATOM      8  C   UNL     1       5.036 -38.520  24.696  1.00  0.00     0.041 C 
ATOM      9  O   UNL     1       4.750 -39.566  24.055  1.00  0.00    -0.550 OA
ATOM     10  O   UNL     1       4.371 -38.238  25.883  1.00  0.00    -0.550 OA
ENDBRANCH   7   8
ENDBRANCH   6   7
ENDBRANCH   5   6
ENDBRANCH   4   5
ENDBRANCH   3   4
ENDBRANCH   2   3
ENDBRANCH   1   2
BRANCH   1  11
ATOM     11  C   UNL     1       3.126 -37.567  19.788  1.00  0.00     0.000 C 
BRANCH  11  12
ATOM     12  C   UNL     1       2.340 -38.252  18.659  1.00  0.00    -0.000 C 
BRANCH  12  13
ATOM     13  C   UNL     1       3.031 -38.117  17.290  1.00  0.00    -0.000 C 
BRANCH  13  14
ATOM     14  C   UNL     1       2.727 -36.777  16.601  1.00  0.00    -0.000 C 
BRANCH  14  15
ATOM     15  C   UNL     1       1.711 -36.920  15.454  1.00  0.00    -0.000 C 
BRANCH  15  16
ATOM     16  C   UNL     1       2.337 -37.490  14.169  1.00  0.00    -0.000 C 
BRANCH  16  17
ATOM     17  C   UNL     1       3.846 -37.776  14.251  1.00  0.00    -0.003 C 
ATOM     18  C   UNL     1       4.202 -39.223  13.907  1.00  0.00     0.004 C 
ENDBRANCH  16  17
ENDBRANCH  15  16
ENDBRANCH  14  15
ENDBRANCH  13  14
ENDBRANCH  12  13
ENDBRANCH  11  12
ENDBRANCH   1  11
TORSDOF 14
ENDMDL
