MODEL 1
REMARK VINA RESULT:    -4.089      0.000      0.000
REMARK INTER + INTRA:          -7.627
REMARK INTER:                  -6.480
REMARK INTRA:                  -1.147
REMARK UNBOUND:                -1.147
REMARK SMILES CCCCCCCCCCCC(=O)[O-]
REMARK SMILES IDX 7 1 8 2 9 3 10 4 11 5 12 6 13 7 14 8 6 9 5 10 4 11 3 12 2 13
REMARK SMILES IDX 1 14
REMARK H PARENT
REMARK Flexibility Score: inf
ROOT
ATOM      1  C   UNL     1     148.831 286.065 277.510  1.00  0.00     0.000 C 
ENDROOT
BRANCH   1   2
ATOM      2  C   UNL     1     148.095 286.016 278.863  1.00  0.00     0.000 C 
BRANCH   2   3
ATOM      3  C   UNL     1     146.900 286.977 278.988  1.00  0.00     0.000 C 
BRANCH   3   4
ATOM      4  C   UNL     1     147.207 288.200 279.864  1.00  0.00     0.006 C 
BRANCH   4   5
ATOM      5  C   UNL     1     147.271 289.477 279.021  1.00  0.00     0.053 C 
BRANCH   5   6
ATOM      6  C   UNL     1     146.104 290.363 279.321  1.00  0.00     0.041 C 
ATOM      7  O   UNL     1     146.011 291.496 278.780  1.00  0.00    -0.550 OA
ATOM      8  O   UNL     1     145.091 289.917 280.162  1.00  0.00    -0.550 OA
ENDBRANCH   5   6
ENDBRANCH   4   5
ENDBRANCH   3   4
ENDBRANCH   2   3
ENDBRANCH   1   2
BRANCH   1   9
ATOM      9  C   UNL     1     149.856 287.208 277.362  1.00  0.00     0.000 C 
BRANCH   9  10
ATOM     10  C   UNL     1     151.032 287.164 278.354  1.00  0.00    -0.000 C 
BRANCH  10  11
ATOM     11  C   UNL     1     151.013 288.334 279.354  1.00  0.00    -0.000 C 
BRANCH  11  12
ATOM     12  C   UNL     1     150.717 287.876 280.790  1.00  0.00    -0.000 C 
BRANCH  12  13
ATOM     13  C   UNL     1     151.992 287.661 281.620  1.00  0.00    -0.003 C 
ATOM     14  C   UNL     1     152.730 288.978 281.843  1.00  0.00     0.004 C 
ENDBRANCH  12  13
ENDBRANCH  11  12
ENDBRANCH  10  11
ENDBRANCH   9  10
ENDBRANCH   1   9
TORSDOF 10
ENDMDL
MODEL 2
REMARK VINA RESULT:    -3.912      2.705      5.266
REMARK INTER + INTRA:          -7.345
REMARK INTER:                  -6.173
REMARK INTRA:                  -1.173
REMARK UNBOUND:                -1.147
REMARK SMILES CCCCCCCCCCCC(=O)[O-]
REMARK SMILES IDX 7 1 8 2 9 3 10 4 11 5 12 6 13 7 14 8 6 9 5 10 4 11 3 12 2 13
REMARK SMILES IDX 1 14
REMARK H PARENT
REMARK Flexibility Score: inf
ROOT
ATOM      1  C   UNL     1     147.493 286.653 278.411  1.00  0.00     0.000 C 
ENDROOT
BRANCH   1   2
ATOM      2  C   UNL     1     148.835 286.086 277.908  1.00  0.00     0.000 C 
BRANCH   2   3
ATOM      3  C   UNL     1     149.850 287.142 277.436  1.00  0.00     0.000 C 
BRANCH   3   4
ATOM      4  C   UNL     1     151.116 287.182 278.304  1.00  0.00     0.006 C 
BRANCH   4   5
ATOM      5  C   UNL     1     151.093 288.386 279.251  1.00  0.00     0.053 C 
BRANCH   5   6
ATOM      6  C   UNL     1     151.273 287.942 280.668  1.00  0.00     0.041 C 
ATOM      7  O   UNL     1     150.701 286.901 281.084  1.00  0.00    -0.550 OA
ATOM      8  O   UNL     1     152.113 288.652 281.517  1.00  0.00    -0.550 OA
ENDBRANCH   5   6
ENDBRANCH   4   5
ENDBRANCH   3   4
ENDBRANCH   2   3
ENDBRANCH   1   2
BRANCH   1   9
ATOM      9  C   UNL     1     147.450 287.006 279.911  1.00  0.00     0.000 C 
BRANCH   9  10
ATOM     10  C   UNL     1     147.323 288.508 280.225  1.00  0.00    -0.000 C 
BRANCH  10  11
ATOM     11  C   UNL     1     147.562 289.397 278.992  1.00  0.00    -0.000 C 
BRANCH  11  12
ATOM     12  C   UNL     1     146.388 290.350 278.718  1.00  0.00    -0.000 C 
BRANCH  12  13
ATOM     13  C   UNL     1     145.288 290.259 279.786  1.00  0.00    -0.003 C 
ATOM     14  C   UNL     1     144.749 291.643 280.138  1.00  0.00     0.004 C 
ENDBRANCH  12  13
ENDBRANCH  11  12
ENDBRANCH  10  11
ENDBRANCH   9  10
ENDBRANCH   1   9
TORSDOF 10
ENDMDL
MODEL 3
REMARK VINA RESULT:    -3.875      1.448      2.911
REMARK INTER + INTRA:          -7.287
REMARK INTER:                  -6.349
REMARK INTRA:                  -0.938
REMARK UNBOUND:                -1.147
REMARK SMILES CCCCCCCCCCCC(=O)[O-]
REMARK SMILES IDX 7 1 8 2 9 3 10 4 11 5 12 6 13 7 14 8 6 9 5 10 4 11 3 12 2 13
REMARK SMILES IDX 1 14
REMARK H PARENT
REMARK Flexibility Score: inf
ROOT
ATOM      1  C   UNL     1     146.074 287.108 278.878  1.00  0.00     0.000 C 
ENDROOT
BRANCH   1   2
ATOM      2  C   UNL     1     146.898 288.127 279.690  1.00  0.00     0.000 C 
BRANCH   2   3
ATOM      3  C   UNL     1     147.180 289.457 278.969  1.00  0.00     0.000 C 
BRANCH   3   4
ATOM      4  C   UNL     1     146.048 290.479 279.140  1.00  0.00     0.006 C 
BRANCH   4   5
ATOM      5  C   UNL     1     145.287 290.241 280.448  1.00  0.00     0.053 C 
BRANCH   5   6
ATOM      6  C   UNL     1     144.706 291.522 280.957  1.00  0.00     0.041 C 
ATOM      7  O   UNL     1     144.740 292.561 280.247  1.00  0.00    -0.550 OA
ATOM      8  O   UNL     1     144.080 291.557 282.197  1.00  0.00    -0.550 OA
ENDBRANCH   5   6
ENDBRANCH   4   5
ENDBRANCH   3   4
ENDBRANCH   2   3
ENDBRANCH   1   2
BRANCH   1   9
ATOM      9  C   UNL     1     146.844 285.847 278.434  1.00  0.00     0.000 C 
BRANCH   9  10
ATOM     10  C   UNL     1     148.370 285.914 278.622  1.00  0.00    -0.000 C 
BRANCH  10  11
ATOM     11  C   UNL     1     149.117 286.262 277.322  1.00  0.00    -0.000 C 
BRANCH  11  12
ATOM     12  C   UNL     1     150.050 287.472 277.486  1.00  0.00    -0.000 C 
BRANCH  12  13
ATOM     13  C   UNL     1     151.017 287.320 278.670  1.00  0.00    -0.003 C 
ATOM     14  C   UNL     1     150.699 288.327 279.771  1.00  0.00     0.004 C 
ENDBRANCH  12  13
ENDBRANCH  11  12
ENDBRANCH  10  11
ENDBRANCH   9  10
ENDBRANCH   1   9
TORSDOF 10
ENDMDL
MODEL 4
REMARK VINA RESULT:    -3.860      1.731      3.274
REMARK INTER + INTRA:          -7.263
REMARK INTER:                  -5.965
REMARK INTRA:                  -1.298
REMARK UNBOUND:                -1.147
REMARK SMILES CCCCCCCCCCCC(=O)[O-]
REMARK SMILES IDX 7 1 8 2 9 3 10 4 11 5 12 6 13 7 14 8 6 9 5 10 4 11 3 12 2 13
REMARK SMILES IDX 1 14
REMARK H PARENT
REMARK Flexibility Score: inf
ROOT
ATOM      1  C   UNL     1     149.986 288.620 278.592  1.00  0.00     0.000 C 
ENDROOT
BRANCH   1   2
ATOM      2  C   UNL     1     149.284 288.202 279.898  1.00  0.00     0.000 C 
BRANCH   2   3
ATOM      3  C   UNL     1     147.808 288.624 280.007  1.00  0.00     0.000 C 
BRANCH   3   4
ATOM      4  C   UNL     1     147.386 289.604 278.903  1.00  0.00     0.006 C 
BRANCH   4   5
ATOM      5  C   UNL     1     145.860 289.710 278.818  1.00  0.00     0.053 C 
BRANCH   5   6
ATOM      6  C   UNL     1     145.374 290.895 279.591  1.00  0.00     0.041 C 
ATOM      7  O   UNL     1     145.447 292.050 279.095  1.00  0.00    -0.550 OA
ATOM      8  O   UNL     1     144.795 290.719 280.842  1.00  0.00    -0.550 OA
ENDBRANCH   5   6
ENDBRANCH   4   5
ENDBRANCH   3   4
ENDBRANCH   2   3
ENDBRANCH   1   2
BRANCH   1   9
ATOM      9  C   UNL     1     150.098 287.513 277.523  1.00  0.00     0.000 C 
BRANCH   9  10
ATOM     10  C   UNL     1     149.548 286.139 277.947  1.00  0.00    -0.000 C 
BRANCH  10  11
ATOM     11  C   UNL     1     148.131 285.872 277.410  1.00  0.00    -0.000 C 
BRANCH  11  12
ATOM     12  C   UNL     1     147.202 285.270 278.476  1.00  0.00    -0.000 C 
BRANCH  12  13
ATOM     13  C   UNL     1     147.957 284.821 279.736  1.00  0.00    -0.003 C 
ATOM     14  C   UNL     1     147.131 285.082 280.993  1.00  0.00     0.004 C 
ENDBRANCH  12  13
ENDBRANCH  11  12
ENDBRANCH  10  11
ENDBRANCH   9  10
ENDBRANCH   1   9
TORSDOF 10
ENDMDL
MODEL 5
REMARK VINA RESULT:    -3.860      2.128      3.967
REMARK INTER + INTRA:          -7.263
REMARK INTER:                  -6.493
REMARK INTRA:                  -0.770
REMARK UNBOUND:                -1.147
REMARK SMILES CCCCCCCCCCCC(=O)[O-]
REMARK SMILES IDX 7 1 8 2 9 3 10 4 11 5 12 6 13 7 14 8 6 9 5 10 4 11 3 12 2 13
REMARK SMILES IDX 1 14
REMARK H PARENT
REMARK Flexibility Score: inf
ROOT
ATOM      1  C   UNL     1     146.523 288.762 279.264  1.00  0.00     0.000 C 
ENDROOT
BRANCH   1   2
ATOM      2  C   UNL     1     146.624 290.224 278.785  1.00  0.00     0.000 C 
BRANCH   2   3
ATOM      3  C   UNL     1     145.287 290.985 278.738  1.00  0.00     0.000 C 
BRANCH   3   4
ATOM      4  C   UNL     1     145.181 292.071 279.819  1.00  0.00     0.006 C 
BRANCH   4   5
ATOM      5  C   UNL     1     144.059 291.749 280.811  1.00  0.00     0.053 C 
BRANCH   5   6
ATOM      6  C   UNL     1     144.627 291.273 282.109  1.00  0.00     0.041 C 
ATOM      7  O   UNL     1     144.559 291.999 283.136  1.00  0.00    -0.550 OA
ATOM      8  O   UNL     1     145.189 290.005 282.199  1.00  0.00    -0.550 OA
ENDBRANCH   5   6
ENDBRANCH   4   5
ENDBRANCH   3   4
ENDBRANCH   2   3
ENDBRANCH   1   2
BRANCH   1   9
ATOM      9  C   UNL     1     147.703 288.272 280.128  1.00  0.00     0.000 C 
BRANCH   9  10
ATOM     10  C   UNL     1     147.787 286.746 280.313  1.00  0.00    -0.000 C 
BRANCH  10  11
ATOM     11  C   UNL     1     148.958 286.115 279.538  1.00  0.00    -0.000 C 
BRANCH  11  12
ATOM     12  C   UNL     1     148.794 286.245 278.016  1.00  0.00    -0.000 C 
BRANCH  12  13
ATOM     13  C   UNL     1     149.884 287.116 277.374  1.00  0.00    -0.003 C 
ATOM     14  C   UNL     1     151.068 287.299 278.320  1.00  0.00     0.004 C 
ENDBRANCH  12  13
ENDBRANCH  11  12
ENDBRANCH  10  11
ENDBRANCH   9  10
ENDBRANCH   1   9
TORSDOF 10
ENDMDL
MODEL 6
REMARK VINA RESULT:    -3.845      3.207      5.435
REMARK INTER + INTRA:          -7.240
REMARK INTER:                  -6.189
REMARK INTRA:                  -1.051
REMARK UNBOUND:                -1.147
REMARK SMILES CCCCCCCCCCCC(=O)[O-]
REMARK SMILES IDX 7 1 8 2 9 3 10 4 11 5 12 6 13 7 14 8 6 9 5 10 4 11 3 12 2 13
REMARK SMILES IDX 1 14
REMARK H PARENT
REMARK Flexibility Score: inf
ROOT
ATOM      1  C   UNL     1     150.054 287.738 277.815  1.00  0.00     0.000 C 
ENDROOT
BRANCH   1   2
ATOM      2  C   UNL     1     151.186 287.715 278.860  1.00  0.00     0.000 C 
BRANCH   2   3
ATOM      3  C   UNL     1     150.737 287.963 280.311  1.00  0.00     0.000 C 
BRANCH   3   4
ATOM      4  C   UNL     1     151.902 288.324 281.243  1.00  0.00     0.006 C 
BRANCH   4   5
ATOM      5  C   UNL     1     153.227 288.363 280.474  1.00  0.00     0.053 C 
BRANCH   5   6
ATOM      6  C   UNL     1     153.709 289.771 280.331  1.00  0.00     0.041 C 
ATOM      7  O   UNL     1     154.403 290.106 279.336  1.00  0.00    -0.550 OA
ATOM      8  O   UNL     1     153.351 290.728 281.273  1.00  0.00    -0.550 OA
ENDBRANCH   5   6
ENDBRANCH   4   5
ENDBRANCH   3   4
ENDBRANCH   2   3
ENDBRANCH   1   2
BRANCH   1   9
ATOM      9  C   UNL     1     149.564 286.352 277.348  1.00  0.00     0.000 C 
BRANCH   9  10
ATOM     10  C   UNL     1     148.071 286.069 277.597  1.00  0.00    -0.000 C 
BRANCH  10  11
ATOM     11  C   UNL     1     147.652 286.318 279.057  1.00  0.00    -0.000 C 
BRANCH  11  12
ATOM     12  C   UNL     1     146.582 287.414 279.184  1.00  0.00    -0.000 C 
BRANCH  12  13
ATOM     13  C   UNL     1     147.119 288.692 279.845  1.00  0.00    -0.003 C 
ATOM     14  C   UNL     1     147.254 289.822 278.828  1.00  0.00     0.004 C 
ENDBRANCH  12  13
ENDBRANCH  11  12
ENDBRANCH  10  11
ENDBRANCH   9  10
ENDBRANCH   1   9
TORSDOF 10
ENDMDL
MODEL 7
REMARK VINA RESULT:    -3.827      2.138      3.261
REMARK INTER + INTRA:          -7.211
REMARK INTER:                  -5.959
REMARK INTRA:                  -1.252
REMARK UNBOUND:                -1.147
REMARK SMILES CCCCCCCCCCCC(=O)[O-]
REMARK SMILES IDX 7 1 8 2 9 3 10 4 11 5 12 6 13 7 14 8 6 9 5 10 4 11 3 12 2 13
REMARK SMILES IDX 1 14
REMARK H PARENT
REMARK Flexibility Score: inf
ROOT
ATOM      1  C   UNL     1     151.026 287.242 278.280  1.00  0.00     0.000 C 
ENDROOT
BRANCH   1   2
ATOM      2  C   UNL     1     149.636 287.338 277.621  1.00  0.00     0.000 C 
BRANCH   2   3
ATOM      3  C   UNL     1     148.836 286.024 277.597  1.00  0.00     0.000 C 
BRANCH   3   4
ATOM      4  C   UNL     1     147.485 286.135 278.317  1.00  0.00     0.006 C 
BRANCH   4   5
ATOM      5  C   UNL     1     147.311 287.521 278.946  1.00  0.00     0.053 C 
BRANCH   5   6
ATOM      6  C   UNL     1     146.643 287.412 280.280  1.00  0.00     0.041 C 
ATOM      7  O   UNL     1     146.148 286.317 280.654  1.00  0.00    -0.550 OA
ATOM      8  O   UNL     1     146.611 288.508 281.133  1.00  0.00    -0.550 OA
ENDBRANCH   5   6
ENDBRANCH   4   5
ENDBRANCH   3   4
ENDBRANCH   2   3
ENDBRANCH   1   2
BRANCH   1   9
ATOM      9  C   UNL     1     151.222 288.123 279.530  1.00  0.00     0.000 C 
BRANCH   9  10
ATOM     10  C   UNL     1     150.364 287.731 280.747  1.00  0.00    -0.000 C 
BRANCH  10  11
ATOM     11  C   UNL     1     150.751 286.362 281.334  1.00  0.00    -0.000 C 
BRANCH  11  12
ATOM     12  C   UNL     1     149.620 285.329 281.213  1.00  0.00    -0.000 C 
BRANCH  12  13
ATOM     13  C   UNL     1     149.896 284.051 282.019  1.00  0.00    -0.003 C 
ATOM     14  C   UNL     1     150.985 284.285 283.063  1.00  0.00     0.004 C 
ENDBRANCH  12  13
ENDBRANCH  11  12
ENDBRANCH  10  11
ENDBRANCH   9  10
ENDBRANCH   1   9
TORSDOF 10
ENDMDL
MODEL 8
REMARK VINA RESULT:    -3.817      3.285      5.940
REMARK INTER + INTRA:          -7.196
REMARK INTER:                  -6.400
REMARK INTRA:                  -0.796
REMARK UNBOUND:                -1.147
REMARK SMILES CCCCCCCCCCCC(=O)[O-]
REMARK SMILES IDX 7 1 8 2 9 3 10 4 11 5 12 6 13 7 14 8 6 9 5 10 4 11 3 12 2 13
REMARK SMILES IDX 1 14
REMARK H PARENT
REMARK Flexibility Score: inf
ROOT
ATOM      1  C   UNL     1     146.622 290.497 278.911  1.00  0.00     0.000 C 
ENDROOT
BRANCH   1   2
ATOM      2  C   UNL     1     146.380 289.003 279.199  1.00  0.00     0.000 C 
BRANCH   2   3
ATOM      3  C   UNL     1     147.194 288.428 280.372  1.00  0.00     0.000 C 
BRANCH   3   4
ATOM      4  C   UNL     1     148.372 287.558 279.911  1.00  0.00     0.006 C 
BRANCH   4   5
ATOM      5  C   UNL     1     148.956 288.080 278.594  1.00  0.00     0.053 C 
BRANCH   5   6
ATOM      6  C   UNL     1     149.643 286.978 277.852  1.00  0.00     0.041 C 
ATOM      7  O   UNL     1     150.892 286.841 277.932  1.00  0.00    -0.550 OA
ATOM      8  O   UNL     1     148.898 286.069 277.111  1.00  0.00    -0.550 OA
ENDBRANCH   5   6
ENDBRANCH   4   5
ENDBRANCH   3   4
ENDBRANCH   2   3
ENDBRANCH   1   2
BRANCH   1   9
ATOM      9  C   UNL     1     145.355 291.377 278.904  1.00  0.00     0.000 C 
BRANCH   9  10
ATOM     10  C   UNL     1     144.302 291.014 279.967  1.00  0.00    -0.000 C 
BRANCH  10  11
ATOM     11  C   UNL     1     144.165 292.087 281.061  1.00  0.00    -0.000 C 
BRANCH  11  12
ATOM     12  C   UNL     1     144.624 291.584 282.439  1.00  0.00    -0.000 C 
BRANCH  12  13
ATOM     13  C   UNL     1     144.630 290.051 282.539  1.00  0.00    -0.003 C 
ATOM     14  C   UNL     1     145.689 289.570 283.528  1.00  0.00     0.004 C 
ENDBRANCH  12  13
ENDBRANCH  11  12
ENDBRANCH  10  11
ENDBRANCH   9  10
ENDBRANCH   1   9
TORSDOF 10
ENDMDL
MODEL 9
REMARK VINA RESULT:    -3.759      3.824      5.502
REMARK INTER + INTRA:          -7.103
REMARK INTER:                  -6.161
REMARK INTRA:                  -0.943
REMARK UNBOUND:                -1.147
REMARK SMILES CCCCCCCCCCCC(=O)[O-]
REMARK SMILES IDX 7 1 8 2 9 3 10 4 11 5 12 6 13 7 14 8 6 9 5 10 4 11 3 12 2 13
REMARK SMILES IDX 1 14
REMARK H PARENT
REMARK Flexibility Score: inf
ROOT
ATOM      1  C   UNL     1     149.858 286.959 277.514  1.00  0.00     0.000 C 
ENDROOT
BRANCH   1   2
ATOM      2  C   UNL     1     150.121 288.089 278.528  1.00  0.00     0.000 C 
BRANCH   2   3
ATOM      3  C   UNL     1     151.391 287.916 279.380  1.00  0.00     0.000 C 
BRANCH   3   4
ATOM      4  C   UNL     1     151.129 288.091 280.882  1.00  0.00     0.006 C 
BRANCH   4   5
ATOM      5  C   UNL     1     152.346 287.658 281.705  1.00  0.00     0.053 C 
BRANCH   5   6
ATOM      6  C   UNL     1     153.423 288.693 281.633  1.00  0.00     0.041 C 
ATOM      7  O   UNL     1     154.620 288.352 281.438  1.00  0.00    -0.550 OA
ATOM      8  O   UNL     1     153.100 290.041 281.732  1.00  0.00    -0.550 OA
ENDBRANCH   5   6
ENDBRANCH   4   5
ENDBRANCH   3   4
ENDBRANCH   2   3
ENDBRANCH   1   2
BRANCH   1   9
ATOM      9  C   UNL     1     148.714 285.995 277.889  1.00  0.00     0.000 C 
BRANCH   9  10
ATOM     10  C   UNL     1     148.202 286.120 279.335  1.00  0.00    -0.000 C 
BRANCH  10  11
ATOM     11  C   UNL     1     148.394 284.828 280.150  1.00  0.00    -0.000 C 
BRANCH  11  12
ATOM     12  C   UNL     1     149.465 284.974 281.241  1.00  0.00    -0.000 C 
BRANCH  12  13
ATOM     13  C   UNL     1     149.696 283.673 282.023  1.00  0.00    -0.003 C 
ATOM     14  C   UNL     1     149.101 282.476 281.286  1.00  0.00     0.004 C 
ENDBRANCH  12  13
ENDBRANCH  11  12
ENDBRANCH  10  11
ENDBRANCH   9  10
ENDBRANCH   1   9
TORSDOF 10
ENDMDL
