MODEL 1
REMARK VINA RESULT:     1.993      0.000      0.000
REMARK INTER + INTRA:           2.599
REMARK INTER:                   3.625
REMARK INTRA:                  -1.026
REMARK UNBOUND:                -1.026
REMARK SMILES CCCCCCCCCCCCCCCC(=O)[O-]
REMARK SMILES IDX 9 1 10 2 11 3 12 4 13 5 14 6 15 7 16 8 17 9 18 10 8 11 7 12
REMARK SMILES IDX 6 13 5 14 4 15 3 16 2 17 1 18
REMARK H PARENT
REMARK Flexibility Score: inf
ROOT
ATOM      1  C   UNL     1     -12.954  -1.600 -14.440  1.00  0.00     0.000 C 
ENDROOT
BRANCH   1   2
ATOM      2  C   UNL     1     -12.067  -2.515 -13.575  1.00  0.00     0.000 C 
BRANCH   2   3
ATOM      3  C   UNL     1     -11.903  -2.073 -12.110  1.00  0.00     0.000 C 
BRANCH   3   4
ATOM      4  C   UNL     1     -12.133  -3.216 -11.108  1.00  0.00     0.000 C 
BRANCH   4   5
ATOM      5  C   UNL     1     -13.600  -3.285 -10.628  1.00  0.00     0.000 C 
BRANCH   5   6
ATOM      6  C   UNL     1     -13.758  -3.907  -9.227  1.00  0.00     0.006 C 
BRANCH   6   7
ATOM      7  C   UNL     1     -12.695  -4.963  -8.889  1.00  0.00     0.053 C 
BRANCH   7   8
ATOM      8  C   UNL     1     -13.243  -6.354  -8.984  1.00  0.00     0.041 C 
ATOM      9  O   UNL     1     -14.477  -6.542  -9.155  1.00  0.00    -0.550 OA
ATOM     10  O   UNL     1     -12.391  -7.446  -8.875  1.00  0.00    -0.550 OA
ENDBRANCH   7   8
ENDBRANCH   6   7
ENDBRANCH   5   6
ENDBRANCH   4   5
ENDBRANCH   3   4
ENDBRANCH   2   3
ENDBRANCH   1   2
BRANCH   1  11
ATOM     11  C   UNL     1     -13.039  -2.060 -15.905  1.00  0.00     0.000 C 
BRANCH  11  12
ATOM     12  C   UNL     1     -14.361  -2.780 -16.230  1.00  0.00    -0.000 C 
BRANCH  12  13
ATOM     13  C   UNL     1     -14.388  -4.290 -15.912  1.00  0.00    -0.000 C 
BRANCH  13  14
ATOM     14  C   UNL     1     -14.497  -4.639 -14.418  1.00  0.00    -0.000 C 
BRANCH  14  15
ATOM     15  C   UNL     1     -13.627  -5.846 -14.024  1.00  0.00    -0.000 C 
BRANCH  15  16
ATOM     16  C   UNL     1     -14.087  -7.149 -14.695  1.00  0.00    -0.000 C 
BRANCH  16  17
ATOM     17  C   UNL     1     -12.948  -7.864 -15.437  1.00  0.00    -0.003 C 
ATOM     18  C   UNL     1     -13.340  -8.174 -16.879  1.00  0.00     0.004 C 
ENDBRANCH  16  17
ENDBRANCH  15  16
ENDBRANCH  14  15
ENDBRANCH  13  14
ENDBRANCH  12  13
ENDBRANCH  11  12
ENDBRANCH   1  11
TORSDOF 14
ENDMDL
MODEL 2
REMARK VINA RESULT:     2.995      2.067      2.498
REMARK INTER + INTRA:           4.420
REMARK INTER:                   2.742
REMARK INTRA:                   1.678
REMARK UNBOUND:                -1.026
REMARK SMILES CCCCCCCCCCCCCCCC(=O)[O-]
REMARK SMILES IDX 9 1 10 2 11 3 12 4 13 5 14 6 15 7 16 8 17 9 18 10 8 11 7 12
REMARK SMILES IDX 6 13 5 14 4 15 3 16 2 17 1 18
REMARK H PARENT
REMARK Flexibility Score: inf
ROOT
ATOM      1  C   UNL     1     -12.876  -1.356 -14.307  1.00  0.00     0.000 C 
ENDROOT
BRANCH   1   2
ATOM      2  C   UNL     1     -11.973  -2.528 -13.884  1.00  0.00     0.000 C 
BRANCH   2   3
ATOM      3  C   UNL     1     -11.877  -2.767 -12.367  1.00  0.00     0.000 C 
BRANCH   3   4
ATOM      4  C   UNL     1     -12.827  -3.869 -11.870  1.00  0.00     0.000 C 
BRANCH   4   5
ATOM      5  C   UNL     1     -12.130  -4.847 -10.898  1.00  0.00     0.000 C 
BRANCH   5   6
ATOM      6  C   UNL     1     -12.436  -4.559  -9.415  1.00  0.00     0.006 C 
BRANCH   6   7
ATOM      7  C   UNL     1     -11.908  -3.206  -8.919  1.00  0.00     0.053 C 
BRANCH   7   8
ATOM      8  C   UNL     1     -12.979  -2.158  -8.913  1.00  0.00     0.041 C 
ATOM      9  O   UNL     1     -12.675  -0.936  -8.893  1.00  0.00    -0.550 OA
ATOM     10  O   UNL     1     -14.317  -2.532  -8.921  1.00  0.00    -0.550 OA
ENDBRANCH   7   8
ENDBRANCH   6   7
ENDBRANCH   5   6
ENDBRANCH   4   5
ENDBRANCH   3   4
ENDBRANCH   2   3
ENDBRANCH   1   2
BRANCH   1  11
ATOM     11  C   UNL     1     -14.209  -1.819 -14.919  1.00  0.00     0.000 C 
BRANCH  11  12
ATOM     12  C   UNL     1     -15.208  -2.326 -13.862  1.00  0.00    -0.000 C 
BRANCH  12  13
ATOM     13  C   UNL     1     -14.983  -3.776 -13.382  1.00  0.00    -0.000 C 
BRANCH  13  14
ATOM     14  C   UNL     1     -14.089  -4.632 -14.295  1.00  0.00    -0.000 C 
BRANCH  14  15
ATOM     15  C   UNL     1     -14.449  -6.128 -14.246  1.00  0.00    -0.000 C 
BRANCH  15  16
ATOM     16  C   UNL     1     -13.297  -7.027 -14.717  1.00  0.00    -0.000 C 
BRANCH  16  17
ATOM     17  C   UNL     1     -13.732  -8.024 -15.801  1.00  0.00    -0.003 C 
ATOM     18  C   UNL     1     -12.532  -8.539 -16.591  1.00  0.00     0.004 C 
ENDBRANCH  16  17
ENDBRANCH  15  16
ENDBRANCH  14  15
ENDBRANCH  13  14
ENDBRANCH  12  13
ENDBRANCH  11  12
ENDBRANCH   1  11
TORSDOF 14
ENDMDL
MODEL 3
REMARK VINA RESULT:     3.313      2.360      5.552
REMARK INTER + INTRA:           4.999
REMARK INTER:                   6.152
REMARK INTRA:                  -1.154
REMARK UNBOUND:                -1.026
REMARK SMILES CCCCCCCCCCCCCCCC(=O)[O-]
REMARK SMILES IDX 9 1 10 2 11 3 12 4 13 5 14 6 15 7 16 8 17 9 18 10 8 11 7 12
REMARK SMILES IDX 6 13 5 14 4 15 3 16 2 17 1 18
REMARK H PARENT
REMARK Flexibility Score: inf
ROOT
ATOM      1  C   UNL     1     -13.234  -1.834 -14.095  1.00  0.00     0.000 C 
ENDROOT
BRANCH   1   2
ATOM      2  C   UNL     1     -13.251  -1.323 -15.547  1.00  0.00     0.000 C 
BRANCH   2   3
ATOM      3  C   UNL     1     -13.813  -2.312 -16.584  1.00  0.00     0.000 C 
BRANCH   3   4
ATOM      4  C   UNL     1     -14.792  -3.329 -15.976  1.00  0.00     0.000 C 
BRANCH   4   5
ATOM      5  C   UNL     1     -14.137  -4.711 -15.756  1.00  0.00     0.000 C 
BRANCH   5   6
ATOM      6  C   UNL     1     -14.346  -5.268 -14.334  1.00  0.00     0.006 C 
BRANCH   6   7
ATOM      7  C   UNL     1     -13.544  -6.544 -14.040  1.00  0.00     0.053 C 
BRANCH   7   8
ATOM      8  C   UNL     1     -13.837  -7.628 -15.033  1.00  0.00     0.041 C 
ATOM      9  O   UNL     1     -13.131  -7.750 -16.068  1.00  0.00    -0.550 OA
ATOM     10  O   UNL     1     -14.899  -8.498 -14.819  1.00  0.00    -0.550 OA
ENDBRANCH   7   8
ENDBRANCH   6   7
ENDBRANCH   5   6
ENDBRANCH   4   5
ENDBRANCH   3   4
ENDBRANCH   2   3
ENDBRANCH   1   2
BRANCH   1  11
ATOM     11  C   UNL     1     -11.875  -2.423 -13.684  1.00  0.00     0.000 C 
BRANCH  11  12
ATOM     12  C   UNL     1     -11.878  -2.994 -12.253  1.00  0.00    -0.000 C 
BRANCH  12  13
ATOM     13  C   UNL     1     -12.530  -2.092 -11.184  1.00  0.00    -0.000 C 
BRANCH  13  14
ATOM     14  C   UNL     1     -11.991  -2.281  -9.755  1.00  0.00    -0.000 C 
BRANCH  14  15
ATOM     15  C   UNL     1     -12.908  -3.158  -8.885  1.00  0.00    -0.000 C 
BRANCH  15  16
ATOM     16  C   UNL     1     -12.563  -4.651  -8.984  1.00  0.00    -0.000 C 
BRANCH  16  17
ATOM     17  C   UNL     1     -13.604  -5.444  -9.789  1.00  0.00    -0.003 C 
ATOM     18  C   UNL     1     -14.400  -6.382  -8.886  1.00  0.00     0.004 C 
ENDBRANCH  16  17
ENDBRANCH  15  16
ENDBRANCH  14  15
ENDBRANCH  13  14
ENDBRANCH  12  13
ENDBRANCH  11  12
ENDBRANCH   1  11
TORSDOF 14
ENDMDL
MODEL 4
REMARK VINA RESULT:     3.363     19.660     22.336
REMARK INTER + INTRA:           5.090
REMARK INTER:                   5.869
REMARK INTRA:                  -0.779
REMARK UNBOUND:                -1.026
REMARK SMILES CCCCCCCCCCCCCCCC(=O)[O-]
REMARK SMILES IDX 9 1 10 2 11 3 12 4 13 5 14 6 15 7 16 8 17 9 18 10 8 11 7 12
REMARK SMILES IDX 6 13 5 14 4 15 3 16 2 17 1 18
REMARK H PARENT
REMARK Flexibility Score: inf
ROOT
ATOM      1  C   UNL     1     -30.290  -2.520 -27.357  1.00  0.00     0.000 C 
ENDROOT
BRANCH   1   2
ATOM      2  C   UNL     1     -31.554  -3.050 -26.656  1.00  0.00     0.000 C 
BRANCH   2   3
ATOM      3  C   UNL     1     -31.997  -2.255 -25.415  1.00  0.00     0.000 C 
BRANCH   3   4
ATOM      4  C   UNL     1     -30.994  -1.161 -25.012  1.00  0.00     0.000 C 
BRANCH   4   5
ATOM      5  C   UNL     1     -30.944  -0.949 -23.483  1.00  0.00     0.000 C 
BRANCH   5   6
ATOM      6  C   UNL     1     -29.532  -0.629 -22.954  1.00  0.00     0.006 C 
BRANCH   6   7
ATOM      7  C   UNL     1     -28.935  -1.727 -22.063  1.00  0.00     0.053 C 
BRANCH   7   8
ATOM      8  C   UNL     1     -29.433  -1.632 -20.653  1.00  0.00     0.041 C 
ATOM      9  O   UNL     1     -30.490  -0.998 -20.393  1.00  0.00    -0.550 OA
ATOM     10  O   UNL     1     -28.724  -2.236 -19.623  1.00  0.00    -0.550 OA
ENDBRANCH   7   8
ENDBRANCH   6   7
ENDBRANCH   5   6
ENDBRANCH   4   5
ENDBRANCH   3   4
ENDBRANCH   2   3
ENDBRANCH   1   2
BRANCH   1  11
ATOM     11  C   UNL     1     -30.570  -1.986 -28.772  1.00  0.00     0.000 C 
BRANCH  11  12
ATOM     12  C   UNL     1     -31.989  -1.407 -28.923  1.00  0.00    -0.000 C 
BRANCH  12  13
ATOM     13  C   UNL     1     -32.094   0.127 -28.787  1.00  0.00    -0.000 C 
BRANCH  13  14
ATOM     14  C   UNL     1     -32.122   0.653 -27.342  1.00  0.00    -0.000 C 
BRANCH  14  15
ATOM     15  C   UNL     1     -31.057   1.734 -27.082  1.00  0.00    -0.000 C 
BRANCH  15  16
ATOM     16  C   UNL     1     -31.654   3.018 -26.488  1.00  0.00    -0.000 C 
BRANCH  16  17
ATOM     17  C   UNL     1     -30.783   4.253 -26.760  1.00  0.00    -0.003 C 
ATOM     18  C   UNL     1     -30.623   4.495 -28.259  1.00  0.00     0.004 C 
ENDBRANCH  16  17
ENDBRANCH  15  16
ENDBRANCH  14  15
ENDBRANCH  13  14
ENDBRANCH  12  13
ENDBRANCH  11  12
ENDBRANCH   1  11
TORSDOF 14
ENDMDL
MODEL 5
REMARK VINA RESULT:     4.002      2.547      6.134
REMARK INTER + INTRA:           6.252
REMARK INTER:                   5.825
REMARK INTRA:                   0.427
REMARK UNBOUND:                -1.026
REMARK SMILES CCCCCCCCCCCCCCCC(=O)[O-]
REMARK SMILES IDX 9 1 10 2 11 3 12 4 13 5 14 6 15 7 16 8 17 9 18 10 8 11 7 12
REMARK SMILES IDX 6 13 5 14 4 15 3 16 2 17 1 18
REMARK H PARENT
REMARK Flexibility Score: inf
ROOT
ATOM      1  C   UNL     1     -14.136  -2.113 -13.708  1.00  0.00     0.000 C 
ENDROOT
BRANCH   1   2
ATOM      2  C   UNL     1     -13.571  -1.314 -14.897  1.00  0.00     0.000 C 
BRANCH   2   3
ATOM      3  C   UNL     1     -13.642  -2.029 -16.259  1.00  0.00     0.000 C 
BRANCH   3   4
ATOM      4  C   UNL     1     -14.653  -3.186 -16.279  1.00  0.00     0.000 C 
BRANCH   4   5
ATOM      5  C   UNL     1     -14.381  -4.180 -17.430  1.00  0.00     0.000 C 
BRANCH   5   6
ATOM      6  C   UNL     1     -13.732  -5.496 -16.963  1.00  0.00     0.006 C 
BRANCH   6   7
ATOM      7  C   UNL     1     -14.036  -5.859 -15.502  1.00  0.00     0.053 C 
BRANCH   7   8
ATOM      8  C   UNL     1     -13.870  -7.327 -15.247  1.00  0.00     0.041 C 
ATOM      9  O   UNL     1     -14.522  -7.890 -14.328  1.00  0.00    -0.550 OA
ATOM     10  O   UNL     1     -12.987  -8.071 -16.019  1.00  0.00    -0.550 OA
ENDBRANCH   7   8
ENDBRANCH   6   7
ENDBRANCH   5   6
ENDBRANCH   4   5
ENDBRANCH   3   4
ENDBRANCH   2   3
ENDBRANCH   1   2
BRANCH   1  11
ATOM     11  C   UNL     1     -13.687  -3.583 -13.708  1.00  0.00     0.000 C 
BRANCH  11  12
ATOM     12  C   UNL     1     -12.890  -3.965 -12.446  1.00  0.00    -0.000 C 
BRANCH  12  13
ATOM     13  C   UNL     1     -13.741  -4.293 -11.201  1.00  0.00    -0.000 C 
BRANCH  13  14
ATOM     14  C   UNL     1     -13.034  -5.150 -10.136  1.00  0.00    -0.000 C 
BRANCH  14  15
ATOM     15  C   UNL     1     -12.667  -4.347  -8.876  1.00  0.00    -0.000 C 
BRANCH  15  16
ATOM     16  C   UNL     1     -13.019  -2.857  -9.002  1.00  0.00    -0.000 C 
BRANCH  16  17
ATOM     17  C   UNL     1     -11.876  -2.031  -9.610  1.00  0.00    -0.003 C 
ATOM     18  C   UNL     1     -11.938  -0.579  -9.145  1.00  0.00     0.004 C 
ENDBRANCH  16  17
ENDBRANCH  15  16
ENDBRANCH  14  15
ENDBRANCH  13  14
ENDBRANCH  12  13
ENDBRANCH  11  12
ENDBRANCH   1  11
TORSDOF 14
ENDMDL
MODEL 6
REMARK VINA RESULT:     4.190      3.186      5.498
REMARK INTER + INTRA:           6.593
REMARK INTER:                   6.045
REMARK INTRA:                   0.548
REMARK UNBOUND:                -1.026
REMARK SMILES CCCCCCCCCCCCCCCC(=O)[O-]
REMARK SMILES IDX 9 1 10 2 11 3 12 4 13 5 14 6 15 7 16 8 17 9 18 10 8 11 7 12
REMARK SMILES IDX 6 13 5 14 4 15 3 16 2 17 1 18
REMARK H PARENT
REMARK Flexibility Score: inf
ROOT
ATOM      1  C   UNL     1     -14.074  -2.985  -9.706  1.00  0.00     0.000 C 
ENDROOT
BRANCH   1   2
ATOM      2  C   UNL     1     -12.669  -2.366  -9.596  1.00  0.00     0.000 C 
BRANCH   2   3
ATOM      3  C   UNL     1     -11.875  -2.304 -10.914  1.00  0.00     0.000 C 
BRANCH   3   4
ATOM      4  C   UNL     1     -12.706  -2.725 -12.137  1.00  0.00     0.000 C 
BRANCH   4   5
ATOM      5  C   UNL     1     -12.042  -2.305 -13.467  1.00  0.00     0.000 C 
BRANCH   5   6
ATOM      6  C   UNL     1     -12.907  -1.347 -14.308  1.00  0.00     0.006 C 
BRANCH   6   7
ATOM      7  C   UNL     1     -14.121  -2.018 -14.967  1.00  0.00     0.053 C 
BRANCH   7   8
ATOM      8  C   UNL     1     -13.857  -2.363 -16.401  1.00  0.00     0.041 C 
ATOM      9  O   UNL     1     -14.296  -3.438 -16.889  1.00  0.00    -0.550 OA
ATOM     10  O   UNL     1     -13.116  -1.499 -17.199  1.00  0.00    -0.550 OA
ENDBRANCH   7   8
ENDBRANCH   6   7
ENDBRANCH   5   6
ENDBRANCH   4   5
ENDBRANCH   3   4
ENDBRANCH   2   3
ENDBRANCH   1   2
BRANCH   1  11
ATOM     11  C   UNL     1     -14.229  -4.269  -8.875  1.00  0.00     0.000 C 
BRANCH  11  12
ATOM     12  C   UNL     1     -13.349  -5.424  -9.388  1.00  0.00    -0.000 C 
BRANCH  12  13
ATOM     13  C   UNL     1     -13.806  -6.063 -10.717  1.00  0.00    -0.000 C 
BRANCH  13  14
ATOM     14  C   UNL     1     -13.091  -5.536 -11.973  1.00  0.00    -0.000 C 
BRANCH  14  15
ATOM     15  C   UNL     1     -14.039  -4.785 -12.925  1.00  0.00    -0.000 C 
BRANCH  15  16
ATOM     16  C   UNL     1     -14.169  -5.473 -14.292  1.00  0.00    -0.000 C 
BRANCH  16  17
ATOM     17  C   UNL     1     -14.020  -6.998 -14.201  1.00  0.00    -0.003 C 
ATOM     18  C   UNL     1     -13.409  -7.569 -15.478  1.00  0.00     0.004 C 
ENDBRANCH  16  17
ENDBRANCH  15  16
ENDBRANCH  14  15
ENDBRANCH  13  14
ENDBRANCH  12  13
ENDBRANCH  11  12
ENDBRANCH   1  11
TORSDOF 14
ENDMDL
MODEL 7
REMARK VINA RESULT:     4.927      2.470      5.751
REMARK INTER + INTRA:           7.934
REMARK INTER:                   8.668
REMARK INTRA:                  -0.735
REMARK UNBOUND:                -1.026
REMARK SMILES CCCCCCCCCCCCCCCC(=O)[O-]
REMARK SMILES IDX 9 1 10 2 11 3 12 4 13 5 14 6 15 7 16 8 17 9 18 10 8 11 7 12
REMARK SMILES IDX 6 13 5 14 4 15 3 16 2 17 1 18
REMARK H PARENT
REMARK Flexibility Score: inf
ROOT
ATOM      1  C   UNL     1     -13.573  -3.810  -8.875  1.00  0.00     0.000 C 
ENDROOT
BRANCH   1   2
ATOM      2  C   UNL     1     -13.743  -5.328  -9.066  1.00  0.00     0.000 C 
BRANCH   2   3
ATOM      3  C   UNL     1     -13.471  -5.845 -10.490  1.00  0.00     0.000 C 
BRANCH   3   4
ATOM      4  C   UNL     1     -13.981  -4.891 -11.583  1.00  0.00     0.000 C 
BRANCH   4   5
ATOM      5  C   UNL     1     -13.382  -5.219 -12.969  1.00  0.00     0.000 C 
BRANCH   5   6
ATOM      6  C   UNL     1     -14.408  -5.127 -14.116  1.00  0.00     0.006 C 
BRANCH   6   7
ATOM      7  C   UNL     1     -13.939  -5.776 -15.426  1.00  0.00     0.053 C 
BRANCH   7   8
ATOM      8  C   UNL     1     -13.751  -7.256 -15.279  1.00  0.00     0.041 C 
ATOM      9  O   UNL     1     -14.432  -7.903 -14.441  1.00  0.00    -0.550 OA
ATOM     10  O   UNL     1     -12.815  -7.919 -16.063  1.00  0.00    -0.550 OA
ENDBRANCH   7   8
ENDBRANCH   6   7
ENDBRANCH   5   6
ENDBRANCH   4   5
ENDBRANCH   3   4
ENDBRANCH   2   3
ENDBRANCH   1   2
BRANCH   1  11
ATOM     11  C   UNL     1     -12.102  -3.364  -8.913  1.00  0.00     0.000 C 
BRANCH  11  12
ATOM     12  C   UNL     1     -11.942  -1.835  -9.011  1.00  0.00    -0.000 C 
BRANCH  12  13
ATOM     13  C   UNL     1     -11.875  -1.268 -10.445  1.00  0.00    -0.000 C 
BRANCH  13  14
ATOM     14  C   UNL     1     -11.979  -2.317 -11.566  1.00  0.00    -0.000 C 
BRANCH  14  15
ATOM     15  C   UNL     1     -11.875  -1.697 -12.970  1.00  0.00    -0.000 C 
BRANCH  15  16
ATOM     16  C   UNL     1     -12.986  -2.184 -13.913  1.00  0.00    -0.000 C 
BRANCH  16  17
ATOM     17  C   UNL     1     -12.621  -2.008 -15.394  1.00  0.00    -0.003 C 
ATOM     18  C   UNL     1     -13.865  -1.756 -16.242  1.00  0.00     0.004 C 
ENDBRANCH  16  17
ENDBRANCH  15  16
ENDBRANCH  14  15
ENDBRANCH  13  14
ENDBRANCH  12  13
ENDBRANCH  11  12
ENDBRANCH   1  11
TORSDOF 14
ENDMDL
