MODEL 1
REMARK VINA RESULT:    -4.760      0.000      0.000
REMARK INTER + INTRA:          -4.899
REMARK INTER:                  -4.899
REMARK INTRA:                   0.000
REMARK UNBOUND:                 0.000
REMARK SMILES O=c1ccc2ccc(O)cc2o1
REMARK SMILES IDX 6 1 7 2 8 3 10 4 11 5 5 6 4 7 3 8 2 9 1 10 12 11 9 12
REMARK H PARENT 9 13
REMARK Flexibility Score: inf
ROOT
ATOM      1  C   UNL     1      18.544   6.525 -10.440  1.00  0.00     0.016 A 
ATOM      2  C   UNL     1      17.490   5.606 -10.428  1.00  0.00     0.047 A 
ATOM      3  C   UNL     1      17.599   4.393 -11.125  1.00  0.00     0.119 A 
ATOM      4  C   UNL     1      18.769   4.100 -11.836  1.00  0.00     0.094 A 
ATOM      5  C   UNL     1      19.829   5.012 -11.854  1.00  0.00     0.142 A 
ATOM      6  C   UNL     1      19.717   6.233 -11.151  1.00  0.00     0.018 A 
ATOM      7  C   UNL     1      20.793   7.125 -11.188  1.00  0.00     0.019 A 
ATOM      8  C   UNL     1      21.937   6.787 -11.909  1.00  0.00     0.094 A 
ATOM      9  C   UNL     1      21.978   5.560 -12.581  1.00  0.00     0.336 A 
ATOM     10  O   UNL     1      23.002   5.239 -13.239  1.00  0.00    -0.246 OA
ATOM     11  O   UNL     1      20.939   4.729 -12.531  1.00  0.00    -0.423 OA
ENDROOT
BRANCH   3  12
ATOM     12  O   UNL     1      16.552   3.474 -11.117  1.00  0.00    -0.508 OA
ATOM     13  H   UNL     1      15.887   3.422 -11.879  1.00  0.00     0.293 HD
ENDBRANCH   3  12
TORSDOF 1
ENDMDL
MODEL 2
REMARK VINA RESULT:    -4.745      0.758      4.222
REMARK INTER + INTRA:          -4.884
REMARK INTER:                  -4.884
REMARK INTRA:                   0.000
REMARK UNBOUND:                 0.000
REMARK SMILES O=c1ccc2ccc(O)cc2o1
REMARK SMILES IDX 6 1 7 2 8 3 10 4 11 5 5 6 4 7 3 8 2 9 1 10 12 11 9 12
REMARK H PARENT 9 13
REMARK Flexibility Score: inf
ROOT
ATOM      1  C   UNL     1      20.862   7.125 -11.156  1.00  0.00     0.016 A 
ATOM      2  C   UNL     1      22.013   6.837 -11.895  1.00  0.00     0.047 A 
ATOM      3  C   UNL     1      22.109   5.638 -12.617  1.00  0.00     0.119 A 
ATOM      4  C   UNL     1      21.049   4.724 -12.598  1.00  0.00     0.094 A 
ATOM      5  C   UNL     1      19.893   5.003 -11.861  1.00  0.00     0.142 A 
ATOM      6  C   UNL     1      19.798   6.212 -11.136  1.00  0.00     0.018 A 
ATOM      7  C   UNL     1      18.630   6.464 -10.409  1.00  0.00     0.019 A 
ATOM      8  C   UNL     1      17.601   5.523 -10.421  1.00  0.00     0.094 A 
ATOM      9  C   UNL     1      17.765   4.348 -11.163  1.00  0.00     0.336 A 
ATOM     10  O   UNL     1      16.847   3.487 -11.186  1.00  0.00    -0.246 OA
ATOM     11  O   UNL     1      18.887   4.133 -11.846  1.00  0.00    -0.423 OA
ENDROOT
BRANCH   3  12
ATOM     12  O   UNL     1      23.255   5.345 -13.355  1.00  0.00    -0.508 OA
ATOM     13  H   UNL     1      23.368   5.668 -14.308  1.00  0.00     0.293 HD
ENDBRANCH   3  12
TORSDOF 1
ENDMDL
MODEL 3
REMARK VINA RESULT:    -4.739      1.484      2.353
REMARK INTER + INTRA:          -4.877
REMARK INTER:                  -4.877
REMARK INTRA:                   0.000
REMARK UNBOUND:                 0.000
REMARK SMILES O=c1ccc2ccc(O)cc2o1
REMARK SMILES IDX 6 1 7 2 8 3 10 4 11 5 5 6 4 7 3 8 2 9 1 10 12 11 9 12
REMARK H PARENT 9 13
REMARK Flexibility Score: inf
ROOT
ATOM      1  C   UNL     1      17.923   3.416 -11.884  1.00  0.00     0.016 A 
ATOM      2  C   UNL     1      16.810   3.717 -11.093  1.00  0.00     0.047 A 
ATOM      3  C   UNL     1      16.730   4.946 -10.422  1.00  0.00     0.119 A 
ATOM      4  C   UNL     1      17.768   5.877 -10.544  1.00  0.00     0.094 A 
ATOM      5  C   UNL     1      18.886   5.585 -11.333  1.00  0.00     0.142 A 
ATOM      6  C   UNL     1      18.964   4.346 -12.009  1.00  0.00     0.018 A 
ATOM      7  C   UNL     1      20.093   4.083 -12.790  1.00  0.00     0.019 A 
ATOM      8  C   UNL     1      21.101   5.042 -12.881  1.00  0.00     0.094 A 
ATOM      9  C   UNL     1      20.955   6.247 -12.184  1.00  0.00     0.336 A 
ATOM     10  O   UNL     1      21.855   7.125 -12.253  1.00  0.00    -0.246 OA
ATOM     11  O   UNL     1      19.871   6.473 -11.447  1.00  0.00    -0.423 OA
ENDROOT
BRANCH   3  12
ATOM     12  O   UNL     1      15.623   5.252  -9.632  1.00  0.00    -0.508 OA
ATOM     13  H   UNL     1      15.727   5.592  -8.684  1.00  0.00     0.293 HD
ENDBRANCH   3  12
TORSDOF 1
ENDMDL
MODEL 4
REMARK VINA RESULT:    -3.798     12.773     14.301
REMARK INTER + INTRA:          -3.909
REMARK INTER:                  -3.909
REMARK INTRA:                   0.000
REMARK UNBOUND:                 0.000
REMARK SMILES O=c1ccc2ccc(O)cc2o1
REMARK SMILES IDX 6 1 7 2 8 3 10 4 11 5 5 6 4 7 3 8 2 9 1 10 12 11 9 12
REMARK H PARENT 9 13
REMARK Flexibility Score: inf
ROOT
ATOM      1  C   UNL     1      24.182  -4.445 -18.697  1.00  0.00     0.016 A 
ATOM      2  C   UNL     1      23.884  -3.102 -18.445  1.00  0.00     0.047 A 
ATOM      3  C   UNL     1      24.467  -2.089 -19.221  1.00  0.00     0.119 A 
ATOM      4  C   UNL     1      25.353  -2.423 -20.253  1.00  0.00     0.094 A 
ATOM      5  C   UNL     1      25.658  -3.763 -20.513  1.00  0.00     0.142 A 
ATOM      6  C   UNL     1      25.068  -4.781 -19.730  1.00  0.00     0.018 A 
ATOM      7  C   UNL     1      25.392  -6.112 -20.013  1.00  0.00     0.019 A 
ATOM      8  C   UNL     1      26.278  -6.394 -21.051  1.00  0.00     0.094 A 
ATOM      9  C   UNL     1      26.823  -5.334 -21.785  1.00  0.00     0.336 A 
ATOM     10  O   UNL     1      27.626  -5.569 -22.725  1.00  0.00    -0.246 OA
ATOM     11  O   UNL     1      26.499  -4.076 -21.495  1.00  0.00    -0.423 OA
ENDROOT
BRANCH   3  12
ATOM     12  O   UNL     1      24.175  -0.749 -18.974  1.00  0.00    -0.508 OA
ATOM     13  H   UNL     1      23.277  -0.349 -19.220  1.00  0.00     0.293 HD
ENDBRANCH   3  12
TORSDOF 1
ENDMDL
MODEL 5
REMARK VINA RESULT:    -3.771     12.500     13.992
REMARK INTER + INTRA:          -3.881
REMARK INTER:                  -3.881
REMARK INTRA:                   0.000
REMARK UNBOUND:                 0.000
REMARK SMILES O=c1ccc2ccc(O)cc2o1
REMARK SMILES IDX 6 1 7 2 8 3 10 4 11 5 5 6 4 7 3 8 2 9 1 10 12 11 9 12
REMARK H PARENT 9 13
REMARK Flexibility Score: inf
ROOT
ATOM      1  C   UNL     1      25.613  -2.249 -19.928  1.00  0.00     0.016 A 
ATOM      2  C   UNL     1      25.134  -1.810 -18.690  1.00  0.00     0.047 A 
ATOM      3  C   UNL     1      24.699  -2.737 -17.730  1.00  0.00     0.119 A 
ATOM      4  C   UNL     1      24.744  -4.107 -18.012  1.00  0.00     0.094 A 
ATOM      5  C   UNL     1      25.222  -4.556 -19.248  1.00  0.00     0.142 A 
ATOM      6  C   UNL     1      25.660  -3.621 -20.212  1.00  0.00     0.018 A 
ATOM      7  C   UNL     1      26.133  -4.099 -21.438  1.00  0.00     0.019 A 
ATOM      8  C   UNL     1      26.159  -5.473 -21.672  1.00  0.00     0.094 A 
ATOM      9  C   UNL     1      25.710  -6.341 -20.670  1.00  0.00     0.336 A 
ATOM     10  O   UNL     1      25.725  -7.584 -20.863  1.00  0.00    -0.246 OA
ATOM     11  O   UNL     1      25.264  -5.859 -19.512  1.00  0.00    -0.423 OA
ENDROOT
BRANCH   3  12
ATOM     12  O   UNL     1      24.219  -2.306 -16.495  1.00  0.00    -0.508 OA
ATOM     13  H   UNL     1      24.807  -1.795 -15.847  1.00  0.00     0.293 HD
ENDBRANCH   3  12
TORSDOF 1
ENDMDL
MODEL 6
REMARK VINA RESULT:    -3.667      1.840      4.571
REMARK INTER + INTRA:          -3.774
REMARK INTER:                  -3.774
REMARK INTRA:                   0.000
REMARK UNBOUND:                 0.000
REMARK SMILES O=c1ccc2ccc(O)cc2o1
REMARK SMILES IDX 6 1 7 2 8 3 10 4 11 5 5 6 4 7 3 8 2 9 1 10 12 11 9 12
REMARK H PARENT 9 13
REMARK Flexibility Score: inf
ROOT
ATOM      1  C   UNL     1      20.401   4.360 -13.375  1.00  0.00     0.016 A 
ATOM      2  C   UNL     1      21.742   4.510 -13.743  1.00  0.00     0.047 A 
ATOM      3  C   UNL     1      22.587   5.356 -13.009  1.00  0.00     0.119 A 
ATOM      4  C   UNL     1      22.087   6.053 -11.903  1.00  0.00     0.094 A 
ATOM      5  C   UNL     1      20.748   5.909 -11.526  1.00  0.00     0.142 A 
ATOM      6  C   UNL     1      19.899   5.056 -12.266  1.00  0.00     0.018 A 
ATOM      7  C   UNL     1      18.565   4.932 -11.866  1.00  0.00     0.019 A 
ATOM      8  C   UNL     1      18.115   5.646 -10.757  1.00  0.00     0.094 A 
ATOM      9  C   UNL     1      19.013   6.472 -10.071  1.00  0.00     0.336 A 
ATOM     10  O   UNL     1      18.624   7.125  -9.068  1.00  0.00    -0.246 OA
ATOM     11  O   UNL     1      20.277   6.572 -10.473  1.00  0.00    -0.423 OA
ENDROOT
BRANCH   3  12
ATOM     12  O   UNL     1      23.924   5.511 -13.372  1.00  0.00    -0.508 OA
ATOM     13  H   UNL     1      24.654   4.948 -12.954  1.00  0.00     0.293 HD
ENDBRANCH   3  12
TORSDOF 1
ENDMDL
MODEL 7
REMARK VINA RESULT:    -3.651     11.290     13.078
REMARK INTER + INTRA:          -3.758
REMARK INTER:                  -3.758
REMARK INTRA:                   0.000
REMARK UNBOUND:                 0.000
REMARK SMILES O=c1ccc2ccc(O)cc2o1
REMARK SMILES IDX 6 1 7 2 8 3 10 4 11 5 5 6 4 7 3 8 2 9 1 10 12 11 9 12
REMARK H PARENT 9 13
REMARK Flexibility Score: inf
ROOT
ATOM      1  C   UNL     1      25.749  -4.812 -18.824  1.00  0.00     0.016 A 
ATOM      2  C   UNL     1      26.089  -5.128 -20.143  1.00  0.00     0.047 A 
ATOM      3  C   UNL     1      25.849  -4.208 -21.176  1.00  0.00     0.119 A 
ATOM      4  C   UNL     1      25.266  -2.969 -20.885  1.00  0.00     0.094 A 
ATOM      5  C   UNL     1      24.923  -2.643 -19.569  1.00  0.00     0.142 A 
ATOM      6  C   UNL     1      25.167  -3.571 -18.531  1.00  0.00     0.018 A 
ATOM      7  C   UNL     1      24.813  -3.217 -17.225  1.00  0.00     0.019 A 
ATOM      8  C   UNL     1      24.236  -1.971 -16.986  1.00  0.00     0.094 A 
ATOM      9  C   UNL     1      24.025  -1.103 -18.064  1.00  0.00     0.336 A 
ATOM     10  O   UNL     1      23.504   0.026 -17.868  1.00  0.00    -0.246 OA
ATOM     11  O   UNL     1      24.370  -1.464 -19.297  1.00  0.00    -0.423 OA
ENDROOT
BRANCH   3  12
ATOM     12  O   UNL     1      26.185  -4.518 -22.492  1.00  0.00    -0.508 OA
ATOM     13  H   UNL     1      25.822  -5.345 -22.951  1.00  0.00     0.293 HD
ENDBRANCH   3  12
TORSDOF 1
ENDMDL
MODEL 8
REMARK VINA RESULT:    -3.597      2.275      3.388
REMARK INTER + INTRA:          -3.702
REMARK INTER:                  -3.702
REMARK INTRA:                   0.000
REMARK UNBOUND:                 0.000
REMARK SMILES O=c1ccc2ccc(O)cc2o1
REMARK SMILES IDX 6 1 7 2 8 3 10 4 11 5 5 6 4 7 3 8 2 9 1 10 12 11 9 12
REMARK H PARENT 9 13
REMARK Flexibility Score: inf
ROOT
ATOM      1  C   UNL     1      20.630   4.549 -13.752  1.00  0.00     0.016 A 
ATOM      2  C   UNL     1      20.058   3.325 -14.113  1.00  0.00     0.047 A 
ATOM      3  C   UNL     1      19.001   2.789 -13.361  1.00  0.00     0.119 A 
ATOM      4  C   UNL     1      18.517   3.482 -12.245  1.00  0.00     0.094 A 
ATOM      5  C   UNL     1      19.083   4.707 -11.876  1.00  0.00     0.142 A 
ATOM      6  C   UNL     1      20.146   5.245 -12.635  1.00  0.00     0.018 A 
ATOM      7  C   UNL     1      20.692   6.471 -12.242  1.00  0.00     0.019 A 
ATOM      8  C   UNL     1      20.174   7.122 -11.124  1.00  0.00     0.094 A 
ATOM      9  C   UNL     1      19.119   6.530 -10.420  1.00  0.00     0.336 A 
ATOM     10  O   UNL     1      18.640   7.103  -9.407  1.00  0.00    -0.246 OA
ATOM     11  O   UNL     1      18.619   5.362 -10.815  1.00  0.00    -0.423 OA
ENDROOT
BRANCH   3  12
ATOM     12  O   UNL     1      18.427   1.570 -13.715  1.00  0.00    -0.508 OA
ATOM     13  H   UNL     1      17.769   1.097 -13.107  1.00  0.00     0.293 HD
ENDBRANCH   3  12
TORSDOF 1
ENDMDL
