MODEL 1
REMARK VINA RESULT:    -4.528      0.000      0.000
REMARK INTER + INTRA:         -14.188
REMARK INTER:                 -10.351
REMARK INTRA:                  -3.837
REMARK UNBOUND:                -3.837
REMARK SMILES CCCCCCCCCCCCCCCCCCCCCCCC(=O)[O-]
REMARK SMILES IDX 13 1 14 2 15 3 16 4 17 5 18 6 19 7 20 8 21 9 22 10 23 11
REMARK SMILES IDX 24 12 25 13 26 14 12 15 11 16 10 17 9 18 8 19 7 20 6 21 5 22
REMARK SMILES IDX 4 23 3 24 2 25 1 26
REMARK H PARENT
REMARK Flexibility Score: inf
ROOT
ATOM      1  C   UNL     1     147.225 289.786 279.003  1.00  0.00     0.000 C 
ENDROOT
BRANCH   1   2
ATOM      2  C   UNL     1     147.002 288.594 279.947  1.00  0.00     0.000 C 
BRANCH   2   3
ATOM      3  C   UNL     1     145.788 287.733 279.558  1.00  0.00     0.000 C 
BRANCH   3   4
ATOM      4  C   UNL     1     146.119 286.439 278.787  1.00  0.00     0.000 C 
BRANCH   4   5
ATOM      5  C   UNL     1     147.587 285.981 278.867  1.00  0.00     0.000 C 
BRANCH   5   6
ATOM      6  C   UNL     1     148.353 286.029 277.531  1.00  0.00     0.000 C 
BRANCH   6   7
ATOM      7  C   UNL     1     149.853 286.364 277.685  1.00  0.00     0.000 C 
BRANCH   7   8
ATOM      8  C   UNL     1     150.100 287.873 277.851  1.00  0.00     0.000 C 
BRANCH   8   9
ATOM      9  C   UNL     1     151.154 288.188 278.925  1.00  0.00     0.000 C 
BRANCH   9  10
ATOM     10  C   UNL     1     150.565 288.207 280.344  1.00  0.00     0.006 C 
BRANCH  10  11
ATOM     11  C   UNL     1     151.395 287.340 281.297  1.00  0.00     0.053 C 
BRANCH  11  12
ATOM     12  C   UNL     1     152.648 288.054 281.695  1.00  0.00     0.041 C 
ATOM     13  O   UNL     1     153.762 287.474 281.611  1.00  0.00    -0.550 OA
ATOM     14  O   UNL     1     152.590 289.385 282.097  1.00  0.00    -0.550 OA
ENDBRANCH  11  12
ENDBRANCH  10  11
ENDBRANCH   9  10
ENDBRANCH   8   9
ENDBRANCH   7   8
ENDBRANCH   6   7
ENDBRANCH   5   6
ENDBRANCH   4   5
ENDBRANCH   3   4
ENDBRANCH   2   3
ENDBRANCH   1   2
BRANCH   1  15
ATOM     15  C   UNL     1     145.892 290.265 278.419  1.00  0.00     0.000 C 
BRANCH  15  16
ATOM     16  C   UNL     1     145.400 291.540 279.117  1.00  0.00     0.000 C 
BRANCH  16  17
ATOM     17  C   UNL     1     144.246 291.277 280.100  1.00  0.00     0.000 C 
BRANCH  17  18
ATOM     18  C   UNL     1     144.237 292.229 281.315  1.00  0.00    -0.000 C 
BRANCH  18  19
ATOM     19  C   UNL     1     143.948 291.490 282.633  1.00  0.00    -0.000 C 
BRANCH  19  20
ATOM     20  C   UNL     1     145.245 290.975 283.274  1.00  0.00    -0.000 C 
BRANCH  20  21
ATOM     21  C   UNL     1     145.369 289.442 283.220  1.00  0.00    -0.000 C 
BRANCH  21  22
ATOM     22  C   UNL     1     144.031 288.689 283.101  1.00  0.00    -0.000 C 
BRANCH  22  23
ATOM     23  C   UNL     1     144.213 287.182 282.874  1.00  0.00    -0.000 C 
BRANCH  23  24
ATOM     24  C   UNL     1     145.623 286.733 283.278  1.00  0.00    -0.000 C 
BRANCH  24  25
ATOM     25  C   UNL     1     146.003 285.420 282.584  1.00  0.00    -0.003 C 
ATOM     26  C   UNL     1     144.783 284.765 281.941  1.00  0.00     0.004 C 
ENDBRANCH  24  25
ENDBRANCH  23  24
ENDBRANCH  22  23
ENDBRANCH  21  22
ENDBRANCH  20  21
ENDBRANCH  19  20
ENDBRANCH  18  19
ENDBRANCH  17  18
ENDBRANCH  16  17
ENDBRANCH  15  16
ENDBRANCH   1  15
TORSDOF 22
ENDMDL
MODEL 2
REMARK VINA RESULT:    -4.285      4.519      8.901
REMARK INTER + INTRA:         -13.632
REMARK INTER:                 -10.424
REMARK INTRA:                  -3.208
REMARK UNBOUND:                -3.837
REMARK SMILES CCCCCCCCCCCCCCCCCCCCCCCC(=O)[O-]
REMARK SMILES IDX 13 1 14 2 15 3 16 4 17 5 18 6 19 7 20 8 21 9 22 10 23 11
REMARK SMILES IDX 24 12 25 13 26 14 12 15 11 16 10 17 9 18 8 19 7 20 6 21 5 22
REMARK SMILES IDX 4 23 3 24 2 25 1 26
REMARK H PARENT
REMARK Flexibility Score: inf
ROOT
ATOM      1  C   UNL     1     154.539 283.006 283.629  1.00  0.00     0.000 C 
ENDROOT
BRANCH   1   2
ATOM      2  C   UNL     1     155.309 282.713 284.925  1.00  0.00     0.000 C 
BRANCH   2   3
ATOM      3  C   UNL     1     154.419 282.753 286.180  1.00  0.00     0.000 C 
BRANCH   3   4
ATOM      4  C   UNL     1     154.058 284.166 286.685  1.00  0.00     0.000 C 
BRANCH   4   5
ATOM      5  C   UNL     1     152.557 284.507 286.672  1.00  0.00     0.000 C 
BRANCH   5   6
ATOM      6  C   UNL     1     151.655 283.430 286.039  1.00  0.00     0.000 C 
BRANCH   6   7
ATOM      7  C   UNL     1     150.587 283.999 285.079  1.00  0.00     0.000 C 
BRANCH   7   8
ATOM      8  C   UNL     1     151.169 284.350 283.700  1.00  0.00     0.000 C 
BRANCH   8   9
ATOM      9  C   UNL     1     150.544 283.524 282.564  1.00  0.00     0.000 C 
BRANCH   9  10
ATOM     10  C   UNL     1     149.631 284.362 281.655  1.00  0.00     0.006 C 
BRANCH  10  11
ATOM     11  C   UNL     1     148.338 283.608 281.327  1.00  0.00     0.053 C 
BRANCH  11  12
ATOM     12  C   UNL     1     147.564 283.330 282.577  1.00  0.00     0.041 C 
ATOM     13  O   UNL     1     147.061 284.278 283.235  1.00  0.00    -0.550 OA
ATOM     14  O   UNL     1     147.342 282.016 282.977  1.00  0.00    -0.550 OA
ENDBRANCH  11  12
ENDBRANCH  10  11
ENDBRANCH   9  10
ENDBRANCH   8   9
ENDBRANCH   7   8
ENDBRANCH   6   7
ENDBRANCH   5   6
ENDBRANCH   4   5
ENDBRANCH   3   4
ENDBRANCH   2   3
ENDBRANCH   1   2
BRANCH   1  15
ATOM     15  C   UNL     1     155.322 283.987 282.749  1.00  0.00     0.000 C 
BRANCH  15  16
ATOM     16  C   UNL     1     155.383 285.383 283.383  1.00  0.00     0.000 C 
BRANCH  16  17
ATOM     17  C   UNL     1     154.096 286.196 283.161  1.00  0.00     0.000 C 
BRANCH  17  18
ATOM     18  C   UNL     1     154.286 287.419 282.238  1.00  0.00    -0.000 C 
BRANCH  18  19
ATOM     19  C   UNL     1     152.983 288.214 282.047  1.00  0.00    -0.000 C 
BRANCH  19  20
ATOM     20  C   UNL     1     151.838 287.298 281.589  1.00  0.00    -0.000 C 
BRANCH  20  21
ATOM     21  C   UNL     1     150.821 288.021 280.687  1.00  0.00    -0.000 C 
BRANCH  21  22
ATOM     22  C   UNL     1     151.342 288.379 279.284  1.00  0.00    -0.000 C 
BRANCH  22  23
ATOM     23  C   UNL     1     150.305 288.129 278.181  1.00  0.00    -0.000 C 
BRANCH  23  24
ATOM     24  C   UNL     1     150.232 286.638 277.825  1.00  0.00    -0.000 C 
BRANCH  24  25
ATOM     25  C   UNL     1     148.784 286.200 277.584  1.00  0.00    -0.003 C 
ATOM     26  C   UNL     1     147.946 286.349 278.852  1.00  0.00     0.004 C 
ENDBRANCH  24  25
ENDBRANCH  23  24
ENDBRANCH  22  23
ENDBRANCH  21  22
ENDBRANCH  20  21
ENDBRANCH  19  20
ENDBRANCH  18  19
ENDBRANCH  17  18
ENDBRANCH  16  17
ENDBRANCH  15  16
ENDBRANCH   1  15
TORSDOF 22
ENDMDL
MODEL 3
REMARK VINA RESULT:    -4.263      4.123      8.869
REMARK INTER + INTRA:         -13.581
REMARK INTER:                  -9.979
REMARK INTRA:                  -3.602
REMARK UNBOUND:                -3.837
REMARK SMILES CCCCCCCCCCCCCCCCCCCCCCCC(=O)[O-]
REMARK SMILES IDX 13 1 14 2 15 3 16 4 17 5 18 6 19 7 20 8 21 9 22 10 23 11
REMARK SMILES IDX 24 12 25 13 26 14 12 15 11 16 10 17 9 18 8 19 7 20 6 21 5 22
REMARK SMILES IDX 4 23 3 24 2 25 1 26
REMARK H PARENT
REMARK Flexibility Score: inf
ROOT
ATOM      1  C   UNL     1     151.444 284.772 283.484  1.00  0.00     0.000 C 
ENDROOT
BRANCH   1   2
ATOM      2  C   UNL     1     150.311 283.737 283.427  1.00  0.00     0.000 C 
BRANCH   2   3
ATOM      3  C   UNL     1     149.699 283.585 282.024  1.00  0.00     0.000 C 
BRANCH   3   4
ATOM      4  C   UNL     1     148.595 284.604 281.674  1.00  0.00     0.000 C 
BRANCH   4   5
ATOM      5  C   UNL     1     148.318 284.786 280.170  1.00  0.00     0.000 C 
BRANCH   5   6
ATOM      6  C   UNL     1     149.006 286.007 279.529  1.00  0.00     0.000 C 
BRANCH   6   7
ATOM      7  C   UNL     1     149.136 287.218 280.480  1.00  0.00     0.000 C 
BRANCH   7   8
ATOM      8  C   UNL     1     150.419 288.026 280.224  1.00  0.00     0.000 C 
BRANCH   8   9
ATOM      9  C   UNL     1     151.535 287.703 281.231  1.00  0.00     0.000 C 
BRANCH   9  10
ATOM     10  C   UNL     1     152.456 288.903 281.498  1.00  0.00     0.006 C 
BRANCH  10  11
ATOM     11  C   UNL     1     153.041 289.450 280.193  1.00  0.00     0.053 C 
BRANCH  11  12
ATOM     12  C   UNL     1     154.433 288.939 279.988  1.00  0.00     0.041 C 
ATOM     13  O   UNL     1     154.668 288.079 279.100  1.00  0.00    -0.550 OA
ATOM     14  O   UNL     1     155.481 289.464 280.737  1.00  0.00    -0.550 OA
ENDBRANCH  11  12
ENDBRANCH  10  11
ENDBRANCH   9  10
ENDBRANCH   8   9
ENDBRANCH   7   8
ENDBRANCH   6   7
ENDBRANCH   5   6
ENDBRANCH   4   5
ENDBRANCH   3   4
ENDBRANCH   2   3
ENDBRANCH   1   2
BRANCH   1  15
ATOM     15  C   UNL     1     152.806 284.088 283.324  1.00  0.00     0.000 C 
BRANCH  15  16
ATOM     16  C   UNL     1     153.384 283.666 284.681  1.00  0.00     0.000 C 
BRANCH  16  17
ATOM     17  C   UNL     1     154.777 283.021 284.563  1.00  0.00     0.000 C 
BRANCH  17  18
ATOM     18  C   UNL     1     155.194 282.708 283.111  1.00  0.00    -0.000 C 
BRANCH  18  19
ATOM     19  C   UNL     1     156.499 283.418 282.712  1.00  0.00    -0.000 C 
BRANCH  19  20
ATOM     20  C   UNL     1     156.890 284.479 283.751  1.00  0.00    -0.000 C 
BRANCH  20  21
ATOM     21  C   UNL     1     156.978 285.895 283.154  1.00  0.00    -0.000 C 
BRANCH  21  22
ATOM     22  C   UNL     1     155.694 286.385 282.460  1.00  0.00    -0.000 C 
BRANCH  22  23
ATOM     23  C   UNL     1     154.684 286.999 283.440  1.00  0.00    -0.000 C 
BRANCH  23  24
ATOM     24  C   UNL     1     155.379 287.455 284.729  1.00  0.00    -0.000 C 
BRANCH  24  25
ATOM     25  C   UNL     1     154.697 286.856 285.964  1.00  0.00    -0.003 C 
ATOM     26  C   UNL     1     155.712 286.174 286.877  1.00  0.00     0.004 C 
ENDBRANCH  24  25
ENDBRANCH  23  24
ENDBRANCH  22  23
ENDBRANCH  21  22
ENDBRANCH  20  21
ENDBRANCH  19  20
ENDBRANCH  18  19
ENDBRANCH  17  18
ENDBRANCH  16  17
ENDBRANCH  15  16
ENDBRANCH   1  15
TORSDOF 22
ENDMDL
MODEL 4
REMARK VINA RESULT:    -4.218      4.278      8.157
REMARK INTER + INTRA:         -13.479
REMARK INTER:                 -10.161
REMARK INTRA:                  -3.319
REMARK UNBOUND:                -3.837
REMARK SMILES CCCCCCCCCCCCCCCCCCCCCCCC(=O)[O-]
REMARK SMILES IDX 13 1 14 2 15 3 16 4 17 5 18 6 19 7 20 8 21 9 22 10 23 11
REMARK SMILES IDX 24 12 25 13 26 14 12 15 11 16 10 17 9 18 8 19 7 20 6 21 5 22
REMARK SMILES IDX 4 23 3 24 2 25 1 26
REMARK H PARENT
REMARK Flexibility Score: inf
ROOT
ATOM      1  C   UNL     1     154.549 287.304 283.963  1.00  0.00     0.000 C 
ENDROOT
BRANCH   1   2
ATOM      2  C   UNL     1     155.878 286.595 284.267  1.00  0.00     0.000 C 
BRANCH   2   3
ATOM      3  C   UNL     1     156.450 285.836 283.057  1.00  0.00     0.000 C 
BRANCH   3   4
ATOM      4  C   UNL     1     156.880 284.381 283.336  1.00  0.00     0.000 C 
BRANCH   4   5
ATOM      5  C   UNL     1     155.736 283.350 283.366  1.00  0.00     0.000 C 
BRANCH   5   6
ATOM      6  C   UNL     1     155.246 282.969 284.776  1.00  0.00     0.000 C 
BRANCH   6   7
ATOM      7  C   UNL     1     153.751 283.273 285.019  1.00  0.00     0.000 C 
BRANCH   7   8
ATOM      8  C   UNL     1     153.040 283.763 283.746  1.00  0.00     0.000 C 
BRANCH   8   9
ATOM      9  C   UNL     1     151.832 284.663 284.049  1.00  0.00     0.000 C 
BRANCH   9  10
ATOM     10  C   UNL     1     151.374 284.567 285.513  1.00  0.00     0.006 C 
BRANCH  10  11
ATOM     11  C   UNL     1     150.174 283.624 285.653  1.00  0.00     0.053 C 
BRANCH  11  12
ATOM     12  C   UNL     1     149.212 284.151 286.671  1.00  0.00     0.041 C 
ATOM     13  O   UNL     1     148.105 284.628 286.310  1.00  0.00    -0.550 OA
ATOM     14  O   UNL     1     149.513 284.051 288.026  1.00  0.00    -0.550 OA
ENDBRANCH  11  12
ENDBRANCH  10  11
ENDBRANCH   9  10
ENDBRANCH   8   9
ENDBRANCH   7   8
ENDBRANCH   6   7
ENDBRANCH   5   6
ENDBRANCH   4   5
ENDBRANCH   3   4
ENDBRANCH   2   3
ENDBRANCH   1   2
BRANCH   1  15
ATOM     15  C   UNL     1     154.123 287.047 282.514  1.00  0.00     0.000 C 
BRANCH  15  16
ATOM     16  C   UNL     1     153.142 288.118 282.020  1.00  0.00     0.000 C 
BRANCH  16  17
ATOM     17  C   UNL     1     151.779 287.535 281.605  1.00  0.00     0.000 C 
BRANCH  17  18
ATOM     18  C   UNL     1     151.163 288.219 280.366  1.00  0.00    -0.000 C 
BRANCH  18  19
ATOM     19  C   UNL     1     151.868 287.807 279.062  1.00  0.00    -0.000 C 
BRANCH  19  20
ATOM     20  C   UNL     1     150.903 287.070 278.121  1.00  0.00    -0.000 C 
BRANCH  20  21
ATOM     21  C   UNL     1     149.505 287.713 278.077  1.00  0.00    -0.000 C 
BRANCH  21  22
ATOM     22  C   UNL     1     148.336 286.730 278.266  1.00  0.00    -0.000 C 
BRANCH  22  23
ATOM     23  C   UNL     1     147.346 287.183 279.348  1.00  0.00    -0.000 C 
BRANCH  23  24
ATOM     24  C   UNL     1     147.751 286.638 280.724  1.00  0.00    -0.000 C 
BRANCH  24  25
ATOM     25  C   UNL     1     148.059 285.139 280.654  1.00  0.00    -0.003 C 
ATOM     26  C   UNL     1     149.402 284.822 281.306  1.00  0.00     0.004 C 
ENDBRANCH  24  25
ENDBRANCH  23  24
ENDBRANCH  22  23
ENDBRANCH  21  22
ENDBRANCH  20  21
ENDBRANCH  19  20
ENDBRANCH  18  19
ENDBRANCH  17  18
ENDBRANCH  16  17
ENDBRANCH  15  16
ENDBRANCH   1  15
TORSDOF 22
ENDMDL
MODEL 5
REMARK VINA RESULT:    -4.210      9.397     12.396
REMARK INTER + INTRA:         -13.460
REMARK INTER:                  -9.008
REMARK INTRA:                  -4.452
REMARK UNBOUND:                -3.837
REMARK SMILES CCCCCCCCCCCCCCCCCCCCCCCC(=O)[O-]
REMARK SMILES IDX 13 1 14 2 15 3 16 4 17 5 18 6 19 7 20 8 21 9 22 10 23 11
REMARK SMILES IDX 24 12 25 13 26 14 12 15 11 16 10 17 9 18 8 19 7 20 6 21 5 22
REMARK SMILES IDX 4 23 3 24 2 25 1 26
REMARK H PARENT
REMARK Flexibility Score: inf
ROOT
ATOM      1  C   UNL     1     155.132 287.367 286.093  1.00  0.00     0.000 C 
ENDROOT
BRANCH   1   2
ATOM      2  C   UNL     1     155.340 288.878 285.911  1.00  0.00     0.000 C 
BRANCH   2   3
ATOM      3  C   UNL     1     155.167 289.674 287.216  1.00  0.00     0.000 C 
BRANCH   3   4
ATOM      4  C   UNL     1     156.307 290.662 287.541  1.00  0.00     0.000 C 
BRANCH   4   5
ATOM      5  C   UNL     1     157.725 290.167 287.197  1.00  0.00     0.000 C 
BRANCH   5   6
ATOM      6  C   UNL     1     158.730 290.224 288.362  1.00  0.00     0.000 C 
BRANCH   6   7
ATOM      7  C   UNL     1     159.133 288.834 288.904  1.00  0.00     0.000 C 
BRANCH   7   8
ATOM      8  C   UNL     1     158.310 287.700 288.273  1.00  0.00     0.000 C 
BRANCH   8   9
ATOM      9  C   UNL     1     157.167 287.219 289.181  1.00  0.00     0.000 C 
BRANCH   9  10
ATOM     10  C   UNL     1     157.252 287.803 290.599  1.00  0.00     0.006 C 
BRANCH  10  11
ATOM     11  C   UNL     1     155.952 288.519 290.979  1.00  0.00     0.053 C 
BRANCH  11  12
ATOM     12  C   UNL     1     156.245 289.725 291.815  1.00  0.00     0.041 C 
ATOM     13  O   UNL     1     155.587 289.942 292.866  1.00  0.00    -0.550 OA
ATOM     14  O   UNL     1     157.292 290.572 291.468  1.00  0.00    -0.550 OA
ENDBRANCH  11  12
ENDBRANCH  10  11
ENDBRANCH   9  10
ENDBRANCH   8   9
ENDBRANCH   7   8
ENDBRANCH   6   7
ENDBRANCH   5   6
ENDBRANCH   4   5
ENDBRANCH   3   4
ENDBRANCH   2   3
ENDBRANCH   1   2
BRANCH   1  15
ATOM     15  C   UNL     1     156.043 286.581 285.143  1.00  0.00     0.000 C 
BRANCH  15  16
ATOM     16  C   UNL     1     155.234 285.878 284.044  1.00  0.00     0.000 C 
BRANCH  16  17
ATOM     17  C   UNL     1     153.926 285.260 284.568  1.00  0.00     0.000 C 
BRANCH  17  18
ATOM     18  C   UNL     1     153.755 283.770 284.203  1.00  0.00    -0.000 C 
BRANCH  18  19
ATOM     19  C   UNL     1     155.060 282.974 284.375  1.00  0.00    -0.000 C 
BRANCH  19  20
ATOM     20  C   UNL     1     155.212 282.467 285.817  1.00  0.00    -0.000 C 
BRANCH  20  21
ATOM     21  C   UNL     1     156.486 282.992 286.503  1.00  0.00    -0.000 C 
BRANCH  21  22
ATOM     22  C   UNL     1     156.238 283.941 287.688  1.00  0.00    -0.000 C 
BRANCH  22  23
ATOM     23  C   UNL     1     154.878 283.711 288.361  1.00  0.00    -0.000 C 
BRANCH  23  24
ATOM     24  C   UNL     1     154.232 285.044 288.761  1.00  0.00    -0.000 C 
BRANCH  24  25
ATOM     25  C   UNL     1     152.870 285.222 288.081  1.00  0.00    -0.003 C 
ATOM     26  C   UNL     1     152.237 286.559 288.458  1.00  0.00     0.004 C 
ENDBRANCH  24  25
ENDBRANCH  23  24
ENDBRANCH  22  23
ENDBRANCH  21  22
ENDBRANCH  20  21
ENDBRANCH  19  20
ENDBRANCH  18  19
ENDBRANCH  17  18
ENDBRANCH  16  17
ENDBRANCH  15  16
ENDBRANCH   1  15
TORSDOF 22
ENDMDL
MODEL 6
REMARK VINA RESULT:    -4.189      9.457     11.809
REMARK INTER + INTRA:         -13.412
REMARK INTER:                  -9.203
REMARK INTRA:                  -4.209
REMARK UNBOUND:                -3.837
REMARK SMILES CCCCCCCCCCCCCCCCCCCCCCCC(=O)[O-]
REMARK SMILES IDX 13 1 14 2 15 3 16 4 17 5 18 6 19 7 20 8 21 9 22 10 23 11
REMARK SMILES IDX 24 12 25 13 26 14 12 15 11 16 10 17 9 18 8 19 7 20 6 21 5 22
REMARK SMILES IDX 4 23 3 24 2 25 1 26
REMARK H PARENT
REMARK Flexibility Score: inf
ROOT
ATOM      1  C   UNL     1     152.667 284.003 286.508  1.00  0.00     0.000 C 
ENDROOT
BRANCH   1   2
ATOM      2  C   UNL     1     153.327 282.617 286.576  1.00  0.00     0.000 C 
BRANCH   2   3
ATOM      3  C   UNL     1     153.632 282.162 288.014  1.00  0.00     0.000 C 
BRANCH   3   4
ATOM      4  C   UNL     1     155.130 282.026 288.358  1.00  0.00     0.000 C 
BRANCH   4   5
ATOM      5  C   UNL     1     156.091 282.109 287.158  1.00  0.00     0.000 C 
BRANCH   5   6
ATOM      6  C   UNL     1     157.022 283.336 287.159  1.00  0.00     0.000 C 
BRANCH   6   7
ATOM      7  C   UNL     1     156.472 284.534 287.964  1.00  0.00     0.000 C 
BRANCH   7   8
ATOM      8  C   UNL     1     157.531 285.626 288.186  1.00  0.00     0.000 C 
BRANCH   8   9
ATOM      9  C   UNL     1     157.342 286.377 289.514  1.00  0.00     0.000 C 
BRANCH   9  10
ATOM     10  C   UNL     1     158.002 287.765 289.508  1.00  0.00     0.006 C 
BRANCH  10  11
ATOM     11  C   UNL     1     156.960 288.871 289.700  1.00  0.00     0.053 C 
BRANCH  11  12
ATOM     12  C   UNL     1     157.200 289.598 290.985  1.00  0.00     0.041 C 
ATOM     13  O   UNL     1     157.262 288.964 292.070  1.00  0.00    -0.550 OA
ATOM     14  O   UNL     1     157.423 290.972 290.974  1.00  0.00    -0.550 OA
ENDBRANCH  11  12
ENDBRANCH  10  11
ENDBRANCH   9  10
ENDBRANCH   8   9
ENDBRANCH   7   8
ENDBRANCH   6   7
ENDBRANCH   5   6
ENDBRANCH   4   5
ENDBRANCH   3   4
ENDBRANCH   2   3
ENDBRANCH   1   2
BRANCH   1  15
ATOM     15  C   UNL     1     152.931 284.787 287.798  1.00  0.00     0.000 C 
BRANCH  15  16
ATOM     16  C   UNL     1     151.821 285.811 288.069  1.00  0.00     0.000 C 
BRANCH  16  17
ATOM     17  C   UNL     1     152.334 287.072 288.787  1.00  0.00     0.000 C 
BRANCH  17  18
ATOM     18  C   UNL     1     153.821 287.380 288.513  1.00  0.00    -0.000 C 
BRANCH  18  19
ATOM     19  C   UNL     1     154.020 288.197 287.225  1.00  0.00    -0.000 C 
BRANCH  19  20
ATOM     20  C   UNL     1     155.245 287.704 286.440  1.00  0.00    -0.000 C 
BRANCH  20  21
ATOM     21  C   UNL     1     154.889 287.211 285.026  1.00  0.00    -0.000 C 
BRANCH  21  22
ATOM     22  C   UNL     1     155.262 285.746 284.739  1.00  0.00    -0.000 C 
BRANCH  22  23
ATOM     23  C   UNL     1     156.687 285.589 284.192  1.00  0.00    -0.000 C 
BRANCH  23  24
ATOM     24  C   UNL     1     156.898 284.187 283.606  1.00  0.00    -0.000 C 
BRANCH  24  25
ATOM     25  C   UNL     1     155.624 283.345 283.722  1.00  0.00    -0.003 C 
ATOM     26  C   UNL     1     155.283 282.676 282.392  1.00  0.00     0.004 C 
ENDBRANCH  24  25
ENDBRANCH  23  24
ENDBRANCH  22  23
ENDBRANCH  21  22
ENDBRANCH  20  21
ENDBRANCH  19  20
ENDBRANCH  18  19
ENDBRANCH  17  18
ENDBRANCH  16  17
ENDBRANCH  15  16
ENDBRANCH   1  15
TORSDOF 22
ENDMDL
MODEL 7
REMARK VINA RESULT:    -4.187      3.481      7.229
REMARK INTER + INTRA:         -13.408
REMARK INTER:                 -10.056
REMARK INTRA:                  -3.352
REMARK UNBOUND:                -3.837
REMARK SMILES CCCCCCCCCCCCCCCCCCCCCCCC(=O)[O-]
REMARK SMILES IDX 13 1 14 2 15 3 16 4 17 5 18 6 19 7 20 8 21 9 22 10 23 11
REMARK SMILES IDX 24 12 25 13 26 14 12 15 11 16 10 17 9 18 8 19 7 20 6 21 5 22
REMARK SMILES IDX 4 23 3 24 2 25 1 26
REMARK H PARENT
REMARK Flexibility Score: inf
ROOT
ATOM      1  C   UNL     1     146.823 287.487 279.971  1.00  0.00     0.000 C 
ENDROOT
BRANCH   1   2
ATOM      2  C   UNL     1     147.290 286.500 281.051  1.00  0.00     0.000 C 
BRANCH   2   3
ATOM      3  C   UNL     1     148.190 285.380 280.499  1.00  0.00     0.000 C 
BRANCH   3   4
ATOM      4  C   UNL     1     149.519 285.171 281.255  1.00  0.00     0.000 C 
BRANCH   4   5
ATOM      5  C   UNL     1     149.546 283.973 282.222  1.00  0.00     0.000 C 
BRANCH   5   6
ATOM      6  C   UNL     1     150.942 283.609 282.761  1.00  0.00     0.000 C 
BRANCH   6   7
ATOM      7  C   UNL     1     151.311 284.333 284.074  1.00  0.00     0.000 C 
BRANCH   7   8
ATOM      8  C   UNL     1     152.826 284.334 284.335  1.00  0.00     0.000 C 
BRANCH   8   9
ATOM      9  C   UNL     1     153.637 283.830 283.131  1.00  0.00     0.000 C 
BRANCH   9  10
ATOM     10  C   UNL     1     154.807 282.923 283.543  1.00  0.00     0.006 C 
BRANCH  10  11
ATOM     11  C   UNL     1     155.550 283.498 284.753  1.00  0.00     0.053 C 
BRANCH  11  12
ATOM     12  C   UNL     1     156.535 284.537 284.316  1.00  0.00     0.041 C 
ATOM     13  O   UNL     1     157.289 284.321 283.332  1.00  0.00    -0.550 OA
ATOM     14  O   UNL     1     156.571 285.772 284.957  1.00  0.00    -0.550 OA
ENDBRANCH  11  12
ENDBRANCH  10  11
ENDBRANCH   9  10
ENDBRANCH   8   9
ENDBRANCH   7   8
ENDBRANCH   6   7
ENDBRANCH   5   6
ENDBRANCH   4   5
ENDBRANCH   3   4
ENDBRANCH   2   3
ENDBRANCH   1   2
BRANCH   1  15
ATOM     15  C   UNL     1     147.844 287.559 278.831  1.00  0.00     0.000 C 
BRANCH  15  16
ATOM     16  C   UNL     1     148.554 288.919 278.798  1.00  0.00     0.000 C 
BRANCH  16  17
ATOM     17  C   UNL     1     149.989 288.831 278.249  1.00  0.00     0.000 C 
BRANCH  17  18
ATOM     18  C   UNL     1     150.806 287.659 278.834  1.00  0.00    -0.000 C 
BRANCH  18  19
ATOM     19  C   UNL     1     151.972 288.142 279.713  1.00  0.00    -0.000 C 
BRANCH  19  20
ATOM     20  C   UNL     1     151.572 288.171 281.196  1.00  0.00    -0.000 C 
BRANCH  20  21
ATOM     21  C   UNL     1     152.434 287.238 282.065  1.00  0.00    -0.000 C 
BRANCH  21  22
ATOM     22  C   UNL     1     153.820 287.796 282.434  1.00  0.00    -0.000 C 
BRANCH  22  23
ATOM     23  C   UNL     1     154.972 286.969 281.849  1.00  0.00    -0.000 C 
BRANCH  23  24
ATOM     24  C   UNL     1     155.566 287.654 280.611  1.00  0.00    -0.000 C 
BRANCH  24  25
ATOM     25  C   UNL     1     155.843 289.136 280.883  1.00  0.00    -0.003 C 
ATOM     26  C   UNL     1     155.157 290.023 279.847  1.00  0.00     0.004 C 
ENDBRANCH  24  25
ENDBRANCH  23  24
ENDBRANCH  22  23
ENDBRANCH  21  22
ENDBRANCH  20  21
ENDBRANCH  19  20
ENDBRANCH  18  19
ENDBRANCH  17  18
ENDBRANCH  16  17
ENDBRANCH  15  16
ENDBRANCH   1  15
TORSDOF 22
ENDMDL
MODEL 8
REMARK VINA RESULT:    -4.184      3.305      6.730
REMARK INTER + INTRA:         -13.402
REMARK INTER:                 -10.524
REMARK INTRA:                  -2.877
REMARK UNBOUND:                -3.837
REMARK SMILES CCCCCCCCCCCCCCCCCCCCCCCC(=O)[O-]
REMARK SMILES IDX 13 1 14 2 15 3 16 4 17 5 18 6 19 7 20 8 21 9 22 10 23 11
REMARK SMILES IDX 24 12 25 13 26 14 12 15 11 16 10 17 9 18 8 19 7 20 6 21 5 22
REMARK SMILES IDX 4 23 3 24 2 25 1 26
REMARK H PARENT
REMARK Flexibility Score: inf
ROOT
ATOM      1  C   UNL     1     146.626 288.022 280.166  1.00  0.00     0.000 C 
ENDROOT
BRANCH   1   2
ATOM      2  C   UNL     1     148.109 288.396 280.028  1.00  0.00     0.000 C 
BRANCH   2   3
ATOM      3  C   UNL     1     148.457 288.997 278.654  1.00  0.00     0.000 C 
BRANCH   3   4
ATOM      4  C   UNL     1     149.930 288.841 278.222  1.00  0.00     0.000 C 
BRANCH   4   5
ATOM      5  C   UNL     1     150.656 287.606 278.787  1.00  0.00     0.000 C 
BRANCH   5   6
ATOM      6  C   UNL     1     151.851 287.924 279.705  1.00  0.00     0.000 C 
BRANCH   6   7
ATOM      7  C   UNL     1     151.479 288.019 281.202  1.00  0.00     0.000 C 
BRANCH   7   8
ATOM      8  C   UNL     1     152.681 288.401 282.080  1.00  0.00     0.000 C 
BRANCH   8   9
ATOM      9  C   UNL     1     153.588 287.201 282.399  1.00  0.00     0.000 C 
BRANCH   9  10
ATOM     10  C   UNL     1     155.001 287.625 282.830  1.00  0.00     0.006 C 
BRANCH  10  11
ATOM     11  C   UNL     1     156.056 287.100 281.852  1.00  0.00     0.053 C 
BRANCH  11  12
ATOM     12  C   UNL     1     156.192 288.026 280.684  1.00  0.00     0.041 C 
ATOM     13  O   UNL     1     155.439 287.897 279.683  1.00  0.00    -0.550 OA
ATOM     14  O   UNL     1     157.107 289.073 280.731  1.00  0.00    -0.550 OA
ENDBRANCH  11  12
ENDBRANCH  10  11
ENDBRANCH   9  10
ENDBRANCH   8   9
ENDBRANCH   7   8
ENDBRANCH   6   7
ENDBRANCH   5   6
ENDBRANCH   4   5
ENDBRANCH   3   4
ENDBRANCH   2   3
ENDBRANCH   1   2
BRANCH   1  15
ATOM     15  C   UNL     1     146.426 286.520 279.938  1.00  0.00     0.000 C 
BRANCH  15  16
ATOM     16  C   UNL     1     147.100 285.691 281.038  1.00  0.00     0.000 C 
BRANCH  16  17
ATOM     17  C   UNL     1     148.193 284.753 280.495  1.00  0.00     0.000 C 
BRANCH  17  18
ATOM     18  C   UNL     1     149.523 284.833 281.276  1.00  0.00    -0.000 C 
BRANCH  18  19
ATOM     19  C   UNL     1     149.857 283.515 281.995  1.00  0.00    -0.000 C 
BRANCH  19  20
ATOM     20  C   UNL     1     150.234 283.767 283.463  1.00  0.00    -0.000 C 
BRANCH  20  21
ATOM     21  C   UNL     1     151.583 284.493 283.616  1.00  0.00    -0.000 C 
BRANCH  21  22
ATOM     22  C   UNL     1     152.366 284.137 284.893  1.00  0.00    -0.000 C 
BRANCH  22  23
ATOM     23  C   UNL     1     153.839 283.808 284.616  1.00  0.00    -0.000 C 
BRANCH  23  24
ATOM     24  C   UNL     1     154.082 283.596 283.116  1.00  0.00    -0.000 C 
BRANCH  24  25
ATOM     25  C   UNL     1     155.345 282.763 282.875  1.00  0.00    -0.003 C 
ATOM     26  C   UNL     1     156.604 283.575 283.168  1.00  0.00     0.004 C 
ENDBRANCH  24  25
ENDBRANCH  23  24
ENDBRANCH  22  23
ENDBRANCH  21  22
ENDBRANCH  20  21
ENDBRANCH  19  20
ENDBRANCH  18  19
ENDBRANCH  17  18
ENDBRANCH  16  17
ENDBRANCH  15  16
ENDBRANCH   1  15
TORSDOF 22
ENDMDL
MODEL 9
REMARK VINA RESULT:    -4.110      9.851     12.338
REMARK INTER + INTRA:         -13.233
REMARK INTER:                  -9.043
REMARK INTRA:                  -4.190
REMARK UNBOUND:                -3.837
REMARK SMILES CCCCCCCCCCCCCCCCCCCCCCCC(=O)[O-]
REMARK SMILES IDX 13 1 14 2 15 3 16 4 17 5 18 6 19 7 20 8 21 9 22 10 23 11
REMARK SMILES IDX 24 12 25 13 26 14 12 15 11 16 10 17 9 18 8 19 7 20 6 21 5 22
REMARK SMILES IDX 4 23 3 24 2 25 1 26
REMARK H PARENT
REMARK Flexibility Score: inf
ROOT
ATOM      1  C   UNL     1     158.211 286.342 286.822  1.00  0.00     0.000 C 
ENDROOT
BRANCH   1   2
ATOM      2  C   UNL     1     157.426 286.128 285.519  1.00  0.00     0.000 C 
BRANCH   2   3
ATOM      3  C   UNL     1     157.257 287.417 284.696  1.00  0.00     0.000 C 
BRANCH   3   4
ATOM      4  C   UNL     1     155.878 288.099 284.816  1.00  0.00     0.000 C 
BRANCH   4   5
ATOM      5  C   UNL     1     155.908 289.571 285.269  1.00  0.00     0.000 C 
BRANCH   5   6
ATOM      6  C   UNL     1     155.478 289.807 286.729  1.00  0.00     0.000 C 
BRANCH   6   7
ATOM      7  C   UNL     1     156.527 290.567 287.572  1.00  0.00     0.000 C 
BRANCH   7   8
ATOM      8  C   UNL     1     157.965 290.141 287.237  1.00  0.00     0.000 C 
BRANCH   8   9
ATOM      9  C   UNL     1     158.833 289.943 288.491  1.00  0.00     0.000 C 
BRANCH   9  10
ATOM     10  C   UNL     1     158.422 290.866 289.648  1.00  0.00     0.006 C 
BRANCH  10  11
ATOM     11  C   UNL     1     158.035 290.055 290.889  1.00  0.00     0.053 C 
BRANCH  11  12
ATOM     12  C   UNL     1     156.699 290.491 291.403  1.00  0.00     0.041 C 
ATOM     13  O   UNL     1     156.174 291.554 290.981  1.00  0.00    -0.550 OA
ATOM     14  O   UNL     1     156.005 289.685 292.299  1.00  0.00    -0.550 OA
ENDBRANCH  11  12
ENDBRANCH  10  11
ENDBRANCH   9  10
ENDBRANCH   8   9
ENDBRANCH   7   8
ENDBRANCH   6   7
ENDBRANCH   5   6
ENDBRANCH   4   5
ENDBRANCH   3   4
ENDBRANCH   2   3
ENDBRANCH   1   2
BRANCH   1  15
ATOM     15  C   UNL     1     157.706 285.394 287.915  1.00  0.00     0.000 C 
BRANCH  15  16
ATOM     16  C   UNL     1     157.431 286.143 289.225  1.00  0.00     0.000 C 
BRANCH  16  17
ATOM     17  C   UNL     1     156.347 287.226 289.078  1.00  0.00     0.000 C 
BRANCH  17  18
ATOM     18  C   UNL     1     155.167 287.060 290.060  1.00  0.00    -0.000 C 
BRANCH  18  19
ATOM     19  C   UNL     1     153.816 286.947 289.334  1.00  0.00    -0.000 C 
BRANCH  19  20
ATOM     20  C   UNL     1     153.700 285.612 288.584  1.00  0.00    -0.000 C 
BRANCH  20  21
ATOM     21  C   UNL     1     153.256 285.786 287.121  1.00  0.00    -0.000 C 
BRANCH  21  22
ATOM     22  C   UNL     1     154.172 285.111 286.083  1.00  0.00    -0.000 C 
BRANCH  22  23
ATOM     23  C   UNL     1     154.636 283.714 286.516  1.00  0.00    -0.000 C 
BRANCH  23  24
ATOM     24  C   UNL     1     155.320 282.979 285.356  1.00  0.00    -0.000 C 
BRANCH  24  25
ATOM     25  C   UNL     1     154.455 283.022 284.092  1.00  0.00    -0.003 C 
ATOM     26  C   UNL     1     155.319 282.999 282.834  1.00  0.00     0.004 C 
ENDBRANCH  24  25
ENDBRANCH  23  24
ENDBRANCH  22  23
ENDBRANCH  21  22
ENDBRANCH  20  21
ENDBRANCH  19  20
ENDBRANCH  18  19
ENDBRANCH  17  18
ENDBRANCH  16  17
ENDBRANCH  15  16
ENDBRANCH   1  15
TORSDOF 22
ENDMDL
