MODEL 1
REMARK VINA RESULT:    -6.443      0.000      0.000
REMARK INTER + INTRA:         -10.012
REMARK INTER:                  -9.457
REMARK INTRA:                  -0.555
REMARK UNBOUND:                -0.555
REMARK SMILES O=c1c(O[C@@H]2O[C@H](CO)[C@@H](O)[C@@H](O)[C@H]2O)c(-c2ccc(O)c(O)c2)oc2cc(O)cc(O)c12
REMARK SMILES IDX 4 1 3 2 16 3 25 4 2 5 26 6 1 7 33 8 27 9 31 10 28 11 30 12
REMARK SMILES IDX 17 13 18 14 19 15 20 16 24 17 22 18 21 19 23 21 32 23 29 25
REMARK SMILES IDX 5 27 14 28 6 29 12 30 7 31 10 32 15 33 13 35 8 37 9 38 11 40
REMARK H PARENT 21 20 23 22 32 24 29 26 15 34 13 36 9 39 11 41
REMARK Flexibility Score: inf
ROOT
ATOM      1  O   UNL     1       8.240 -14.701 -24.688  1.00  0.00    -0.454 OA
ENDROOT
BRANCH   1   2
ATOM      2  C   UNL     1       9.144 -15.597 -25.302  1.00  0.00     0.214 A 
ATOM      3  C   UNL     1      10.297 -15.967 -24.584  1.00  0.00     0.180 A 
ATOM      4  O   UNL     1      11.228 -16.722 -25.156  1.00  0.00    -0.452 OA
ATOM      5  C   UNL     1       8.974 -16.124 -26.602  1.00  0.00     0.239 A 
ATOM      6  C   UNL     1      11.143 -17.168 -26.401  1.00  0.00     0.146 A 
ATOM      7  O   UNL     1       7.875 -15.981 -27.193  1.00  0.00    -0.285 OA
ATOM      8  C   UNL     1      10.020 -16.858 -27.207  1.00  0.00     0.111 A 
ATOM      9  C   UNL     1      12.177 -17.964 -26.900  1.00  0.00     0.094 A 
ATOM     10  C   UNL     1      10.000 -17.321 -28.556  1.00  0.00     0.134 A 
ATOM     11  C   UNL     1      12.114 -18.471 -28.198  1.00  0.00     0.123 A 
ATOM     12  C   UNL     1      11.025 -18.158 -29.014  1.00  0.00     0.093 A 
BRANCH   3  13
ATOM     13  C   UNL     1      10.526 -15.522 -23.191  1.00  0.00     0.025 A 
ATOM     14  C   UNL     1      11.444 -14.499 -22.890  1.00  0.00     0.016 A 
ATOM     15  C   UNL     1      11.632 -14.087 -21.568  1.00  0.00     0.051 A 
ATOM     16  C   UNL     1      10.899 -14.675 -20.531  1.00  0.00     0.157 A 
ATOM     17  C   UNL     1       9.778 -16.095 -22.150  1.00  0.00     0.062 A 
ATOM     18  C   UNL     1       9.967 -15.685 -20.823  1.00  0.00     0.158 A 
BRANCH  16  19
ATOM     19  O   UNL     1      11.084 -14.251 -19.216  1.00  0.00    -0.504 OA
ATOM     20  H   UNL     1      10.840 -14.844 -18.431  1.00  0.00     0.293 HD
ENDBRANCH  16  19
BRANCH  18  21
ATOM     21  O   UNL     1       9.220 -16.289 -19.812  1.00  0.00    -0.504 OA
ATOM     22  H   UNL     1       8.678 -17.128 -19.975  1.00  0.00     0.293 HD
ENDBRANCH  18  21
ENDBRANCH   3  13
BRANCH  10  23
ATOM     23  O   UNL     1       9.025 -16.951 -29.486  1.00  0.00    -0.507 OA
ATOM     24  H   UNL     1       8.149 -17.440 -29.615  1.00  0.00     0.293 HD
ENDBRANCH  10  23
BRANCH  11  25
ATOM     25  O   UNL     1      13.146 -19.278 -28.670  1.00  0.00    -0.508 OA
ATOM     26  H   UNL     1      14.062 -19.279 -28.235  1.00  0.00     0.293 HD
ENDBRANCH  11  25
ENDBRANCH   1   2
BRANCH   1  27
ATOM     27  C   UNL     1       8.212 -13.268 -24.732  1.00  0.00     0.339 C 
ATOM     28  C   UNL     1       9.286 -12.641 -23.802  1.00  0.00     0.214 C 
ATOM     29  O   UNL     1       8.338 -12.820 -26.068  1.00  0.00    -0.332 OA
ATOM     30  C   UNL     1       9.872 -11.352 -24.428  1.00  0.00     0.180 C 
ATOM     31  C   UNL     1       7.980 -11.449 -26.170  1.00  0.00     0.179 C 
ATOM     32  C   UNL     1       8.806 -10.542 -25.193  1.00  0.00     0.177 C 
BRANCH  28  33
ATOM     33  O   UNL     1       8.705 -12.367 -22.551  1.00  0.00    -0.384 OA
ATOM     34  H   UNL     1       8.928 -13.126 -21.950  1.00  0.00     0.211 HD
ENDBRANCH  28  33
BRANCH  30  35
ATOM     35  O   UNL     1      10.475 -10.547 -23.447  1.00  0.00    -0.387 OA
ATOM     36  H   UNL     1       9.799  -9.870 -23.177  1.00  0.00     0.211 HD
ENDBRANCH  30  35
BRANCH  31  37
ATOM     37  C   UNL     1       8.181 -11.020 -27.627  1.00  0.00     0.191 C 
BRANCH  37  38
ATOM     38  O   UNL     1       9.216 -10.078 -27.717  1.00  0.00    -0.394 OA
ATOM     39  H   UNL     1       9.198  -9.567 -26.867  1.00  0.00     0.210 HD
ENDBRANCH  37  38
ENDBRANCH  31  37
BRANCH  32  40
ATOM     40  O   UNL     1       7.962  -9.846 -24.306  1.00  0.00    -0.387 OA
ATOM     41  H   UNL     1       8.487  -9.109 -23.901  1.00  0.00     0.211 HD
ENDBRANCH  32  40
ENDBRANCH   1  27
TORSDOF 12
ENDMDL
MODEL 2
REMARK VINA RESULT:    -5.782     15.794     17.782
REMARK INTER + INTRA:          -9.040
REMARK INTER:                  -7.681
REMARK INTRA:                  -1.359
REMARK UNBOUND:                -0.555
REMARK SMILES O=c1c(O[C@@H]2O[C@H](CO)[C@@H](O)[C@@H](O)[C@H]2O)c(-c2ccc(O)c(O)c2)oc2cc(O)cc(O)c12
REMARK SMILES IDX 4 1 3 2 16 3 25 4 2 5 26 6 1 7 33 8 27 9 31 10 28 11 30 12
REMARK SMILES IDX 17 13 18 14 19 15 20 16 24 17 22 18 21 19 23 21 32 23 29 25
REMARK SMILES IDX 5 27 14 28 6 29 12 30 7 31 10 32 15 33 13 35 8 37 9 38 11 40
REMARK H PARENT 21 20 23 22 32 24 29 26 15 34 13 36 9 39 11 41
REMARK Flexibility Score: inf
ROOT
ATOM      1  O   UNL     1      24.977  -5.357 -30.845  1.00  0.00    -0.454 OA
ENDROOT
BRANCH   1   2
ATOM      2  C   UNL     1      24.708  -6.713 -30.554  1.00  0.00     0.214 A 
ATOM      3  C   UNL     1      23.420  -7.207 -30.838  1.00  0.00     0.180 A 
ATOM      4  O   UNL     1      23.086  -8.444 -30.488  1.00  0.00    -0.452 OA
ATOM      5  C   UNL     1      25.645  -7.597 -29.972  1.00  0.00     0.239 A 
ATOM      6  C   UNL     1      23.911  -9.276 -29.868  1.00  0.00     0.146 A 
ATOM      7  O   UNL     1      26.851  -7.258 -29.888  1.00  0.00    -0.285 OA
ATOM      8  C   UNL     1      25.231  -8.879 -29.541  1.00  0.00     0.111 A 
ATOM      9  C   UNL     1      23.457 -10.559 -29.553  1.00  0.00     0.094 A 
ATOM     10  C   UNL     1      26.062  -9.793 -28.830  1.00  0.00     0.134 A 
ATOM     11  C   UNL     1      24.302 -11.471 -28.921  1.00  0.00     0.123 A 
ATOM     12  C   UNL     1      25.600 -11.090 -28.573  1.00  0.00     0.093 A 
BRANCH   3  13
ATOM     13  C   UNL     1      22.396  -6.378 -31.512  1.00  0.00     0.025 A 
ATOM     14  C   UNL     1      22.375  -6.232 -32.911  1.00  0.00     0.016 A 
ATOM     15  C   UNL     1      21.389  -5.455 -33.525  1.00  0.00     0.051 A 
ATOM     16  C   UNL     1      20.403  -4.826 -32.757  1.00  0.00     0.157 A 
ATOM     17  C   UNL     1      21.393  -5.761 -30.748  1.00  0.00     0.062 A 
ATOM     18  C   UNL     1      20.405  -4.979 -31.360  1.00  0.00     0.158 A 
BRANCH  16  19
ATOM     19  O   UNL     1      19.417  -4.060 -33.377  1.00  0.00    -0.504 OA
ATOM     20  H   UNL     1      18.555  -3.822 -32.899  1.00  0.00     0.293 HD
ENDBRANCH  16  19
BRANCH  18  21
ATOM     21  O   UNL     1      19.435  -4.366 -30.568  1.00  0.00    -0.504 OA
ATOM     22  H   UNL     1      18.940  -4.868 -29.841  1.00  0.00     0.293 HD
ENDBRANCH  18  21
ENDBRANCH   3  13
BRANCH  10  23
ATOM     23  O   UNL     1      27.321  -9.460 -28.322  1.00  0.00    -0.507 OA
ATOM     24  H   UNL     1      27.484  -9.128 -27.382  1.00  0.00     0.293 HD
ENDBRANCH  10  23
BRANCH  11  25
ATOM     25  O   UNL     1      23.837 -12.752 -28.633  1.00  0.00    -0.508 OA
ATOM     26  H   UNL     1      24.343 -13.373 -28.012  1.00  0.00     0.293 HD
ENDBRANCH  11  25
ENDBRANCH   1   2
BRANCH   1  27
ATOM     27  C   UNL     1      24.838  -4.204 -30.003  1.00  0.00     0.339 C 
ATOM     28  C   UNL     1      23.794  -3.202 -30.562  1.00  0.00     0.214 C 
ATOM     29  O   UNL     1      24.538  -4.603 -28.678  1.00  0.00    -0.332 OA
ATOM     30  C   UNL     1      23.010  -2.523 -29.413  1.00  0.00     0.180 C 
ATOM     31  C   UNL     1      24.728  -3.521 -27.777  1.00  0.00     0.179 C 
ATOM     32  C   UNL     1      23.901  -2.253 -28.183  1.00  0.00     0.177 C 
BRANCH  28  33
ATOM     33  O   UNL     1      24.455  -2.241 -31.348  1.00  0.00    -0.384 OA
ATOM     34  H   UNL     1      25.247  -1.934 -30.834  1.00  0.00     0.211 HD
ENDBRANCH  28  33
BRANCH  30  35
ATOM     35  O   UNL     1      22.415  -1.327 -29.847  1.00  0.00    -0.387 OA
ATOM     36  H   UNL     1      23.144  -0.656 -29.923  1.00  0.00     0.211 HD
ENDBRANCH  30  35
BRANCH  31  37
ATOM     37  C   UNL     1      24.343  -4.008 -26.375  1.00  0.00     0.191 C 
BRANCH  37  38
ATOM     38  O   UNL     1      25.087  -3.324 -25.404  1.00  0.00    -0.394 OA
ATOM     39  H   UNL     1      25.803  -3.947 -25.116  1.00  0.00     0.210 HD
ENDBRANCH  37  38
ENDBRANCH  31  37
BRANCH  32  40
ATOM     40  O   UNL     1      24.741  -1.143 -28.398  1.00  0.00    -0.387 OA
ATOM     41  H   UNL     1      24.193  -0.322 -28.301  1.00  0.00     0.211 HD
ENDBRANCH  32  40
ENDBRANCH   1  27
TORSDOF 12
ENDMDL
MODEL 3
REMARK VINA RESULT:    -5.722     14.990     16.981
REMARK INTER + INTRA:          -8.953
REMARK INTER:                  -7.564
REMARK INTRA:                  -1.388
REMARK UNBOUND:                -0.555
REMARK SMILES O=c1c(O[C@@H]2O[C@H](CO)[C@@H](O)[C@@H](O)[C@H]2O)c(-c2ccc(O)c(O)c2)oc2cc(O)cc(O)c12
REMARK SMILES IDX 4 1 3 2 16 3 25 4 2 5 26 6 1 7 33 8 27 9 31 10 28 11 30 12
REMARK SMILES IDX 17 13 18 14 19 15 20 16 24 17 22 18 21 19 23 21 32 23 29 25
REMARK SMILES IDX 5 27 14 28 6 29 12 30 7 31 10 32 15 33 13 35 8 37 9 38 11 40
REMARK H PARENT 21 20 23 22 32 24 29 26 15 34 13 36 9 39 11 41
REMARK Flexibility Score: inf
ROOT
ATOM      1  O   UNL     1      24.829  -6.696 -30.836  1.00  0.00    -0.454 OA
ENDROOT
BRANCH   1   2
ATOM      2  C   UNL     1      24.219  -7.952 -31.054  1.00  0.00     0.214 A 
ATOM      3  C   UNL     1      22.921  -7.969 -31.602  1.00  0.00     0.180 A 
ATOM      4  O   UNL     1      22.265  -9.117 -31.729  1.00  0.00    -0.452 OA
ATOM      5  C   UNL     1      24.821  -9.188 -30.733  1.00  0.00     0.239 A 
ATOM      6  C   UNL     1      22.765 -10.289 -31.364  1.00  0.00     0.146 A 
ATOM      7  O   UNL     1      26.039  -9.228 -30.433  1.00  0.00    -0.285 OA
ATOM      8  C   UNL     1      24.064 -10.382 -30.807  1.00  0.00     0.111 A 
ATOM      9  C   UNL     1      21.989 -11.436 -31.550  1.00  0.00     0.094 A 
ATOM     10  C   UNL     1      24.535 -11.659 -30.385  1.00  0.00     0.134 A 
ATOM     11  C   UNL     1      22.488 -12.690 -31.200  1.00  0.00     0.123 A 
ATOM     12  C   UNL     1      23.759 -12.797 -30.630  1.00  0.00     0.093 A 
BRANCH   3  13
ATOM     13  C   UNL     1      22.239  -6.729 -32.034  1.00  0.00     0.025 A 
ATOM     14  C   UNL     1      22.529  -6.128 -33.273  1.00  0.00     0.016 A 
ATOM     15  C   UNL     1      21.860  -4.965 -33.666  1.00  0.00     0.051 A 
ATOM     16  C   UNL     1      20.885  -4.395 -32.840  1.00  0.00     0.157 A 
ATOM     17  C   UNL     1      21.245  -6.165 -31.219  1.00  0.00     0.062 A 
ATOM     18  C   UNL     1      20.576  -4.998 -31.610  1.00  0.00     0.158 A 
BRANCH  16  19
ATOM     19  O   UNL     1      20.215  -3.241 -33.243  1.00  0.00    -0.504 OA
ATOM     20  H   UNL     1      19.258  -3.060 -32.962  1.00  0.00     0.293 HD
ENDBRANCH  16  19
BRANCH  18  21
ATOM     21  O   UNL     1      19.608  -4.455 -30.765  1.00  0.00    -0.504 OA
ATOM     22  H   UNL     1      19.526  -4.731 -29.795  1.00  0.00     0.293 HD
ENDBRANCH  18  21
ENDBRANCH   3  13
BRANCH  10  23
ATOM     23  O   UNL     1      25.731 -11.849 -29.686  1.00  0.00    -0.507 OA
ATOM     24  H   UNL     1      26.162 -11.150 -29.097  1.00  0.00     0.293 HD
ENDBRANCH  10  23
BRANCH  11  25
ATOM     25  O   UNL     1      21.707 -13.824 -31.412  1.00  0.00    -0.508 OA
ATOM     26  H   UNL     1      21.619 -14.243 -32.331  1.00  0.00     0.293 HD
ENDBRANCH  11  25
ENDBRANCH   1   2
BRANCH   1  27
ATOM     27  C   UNL     1      24.729  -5.824 -29.701  1.00  0.00     0.339 C 
ATOM     28  C   UNL     1      24.256  -4.402 -30.104  1.00  0.00     0.214 C 
ATOM     29  O   UNL     1      23.895  -6.403 -28.715  1.00  0.00    -0.332 OA
ATOM     30  C   UNL     1      23.342  -3.795 -29.013  1.00  0.00     0.180 C 
ATOM     31  C   UNL     1      24.051  -5.731 -27.473  1.00  0.00     0.179 C 
ATOM     32  C   UNL     1      23.793  -4.189 -27.592  1.00  0.00     0.177 C 
BRANCH  28  33
ATOM     33  O   UNL     1      25.383  -3.588 -30.319  1.00  0.00    -0.384 OA
ATOM     34  H   UNL     1      26.187  -4.153 -30.175  1.00  0.00     0.211 HD
ENDBRANCH  28  33
BRANCH  30  35
ATOM     35  O   UNL     1      23.283  -2.396 -29.128  1.00  0.00    -0.387 OA
ATOM     36  H   UNL     1      22.352  -2.129 -28.909  1.00  0.00     0.211 HD
ENDBRANCH  30  35
BRANCH  31  37
ATOM     37  C   UNL     1      23.091  -6.377 -26.468  1.00  0.00     0.191 C 
BRANCH  37  38
ATOM     38  O   UNL     1      23.710  -6.500 -25.216  1.00  0.00    -0.394 OA
ATOM     39  H   UNL     1      24.467  -7.129 -25.344  1.00  0.00     0.210 HD
ENDBRANCH  37  38
ENDBRANCH  31  37
BRANCH  32  40
ATOM     40  O   UNL     1      24.925  -3.451 -27.195  1.00  0.00    -0.387 OA
ATOM     41  H   UNL     1      25.498  -3.319 -27.993  1.00  0.00     0.211 HD
ENDBRANCH  32  40
ENDBRANCH   1  27
TORSDOF 12
ENDMDL
MODEL 4
REMARK VINA RESULT:    -5.707     16.401     18.244
REMARK INTER + INTRA:          -8.931
REMARK INTER:                  -7.324
REMARK INTRA:                  -1.606
REMARK UNBOUND:                -0.555
REMARK SMILES O=c1c(O[C@@H]2O[C@H](CO)[C@@H](O)[C@@H](O)[C@H]2O)c(-c2ccc(O)c(O)c2)oc2cc(O)cc(O)c12
REMARK SMILES IDX 4 1 3 2 16 3 25 4 2 5 26 6 1 7 33 8 27 9 31 10 28 11 30 12
REMARK SMILES IDX 17 13 18 14 19 15 20 16 24 17 22 18 21 19 23 21 32 23 29 25
REMARK SMILES IDX 5 27 14 28 6 29 12 30 7 31 10 32 15 33 13 35 8 37 9 38 11 40
REMARK H PARENT 21 20 23 22 32 24 29 26 15 34 13 36 9 39 11 41
REMARK Flexibility Score: inf
ROOT
ATOM      1  O   UNL     1      25.188  -5.441 -31.072  1.00  0.00    -0.454 OA
ENDROOT
BRANCH   1   2
ATOM      2  C   UNL     1      24.969  -6.774 -30.658  1.00  0.00     0.214 A 
ATOM      3  C   UNL     1      23.687  -7.323 -30.853  1.00  0.00     0.180 A 
ATOM      4  O   UNL     1      23.401  -8.534 -30.387  1.00  0.00    -0.452 OA
ATOM      5  C   UNL     1      25.950  -7.579 -30.037  1.00  0.00     0.239 A 
ATOM      6  C   UNL     1      24.270  -9.287 -29.728  1.00  0.00     0.146 A 
ATOM      7  O   UNL     1      27.148  -7.203 -30.025  1.00  0.00    -0.285 OA
ATOM      8  C   UNL     1      25.588  -8.830 -29.484  1.00  0.00     0.111 A 
ATOM      9  C   UNL     1      23.865 -10.550 -29.289  1.00  0.00     0.094 A 
ATOM     10  C   UNL     1      26.468  -9.658 -28.728  1.00  0.00     0.134 A 
ATOM     11  C   UNL     1      24.756 -11.382 -28.612  1.00  0.00     0.123 A 
ATOM     12  C   UNL     1      26.053 -10.938 -28.344  1.00  0.00     0.093 A 
BRANCH   3  13
ATOM     13  C   UNL     1      22.618  -6.582 -31.557  1.00  0.00     0.025 A 
ATOM     14  C   UNL     1      22.514  -6.602 -32.960  1.00  0.00     0.016 A 
ATOM     15  C   UNL     1      21.486  -5.905 -33.601  1.00  0.00     0.051 A 
ATOM     16  C   UNL     1      20.540  -5.193 -32.856  1.00  0.00     0.157 A 
ATOM     17  C   UNL     1      21.654  -5.883 -30.812  1.00  0.00     0.062 A 
ATOM     18  C   UNL     1      20.624  -5.182 -31.453  1.00  0.00     0.158 A 
BRANCH  16  19
ATOM     19  O   UNL     1      19.512  -4.509 -33.502  1.00  0.00    -0.504 OA
ATOM     20  H   UNL     1      19.678  -3.627 -33.973  1.00  0.00     0.293 HD
ENDBRANCH  16  19
BRANCH  18  21
ATOM     21  O   UNL     1      19.696  -4.483 -30.682  1.00  0.00    -0.504 OA
ATOM     22  H   UNL     1      19.700  -4.523 -29.671  1.00  0.00     0.293 HD
ENDBRANCH  18  21
ENDBRANCH   3  13
BRANCH  10  23
ATOM     23  O   UNL     1      27.734  -9.249 -28.296  1.00  0.00    -0.507 OA
ATOM     24  H   UNL     1      28.195  -8.406 -28.609  1.00  0.00     0.293 HD
ENDBRANCH  10  23
BRANCH  11  25
ATOM     25  O   UNL     1      24.339 -12.645 -28.200  1.00  0.00    -0.508 OA
ATOM     26  H   UNL     1      24.938 -13.458 -28.289  1.00  0.00     0.293 HD
ENDBRANCH  11  25
ENDBRANCH   1   2
BRANCH   1  27
ATOM     27  C   UNL     1      25.162  -4.234 -30.298  1.00  0.00     0.339 C 
ATOM     28  C   UNL     1      26.496  -3.448 -30.405  1.00  0.00     0.214 C 
ATOM     29  O   UNL     1      24.047  -3.444 -30.667  1.00  0.00    -0.332 OA
ATOM     30  C   UNL     1      26.240  -1.922 -30.393  1.00  0.00     0.180 C 
ATOM     31  C   UNL     1      23.814  -2.429 -29.700  1.00  0.00     0.179 C 
ATOM     32  C   UNL     1      25.079  -1.536 -29.454  1.00  0.00     0.177 C 
BRANCH  28  33
ATOM     33  O   UNL     1      27.335  -3.821 -29.340  1.00  0.00    -0.384 OA
ATOM     34  H   UNL     1      28.144  -3.247 -29.387  1.00  0.00     0.211 HD
ENDBRANCH  28  33
BRANCH  30  35
ATOM     35  O   UNL     1      27.402  -1.220 -30.033  1.00  0.00    -0.387 OA
ATOM     36  H   UNL     1      27.600  -1.459 -29.089  1.00  0.00     0.211 HD
ENDBRANCH  30  35
BRANCH  31  37
ATOM     37  C   UNL     1      22.627  -1.588 -30.183  1.00  0.00     0.191 C 
BRANCH  37  38
ATOM     38  O   UNL     1      21.422  -2.252 -29.919  1.00  0.00    -0.394 OA
ATOM     39  H   UNL     1      21.467  -2.538 -28.970  1.00  0.00     0.210 HD
ENDBRANCH  37  38
ENDBRANCH  31  37
BRANCH  32  40
ATOM     40  O   UNL     1      25.480  -1.580 -28.105  1.00  0.00    -0.387 OA
ATOM     41  H   UNL     1      26.208  -0.918 -27.981  1.00  0.00     0.211 HD
ENDBRANCH  32  40
ENDBRANCH   1  27
TORSDOF 12
ENDMDL
MODEL 5
REMARK VINA RESULT:    -5.682     15.163     16.387
REMARK INTER + INTRA:          -8.894
REMARK INTER:                  -7.823
REMARK INTRA:                  -1.072
REMARK UNBOUND:                -0.555
REMARK SMILES O=c1c(O[C@@H]2O[C@H](CO)[C@@H](O)[C@@H](O)[C@H]2O)c(-c2ccc(O)c(O)c2)oc2cc(O)cc(O)c12
REMARK SMILES IDX 4 1 3 2 16 3 25 4 2 5 26 6 1 7 33 8 27 9 31 10 28 11 30 12
REMARK SMILES IDX 17 13 18 14 19 15 20 16 24 17 22 18 21 19 23 21 32 23 29 25
REMARK SMILES IDX 5 27 14 28 6 29 12 30 7 31 10 32 15 33 13 35 8 37 9 38 11 40
REMARK H PARENT 21 20 23 22 32 24 29 26 15 34 13 36 9 39 11 41
REMARK Flexibility Score: inf
ROOT
ATOM      1  O   UNL     1      21.415  -7.051 -30.698  1.00  0.00    -0.454 OA
ENDROOT
BRANCH   1   2
ATOM      2  C   UNL     1      22.240  -8.196 -30.758  1.00  0.00     0.214 A 
ATOM      3  C   UNL     1      23.267  -8.322 -29.802  1.00  0.00     0.180 A 
ATOM      4  O   UNL     1      24.133  -9.326 -29.880  1.00  0.00    -0.452 OA
ATOM      5  C   UNL     1      22.114  -9.210 -31.735  1.00  0.00     0.239 A 
ATOM      6  C   UNL     1      24.097 -10.251 -30.828  1.00  0.00     0.146 A 
ATOM      7  O   UNL     1      21.101  -9.239 -32.475  1.00  0.00    -0.285 OA
ATOM      8  C   UNL     1      23.101 -10.219 -31.835  1.00  0.00     0.111 A 
ATOM      9  C   UNL     1      25.054 -11.268 -30.809  1.00  0.00     0.094 A 
ATOM     10  C   UNL     1      23.136 -11.208 -32.861  1.00  0.00     0.134 A 
ATOM     11  C   UNL     1      25.036 -12.273 -31.777  1.00  0.00     0.123 A 
ATOM     12  C   UNL     1      24.074 -12.245 -32.789  1.00  0.00     0.093 A 
BRANCH   3  13
ATOM     13  C   UNL     1      23.431  -7.349 -28.700  1.00  0.00     0.025 A 
ATOM     14  C   UNL     1      23.282  -7.733 -27.354  1.00  0.00     0.016 A 
ATOM     15  C   UNL     1      23.457  -6.798 -26.331  1.00  0.00     0.051 A 
ATOM     16  C   UNL     1      23.798  -5.474 -26.630  1.00  0.00     0.157 A 
ATOM     17  C   UNL     1      23.793  -6.024 -28.994  1.00  0.00     0.062 A 
ATOM     18  C   UNL     1      23.967  -5.085 -27.969  1.00  0.00     0.158 A 
BRANCH  16  19
ATOM     19  O   UNL     1      23.980  -4.550 -25.603  1.00  0.00    -0.504 OA
ATOM     20  H   UNL     1      23.453  -3.685 -25.571  1.00  0.00     0.293 HD
ENDBRANCH  16  19
BRANCH  18  21
ATOM     21  O   UNL     1      24.307  -3.774 -28.300  1.00  0.00    -0.504 OA
ATOM     22  H   UNL     1      24.793  -3.166 -27.653  1.00  0.00     0.293 HD
ENDBRANCH  18  21
ENDBRANCH   3  13
BRANCH  10  23
ATOM     23  O   UNL     1      22.304 -11.187 -33.984  1.00  0.00    -0.507 OA
ATOM     24  H   UNL     1      22.632 -11.282 -34.935  1.00  0.00     0.293 HD
ENDBRANCH  10  23
BRANCH  11  25
ATOM     25  O   UNL     1      25.987 -13.289 -31.729  1.00  0.00    -0.508 OA
ATOM     26  H   UNL     1      26.909 -13.173 -32.135  1.00  0.00     0.293 HD
ENDBRANCH  11  25
ENDBRANCH   1   2
BRANCH   1  27
ATOM     27  C   UNL     1      21.427  -5.880 -31.526  1.00  0.00     0.339 C 
ATOM     28  C   UNL     1      21.176  -4.588 -30.704  1.00  0.00     0.214 C 
ATOM     29  O   UNL     1      22.634  -5.817 -32.261  1.00  0.00    -0.332 OA
ATOM     30  C   UNL     1      22.003  -3.407 -31.266  1.00  0.00     0.180 C 
ATOM     31  C   UNL     1      22.527  -4.871 -33.316  1.00  0.00     0.179 C 
ATOM     32  C   UNL     1      22.106  -3.450 -32.804  1.00  0.00     0.177 C 
BRANCH  28  33
ATOM     33  O   UNL     1      19.802  -4.289 -30.727  1.00  0.00    -0.384 OA
ATOM     34  H   UNL     1      19.328  -5.105 -31.035  1.00  0.00     0.211 HD
ENDBRANCH  28  33
BRANCH  30  35
ATOM     35  O   UNL     1      21.465  -2.176 -30.855  1.00  0.00    -0.387 OA
ATOM     36  H   UNL     1      21.940  -1.470 -31.368  1.00  0.00     0.211 HD
ENDBRANCH  30  35
BRANCH  31  37
ATOM     37  C   UNL     1      23.877  -4.822 -34.039  1.00  0.00     0.191 C 
BRANCH  37  38
ATOM     38  O   UNL     1      24.404  -3.523 -33.994  1.00  0.00    -0.394 OA
ATOM     39  H   UNL     1      25.332  -3.614 -33.655  1.00  0.00     0.210 HD
ENDBRANCH  37  38
ENDBRANCH  31  37
BRANCH  32  40
ATOM     40  O   UNL     1      20.906  -3.026 -33.406  1.00  0.00    -0.387 OA
ATOM     41  H   UNL     1      20.340  -2.617 -32.702  1.00  0.00     0.211 HD
ENDBRANCH  32  40
ENDBRANCH   1  27
TORSDOF 12
ENDMDL
MODEL 6
REMARK VINA RESULT:    -5.674     16.044     17.759
REMARK INTER + INTRA:          -8.882
REMARK INTER:                  -7.471
REMARK INTRA:                  -1.411
REMARK UNBOUND:                -0.555
REMARK SMILES O=c1c(O[C@@H]2O[C@H](CO)[C@@H](O)[C@@H](O)[C@H]2O)c(-c2ccc(O)c(O)c2)oc2cc(O)cc(O)c12
REMARK SMILES IDX 4 1 3 2 16 3 25 4 2 5 26 6 1 7 33 8 27 9 31 10 28 11 30 12
REMARK SMILES IDX 17 13 18 14 19 15 20 16 24 17 22 18 21 19 23 21 32 23 29 25
REMARK SMILES IDX 5 27 14 28 6 29 12 30 7 31 10 32 15 33 13 35 8 37 9 38 11 40
REMARK H PARENT 21 20 23 22 32 24 29 26 15 34 13 36 9 39 11 41
REMARK Flexibility Score: inf
ROOT
ATOM      1  O   UNL     1      24.187  -5.984 -32.351  1.00  0.00    -0.454 OA
ENDROOT
BRANCH   1   2
ATOM      2  C   UNL     1      24.385  -7.037 -31.430  1.00  0.00     0.214 A 
ATOM      3  C   UNL     1      24.719  -6.701 -30.104  1.00  0.00     0.180 A 
ATOM      4  O   UNL     1      25.017  -7.654 -29.228  1.00  0.00    -0.452 OA
ATOM      5  C   UNL     1      24.293  -8.406 -31.766  1.00  0.00     0.239 A 
ATOM      6  C   UNL     1      25.021  -8.945 -29.526  1.00  0.00     0.146 A 
ATOM      7  O   UNL     1      23.809  -8.745 -32.873  1.00  0.00    -0.285 OA
ATOM      8  C   UNL     1      24.694  -9.389 -30.830  1.00  0.00     0.111 A 
ATOM      9  C   UNL     1      25.342  -9.864 -28.523  1.00  0.00     0.094 A 
ATOM     10  C   UNL     1      24.762 -10.785 -31.113  1.00  0.00     0.134 A 
ATOM     11  C   UNL     1      25.336 -11.232 -28.791  1.00  0.00     0.123 A 
ATOM     12  C   UNL     1      25.037 -11.687 -30.078  1.00  0.00     0.093 A 
BRANCH   3  13
ATOM     13  C   UNL     1      24.768  -5.296 -29.643  1.00  0.00     0.025 A 
ATOM     14  C   UNL     1      23.699  -4.720 -28.932  1.00  0.00     0.016 A 
ATOM     15  C   UNL     1      23.776  -3.395 -28.494  1.00  0.00     0.051 A 
ATOM     16  C   UNL     1      24.921  -2.631 -28.743  1.00  0.00     0.157 A 
ATOM     17  C   UNL     1      25.923  -4.532 -29.873  1.00  0.00     0.062 A 
ATOM     18  C   UNL     1      26.001  -3.203 -29.437  1.00  0.00     0.158 A 
BRANCH  16  19
ATOM     19  O   UNL     1      24.995  -1.314 -28.295  1.00  0.00    -0.504 OA
ATOM     20  H   UNL     1      24.334  -0.948 -27.619  1.00  0.00     0.293 HD
ENDBRANCH  16  19
BRANCH  18  21
ATOM     21  O   UNL     1      27.157  -2.468 -29.700  1.00  0.00    -0.504 OA
ATOM     22  H   UNL     1      28.071  -2.779 -29.395  1.00  0.00     0.293 HD
ENDBRANCH  18  21
ENDBRANCH   3  13
BRANCH  10  23
ATOM     23  O   UNL     1      24.612 -11.323 -32.394  1.00  0.00    -0.507 OA
ATOM     24  H   UNL     1      23.720 -11.468 -32.847  1.00  0.00     0.293 HD
ENDBRANCH  10  23
BRANCH  11  25
ATOM     25  O   UNL     1      25.640 -12.132 -27.773  1.00  0.00    -0.508 OA
ATOM     26  H   UNL     1      25.764 -11.828 -26.814  1.00  0.00     0.293 HD
ENDBRANCH  11  25
ENDBRANCH   1   2
BRANCH   1  27
ATOM     27  C   UNL     1      22.960  -5.426 -32.840  1.00  0.00     0.339 C 
ATOM     28  C   UNL     1      21.763  -5.753 -31.908  1.00  0.00     0.214 C 
ATOM     29  O   UNL     1      23.107  -4.034 -33.049  1.00  0.00    -0.332 OA
ATOM     30  C   UNL     1      20.765  -4.572 -31.856  1.00  0.00     0.180 C 
ATOM     31  C   UNL     1      22.037  -3.532 -33.837  1.00  0.00     0.179 C 
ATOM     32  C   UNL     1      20.634  -3.862 -33.219  1.00  0.00     0.177 C 
BRANCH  28  33
ATOM     33  O   UNL     1      21.128  -6.921 -32.369  1.00  0.00    -0.384 OA
ATOM     34  H   UNL     1      20.476  -6.646 -33.067  1.00  0.00     0.211 HD
ENDBRANCH  28  33
BRANCH  30  35
ATOM     35  O   UNL     1      19.501  -5.000 -31.414  1.00  0.00    -0.387 OA
ATOM     36  H   UNL     1      19.118  -4.256 -30.878  1.00  0.00     0.211 HD
ENDBRANCH  30  35
BRANCH  31  37
ATOM     37  C   UNL     1      22.235  -2.019 -33.984  1.00  0.00     0.191 C 
BRANCH  37  38
ATOM     38  O   UNL     1      21.192  -1.330 -33.350  1.00  0.00    -0.394 OA
ATOM     39  H   UNL     1      21.143  -0.440 -33.788  1.00  0.00     0.210 HD
ENDBRANCH  37  38
ENDBRANCH  31  37
BRANCH  32  40
ATOM     40  O   UNL     1      19.848  -4.616 -34.111  1.00  0.00    -0.387 OA
ATOM     41  H   UNL     1      20.425  -4.891 -34.869  1.00  0.00     0.211 HD
ENDBRANCH  32  40
ENDBRANCH   1  27
TORSDOF 12
ENDMDL
MODEL 7
REMARK VINA RESULT:    -5.632      2.563      8.495
REMARK INTER + INTRA:          -8.821
REMARK INTER:                  -7.836
REMARK INTRA:                  -0.985
REMARK UNBOUND:                -0.555
REMARK SMILES O=c1c(O[C@@H]2O[C@H](CO)[C@@H](O)[C@@H](O)[C@H]2O)c(-c2ccc(O)c(O)c2)oc2cc(O)cc(O)c12
REMARK SMILES IDX 4 1 3 2 16 3 25 4 2 5 26 6 1 7 33 8 27 9 31 10 28 11 30 12
REMARK SMILES IDX 17 13 18 14 19 15 20 16 24 17 22 18 21 19 23 21 32 23 29 25
REMARK SMILES IDX 5 27 14 28 6 29 12 30 7 31 10 32 15 33 13 35 8 37 9 38 11 40
REMARK H PARENT 21 20 23 22 32 24 29 26 15 34 13 36 9 39 11 41
REMARK Flexibility Score: inf
ROOT
ATOM      1  O   UNL     1      11.800 -18.723 -27.618  1.00  0.00    -0.454 OA
ENDROOT
BRANCH   1   2
ATOM      2  C   UNL     1      10.982 -17.787 -26.946  1.00  0.00     0.214 A 
ATOM      3  C   UNL     1       9.815 -17.343 -27.596  1.00  0.00     0.180 A 
ATOM      4  O   UNL     1       9.069 -16.387 -27.053  1.00  0.00    -0.452 OA
ATOM      5  C   UNL     1      11.277 -17.252 -25.672  1.00  0.00     0.239 A 
ATOM      6  C   UNL     1       9.358 -15.803 -25.899  1.00  0.00     0.146 A 
ATOM      7  O   UNL     1      12.191 -17.763 -24.978  1.00  0.00    -0.285 OA
ATOM      8  C   UNL     1      10.506 -16.181 -25.161  1.00  0.00     0.111 A 
ATOM      9  C   UNL     1       8.498 -14.814 -25.414  1.00  0.00     0.094 A 
ATOM     10  C   UNL     1      10.799 -15.488 -23.950  1.00  0.00     0.134 A 
ATOM     11  C   UNL     1       8.754 -14.191 -24.193  1.00  0.00     0.123 A 
ATOM     12  C   UNL     1       9.894 -14.537 -23.463  1.00  0.00     0.093 A 
BRANCH   3  13
ATOM     13  C   UNL     1       9.387 -17.898 -28.899  1.00  0.00     0.025 A 
ATOM     14  C   UNL     1       9.030 -19.253 -29.036  1.00  0.00     0.016 A 
ATOM     15  C   UNL     1       8.615 -19.751 -30.274  1.00  0.00     0.051 A 
ATOM     16  C   UNL     1       8.534 -18.906 -31.387  1.00  0.00     0.157 A 
ATOM     17  C   UNL     1       9.285 -17.051 -30.014  1.00  0.00     0.062 A 
ATOM     18  C   UNL     1       8.871 -17.548 -31.256  1.00  0.00     0.158 A 
BRANCH  16  19
ATOM     19  O   UNL     1       8.109 -19.407 -32.616  1.00  0.00    -0.504 OA
ATOM     20  H   UNL     1       8.157 -20.398 -32.828  1.00  0.00     0.293 HD
ENDBRANCH  16  19
BRANCH  18  21
ATOM     21  O   UNL     1       8.799 -16.681 -32.346  1.00  0.00    -0.504 OA
ATOM     22  H   UNL     1       9.580 -16.544 -32.975  1.00  0.00     0.293 HD
ENDBRANCH  18  21
ENDBRANCH   3  13
BRANCH  10  23
ATOM     23  O   UNL     1      11.978 -15.668 -23.222  1.00  0.00    -0.507 OA
ATOM     24  H   UNL     1      12.091 -16.349 -22.484  1.00  0.00     0.293 HD
ENDBRANCH  10  23
BRANCH  11  25
ATOM     25  O   UNL     1       7.875 -13.221 -23.719  1.00  0.00    -0.508 OA
ATOM     26  H   UNL     1       7.875 -12.934 -22.747  1.00  0.00     0.293 HD
ENDBRANCH  11  25
ENDBRANCH   1   2
BRANCH   1  27
ATOM     27  C   UNL     1      12.960 -18.496 -28.429  1.00  0.00     0.339 C 
ATOM     28  C   UNL     1      12.582 -18.031 -29.861  1.00  0.00     0.214 C 
ATOM     29  O   UNL     1      13.832 -17.585 -27.787  1.00  0.00    -0.332 OA
ATOM     30  C   UNL     1      13.608 -17.003 -30.396  1.00  0.00     0.180 C 
ATOM     31  C   UNL     1      15.114 -17.606 -28.398  1.00  0.00     0.179 C 
ATOM     32  C   UNL     1      15.046 -17.326 -29.939  1.00  0.00     0.177 C 
BRANCH  28  33
ATOM     33  O   UNL     1      12.517 -19.154 -30.706  1.00  0.00    -0.384 OA
ATOM     34  H   UNL     1      13.385 -19.630 -30.632  1.00  0.00     0.211 HD
ENDBRANCH  28  33
BRANCH  30  35
ATOM     35  O   UNL     1      13.556 -16.923 -31.798  1.00  0.00    -0.387 OA
ATOM     36  H   UNL     1      14.344 -16.390 -32.084  1.00  0.00     0.211 HD
ENDBRANCH  30  35
BRANCH  31  37
ATOM     37  C   UNL     1      15.989 -16.570 -27.685  1.00  0.00     0.191 C 
BRANCH  37  38
ATOM     38  O   UNL     1      15.730 -16.581 -26.307  1.00  0.00    -0.394 OA
ATOM     39  H   UNL     1      15.924 -15.664 -25.983  1.00  0.00     0.210 HD
ENDBRANCH  37  38
ENDBRANCH  31  37
BRANCH  32  40
ATOM     40  O   UNL     1      15.585 -18.397 -30.677  1.00  0.00    -0.387 OA
ATOM     41  H   UNL     1      16.357 -18.759 -30.171  1.00  0.00     0.211 HD
ENDBRANCH  32  40
ENDBRANCH   1  27
TORSDOF 12
ENDMDL
MODEL 8
REMARK VINA RESULT:    -5.631     15.192     17.061
REMARK INTER + INTRA:          -8.820
REMARK INTER:                  -7.907
REMARK INTRA:                  -0.913
REMARK UNBOUND:                -0.555
REMARK SMILES O=c1c(O[C@@H]2O[C@H](CO)[C@@H](O)[C@@H](O)[C@H]2O)c(-c2ccc(O)c(O)c2)oc2cc(O)cc(O)c12
REMARK SMILES IDX 4 1 3 2 16 3 25 4 2 5 26 6 1 7 33 8 27 9 31 10 28 11 30 12
REMARK SMILES IDX 17 13 18 14 19 15 20 16 24 17 22 18 21 19 23 21 32 23 29 25
REMARK SMILES IDX 5 27 14 28 6 29 12 30 7 31 10 32 15 33 13 35 8 37 9 38 11 40
REMARK H PARENT 21 20 23 22 32 24 29 26 15 34 13 36 9 39 11 41
REMARK Flexibility Score: inf
ROOT
ATOM      1  O   UNL     1      23.234  -6.746 -29.027  1.00  0.00    -0.454 OA
ENDROOT
BRANCH   1   2
ATOM      2  C   UNL     1      23.229  -7.983 -29.711  1.00  0.00     0.214 A 
ATOM      3  C   UNL     1      22.536  -8.057 -30.935  1.00  0.00     0.180 A 
ATOM      4  O   UNL     1      22.414  -9.220 -31.564  1.00  0.00    -0.452 OA
ATOM      5  C   UNL     1      23.856  -9.154 -29.230  1.00  0.00     0.239 A 
ATOM      6  C   UNL     1      22.918 -10.356 -31.104  1.00  0.00     0.146 A 
ATOM      7  O   UNL     1      24.644  -9.083 -28.255  1.00  0.00    -0.285 OA
ATOM      8  C   UNL     1      23.638 -10.389 -29.885  1.00  0.00     0.111 A 
ATOM      9  C   UNL     1      22.737 -11.522 -31.853  1.00  0.00     0.094 A 
ATOM     10  C   UNL     1      24.117 -11.645 -29.409  1.00  0.00     0.134 A 
ATOM     11  C   UNL     1      23.271 -12.733 -31.414  1.00  0.00     0.123 A 
ATOM     12  C   UNL     1      23.966 -12.788 -30.203  1.00  0.00     0.093 A 
BRANCH   3  13
ATOM     13  C   UNL     1      21.910  -6.866 -31.552  1.00  0.00     0.025 A 
ATOM     14  C   UNL     1      22.219  -6.475 -32.868  1.00  0.00     0.016 A 
ATOM     15  C   UNL     1      21.604  -5.356 -33.434  1.00  0.00     0.051 A 
ATOM     16  C   UNL     1      20.662  -4.620 -32.705  1.00  0.00     0.157 A 
ATOM     17  C   UNL     1      20.950  -6.138 -30.832  1.00  0.00     0.062 A 
ATOM     18  C   UNL     1      20.333  -5.013 -31.397  1.00  0.00     0.158 A 
BRANCH  16  19
ATOM     19  O   UNL     1      20.044  -3.511 -33.279  1.00  0.00    -0.504 OA
ATOM     20  H   UNL     1      20.210  -2.574 -32.929  1.00  0.00     0.293 HD
ENDBRANCH  16  19
BRANCH  18  21
ATOM     21  O   UNL     1      19.398  -4.303 -30.645  1.00  0.00    -0.504 OA
ATOM     22  H   UNL     1      18.481  -4.677 -30.437  1.00  0.00     0.293 HD
ENDBRANCH  18  21
ENDBRANCH   3  13
BRANCH  10  23
ATOM     23  O   UNL     1      24.703 -11.823 -28.152  1.00  0.00    -0.507 OA
ATOM     24  H   UNL     1      24.825 -11.085 -27.474  1.00  0.00     0.293 HD
ENDBRANCH  10  23
BRANCH  11  25
ATOM     25  O   UNL     1      23.096 -13.880 -32.185  1.00  0.00    -0.508 OA
ATOM     26  H   UNL     1      23.886 -14.409 -32.536  1.00  0.00     0.293 HD
ENDBRANCH  11  25
ENDBRANCH   1   2
BRANCH   1  27
ATOM     27  C   UNL     1      24.082  -5.606 -29.220  1.00  0.00     0.339 C 
ATOM     28  C   UNL     1      25.023  -5.785 -30.442  1.00  0.00     0.214 C 
ATOM     29  O   UNL     1      23.301  -4.430 -29.319  1.00  0.00    -0.332 OA
ATOM     30  C   UNL     1      25.237  -4.439 -31.176  1.00  0.00     0.180 C 
ATOM     31  C   UNL     1      24.116  -3.276 -29.172  1.00  0.00     0.179 C 
ATOM     32  C   UNL     1      25.302  -3.249 -30.197  1.00  0.00     0.177 C 
BRANCH  28  33
ATOM     33  O   UNL     1      26.251  -6.313 -30.002  1.00  0.00    -0.384 OA
ATOM     34  H   UNL     1      26.059  -7.189 -29.576  1.00  0.00     0.211 HD
ENDBRANCH  28  33
BRANCH  30  35
ATOM     35  O   UNL     1      26.398  -4.476 -31.966  1.00  0.00    -0.387 OA
ATOM     36  H   UNL     1      27.108  -4.008 -31.453  1.00  0.00     0.211 HD
ENDBRANCH  30  35
BRANCH  31  37
ATOM     37  C   UNL     1      23.217  -2.045 -29.334  1.00  0.00     0.191 C 
BRANCH  37  38
ATOM     38  O   UNL     1      21.921  -2.436 -29.700  1.00  0.00    -0.394 OA
ATOM     39  H   UNL     1      21.344  -2.246 -28.915  1.00  0.00     0.210 HD
ENDBRANCH  37  38
ENDBRANCH  31  37
BRANCH  32  40
ATOM     40  O   UNL     1      26.545  -3.200 -29.538  1.00  0.00    -0.387 OA
ATOM     41  H   UNL     1      26.982  -4.084 -29.646  1.00  0.00     0.211 HD
ENDBRANCH  32  40
ENDBRANCH   1  27
TORSDOF 12
ENDMDL
MODEL 9
REMARK VINA RESULT:    -5.591     16.601     18.781
REMARK INTER + INTRA:          -8.761
REMARK INTER:                  -7.812
REMARK INTRA:                  -0.949
REMARK UNBOUND:                -0.555
REMARK SMILES O=c1c(O[C@@H]2O[C@H](CO)[C@@H](O)[C@@H](O)[C@H]2O)c(-c2ccc(O)c(O)c2)oc2cc(O)cc(O)c12
REMARK SMILES IDX 4 1 3 2 16 3 25 4 2 5 26 6 1 7 33 8 27 9 31 10 28 11 30 12
REMARK SMILES IDX 17 13 18 14 19 15 20 16 24 17 22 18 21 19 23 21 32 23 29 25
REMARK SMILES IDX 5 27 14 28 6 29 12 30 7 31 10 32 15 33 13 35 8 37 9 38 11 40
REMARK H PARENT 21 20 23 22 32 24 29 26 15 34 13 36 9 39 11 41
REMARK Flexibility Score: inf
ROOT
ATOM      1  O   UNL     1      23.801  -5.666 -28.310  1.00  0.00    -0.454 OA
ENDROOT
BRANCH   1   2
ATOM      2  C   UNL     1      23.542  -4.762 -29.364  1.00  0.00     0.214 A 
ATOM      3  C   UNL     1      24.144  -3.490 -29.305  1.00  0.00     0.180 A 
ATOM      4  O   UNL     1      23.850  -2.569 -30.216  1.00  0.00    -0.452 OA
ATOM      5  C   UNL     1      22.697  -5.047 -30.459  1.00  0.00     0.239 A 
ATOM      6  C   UNL     1      23.000  -2.771 -31.212  1.00  0.00     0.146 A 
ATOM      7  O   UNL     1      22.304  -6.224 -30.653  1.00  0.00    -0.285 OA
ATOM      8  C   UNL     1      22.345  -4.018 -31.364  1.00  0.00     0.111 A 
ATOM      9  C   UNL     1      22.770  -1.734 -32.119  1.00  0.00     0.094 A 
ATOM     10  C   UNL     1      21.402  -4.168 -32.423  1.00  0.00     0.134 A 
ATOM     11  C   UNL     1      21.900  -1.915 -33.193  1.00  0.00     0.123 A 
ATOM     12  C   UNL     1      21.229  -3.131 -33.347  1.00  0.00     0.093 A 
BRANCH   3  13
ATOM     13  C   UNL     1      25.099  -3.126 -28.235  1.00  0.00     0.025 A 
ATOM     14  C   UNL     1      26.423  -2.750 -28.531  1.00  0.00     0.016 A 
ATOM     15  C   UNL     1      27.302  -2.397 -27.504  1.00  0.00     0.051 A 
ATOM     16  C   UNL     1      26.872  -2.396 -26.172  1.00  0.00     0.157 A 
ATOM     17  C   UNL     1      24.667  -3.104 -26.900  1.00  0.00     0.062 A 
ATOM     18  C   UNL     1      25.548  -2.752 -25.868  1.00  0.00     0.158 A 
BRANCH  16  19
ATOM     19  O   UNL     1      27.752  -2.033 -25.154  1.00  0.00    -0.504 OA
ATOM     20  H   UNL     1      28.298  -2.726 -24.655  1.00  0.00     0.293 HD
ENDBRANCH  16  19
BRANCH  18  21
ATOM     21  O   UNL     1      25.089  -2.760 -24.551  1.00  0.00    -0.504 OA
ATOM     22  H   UNL     1      24.856  -1.907 -24.059  1.00  0.00     0.293 HD
ENDBRANCH  18  21
ENDBRANCH   3  13
BRANCH  10  23
ATOM     23  O   UNL     1      20.587  -5.294 -32.579  1.00  0.00    -0.507 OA
ATOM     24  H   UNL     1      20.932  -6.243 -32.614  1.00  0.00     0.293 HD
ENDBRANCH  10  23
BRANCH  11  25
ATOM     25  O   UNL     1      21.699  -0.875 -34.098  1.00  0.00    -0.508 OA
ATOM     26  H   UNL     1      20.817  -0.378 -34.149  1.00  0.00     0.293 HD
ENDBRANCH  11  25
ENDBRANCH   1   2
BRANCH   1  27
ATOM     27  C   UNL     1      24.543  -6.894 -28.330  1.00  0.00     0.339 C 
ATOM     28  C   UNL     1      23.631  -8.125 -28.079  1.00  0.00     0.214 C 
ATOM     29  O   UNL     1      25.265  -7.006 -29.542  1.00  0.00    -0.332 OA
ATOM     30  C   UNL     1      24.102  -9.340 -28.913  1.00  0.00     0.180 C 
ATOM     31  C   UNL     1      26.250  -8.025 -29.443  1.00  0.00     0.179 C 
ATOM     32  C   UNL     1      25.639  -9.407 -29.024  1.00  0.00     0.177 C 
BRANCH  28  33
ATOM     33  O   UNL     1      23.640  -8.430 -26.705  1.00  0.00    -0.384 OA
ATOM     34  H   UNL     1      24.544  -8.781 -26.488  1.00  0.00     0.211 HD
ENDBRANCH  28  33
BRANCH  30  35
ATOM     35  O   UNL     1      23.607 -10.540 -28.377  1.00  0.00    -0.387 OA
ATOM     36  H   UNL     1      24.173 -11.271 -28.739  1.00  0.00     0.211 HD
ENDBRANCH  30  35
BRANCH  31  37
ATOM     37  C   UNL     1      26.961  -8.122 -30.797  1.00  0.00     0.191 C 
BRANCH  37  38
ATOM     38  O   UNL     1      26.650  -9.338 -31.422  1.00  0.00    -0.394 OA
ATOM     39  H   UNL     1      26.253  -9.915 -30.719  1.00  0.00     0.210 HD
ENDBRANCH  37  38
ENDBRANCH  31  37
BRANCH  32  40
ATOM     40  O   UNL     1      26.215  -9.878 -27.829  1.00  0.00    -0.387 OA
ATOM     41  H   UNL     1      25.762  -9.426 -27.072  1.00  0.00     0.211 HD
ENDBRANCH  32  40
ENDBRANCH   1  27
TORSDOF 12
ENDMDL
