MODEL 1
REMARK VINA RESULT:    -3.256      0.000      0.000
REMARK INTER + INTRA:          -6.529
REMARK INTER:                  -5.159
REMARK INTRA:                  -1.370
REMARK UNBOUND:                -1.370
REMARK SMILES CCCCCCCCCCCC(=O)[O-]
REMARK SMILES IDX 7 1 8 2 9 3 10 4 11 5 12 6 13 7 14 8 6 9 5 10 4 11 3 12 2 13
REMARK SMILES IDX 1 14
REMARK H PARENT
REMARK Flexibility Score: inf
ROOT
ATOM      1  C   UNL     1     -35.811   7.687  -3.160  1.00  0.00     0.000 C 
ENDROOT
BRANCH   1   2
ATOM      2  C   UNL     1     -36.252   7.465  -1.705  1.00  0.00     0.000 C 
BRANCH   2   3
ATOM      3  C   UNL     1     -36.312   5.965  -1.376  1.00  0.00     0.000 C 
BRANCH   3   4
ATOM      4  C   UNL     1     -36.429   5.087  -2.631  1.00  0.00     0.006 C 
BRANCH   4   5
ATOM      5  C   UNL     1     -35.460   3.897  -2.612  1.00  0.00     0.053 C 
BRANCH   5   6
ATOM      6  C   UNL     1     -35.968   2.797  -3.489  1.00  0.00     0.041 C 
ATOM      7  O   UNL     1     -36.619   3.067  -4.533  1.00  0.00    -0.550 OA
ATOM      8  O   UNL     1     -35.680   1.473  -3.181  1.00  0.00    -0.550 OA
ENDBRANCH   5   6
ENDBRANCH   4   5
ENDBRANCH   3   4
ENDBRANCH   2   3
ENDBRANCH   1   2
BRANCH   1   9
ATOM      9  C   UNL     1     -34.816   8.850  -3.309  1.00  0.00     0.000 C 
BRANCH   9  10
ATOM     10  C   UNL     1     -33.392   8.471  -2.870  1.00  0.00    -0.000 C 
BRANCH  10  11
ATOM     11  C   UNL     1     -32.948   7.107  -3.421  1.00  0.00    -0.000 C 
BRANCH  11  12
ATOM     12  C   UNL     1     -32.489   6.140  -2.319  1.00  0.00    -0.000 C 
BRANCH  12  13
ATOM     13  C   UNL     1     -32.784   6.715  -0.929  1.00  0.00    -0.003 C 
ATOM     14  C   UNL     1     -31.531   6.722  -0.057  1.00  0.00     0.004 C 
ENDBRANCH  12  13
ENDBRANCH  11  12
ENDBRANCH  10  11
ENDBRANCH   9  10
ENDBRANCH   1   9
TORSDOF 10
ENDMDL
MODEL 2
REMARK VINA RESULT:    -3.235      3.087      4.665
REMARK INTER + INTRA:          -6.497
REMARK INTER:                  -5.206
REMARK INTRA:                  -1.291
REMARK UNBOUND:                -1.370
REMARK SMILES CCCCCCCCCCCC(=O)[O-]
REMARK SMILES IDX 7 1 8 2 9 3 10 4 11 5 12 6 13 7 14 8 6 9 5 10 4 11 3 12 2 13
REMARK SMILES IDX 1 14
REMARK H PARENT
REMARK Flexibility Score: inf
ROOT
ATOM      1  C   UNL     1     -35.469   5.004  -2.341  1.00  0.00     0.000 C 
ENDROOT
BRANCH   1   2
ATOM      2  C   UNL     1     -36.178   5.879  -1.297  1.00  0.00     0.000 C 
BRANCH   2   3
ATOM      3  C   UNL     1     -36.131   7.360  -1.701  1.00  0.00     0.000 C 
BRANCH   3   4
ATOM      4  C   UNL     1     -35.545   7.572  -3.106  1.00  0.00     0.006 C 
BRANCH   4   5
ATOM      5  C   UNL     1     -34.992   8.989  -3.307  1.00  0.00     0.053 C 
BRANCH   5   6
ATOM      6  C   UNL     1     -35.988   9.839  -4.032  1.00  0.00     0.041 C 
ATOM      7  O   UNL     1     -36.541  10.807  -3.447  1.00  0.00    -0.550 OA
ATOM      8  O   UNL     1     -36.269   9.592  -5.370  1.00  0.00    -0.550 OA
ENDBRANCH   5   6
ENDBRANCH   4   5
ENDBRANCH   3   4
ENDBRANCH   2   3
ENDBRANCH   1   2
BRANCH   1   9
ATOM      9  C   UNL     1     -34.729   3.810  -1.715  1.00  0.00     0.000 C 
BRANCH   9  10
ATOM     10  C   UNL     1     -33.217   4.059  -1.578  1.00  0.00    -0.000 C 
BRANCH  10  11
ATOM     11  C   UNL     1     -32.818   4.503  -0.161  1.00  0.00    -0.000 C 
BRANCH  11  12
ATOM     12  C   UNL     1     -31.847   5.694  -0.163  1.00  0.00    -0.000 C 
BRANCH  12  13
ATOM     13  C   UNL     1     -32.513   6.942  -0.751  1.00  0.00    -0.003 C 
ATOM     14  C   UNL     1     -31.718   7.486  -1.935  1.00  0.00     0.004 C 
ENDBRANCH  12  13
ENDBRANCH  11  12
ENDBRANCH  10  11
ENDBRANCH   9  10
ENDBRANCH   1   9
TORSDOF 10
ENDMDL
MODEL 3
REMARK VINA RESULT:    -3.230      3.221      4.756
REMARK INTER + INTRA:          -6.489
REMARK INTER:                  -5.519
REMARK INTRA:                  -0.970
REMARK UNBOUND:                -1.370
REMARK SMILES CCCCCCCCCCCC(=O)[O-]
REMARK SMILES IDX 7 1 8 2 9 3 10 4 11 5 12 6 13 7 14 8 6 9 5 10 4 11 3 12 2 13
REMARK SMILES IDX 1 14
REMARK H PARENT
REMARK Flexibility Score: inf
ROOT
ATOM      1  C   UNL     1     -30.787   6.873  -1.574  1.00  0.00     0.000 C 
ENDROOT
BRANCH   1   2
ATOM      2  C   UNL     1     -31.467   6.310  -0.317  1.00  0.00     0.000 C 
BRANCH   2   3
ATOM      3  C   UNL     1     -32.878   5.796  -0.642  1.00  0.00     0.000 C 
BRANCH   3   4
ATOM      4  C   UNL     1     -33.845   6.925  -1.030  1.00  0.00     0.006 C 
BRANCH   4   5
ATOM      5  C   UNL     1     -34.714   6.568  -2.243  1.00  0.00     0.053 C 
BRANCH   5   6
ATOM      6  C   UNL     1     -36.137   6.370  -1.825  1.00  0.00     0.041 C 
ATOM      7  O   UNL     1     -36.778   5.359  -2.215  1.00  0.00    -0.550 OA
ATOM      8  O   UNL     1     -36.741   7.279  -0.964  1.00  0.00    -0.550 OA
ENDBRANCH   5   6
ENDBRANCH   4   5
ENDBRANCH   3   4
ENDBRANCH   2   3
ENDBRANCH   1   2
BRANCH   1   9
ATOM      9  C   UNL     1     -29.436   7.542  -1.271  1.00  0.00     0.000 C 
BRANCH   9  10
ATOM     10  C   UNL     1     -28.308   7.039  -2.189  1.00  0.00    -0.000 C 
BRANCH  10  11
ATOM     11  C   UNL     1     -28.214   5.505  -2.222  1.00  0.00    -0.000 C 
BRANCH  11  12
ATOM     12  C   UNL     1     -27.583   4.921  -0.949  1.00  0.00    -0.000 C 
BRANCH  12  13
ATOM     13  C   UNL     1     -28.388   3.720  -0.440  1.00  0.00    -0.003 C 
ATOM     14  C   UNL     1     -29.463   3.311  -1.443  1.00  0.00     0.004 C 
ENDBRANCH  12  13
ENDBRANCH  11  12
ENDBRANCH  10  11
ENDBRANCH   9  10
ENDBRANCH   1   9
TORSDOF 10
ENDMDL
MODEL 4
REMARK VINA RESULT:    -3.196      1.600      3.548
REMARK INTER + INTRA:          -6.435
REMARK INTER:                  -4.942
REMARK INTRA:                  -1.493
REMARK UNBOUND:                -1.370
REMARK SMILES CCCCCCCCCCCC(=O)[O-]
REMARK SMILES IDX 7 1 8 2 9 3 10 4 11 5 12 6 13 7 14 8 6 9 5 10 4 11 3 12 2 13
REMARK SMILES IDX 1 14
REMARK H PARENT
REMARK Flexibility Score: inf
ROOT
ATOM      1  C   UNL     1     -31.828   4.898  -0.344  1.00  0.00     0.000 C 
ENDROOT
BRANCH   1   2
ATOM      2  C   UNL     1     -32.766   4.038   0.517  1.00  0.00     0.000 C 
BRANCH   2   3
ATOM      3  C   UNL     1     -34.039   3.672  -0.262  1.00  0.00     0.000 C 
BRANCH   3   4
ATOM      4  C   UNL     1     -33.745   2.859  -1.531  1.00  0.00     0.006 C 
BRANCH   4   5
ATOM      5  C   UNL     1     -34.413   3.450  -2.780  1.00  0.00     0.053 C 
BRANCH   5   6
ATOM      6  C   UNL     1     -35.628   2.656  -3.145  1.00  0.00     0.041 C 
ATOM      7  O   UNL     1     -35.539   1.417  -3.349  1.00  0.00    -0.550 OA
ATOM      8  O   UNL     1     -36.869   3.277  -3.213  1.00  0.00    -0.550 OA
ENDBRANCH   5   6
ENDBRANCH   4   5
ENDBRANCH   3   4
ENDBRANCH   2   3
ENDBRANCH   1   2
BRANCH   1   9
ATOM      9  C   UNL     1     -32.284   6.363  -0.441  1.00  0.00     0.000 C 
BRANCH   9  10
ATOM     10  C   UNL     1     -32.430   6.842  -1.896  1.00  0.00    -0.000 C 
BRANCH  10  11
ATOM     11  C   UNL     1     -33.816   7.438  -2.185  1.00  0.00    -0.000 C 
BRANCH  11  12
ATOM     12  C   UNL     1     -34.846   7.105  -1.094  1.00  0.00    -0.000 C 
BRANCH  12  13
ATOM     13  C   UNL     1     -36.203   6.749  -1.712  1.00  0.00    -0.003 C 
ATOM     14  C   UNL     1     -36.125   6.724  -3.237  1.00  0.00     0.004 C 
ENDBRANCH  12  13
ENDBRANCH  11  12
ENDBRANCH  10  11
ENDBRANCH   9  10
ENDBRANCH   1   9
TORSDOF 10
ENDMDL
MODEL 5
REMARK VINA RESULT:    -3.166      3.162      4.715
REMARK INTER + INTRA:          -6.387
REMARK INTER:                  -4.701
REMARK INTRA:                  -1.686
REMARK UNBOUND:                -1.370
REMARK SMILES CCCCCCCCCCCC(=O)[O-]
REMARK SMILES IDX 7 1 8 2 9 3 10 4 11 5 12 6 13 7 14 8 6 9 5 10 4 11 3 12 2 13
REMARK SMILES IDX 1 14
REMARK H PARENT
REMARK Flexibility Score: inf
ROOT
ATOM      1  C   UNL     1     -36.255   5.315  -2.470  1.00  0.00     0.000 C 
ENDROOT
BRANCH   1   2
ATOM      2  C   UNL     1     -35.132   4.308  -2.177  1.00  0.00     0.000 C 
BRANCH   2   3
ATOM      3  C   UNL     1     -34.377   4.689  -0.894  1.00  0.00     0.000 C 
BRANCH   3   4
ATOM      4  C   UNL     1     -32.931   5.132  -1.168  1.00  0.00     0.006 C 
BRANCH   4   5
ATOM      5  C   UNL     1     -32.584   6.464  -0.490  1.00  0.00     0.053 C 
BRANCH   5   6
ATOM      6  C   UNL     1     -31.126   6.764  -0.647  1.00  0.00     0.041 C 
ATOM      7  O   UNL     1     -30.270   5.855  -0.480  1.00  0.00    -0.550 OA
ATOM      8  O   UNL     1     -30.715   8.037  -1.025  1.00  0.00    -0.550 OA
ENDBRANCH   5   6
ENDBRANCH   4   5
ENDBRANCH   3   4
ENDBRANCH   2   3
ENDBRANCH   1   2
BRANCH   1   9
ATOM      9  C   UNL     1     -36.410   6.372  -1.365  1.00  0.00     0.000 C 
BRANCH   9  10
ATOM     10  C   UNL     1     -36.118   7.798  -1.866  1.00  0.00    -0.000 C 
BRANCH  10  11
ATOM     11  C   UNL     1     -35.283   7.810  -3.156  1.00  0.00    -0.000 C 
BRANCH  11  12
ATOM     12  C   UNL     1     -34.011   8.665  -3.032  1.00  0.00    -0.000 C 
BRANCH  12  13
ATOM     13  C   UNL     1     -32.885   8.099  -3.903  1.00  0.00    -0.003 C 
ATOM     14  C   UNL     1     -33.267   6.741  -4.487  1.00  0.00     0.004 C 
ENDBRANCH  12  13
ENDBRANCH  11  12
ENDBRANCH  10  11
ENDBRANCH   9  10
ENDBRANCH   1   9
TORSDOF 10
ENDMDL
MODEL 6
REMARK VINA RESULT:    -3.165      2.001      3.824
REMARK INTER + INTRA:          -6.385
REMARK INTER:                  -4.773
REMARK INTRA:                  -1.613
REMARK UNBOUND:                -1.370
REMARK SMILES CCCCCCCCCCCC(=O)[O-]
REMARK SMILES IDX 7 1 8 2 9 3 10 4 11 5 12 6 13 7 14 8 6 9 5 10 4 11 3 12 2 13
REMARK SMILES IDX 1 14
REMARK H PARENT
REMARK Flexibility Score: inf
ROOT
ATOM      1  C   UNL     1     -34.095   7.796  -2.240  1.00  0.00     0.000 C 
ENDROOT
BRANCH   1   2
ATOM      2  C   UNL     1     -33.712   7.039  -0.959  1.00  0.00     0.000 C 
BRANCH   2   3
ATOM      3  C   UNL     1     -32.629   5.988  -1.248  1.00  0.00     0.000 C 
BRANCH   3   4
ATOM      4  C   UNL     1     -32.597   4.866  -0.199  1.00  0.00     0.006 C 
BRANCH   4   5
ATOM      5  C   UNL     1     -33.899   4.054  -0.163  1.00  0.00     0.053 C 
BRANCH   5   6
ATOM      6  C   UNL     1     -33.666   2.671  -0.685  1.00  0.00     0.041 C 
ATOM      7  O   UNL     1     -34.413   1.723  -0.325  1.00  0.00    -0.550 OA
ATOM      8  O   UNL     1     -32.653   2.438  -1.607  1.00  0.00    -0.550 OA
ENDBRANCH   5   6
ENDBRANCH   4   5
ENDBRANCH   3   4
ENDBRANCH   2   3
ENDBRANCH   1   2
BRANCH   1   9
ATOM      9  C   UNL     1     -35.601   7.735  -2.540  1.00  0.00     0.000 C 
BRANCH   9  10
ATOM     10  C   UNL     1     -36.366   6.841  -1.548  1.00  0.00    -0.000 C 
BRANCH  10  11
ATOM     11  C   UNL     1     -36.767   5.489  -2.160  1.00  0.00    -0.000 C 
BRANCH  11  12
ATOM     12  C   UNL     1     -36.263   5.316  -3.601  1.00  0.00    -0.000 C 
BRANCH  12  13
ATOM     13  C   UNL     1     -35.231   4.186  -3.688  1.00  0.00    -0.003 C 
ATOM     14  C   UNL     1     -33.995   4.627  -4.468  1.00  0.00     0.004 C 
ENDBRANCH  12  13
ENDBRANCH  11  12
ENDBRANCH  10  11
ENDBRANCH   9  10
ENDBRANCH   1   9
TORSDOF 10
ENDMDL
MODEL 7
REMARK VINA RESULT:    -3.158      1.817      2.792
REMARK INTER + INTRA:          -6.375
REMARK INTER:                  -5.072
REMARK INTRA:                  -1.304
REMARK UNBOUND:                -1.370
REMARK SMILES CCCCCCCCCCCC(=O)[O-]
REMARK SMILES IDX 7 1 8 2 9 3 10 4 11 5 12 6 13 7 14 8 6 9 5 10 4 11 3 12 2 13
REMARK SMILES IDX 1 14
REMARK H PARENT
REMARK Flexibility Score: inf
ROOT
ATOM      1  C   UNL     1     -36.773   5.422  -2.500  1.00  0.00     0.000 C 
ENDROOT
BRANCH   1   2
ATOM      2  C   UNL     1     -36.347   5.790  -3.929  1.00  0.00     0.000 C 
BRANCH   2   3
ATOM      3  C   UNL     1     -35.579   4.633  -4.585  1.00  0.00     0.000 C 
BRANCH   3   4
ATOM      4  C   UNL     1     -35.959   3.263  -4.002  1.00  0.00     0.006 C 
BRANCH   4   5
ATOM      5  C   UNL     1     -34.915   2.181  -4.308  1.00  0.00     0.053 C 
BRANCH   5   6
ATOM      6  C   UNL     1     -35.447   1.215  -5.320  1.00  0.00     0.041 C 
ATOM      7  O   UNL     1     -36.389   1.553  -6.085  1.00  0.00    -0.550 OA
ATOM      8  O   UNL     1     -34.871  -0.042  -5.451  1.00  0.00    -0.550 OA
ENDBRANCH   5   6
ENDBRANCH   4   5
ENDBRANCH   3   4
ENDBRANCH   2   3
ENDBRANCH   1   2
BRANCH   1   9
ATOM      9  C   UNL     1     -36.363   6.482  -1.464  1.00  0.00     0.000 C 
BRANCH   9  10
ATOM     10  C   UNL     1     -35.084   7.237  -1.866  1.00  0.00    -0.000 C 
BRANCH  10  11
ATOM     11  C   UNL     1     -33.859   6.799  -1.049  1.00  0.00    -0.000 C 
BRANCH  11  12
ATOM     12  C   UNL     1     -33.344   5.407  -1.448  1.00  0.00    -0.000 C 
BRANCH  12  13
ATOM     13  C   UNL     1     -33.486   4.417  -0.287  1.00  0.00    -0.003 C 
ATOM     14  C   UNL     1     -34.095   3.098  -0.757  1.00  0.00     0.004 C 
ENDBRANCH  12  13
ENDBRANCH  11  12
ENDBRANCH  10  11
ENDBRANCH   9  10
ENDBRANCH   1   9
TORSDOF 10
ENDMDL
MODEL 8
REMARK VINA RESULT:    -3.144      1.085      2.215
REMARK INTER + INTRA:          -6.353
REMARK INTER:                  -4.876
REMARK INTRA:                  -1.476
REMARK UNBOUND:                -1.370
REMARK SMILES CCCCCCCCCCCC(=O)[O-]
REMARK SMILES IDX 7 1 8 2 9 3 10 4 11 5 12 6 13 7 14 8 6 9 5 10 4 11 3 12 2 13
REMARK SMILES IDX 1 14
REMARK H PARENT
REMARK Flexibility Score: inf
ROOT
ATOM      1  C   UNL     1     -36.367   5.869  -1.709  1.00  0.00     0.000 C 
ENDROOT
BRANCH   1   2
ATOM      2  C   UNL     1     -35.205   5.023  -1.168  1.00  0.00     0.000 C 
BRANCH   2   3
ATOM      3  C   UNL     1     -34.858   3.885  -2.140  1.00  0.00     0.000 C 
BRANCH   3   4
ATOM      4  C   UNL     1     -35.405   4.127  -3.555  1.00  0.00     0.006 C 
BRANCH   4   5
ATOM      5  C   UNL     1     -36.304   2.983  -4.045  1.00  0.00     0.053 C 
BRANCH   5   6
ATOM      6  C   UNL     1     -35.471   1.836  -4.526  1.00  0.00     0.041 C 
ATOM      7  O   UNL     1     -35.597   0.698  -4.002  1.00  0.00    -0.550 OA
ATOM      8  O   UNL     1     -34.591   2.014  -5.586  1.00  0.00    -0.550 OA
ENDBRANCH   5   6
ENDBRANCH   4   5
ENDBRANCH   3   4
ENDBRANCH   2   3
ENDBRANCH   1   2
BRANCH   1   9
ATOM      9  C   UNL     1     -36.122   7.380  -1.564  1.00  0.00     0.000 C 
BRANCH   9  10
ATOM     10  C   UNL     1     -35.646   8.030  -2.875  1.00  0.00    -0.000 C 
BRANCH  10  11
ATOM     11  C   UNL     1     -34.134   8.304  -2.883  1.00  0.00    -0.000 C 
BRANCH  11  12
ATOM     12  C   UNL     1     -33.345   7.260  -3.690  1.00  0.00    -0.000 C 
BRANCH  12  13
ATOM     13  C   UNL     1     -32.234   6.636  -2.839  1.00  0.00    -0.003 C 
ATOM     14  C   UNL     1     -32.275   7.161  -1.406  1.00  0.00     0.004 C 
ENDBRANCH  12  13
ENDBRANCH  11  12
ENDBRANCH  10  11
ENDBRANCH   9  10
ENDBRANCH   1   9
TORSDOF 10
ENDMDL
