MODEL 1
REMARK VINA RESULT:    -4.072      0.000      0.000
REMARK INTER + INTRA:          -8.898
REMARK INTER:                  -7.880
REMARK INTRA:                  -1.018
REMARK UNBOUND:                -1.018
REMARK SMILES CCCCCCCCCCCCCCCCCC(=O)[O-]
REMARK SMILES IDX 10 1 11 2 12 3 13 4 14 5 15 6 16 7 17 8 18 9 19 10 20 11
REMARK SMILES IDX 9 12 8 13 7 14 6 15 5 16 4 17 3 18 2 19 1 20
REMARK H PARENT
REMARK Flexibility Score: inf
ROOT
ATOM      1  C   UNL     1       8.841   8.287   8.369  1.00  0.00     0.000 C 
ENDROOT
BRANCH   1   2
ATOM      2  C   UNL     1       8.958   6.762   8.223  1.00  0.00     0.000 C 
BRANCH   2   3
ATOM      3  C   UNL     1       9.663   6.113   9.423  1.00  0.00     0.000 C 
BRANCH   3   4
ATOM      4  C   UNL     1       9.170   4.681   9.693  1.00  0.00     0.000 C 
BRANCH   4   5
ATOM      5  C   UNL     1       7.630   4.595   9.725  1.00  0.00     0.000 C 
BRANCH   5   6
ATOM      6  C   UNL     1       7.070   3.315   9.078  1.00  0.00     0.000 C 
BRANCH   6   7
ATOM      7  C   UNL     1       5.537   3.192   9.117  1.00  0.00     0.006 C 
BRANCH   7   8
ATOM      8  C   UNL     1       5.048   1.764   8.840  1.00  0.00     0.053 C 
BRANCH   8   9
ATOM      9  C   UNL     1       4.623   1.626   7.411  1.00  0.00     0.041 C 
ATOM     10  O   UNL     1       3.726   2.373   6.940  1.00  0.00    -0.550 OA
ATOM     11  O   UNL     1       5.236   0.686   6.593  1.00  0.00    -0.550 OA
ENDBRANCH   8   9
ENDBRANCH   7   8
ENDBRANCH   6   7
ENDBRANCH   5   6
ENDBRANCH   4   5
ENDBRANCH   3   4
ENDBRANCH   2   3
ENDBRANCH   1   2
BRANCH   1  12
ATOM     12  C   UNL     1       7.851   8.655   9.481  1.00  0.00     0.000 C 
BRANCH  12  13
ATOM     13  C   UNL     1       7.878  10.162   9.772  1.00  0.00    -0.000 C 
BRANCH  13  14
ATOM     14  C   UNL     1       6.527  10.844   9.501  1.00  0.00    -0.000 C 
BRANCH  14  15
ATOM     15  C   UNL     1       6.378  11.313   8.044  1.00  0.00    -0.000 C 
BRANCH  15  16
ATOM     16  C   UNL     1       5.541  12.597   7.924  1.00  0.00    -0.000 C 
BRANCH  16  17
ATOM     17  C   UNL     1       4.185  12.361   7.238  1.00  0.00    -0.000 C 
BRANCH  17  18
ATOM     18  C   UNL     1       2.995  12.829   8.096  1.00  0.00    -0.000 C 
BRANCH  18  19
ATOM     19  C   UNL     1       2.143  11.691   8.688  1.00  0.00    -0.003 C 
ATOM     20  C   UNL     1       2.822  10.992   9.866  1.00  0.00     0.004 C 
ENDBRANCH  18  19
ENDBRANCH  17  18
ENDBRANCH  16  17
ENDBRANCH  15  16
ENDBRANCH  14  15
ENDBRANCH  13  14
ENDBRANCH  12  13
ENDBRANCH   1  12
TORSDOF 16
ENDMDL
MODEL 2
REMARK VINA RESULT:    -3.651      3.277      8.105
REMARK INTER + INTRA:          -8.084
REMARK INTER:                  -7.103
REMARK INTRA:                  -0.981
REMARK UNBOUND:                -1.018
REMARK SMILES CCCCCCCCCCCCCCCCCC(=O)[O-]
REMARK SMILES IDX 10 1 11 2 12 3 13 4 14 5 15 6 16 7 17 8 18 9 19 10 20 11
REMARK SMILES IDX 9 12 8 13 7 14 6 15 5 16 4 17 3 18 2 19 1 20
REMARK H PARENT
REMARK Flexibility Score: inf
ROOT
ATOM      1  C   UNL     1       9.202   7.353   7.864  1.00  0.00     0.000 C 
ENDROOT
BRANCH   1   2
ATOM      2  C   UNL     1       8.878   8.799   8.267  1.00  0.00     0.000 C 
BRANCH   2   3
ATOM      3  C   UNL     1       8.018   8.872   9.538  1.00  0.00     0.000 C 
BRANCH   3   4
ATOM      4  C   UNL     1       7.758  10.319   9.991  1.00  0.00     0.000 C 
BRANCH   4   5
ATOM      5  C   UNL     1       6.261  10.688   9.919  1.00  0.00     0.000 C 
BRANCH   5   6
ATOM      6  C   UNL     1       6.006  12.154   9.522  1.00  0.00     0.000 C 
BRANCH   6   7
ATOM      7  C   UNL     1       6.053  12.427   8.009  1.00  0.00     0.006 C 
BRANCH   7   8
ATOM      8  C   UNL     1       4.711  12.923   7.453  1.00  0.00     0.053 C 
BRANCH   8   9
ATOM      9  C   UNL     1       3.840  11.764   7.079  1.00  0.00     0.041 C 
ATOM     10  O   UNL     1       3.973  11.204   5.959  1.00  0.00    -0.550 OA
ATOM     11  O   UNL     1       2.896  11.288   7.978  1.00  0.00    -0.550 OA
ENDBRANCH   8   9
ENDBRANCH   7   8
ENDBRANCH   6   7
ENDBRANCH   5   6
ENDBRANCH   4   5
ENDBRANCH   3   4
ENDBRANCH   2   3
ENDBRANCH   1   2
BRANCH   1  12
ATOM     12  C   UNL     1      10.714   7.101   7.903  1.00  0.00     0.000 C 
BRANCH  12  13
ATOM     13  C   UNL     1      11.058   5.934   8.839  1.00  0.00    -0.000 C 
BRANCH  13  14
ATOM     14  C   UNL     1      10.001   5.720   9.935  1.00  0.00    -0.000 C 
BRANCH  14  15
ATOM     15  C   UNL     1       9.317   4.346   9.841  1.00  0.00    -0.000 C 
BRANCH  15  16
ATOM     16  C   UNL     1       7.788   4.459   9.722  1.00  0.00    -0.000 C 
BRANCH  16  17
ATOM     17  C   UNL     1       7.091   3.087   9.690  1.00  0.00    -0.000 C 
BRANCH  17  18
ATOM     18  C   UNL     1       5.953   3.023   8.656  1.00  0.00    -0.000 C 
BRANCH  18  19
ATOM     19  C   UNL     1       5.387   1.611   8.413  1.00  0.00    -0.003 C 
ATOM     20  C   UNL     1       4.285   1.587   7.353  1.00  0.00     0.004 C 
ENDBRANCH  18  19
ENDBRANCH  17  18
ENDBRANCH  16  17
ENDBRANCH  15  16
ENDBRANCH  14  15
ENDBRANCH  13  14
ENDBRANCH  12  13
ENDBRANCH   1  12
TORSDOF 16
ENDMDL
MODEL 3
REMARK VINA RESULT:    -3.539      4.890      7.606
REMARK INTER + INTRA:          -7.867
REMARK INTER:                  -6.961
REMARK INTRA:                  -0.906
REMARK UNBOUND:                -1.018
REMARK SMILES CCCCCCCCCCCCCCCCCC(=O)[O-]
REMARK SMILES IDX 10 1 11 2 12 3 13 4 14 5 15 6 16 7 17 8 18 9 19 10 20 11
REMARK SMILES IDX 9 12 8 13 7 14 6 15 5 16 4 17 3 18 2 19 1 20
REMARK H PARENT
REMARK Flexibility Score: inf
ROOT
ATOM      1  C   UNL     1       5.998   2.139   8.557  1.00  0.00     0.000 C 
ENDROOT
BRANCH   1   2
ATOM      2  C   UNL     1       4.514   2.266   8.180  1.00  0.00     0.000 C 
BRANCH   2   3
ATOM      3  C   UNL     1       3.608   1.408   9.075  1.00  0.00     0.000 C 
BRANCH   3   4
ATOM      4  C   UNL     1       2.607   2.252   9.882  1.00  0.00     0.000 C 
BRANCH   4   5
ATOM      5  C   UNL     1       2.296   3.598   9.193  1.00  0.00     0.000 C 
BRANCH   5   6
ATOM      6  C   UNL     1       1.036   4.294   9.739  1.00  0.00     0.000 C 
BRANCH   6   7
ATOM      7  C   UNL     1      -0.212   3.399   9.810  1.00  0.00     0.006 C 
BRANCH   7   8
ATOM      8  C   UNL     1      -1.492   4.187  10.121  1.00  0.00     0.053 C 
BRANCH   8   9
ATOM      9  C   UNL     1      -1.607   5.374   9.216  1.00  0.00     0.041 C 
ATOM     10  O   UNL     1      -1.376   6.531   9.653  1.00  0.00    -0.550 OA
ATOM     11  O   UNL     1      -1.950   5.197   7.882  1.00  0.00    -0.550 OA
ENDBRANCH   8   9
ENDBRANCH   7   8
ENDBRANCH   6   7
ENDBRANCH   5   6
ENDBRANCH   4   5
ENDBRANCH   3   4
ENDBRANCH   2   3
ENDBRANCH   1   2
BRANCH   1  12
ATOM     12  C   UNL     1       6.233   2.587  10.004  1.00  0.00     0.000 C 
BRANCH  12  13
ATOM     13  C   UNL     1       6.656   4.061  10.066  1.00  0.00    -0.000 C 
BRANCH  13  14
ATOM     14  C   UNL     1       7.872   4.369   9.176  1.00  0.00    -0.000 C 
BRANCH  14  15
ATOM     15  C   UNL     1       8.706   5.552   9.695  1.00  0.00    -0.000 C 
BRANCH  15  16
ATOM     16  C   UNL     1       8.898   6.646   8.632  1.00  0.00    -0.000 C 
BRANCH  16  17
ATOM     17  C   UNL     1      10.259   7.354   8.746  1.00  0.00    -0.000 C 
BRANCH  17  18
ATOM     18  C   UNL     1      11.355   6.673   7.907  1.00  0.00    -0.000 C 
BRANCH  18  19
ATOM     19  C   UNL     1      12.775   6.784   8.494  1.00  0.00    -0.003 C 
ATOM     20  C   UNL     1      12.874   7.816   9.619  1.00  0.00     0.004 C 
ENDBRANCH  18  19
ENDBRANCH  17  18
ENDBRANCH  16  17
ENDBRANCH  15  16
ENDBRANCH  14  15
ENDBRANCH  13  14
ENDBRANCH  12  13
ENDBRANCH   1  12
TORSDOF 16
ENDMDL
MODEL 4
REMARK VINA RESULT:    -3.323      3.435      6.639
REMARK INTER + INTRA:          -7.449
REMARK INTER:                  -6.472
REMARK INTRA:                  -0.977
REMARK UNBOUND:                -1.018
REMARK SMILES CCCCCCCCCCCCCCCCCC(=O)[O-]
REMARK SMILES IDX 10 1 11 2 12 3 13 4 14 5 15 6 16 7 17 8 18 9 19 10 20 11
REMARK SMILES IDX 9 12 8 13 7 14 6 15 5 16 4 17 3 18 2 19 1 20
REMARK H PARENT
REMARK Flexibility Score: inf
ROOT
ATOM      1  C   UNL     1       5.426   2.883   8.119  1.00  0.00     0.000 C 
ENDROOT
BRANCH   1   2
ATOM      2  C   UNL     1       4.873   1.452   8.035  1.00  0.00     0.000 C 
BRANCH   2   3
ATOM      3  C   UNL     1       4.543   0.872   9.418  1.00  0.00     0.000 C 
BRANCH   3   4
ATOM      4  C   UNL     1       3.412   1.638  10.125  1.00  0.00     0.000 C 
BRANCH   4   5
ATOM      5  C   UNL     1       2.064   1.489   9.390  1.00  0.00     0.000 C 
BRANCH   5   6
ATOM      6  C   UNL     1       0.936   2.349   9.988  1.00  0.00     0.000 C 
BRANCH   6   7
ATOM      7  C   UNL     1       0.783   3.741   9.352  1.00  0.00     0.006 C 
BRANCH   7   8
ATOM      8  C   UNL     1      -0.376   4.546   9.955  1.00  0.00     0.053 C 
BRANCH   8   9
ATOM      9  C   UNL     1      -1.541   4.569   9.014  1.00  0.00     0.041 C 
ATOM     10  O   UNL     1      -1.850   5.630   8.411  1.00  0.00    -0.550 OA
ATOM     11  O   UNL     1      -2.271   3.410   8.788  1.00  0.00    -0.550 OA
ENDBRANCH   8   9
ENDBRANCH   7   8
ENDBRANCH   6   7
ENDBRANCH   5   6
ENDBRANCH   4   5
ENDBRANCH   3   4
ENDBRANCH   2   3
ENDBRANCH   1   2
BRANCH   1  12
ATOM     12  C   UNL     1       6.903   2.875   8.530  1.00  0.00     0.000 C 
BRANCH  12  13
ATOM     13  C   UNL     1       7.164   3.855   9.682  1.00  0.00    -0.000 C 
BRANCH  13  14
ATOM     14  C   UNL     1       8.641   3.890  10.109  1.00  0.00    -0.000 C 
BRANCH  14  15
ATOM     15  C   UNL     1       9.337   5.209   9.733  1.00  0.00    -0.000 C 
BRANCH  15  16
ATOM     16  C   UNL     1       8.345   6.279   9.247  1.00  0.00    -0.000 C 
BRANCH  16  17
ATOM     17  C   UNL     1       8.965   7.240   8.218  1.00  0.00    -0.000 C 
BRANCH  17  18
ATOM     18  C   UNL     1       9.208   8.648   8.792  1.00  0.00    -0.000 C 
BRANCH  18  19
ATOM     19  C   UNL     1       7.957   9.324   9.384  1.00  0.00    -0.003 C 
ATOM     20  C   UNL     1       7.292  10.300   8.412  1.00  0.00     0.004 C 
ENDBRANCH  18  19
ENDBRANCH  17  18
ENDBRANCH  16  17
ENDBRANCH  15  16
ENDBRANCH  14  15
ENDBRANCH  13  14
ENDBRANCH  12  13
ENDBRANCH   1  12
TORSDOF 16
ENDMDL
MODEL 5
REMARK VINA RESULT:    -3.270      4.252      7.853
REMARK INTER + INTRA:          -7.347
REMARK INTER:                  -6.423
REMARK INTRA:                  -0.924
REMARK UNBOUND:                -1.018
REMARK SMILES CCCCCCCCCCCCCCCCCC(=O)[O-]
REMARK SMILES IDX 10 1 11 2 12 3 13 4 14 5 15 6 16 7 17 8 18 9 19 10 20 11
REMARK SMILES IDX 9 12 8 13 7 14 6 15 5 16 4 17 3 18 2 19 1 20
REMARK H PARENT
REMARK Flexibility Score: inf
ROOT
ATOM      1  C   UNL     1       4.231   2.256   7.861  1.00  0.00     0.000 C 
ENDROOT
BRANCH   1   2
ATOM      2  C   UNL     1       3.922   1.254   8.983  1.00  0.00     0.000 C 
BRANCH   2   3
ATOM      3  C   UNL     1       3.113   1.888  10.125  1.00  0.00     0.000 C 
BRANCH   3   4
ATOM      4  C   UNL     1       1.598   1.670   9.965  1.00  0.00     0.000 C 
BRANCH   4   5
ATOM      5  C   UNL     1       0.852   2.987   9.665  1.00  0.00     0.000 C 
BRANCH   5   6
ATOM      6  C   UNL     1      -0.674   2.819   9.551  1.00  0.00     0.000 C 
BRANCH   6   7
ATOM      7  C   UNL     1      -1.487   4.074   9.912  1.00  0.00     0.006 C 
BRANCH   7   8
ATOM      8  C   UNL     1      -0.712   5.375   9.665  1.00  0.00     0.053 C 
BRANCH   8   9
ATOM      9  C   UNL     1      -1.651   6.541   9.615  1.00  0.00     0.041 C 
ATOM     10  O   UNL     1      -1.241   7.671   9.241  1.00  0.00    -0.550 OA
ATOM     11  O   UNL     1      -2.984   6.372   9.962  1.00  0.00    -0.550 OA
ENDBRANCH   8   9
ENDBRANCH   7   8
ENDBRANCH   6   7
ENDBRANCH   5   6
ENDBRANCH   4   5
ENDBRANCH   3   4
ENDBRANCH   2   3
ENDBRANCH   1   2
BRANCH   1  12
ATOM     12  C   UNL     1       5.630   2.858   8.037  1.00  0.00     0.000 C 
BRANCH  12  13
ATOM     13  C   UNL     1       6.542   1.917   8.837  1.00  0.00    -0.000 C 
BRANCH  13  14
ATOM     14  C   UNL     1       7.100   2.573  10.111  1.00  0.00    -0.000 C 
BRANCH  14  15
ATOM     15  C   UNL     1       7.132   4.109  10.025  1.00  0.00    -0.000 C 
BRANCH  15  16
ATOM     16  C   UNL     1       8.547   4.653   9.771  1.00  0.00    -0.000 C 
BRANCH  16  17
ATOM     17  C   UNL     1       8.580   6.186   9.644  1.00  0.00    -0.000 C 
BRANCH  17  18
ATOM     18  C   UNL     1       9.254   6.660   8.343  1.00  0.00    -0.000 C 
BRANCH  18  19
ATOM     19  C   UNL     1       8.853   8.077   7.893  1.00  0.00    -0.003 C 
ATOM     20  C   UNL     1       8.381   8.958   9.050  1.00  0.00     0.004 C 
ENDBRANCH  18  19
ENDBRANCH  17  18
ENDBRANCH  16  17
ENDBRANCH  15  16
ENDBRANCH  14  15
ENDBRANCH  13  14
ENDBRANCH  12  13
ENDBRANCH   1  12
TORSDOF 16
ENDMDL
MODEL 6
REMARK VINA RESULT:    -3.070      5.132      7.795
REMARK INTER + INTRA:          -6.960
REMARK INTER:                  -6.096
REMARK INTRA:                  -0.864
REMARK UNBOUND:                -1.018
REMARK SMILES CCCCCCCCCCCCCCCCCC(=O)[O-]
REMARK SMILES IDX 10 1 11 2 12 3 13 4 14 5 15 6 16 7 17 8 18 9 19 10 20 11
REMARK SMILES IDX 9 12 8 13 7 14 6 15 5 16 4 17 3 18 2 19 1 20
REMARK H PARENT
REMARK Flexibility Score: inf
ROOT
ATOM      1  C   UNL     1       4.623   2.785   8.094  1.00  0.00     0.000 C 
ENDROOT
BRANCH   1   2
ATOM      2  C   UNL     1       6.064   2.285   8.282  1.00  0.00     0.000 C 
BRANCH   2   3
ATOM      3  C   UNL     1       6.473   2.226   9.761  1.00  0.00     0.000 C 
BRANCH   3   4
ATOM      4  C   UNL     1       7.747   3.037  10.053  1.00  0.00     0.000 C 
BRANCH   4   5
ATOM      5  C   UNL     1       7.485   4.558  10.025  1.00  0.00     0.000 C 
BRANCH   5   6
ATOM      6  C   UNL     1       8.175   5.282   8.854  1.00  0.00     0.000 C 
BRANCH   6   7
ATOM      7  C   UNL     1       9.175   6.372   9.273  1.00  0.00     0.006 C 
BRANCH   7   8
ATOM      8  C   UNL     1      10.507   5.796   9.772  1.00  0.00     0.053 C 
BRANCH   8   9
ATOM      9  C   UNL     1      11.655   6.440   9.059  1.00  0.00     0.041 C 
ATOM     10  O   UNL     1      11.715   7.693   8.953  1.00  0.00    -0.550 OA
ATOM     11  O   UNL     1      12.670   5.655   8.529  1.00  0.00    -0.550 OA
ENDBRANCH   8   9
ENDBRANCH   7   8
ENDBRANCH   6   7
ENDBRANCH   5   6
ENDBRANCH   4   5
ENDBRANCH   3   4
ENDBRANCH   2   3
ENDBRANCH   1   2
BRANCH   1  12
ATOM     12  C   UNL     1       3.796   2.555   9.364  1.00  0.00     0.000 C 
BRANCH  12  13
ATOM     13  C   UNL     1       2.640   1.579   9.105  1.00  0.00    -0.000 C 
BRANCH  13  14
ATOM     14  C   UNL     1       1.496   1.729  10.121  1.00  0.00    -0.000 C 
BRANCH  14  15
ATOM     15  C   UNL     1       0.730   3.054   9.964  1.00  0.00    -0.000 C 
BRANCH  15  16
ATOM     16  C   UNL     1      -0.795   2.858   9.999  1.00  0.00    -0.000 C 
BRANCH  16  17
ATOM     17  C   UNL     1      -1.553   3.963   9.244  1.00  0.00    -0.000 C 
BRANCH  17  18
ATOM     18  C   UNL     1      -1.801   5.212  10.109  1.00  0.00    -0.000 C 
BRANCH  18  19
ATOM     19  C   UNL     1      -1.644   6.550   9.364  1.00  0.00    -0.003 C 
ATOM     20  C   UNL     1      -2.271   7.725  10.115  1.00  0.00     0.004 C 
ENDBRANCH  18  19
ENDBRANCH  17  18
ENDBRANCH  16  17
ENDBRANCH  15  16
ENDBRANCH  14  15
ENDBRANCH  13  14
ENDBRANCH  12  13
ENDBRANCH   1  12
TORSDOF 16
ENDMDL
MODEL 7
REMARK VINA RESULT:    -2.999      4.082      6.773
REMARK INTER + INTRA:          -6.823
REMARK INTER:                  -6.338
REMARK INTRA:                  -0.485
REMARK UNBOUND:                -1.018
REMARK SMILES CCCCCCCCCCCCCCCCCC(=O)[O-]
REMARK SMILES IDX 10 1 11 2 12 3 13 4 14 5 15 6 16 7 17 8 18 9 19 10 20 11
REMARK SMILES IDX 9 12 8 13 7 14 6 15 5 16 4 17 3 18 2 19 1 20
REMARK H PARENT
REMARK Flexibility Score: inf
ROOT
ATOM      1  C   UNL     1      -2.241   5.687   8.474  1.00  0.00     0.000 C 
ENDROOT
BRANCH   1   2
ATOM      2  C   UNL     1      -1.375   4.419   8.519  1.00  0.00     0.000 C 
BRANCH   2   3
ATOM      3  C   UNL     1      -1.242   3.853   9.941  1.00  0.00     0.000 C 
BRANCH   3   4
ATOM      4  C   UNL     1       0.025   3.000  10.120  1.00  0.00     0.000 C 
BRANCH   4   5
ATOM      5  C   UNL     1       1.195   3.511   9.252  1.00  0.00     0.000 C 
BRANCH   5   6
ATOM      6  C   UNL     1       2.419   2.577   9.254  1.00  0.00     0.000 C 
BRANCH   6   7
ATOM      7  C   UNL     1       3.768   3.284   9.043  1.00  0.00     0.006 C 
BRANCH   7   8
ATOM      8  C   UNL     1       4.915   2.305   8.762  1.00  0.00     0.053 C 
BRANCH   8   9
ATOM      9  C   UNL     1       4.694   1.601   7.459  1.00  0.00     0.041 C 
ATOM     10  O   UNL     1       5.509   0.727   7.062  1.00  0.00    -0.550 OA
ATOM     11  O   UNL     1       3.574   1.896   6.693  1.00  0.00    -0.550 OA
ENDBRANCH   8   9
ENDBRANCH   7   8
ENDBRANCH   6   7
ENDBRANCH   5   6
ENDBRANCH   4   5
ENDBRANCH   3   4
ENDBRANCH   2   3
ENDBRANCH   1   2
BRANCH   1  12
ATOM     12  C   UNL     1      -2.539   6.196   9.889  1.00  0.00     0.000 C 
BRANCH  12  13
ATOM     13  C   UNL     1      -2.055   7.641  10.071  1.00  0.00    -0.000 C 
BRANCH  13  14
ATOM     14  C   UNL     1      -0.611   7.851   9.585  1.00  0.00    -0.000 C 
BRANCH  14  15
ATOM     15  C   UNL     1       0.016   9.147  10.125  1.00  0.00    -0.000 C 
BRANCH  15  16
ATOM     16  C   UNL     1       1.539   9.192   9.919  1.00  0.00    -0.000 C 
BRANCH  16  17
ATOM     17  C   UNL     1       1.989  10.395   9.071  1.00  0.00    -0.000 C 
BRANCH  17  18
ATOM     18  C   UNL     1       2.323  11.632   9.925  1.00  0.00    -0.000 C 
BRANCH  18  19
ATOM     19  C   UNL     1       3.370  12.576   9.304  1.00  0.00    -0.003 C 
ATOM     20  C   UNL     1       3.994  12.013   8.027  1.00  0.00     0.004 C 
ENDBRANCH  18  19
ENDBRANCH  17  18
ENDBRANCH  16  17
ENDBRANCH  15  16
ENDBRANCH  14  15
ENDBRANCH  13  14
ENDBRANCH  12  13
ENDBRANCH   1  12
TORSDOF 16
ENDMDL
MODEL 8
REMARK VINA RESULT:    -2.899      4.643      8.092
REMARK INTER + INTRA:          -6.628
REMARK INTER:                  -5.486
REMARK INTRA:                  -1.143
REMARK UNBOUND:                -1.018
REMARK SMILES CCCCCCCCCCCCCCCCCC(=O)[O-]
REMARK SMILES IDX 10 1 11 2 12 3 13 4 14 5 15 6 16 7 17 8 18 9 19 10 20 11
REMARK SMILES IDX 9 12 8 13 7 14 6 15 5 16 4 17 3 18 2 19 1 20
REMARK H PARENT
REMARK Flexibility Score: inf
ROOT
ATOM      1  C   UNL     1       4.444   3.499   8.393  1.00  0.00     0.000 C 
ENDROOT
BRANCH   1   2
ATOM      2  C   UNL     1       5.927   3.137   8.563  1.00  0.00     0.000 C 
BRANCH   2   3
ATOM      3  C   UNL     1       6.468   3.527   9.947  1.00  0.00     0.000 C 
BRANCH   3   4
ATOM      4  C   UNL     1       7.979   3.813   9.930  1.00  0.00     0.000 C 
BRANCH   4   5
ATOM      5  C   UNL     1       8.282   5.323   9.823  1.00  0.00     0.000 C 
BRANCH   5   6
ATOM      6  C   UNL     1       9.730   5.633   9.403  1.00  0.00     0.000 C 
BRANCH   6   7
ATOM      7  C   UNL     1      10.248   7.009   9.854  1.00  0.00     0.006 C 
BRANCH   7   8
ATOM      8  C   UNL     1      10.773   7.858   8.687  1.00  0.00     0.053 C 
BRANCH   8   9
ATOM      9  C   UNL     1       9.668   8.162   7.724  1.00  0.00     0.041 C 
ATOM     10  O   UNL     1       8.674   8.841   8.092  1.00  0.00    -0.550 OA
ATOM     11  O   UNL     1       9.747   7.711   6.413  1.00  0.00    -0.550 OA
ENDBRANCH   8   9
ENDBRANCH   7   8
ENDBRANCH   6   7
ENDBRANCH   5   6
ENDBRANCH   4   5
ENDBRANCH   3   4
ENDBRANCH   2   3
ENDBRANCH   1   2
BRANCH   1  12
ATOM     12  C   UNL     1       3.787   3.766   9.752  1.00  0.00     0.000 C 
BRANCH  12  13
ATOM     13  C   UNL     1       3.280   5.212   9.848  1.00  0.00    -0.000 C 
BRANCH  13  14
ATOM     14  C   UNL     1       1.760   5.295  10.066  1.00  0.00    -0.000 C 
BRANCH  14  15
ATOM     15  C   UNL     1       0.990   4.196   9.314  1.00  0.00    -0.000 C 
BRANCH  15  16
ATOM     16  C   UNL     1      -0.198   3.652  10.124  1.00  0.00    -0.000 C 
BRANCH  16  17
ATOM     17  C   UNL     1      -0.316   2.120  10.049  1.00  0.00    -0.000 C 
BRANCH  17  18
ATOM     18  C   UNL     1       1.049   1.413  10.125  1.00  0.00    -0.000 C 
BRANCH  18  19
ATOM     19  C   UNL     1       1.017  -0.085   9.766  1.00  0.00    -0.003 C 
ATOM     20  C   UNL     1      -0.340  -0.732  10.040  1.00  0.00     0.004 C 
ENDBRANCH  18  19
ENDBRANCH  17  18
ENDBRANCH  16  17
ENDBRANCH  15  16
ENDBRANCH  14  15
ENDBRANCH  13  14
ENDBRANCH  12  13
ENDBRANCH   1  12
TORSDOF 16
ENDMDL
MODEL 9
REMARK VINA RESULT:    -2.792      3.356      6.000
REMARK INTER + INTRA:          -6.423
REMARK INTER:                  -5.812
REMARK INTRA:                  -0.611
REMARK UNBOUND:                -1.018
REMARK SMILES CCCCCCCCCCCCCCCCCC(=O)[O-]
REMARK SMILES IDX 10 1 11 2 12 3 13 4 14 5 15 6 16 7 17 8 18 9 19 10 20 11
REMARK SMILES IDX 9 12 8 13 7 14 6 15 5 16 4 17 3 18 2 19 1 20
REMARK H PARENT
REMARK Flexibility Score: inf
ROOT
ATOM      1  C   UNL     1      -1.062   7.331   9.976  1.00  0.00     0.000 C 
ENDROOT
BRANCH   1   2
ATOM      2  C   UNL     1      -1.272   5.909   9.434  1.00  0.00     0.000 C 
BRANCH   2   3
ATOM      3  C   UNL     1      -0.365   4.880  10.125  1.00  0.00     0.000 C 
BRANCH   3   4
ATOM      4  C   UNL     1      -0.401   3.506   9.435  1.00  0.00     0.000 C 
BRANCH   4   5
ATOM      5  C   UNL     1       0.531   2.487  10.125  1.00  0.00     0.000 C 
BRANCH   5   6
ATOM      6  C   UNL     1       2.026   2.738   9.854  1.00  0.00     0.000 C 
BRANCH   6   7
ATOM      7  C   UNL     1       2.807   1.504   9.371  1.00  0.00     0.006 C 
BRANCH   7   8
ATOM      8  C   UNL     1       3.597   1.769   8.082  1.00  0.00     0.053 C 
BRANCH   8   9
ATOM      9  C   UNL     1       5.004   1.277   8.222  1.00  0.00     0.041 C 
ATOM     10  O   UNL     1       5.410   0.816   9.322  1.00  0.00    -0.550 OA
ATOM     11  O   UNL     1       5.862   1.309   7.131  1.00  0.00    -0.550 OA
ENDBRANCH   8   9
ENDBRANCH   7   8
ENDBRANCH   6   7
ENDBRANCH   5   6
ENDBRANCH   4   5
ENDBRANCH   3   4
ENDBRANCH   2   3
ENDBRANCH   1   2
BRANCH   1  12
ATOM     12  C   UNL     1       0.418   7.727   9.913  1.00  0.00     0.000 C 
BRANCH  12  13
ATOM     13  C   UNL     1       0.590   9.248  10.022  1.00  0.00    -0.000 C 
BRANCH  13  14
ATOM     14  C   UNL     1       1.720   9.784   9.126  1.00  0.00    -0.000 C 
BRANCH  14  15
ATOM     15  C   UNL     1       1.823  11.318   9.153  1.00  0.00    -0.000 C 
BRANCH  15  16
ATOM     16  C   UNL     1       3.219  11.805   9.575  1.00  0.00    -0.000 C 
BRANCH  16  17
ATOM     17  C   UNL     1       3.633  13.107   8.869  1.00  0.00    -0.000 C 
BRANCH  17  18
ATOM     18  C   UNL     1       5.091  13.078   8.376  1.00  0.00    -0.000 C 
BRANCH  18  19
ATOM     19  C   UNL     1       5.964  11.982   9.016  1.00  0.00    -0.003 C 
ATOM     20  C   UNL     1       6.914  11.320   8.017  1.00  0.00     0.004 C 
ENDBRANCH  18  19
ENDBRANCH  17  18
ENDBRANCH  16  17
ENDBRANCH  15  16
ENDBRANCH  14  15
ENDBRANCH  13  14
ENDBRANCH  12  13
ENDBRANCH   1  12
TORSDOF 16
ENDMDL
