MODEL 1
REMARK VINA RESULT:    -4.536      0.000      0.000
REMARK INTER + INTRA:         -10.260
REMARK INTER:                  -8.513
REMARK INTRA:                  -1.747
REMARK UNBOUND:                -1.747
REMARK SMILES CCCCCCCCC=CCCCCCCCC(=O)[O-]
REMARK SMILES IDX 10 1 9 2 11 3 12 4 13 5 14 6 15 7 16 8 17 9 18 10 19 11
REMARK SMILES IDX 20 12 8 13 7 14 6 15 5 16 4 17 3 18 2 19 1 20
REMARK H PARENT
REMARK Flexibility Score: inf
ROOT
ATOM      1  C   UNL     1      46.670  42.161  34.689  1.00  0.00    -0.031 C 
ATOM      2  C   UNL     1      45.616  42.666  34.026  1.00  0.00    -0.031 C 
ENDROOT
BRANCH   1   3
ATOM      3  C   UNL     1      47.562  42.987  35.582  1.00  0.00     0.027 C 
BRANCH   3   4
ATOM      4  C   UNL     1      47.966  42.206  36.840  1.00  0.00     0.004 C 
BRANCH   4   5
ATOM      5  C   UNL     1      47.249  42.706  38.108  1.00  0.00     0.000 C 
BRANCH   5   6
ATOM      6  C   UNL     1      47.848  42.199  39.436  1.00  0.00     0.000 C 
BRANCH   6   7
ATOM      7  C   UNL     1      48.692  40.913  39.328  1.00  0.00     0.000 C 
BRANCH   7   8
ATOM      8  C   UNL     1      47.903  39.602  39.511  1.00  0.00     0.006 C 
BRANCH   8   9
ATOM      9  C   UNL     1      46.778  39.726  40.545  1.00  0.00     0.053 C 
BRANCH   9  10
ATOM     10  C   UNL     1      46.975  38.736  41.651  1.00  0.00     0.041 C 
ATOM     11  O   UNL     1      47.346  37.561  41.390  1.00  0.00    -0.550 OA
ATOM     12  O   UNL     1      46.794  39.124  42.972  1.00  0.00    -0.550 OA
ENDBRANCH   9  10
ENDBRANCH   8   9
ENDBRANCH   7   8
ENDBRANCH   6   7
ENDBRANCH   5   6
ENDBRANCH   4   5
ENDBRANCH   3   4
ENDBRANCH   1   3
BRANCH   2  13
ATOM     13  C   UNL     1      45.155  44.100  34.139  1.00  0.00     0.027 C 
BRANCH  13  14
ATOM     14  C   UNL     1      44.074  44.437  33.099  1.00  0.00     0.004 C 
BRANCH  14  15
ATOM     15  C   UNL     1      43.911  43.375  31.992  1.00  0.00     0.000 C 
BRANCH  15  16
ATOM     16  C   UNL     1      44.597  43.714  30.653  1.00  0.00     0.000 C 
BRANCH  16  17
ATOM     17  C   UNL     1      45.793  42.817  30.289  1.00  0.00    -0.000 C 
BRANCH  17  18
ATOM     18  C   UNL     1      47.106  43.601  30.150  1.00  0.00    -0.000 C 
BRANCH  18  19
ATOM     19  C   UNL     1      47.064  44.892  30.977  1.00  0.00    -0.003 C 
ATOM     20  C   UNL     1      48.159  44.902  32.040  1.00  0.00     0.004 C 
ENDBRANCH  18  19
ENDBRANCH  17  18
ENDBRANCH  16  17
ENDBRANCH  15  16
ENDBRANCH  14  15
ENDBRANCH  13  14
ENDBRANCH   2  13
TORSDOF 15
ENDMDL
MODEL 2
REMARK VINA RESULT:    -4.508      1.900      2.899
REMARK INTER + INTRA:         -10.208
REMARK INTER:                  -8.119
REMARK INTRA:                  -2.089
REMARK UNBOUND:                -1.747
REMARK SMILES CCCCCCCCC=CCCCCCCCC(=O)[O-]
REMARK SMILES IDX 10 1 9 2 11 3 12 4 13 5 14 6 15 7 16 8 17 9 18 10 19 11
REMARK SMILES IDX 20 12 8 13 7 14 6 15 5 16 4 17 3 18 2 19 1 20
REMARK H PARENT
REMARK Flexibility Score: inf
ROOT
ATOM      1  C   UNL     1      46.282  42.448  34.765  1.00  0.00    -0.031 C 
ATOM      2  C   UNL     1      46.955  42.984  33.733  1.00  0.00    -0.031 C 
ENDROOT
BRANCH   1   3
ATOM      3  C   UNL     1      45.607  43.272  35.833  1.00  0.00     0.027 C 
BRANCH   3   4
ATOM      4  C   UNL     1      46.048  42.830  37.236  1.00  0.00     0.004 C 
BRANCH   4   5
ATOM      5  C   UNL     1      47.570  42.933  37.443  1.00  0.00     0.000 C 
BRANCH   5   6
ATOM      6  C   UNL     1      48.189  41.804  38.294  1.00  0.00     0.000 C 
BRANCH   6   7
ATOM      7  C   UNL     1      49.007  40.761  37.505  1.00  0.00     0.000 C 
BRANCH   7   8
ATOM      8  C   UNL     1      48.170  39.663  36.822  1.00  0.00     0.006 C 
BRANCH   8   9
ATOM      9  C   UNL     1      48.618  38.248  37.209  1.00  0.00     0.053 C 
BRANCH   9  10
ATOM     10  C   UNL     1      47.783  37.728  38.338  1.00  0.00     0.041 C 
ATOM     11  O   UNL     1      48.080  36.639  38.896  1.00  0.00    -0.550 OA
ATOM     12  O   UNL     1      46.705  38.470  38.805  1.00  0.00    -0.550 OA
ENDBRANCH   9  10
ENDBRANCH   8   9
ENDBRANCH   7   8
ENDBRANCH   6   7
ENDBRANCH   5   6
ENDBRANCH   4   5
ENDBRANCH   3   4
ENDBRANCH   1   3
BRANCH   2  13
ATOM     13  C   UNL     1      47.066  44.470  33.477  1.00  0.00     0.027 C 
BRANCH  13  14
ATOM     14  C   UNL     1      47.743  44.768  32.131  1.00  0.00     0.004 C 
BRANCH  14  15
ATOM     15  C   UNL     1      47.510  43.689  31.053  1.00  0.00     0.000 C 
BRANCH  15  16
ATOM     16  C   UNL     1      46.510  44.074  29.945  1.00  0.00     0.000 C 
BRANCH  16  17
ATOM     17  C   UNL     1      45.027  43.992  30.349  1.00  0.00    -0.000 C 
BRANCH  17  18
ATOM     18  C   UNL     1      44.630  42.608  30.882  1.00  0.00    -0.000 C 
BRANCH  18  19
ATOM     19  C   UNL     1      43.339  42.688  31.707  1.00  0.00    -0.003 C 
ATOM     20  C   UNL     1      43.450  43.744  32.803  1.00  0.00     0.004 C 
ENDBRANCH  18  19
ENDBRANCH  17  18
ENDBRANCH  16  17
ENDBRANCH  15  16
ENDBRANCH  14  15
ENDBRANCH  13  14
ENDBRANCH   2  13
TORSDOF 15
ENDMDL
MODEL 3
REMARK VINA RESULT:    -4.484      3.717      7.536
REMARK INTER + INTRA:         -10.162
REMARK INTER:                  -7.925
REMARK INTRA:                  -2.238
REMARK UNBOUND:                -1.747
REMARK SMILES CCCCCCCCC=CCCCCCCCC(=O)[O-]
REMARK SMILES IDX 10 1 9 2 11 3 12 4 13 5 14 6 15 7 16 8 17 9 18 10 19 11
REMARK SMILES IDX 20 12 8 13 7 14 6 15 5 16 4 17 3 18 2 19 1 20
REMARK H PARENT
REMARK Flexibility Score: inf
ROOT
ATOM      1  C   UNL     1      47.769  45.043  31.533  1.00  0.00    -0.031 C 
ATOM      2  C   UNL     1      47.847  44.979  32.872  1.00  0.00    -0.031 C 
ENDROOT
BRANCH   1   3
ATOM      3  C   UNL     1      46.627  44.460  30.739  1.00  0.00     0.027 C 
BRANCH   3   4
ATOM      4  C   UNL     1      46.883  42.986  30.396  1.00  0.00     0.004 C 
BRANCH   4   5
ATOM      5  C   UNL     1      45.801  42.046  30.959  1.00  0.00     0.000 C 
BRANCH   5   6
ATOM      6  C   UNL     1      44.443  42.718  31.252  1.00  0.00     0.000 C 
BRANCH   6   7
ATOM      7  C   UNL     1      43.788  42.318  32.589  1.00  0.00     0.000 C 
BRANCH   7   8
ATOM      8  C   UNL     1      42.728  43.306  33.112  1.00  0.00     0.006 C 
BRANCH   8   9
ATOM      9  C   UNL     1      43.344  44.513  33.830  1.00  0.00     0.053 C 
BRANCH   9  10
ATOM     10  C   UNL     1      42.394  45.050  34.856  1.00  0.00     0.041 C 
ATOM     11  O   UNL     1      42.252  46.294  34.997  1.00  0.00    -0.550 OA
ATOM     12  O   UNL     1      41.632  44.178  35.622  1.00  0.00    -0.550 OA
ENDBRANCH   9  10
ENDBRANCH   8   9
ENDBRANCH   7   8
ENDBRANCH   6   7
ENDBRANCH   5   6
ENDBRANCH   4   5
ENDBRANCH   3   4
ENDBRANCH   1   3
BRANCH   2  13
ATOM     13  C   UNL     1      46.777  44.377  33.753  1.00  0.00     0.027 C 
BRANCH  13  14
ATOM     14  C   UNL     1      47.212  43.023  34.335  1.00  0.00     0.004 C 
BRANCH  14  15
ATOM     15  C   UNL     1      46.183  42.388  35.293  1.00  0.00     0.000 C 
BRANCH  15  16
ATOM     16  C   UNL     1      46.229  42.909  36.744  1.00  0.00     0.000 C 
BRANCH  16  17
ATOM     17  C   UNL     1      47.637  42.992  37.361  1.00  0.00    -0.000 C 
BRANCH  17  18
ATOM     18  C   UNL     1      48.012  41.738  38.162  1.00  0.00    -0.000 C 
BRANCH  18  19
ATOM     19  C   UNL     1      48.942  40.827  37.351  1.00  0.00    -0.003 C 
ATOM     20  C   UNL     1      48.368  39.417  37.235  1.00  0.00     0.004 C 
ENDBRANCH  18  19
ENDBRANCH  17  18
ENDBRANCH  16  17
ENDBRANCH  15  16
ENDBRANCH  14  15
ENDBRANCH  13  14
ENDBRANCH   2  13
TORSDOF 15
ENDMDL
MODEL 4
REMARK VINA RESULT:    -4.467      4.030      9.408
REMARK INTER + INTRA:         -10.132
REMARK INTER:                  -8.668
REMARK INTRA:                  -1.464
REMARK UNBOUND:                -1.747
REMARK SMILES CCCCCCCCC=CCCCCCCCC(=O)[O-]
REMARK SMILES IDX 10 1 9 2 11 3 12 4 13 5 14 6 15 7 16 8 17 9 18 10 19 11
REMARK SMILES IDX 20 12 8 13 7 14 6 15 5 16 4 17 3 18 2 19 1 20
REMARK H PARENT
REMARK Flexibility Score: inf
ROOT
ATOM      1  C   UNL     1      47.700  42.863  36.654  1.00  0.00    -0.031 C 
ATOM      2  C   UNL     1      48.332  41.730  37.002  1.00  0.00    -0.031 C 
ENDROOT
BRANCH   1   3
ATOM      3  C   UNL     1      46.225  42.929  36.345  1.00  0.00     0.027 C 
BRANCH   3   4
ATOM      4  C   UNL     1      45.979  43.083  34.838  1.00  0.00     0.004 C 
BRANCH   4   5
ATOM      5  C   UNL     1      47.265  43.401  34.053  1.00  0.00     0.000 C 
BRANCH   5   6
ATOM      6  C   UNL     1      47.230  44.721  33.254  1.00  0.00     0.000 C 
BRANCH   6   7
ATOM      7  C   UNL     1      48.071  44.729  31.962  1.00  0.00     0.000 C 
BRANCH   7   8
ATOM      8  C   UNL     1      47.359  44.159  30.721  1.00  0.00     0.006 C 
BRANCH   8   9
ATOM      9  C   UNL     1      45.871  44.530  30.668  1.00  0.00     0.053 C 
BRANCH   9  10
ATOM     10  C   UNL     1      45.024  43.297  30.733  1.00  0.00     0.041 C 
ATOM     11  O   UNL     1      43.822  43.335  30.359  1.00  0.00    -0.550 OA
ATOM     12  O   UNL     1      45.575  42.096  31.161  1.00  0.00    -0.550 OA
ENDBRANCH   9  10
ENDBRANCH   8   9
ENDBRANCH   7   8
ENDBRANCH   6   7
ENDBRANCH   5   6
ENDBRANCH   4   5
ENDBRANCH   3   4
ENDBRANCH   1   3
BRANCH   2  13
ATOM     13  C   UNL     1      47.641  40.400  37.189  1.00  0.00     0.027 C 
BRANCH  13  14
ATOM     14  C   UNL     1      47.841  39.847  38.609  1.00  0.00     0.004 C 
BRANCH  14  15
ATOM     15  C   UNL     1      48.674  40.761  39.531  1.00  0.00     0.000 C 
BRANCH  15  16
ATOM     16  C   UNL     1      47.897  41.392  40.704  1.00  0.00     0.000 C 
BRANCH  16  17
ATOM     17  C   UNL     1      48.286  40.871  42.099  1.00  0.00    -0.000 C 
BRANCH  17  18
ATOM     18  C   UNL     1      47.199  39.990  42.731  1.00  0.00    -0.000 C 
BRANCH  18  19
ATOM     19  C   UNL     1      47.233  38.573  42.146  1.00  0.00    -0.003 C 
ATOM     20  C   UNL     1      45.880  38.187  41.556  1.00  0.00     0.004 C 
ENDBRANCH  18  19
ENDBRANCH  17  18
ENDBRANCH  16  17
ENDBRANCH  15  16
ENDBRANCH  14  15
ENDBRANCH  13  14
ENDBRANCH   2  13
TORSDOF 15
ENDMDL
MODEL 5
REMARK VINA RESULT:    -4.456      4.368      9.305
REMARK INTER + INTRA:         -10.111
REMARK INTER:                  -8.720
REMARK INTRA:                  -1.392
REMARK UNBOUND:                -1.747
REMARK SMILES CCCCCCCCC=CCCCCCCCC(=O)[O-]
REMARK SMILES IDX 10 1 9 2 11 3 12 4 13 5 14 6 15 7 16 8 17 9 18 10 19 11
REMARK SMILES IDX 20 12 8 13 7 14 6 15 5 16 4 17 3 18 2 19 1 20
REMARK H PARENT
REMARK Flexibility Score: inf
ROOT
ATOM      1  C   UNL     1      47.593  42.141  38.953  1.00  0.00    -0.031 C 
ATOM      2  C   UNL     1      47.706  42.216  40.290  1.00  0.00    -0.031 C 
ENDROOT
BRANCH   1   3
ATOM      3  C   UNL     1      48.455  41.247  38.097  1.00  0.00     0.027 C 
BRANCH   3   4
ATOM      4  C   UNL     1      48.324  41.607  36.610  1.00  0.00     0.004 C 
BRANCH   4   5
ATOM      5  C   UNL     1      47.487  42.879  36.376  1.00  0.00     0.000 C 
BRANCH   5   6
ATOM      6  C   UNL     1      46.404  42.753  35.284  1.00  0.00     0.000 C 
BRANCH   6   7
ATOM      7  C   UNL     1      46.874  43.083  33.853  1.00  0.00     0.000 C 
BRANCH   7   8
ATOM      8  C   UNL     1      47.198  44.568  33.603  1.00  0.00     0.006 C 
BRANCH   8   9
ATOM      9  C   UNL     1      47.854  44.811  32.239  1.00  0.00     0.053 C 
BRANCH   9  10
ATOM     10  C   UNL     1      46.966  44.322  31.138  1.00  0.00     0.041 C 
ATOM     11  O   UNL     1      47.395  43.482  30.303  1.00  0.00    -0.550 OA
ATOM     12  O   UNL     1      45.649  44.759  31.061  1.00  0.00    -0.550 OA
ENDBRANCH   9  10
ENDBRANCH   8   9
ENDBRANCH   7   8
ENDBRANCH   6   7
ENDBRANCH   5   6
ENDBRANCH   4   5
ENDBRANCH   3   4
ENDBRANCH   1   3
BRANCH   2  13
ATOM     13  C   UNL     1      48.660  41.374  41.106  1.00  0.00     0.027 C 
BRANCH  13  14
ATOM     14  C   UNL     1      47.940  40.640  42.248  1.00  0.00     0.004 C 
BRANCH  14  15
ATOM     15  C   UNL     1      46.760  39.759  41.788  1.00  0.00     0.000 C 
BRANCH  15  16
ATOM     16  C   UNL     1      46.923  38.250  42.064  1.00  0.00     0.000 C 
BRANCH  16  17
ATOM     17  C   UNL     1      47.495  37.432  40.893  1.00  0.00    -0.000 C 
BRANCH  17  18
ATOM     18  C   UNL     1      47.428  38.179  39.554  1.00  0.00    -0.000 C 
BRANCH  18  19
ATOM     19  C   UNL     1      47.678  37.224  38.380  1.00  0.00    -0.003 C 
ATOM     20  C   UNL     1      48.363  35.943  38.848  1.00  0.00     0.004 C 
ENDBRANCH  18  19
ENDBRANCH  17  18
ENDBRANCH  16  17
ENDBRANCH  15  16
ENDBRANCH  14  15
ENDBRANCH  13  14
ENDBRANCH   2  13
TORSDOF 15
ENDMDL
MODEL 6
REMARK VINA RESULT:    -4.447      1.942      2.378
REMARK INTER + INTRA:         -10.093
REMARK INTER:                  -7.915
REMARK INTRA:                  -2.179
REMARK UNBOUND:                -1.747
REMARK SMILES CCCCCCCCC=CCCCCCCCC(=O)[O-]
REMARK SMILES IDX 10 1 9 2 11 3 12 4 13 5 14 6 15 7 16 8 17 9 18 10 19 11
REMARK SMILES IDX 20 12 8 13 7 14 6 15 5 16 4 17 3 18 2 19 1 20
REMARK H PARENT
REMARK Flexibility Score: inf
ROOT
ATOM      1  C   UNL     1      46.538  42.203  34.788  1.00  0.00    -0.031 C 
ATOM      2  C   UNL     1      45.453  42.674  34.151  1.00  0.00    -0.031 C 
ENDROOT
BRANCH   1   3
ATOM      3  C   UNL     1      47.544  43.089  35.479  1.00  0.00     0.027 C 
BRANCH   3   4
ATOM      4  C   UNL     1      47.935  42.522  36.851  1.00  0.00     0.004 C 
BRANCH   4   5
ATOM      5  C   UNL     1      47.026  41.362  37.297  1.00  0.00     0.000 C 
BRANCH   5   6
ATOM      6  C   UNL     1      47.768  40.144  37.887  1.00  0.00     0.000 C 
BRANCH   6   7
ATOM      7  C   UNL     1      48.491  40.400  39.225  1.00  0.00     0.000 C 
BRANCH   7   8
ATOM      8  C   UNL     1      47.562  40.701  40.416  1.00  0.00     0.006 C 
BRANCH   8   9
ATOM      9  C   UNL     1      47.956  41.978  41.168  1.00  0.00     0.053 C 
BRANCH   9  10
ATOM     10  C   UNL     1      47.226  43.160  40.609  1.00  0.00     0.041 C 
ATOM     11  O   UNL     1      46.010  43.062  40.294  1.00  0.00    -0.550 OA
ATOM     12  O   UNL     1      47.874  44.381  40.481  1.00  0.00    -0.550 OA
ENDBRANCH   9  10
ENDBRANCH   8   9
ENDBRANCH   7   8
ENDBRANCH   6   7
ENDBRANCH   5   6
ENDBRANCH   4   5
ENDBRANCH   3   4
ENDBRANCH   1   3
BRANCH   2  13
ATOM     13  C   UNL     1      45.070  44.135  34.101  1.00  0.00     0.027 C 
BRANCH  13  14
ATOM     14  C   UNL     1      44.298  44.479  32.817  1.00  0.00     0.004 C 
BRANCH  14  15
ATOM     15  C   UNL     1      44.164  43.304  31.827  1.00  0.00     0.000 C 
BRANCH  15  16
ATOM     16  C   UNL     1      44.530  43.634  30.365  1.00  0.00     0.000 C 
BRANCH  16  17
ATOM     17  C   UNL     1      45.878  44.353  30.178  1.00  0.00    -0.000 C 
BRANCH  17  18
ATOM     18  C   UNL     1      47.076  43.395  30.231  1.00  0.00    -0.000 C 
BRANCH  18  19
ATOM     19  C   UNL     1      47.904  43.622  31.503  1.00  0.00    -0.003 C 
ATOM     20  C   UNL     1      47.977  45.105  31.855  1.00  0.00     0.004 C 
ENDBRANCH  18  19
ENDBRANCH  17  18
ENDBRANCH  16  17
ENDBRANCH  15  16
ENDBRANCH  14  15
ENDBRANCH  13  14
ENDBRANCH   2  13
TORSDOF 15
ENDMDL
MODEL 7
REMARK VINA RESULT:    -4.443      1.549      3.356
REMARK INTER + INTRA:         -10.087
REMARK INTER:                  -7.975
REMARK INTRA:                  -2.111
REMARK UNBOUND:                -1.747
REMARK SMILES CCCCCCCCC=CCCCCCCCC(=O)[O-]
REMARK SMILES IDX 10 1 9 2 11 3 12 4 13 5 14 6 15 7 16 8 17 9 18 10 19 11
REMARK SMILES IDX 20 12 8 13 7 14 6 15 5 16 4 17 3 18 2 19 1 20
REMARK H PARENT
REMARK Flexibility Score: inf
ROOT
ATOM      1  C   UNL     1      47.379  44.489  33.369  1.00  0.00    -0.031 C 
ATOM      2  C   UNL     1      47.617  44.674  32.059  1.00  0.00    -0.031 C 
ENDROOT
BRANCH   1   3
ATOM      3  C   UNL     1      45.993  44.426  33.960  1.00  0.00     0.027 C 
BRANCH   3   4
ATOM      4  C   UNL     1      45.893  43.324  35.024  1.00  0.00     0.004 C 
BRANCH   4   5
ATOM      5  C   UNL     1      47.227  42.589  35.250  1.00  0.00     0.000 C 
BRANCH   5   6
ATOM      6  C   UNL     1      47.695  42.527  36.719  1.00  0.00     0.000 C 
BRANCH   6   7
ATOM      7  C   UNL     1      48.613  41.338  37.066  1.00  0.00     0.000 C 
BRANCH   7   8
ATOM      8  C   UNL     1      48.107  40.440  38.210  1.00  0.00     0.006 C 
BRANCH   8   9
ATOM      9  C   UNL     1      48.534  40.945  39.594  1.00  0.00     0.053 C 
BRANCH   9  10
ATOM     10  C   UNL     1      47.332  41.208  40.448  1.00  0.00     0.041 C 
ATOM     11  O   UNL     1      46.365  41.873  39.991  1.00  0.00    -0.550 OA
ATOM     12  O   UNL     1      47.260  40.678  41.730  1.00  0.00    -0.550 OA
ENDBRANCH   9  10
ENDBRANCH   8   9
ENDBRANCH   7   8
ENDBRANCH   6   7
ENDBRANCH   5   6
ENDBRANCH   4   5
ENDBRANCH   3   4
ENDBRANCH   1   3
BRANCH   2  13
ATOM     13  C   UNL     1      46.533  44.777  31.010  1.00  0.00     0.027 C 
BRANCH  13  14
ATOM     14  C   UNL     1      46.734  43.756  29.880  1.00  0.00     0.004 C 
BRANCH  14  15
ATOM     15  C   UNL     1      47.149  42.351  30.364  1.00  0.00     0.000 C 
BRANCH  15  16
ATOM     16  C   UNL     1      45.990  41.346  30.529  1.00  0.00     0.000 C 
BRANCH  16  17
ATOM     17  C   UNL     1      45.229  41.444  31.863  1.00  0.00    -0.000 C 
BRANCH  17  18
ATOM     18  C   UNL     1      43.714  41.613  31.673  1.00  0.00    -0.000 C 
BRANCH  18  19
ATOM     19  C   UNL     1      43.300  43.079  31.855  1.00  0.00    -0.003 C 
ATOM     20  C   UNL     1      42.588  43.288  33.189  1.00  0.00     0.004 C 
ENDBRANCH  18  19
ENDBRANCH  17  18
ENDBRANCH  16  17
ENDBRANCH  15  16
ENDBRANCH  14  15
ENDBRANCH  13  14
ENDBRANCH   2  13
TORSDOF 15
ENDMDL
MODEL 8
REMARK VINA RESULT:    -4.428      3.626      8.421
REMARK INTER + INTRA:         -10.058
REMARK INTER:                  -8.301
REMARK INTRA:                  -1.757
REMARK UNBOUND:                -1.747
REMARK SMILES CCCCCCCCC=CCCCCCCCC(=O)[O-]
REMARK SMILES IDX 10 1 9 2 11 3 12 4 13 5 14 6 15 7 16 8 17 9 18 10 19 11
REMARK SMILES IDX 20 12 8 13 7 14 6 15 5 16 4 17 3 18 2 19 1 20
REMARK H PARENT
REMARK Flexibility Score: inf
ROOT
ATOM      1  C   UNL     1      45.921  42.830  35.408  1.00  0.00    -0.031 C 
ATOM      2  C   UNL     1      46.261  42.756  36.705  1.00  0.00    -0.031 C 
ENDROOT
BRANCH   1   3
ATOM      3  C   UNL     1      46.917  43.080  34.302  1.00  0.00     0.027 C 
BRANCH   3   4
ATOM      4  C   UNL     1      46.540  44.324  33.486  1.00  0.00     0.004 C 
BRANCH   4   5
ATOM      5  C   UNL     1      47.764  45.030  32.875  1.00  0.00     0.000 C 
BRANCH   5   6
ATOM      6  C   UNL     1      48.068  44.653  31.409  1.00  0.00     0.000 C 
BRANCH   6   7
ATOM      7  C   UNL     1      46.855  44.167  30.591  1.00  0.00     0.000 C 
BRANCH   7   8
ATOM      8  C   UNL     1      46.919  42.692  30.152  1.00  0.00     0.006 C 
BRANCH   8   9
ATOM      9  C   UNL     1      45.530  42.064  29.976  1.00  0.00     0.053 C 
BRANCH   9  10
ATOM     10  C   UNL     1      44.911  41.785  31.310  1.00  0.00     0.041 C 
ATOM     11  O   UNL     1      45.347  40.844  32.026  1.00  0.00    -0.550 OA
ATOM     12  O   UNL     1      43.885  42.592  31.784  1.00  0.00    -0.550 OA
ENDBRANCH   9  10
ENDBRANCH   8   9
ENDBRANCH   7   8
ENDBRANCH   6   7
ENDBRANCH   5   6
ENDBRANCH   4   5
ENDBRANCH   3   4
ENDBRANCH   1   3
BRANCH   2  13
ATOM     13  C   UNL     1      47.681  42.848  37.214  1.00  0.00     0.027 C 
BRANCH  13  14
ATOM     14  C   UNL     1      47.734  43.302  38.681  1.00  0.00     0.004 C 
BRANCH  14  15
ATOM     15  C   UNL     1      47.081  42.316  39.671  1.00  0.00     0.000 C 
BRANCH  15  16
ATOM     16  C   UNL     1      48.067  41.538  40.567  1.00  0.00     0.000 C 
BRANCH  16  17
ATOM     17  C   UNL     1      48.082  40.015  40.350  1.00  0.00    -0.000 C 
BRANCH  17  18
ATOM     18  C   UNL     1      47.223  39.574  39.157  1.00  0.00    -0.000 C 
BRANCH  18  19
ATOM     19  C   UNL     1      47.997  38.611  38.249  1.00  0.00    -0.003 C 
ATOM     20  C   UNL     1      48.680  39.358  37.107  1.00  0.00     0.004 C 
ENDBRANCH  18  19
ENDBRANCH  17  18
ENDBRANCH  16  17
ENDBRANCH  15  16
ENDBRANCH  14  15
ENDBRANCH  13  14
ENDBRANCH   2  13
TORSDOF 15
ENDMDL
MODEL 9
REMARK VINA RESULT:    -4.413      1.062      2.380
REMARK INTER + INTRA:         -10.030
REMARK INTER:                  -8.244
REMARK INTRA:                  -1.786
REMARK UNBOUND:                -1.747
REMARK SMILES CCCCCCCCC=CCCCCCCCC(=O)[O-]
REMARK SMILES IDX 10 1 9 2 11 3 12 4 13 5 14 6 15 7 16 8 17 9 18 10 19 11
REMARK SMILES IDX 20 12 8 13 7 14 6 15 5 16 4 17 3 18 2 19 1 20
REMARK H PARENT
REMARK Flexibility Score: inf
ROOT
ATOM      1  C   UNL     1      46.630  42.237  34.960  1.00  0.00    -0.031 C 
ATOM      2  C   UNL     1      46.931  42.885  33.823  1.00  0.00    -0.031 C 
ENDROOT
BRANCH   1   3
ATOM      3  C   UNL     1      46.570  42.910  36.309  1.00  0.00     0.027 C 
BRANCH   3   4
ATOM      4  C   UNL     1      47.856  42.665  37.110  1.00  0.00     0.004 C 
BRANCH   4   5
ATOM      5  C   UNL     1      48.360  41.214  37.001  1.00  0.00     0.000 C 
BRANCH   5   6
ATOM      6  C   UNL     1      48.681  40.534  38.348  1.00  0.00     0.000 C 
BRANCH   6   7
ATOM      7  C   UNL     1      48.322  41.358  39.601  1.00  0.00     0.000 C 
BRANCH   7   8
ATOM      8  C   UNL     1      47.163  40.789  40.441  1.00  0.00     0.006 C 
BRANCH   8   9
ATOM      9  C   UNL     1      47.634  40.181  41.768  1.00  0.00     0.053 C 
BRANCH   9  10
ATOM     10  C   UNL     1      47.274  38.729  41.834  1.00  0.00     0.041 C 
ATOM     11  O   UNL     1      47.037  38.185  42.945  1.00  0.00    -0.550 OA
ATOM     12  O   UNL     1      47.155  37.989  40.665  1.00  0.00    -0.550 OA
ENDBRANCH   9  10
ENDBRANCH   8   9
ENDBRANCH   7   8
ENDBRANCH   6   7
ENDBRANCH   5   6
ENDBRANCH   4   5
ENDBRANCH   3   4
ENDBRANCH   1   3
BRANCH   2  13
ATOM     13  C   UNL     1      47.184  44.373  33.740  1.00  0.00     0.027 C 
BRANCH  13  14
ATOM     14  C   UNL     1      47.621  44.801  32.331  1.00  0.00     0.004 C 
BRANCH  14  15
ATOM     15  C   UNL     1      47.553  43.674  31.279  1.00  0.00     0.000 C 
BRANCH  15  16
ATOM     16  C   UNL     1      46.700  43.989  30.034  1.00  0.00     0.000 C 
BRANCH  16  17
ATOM     17  C   UNL     1      45.189  43.753  30.202  1.00  0.00    -0.000 C 
BRANCH  17  18
ATOM     18  C   UNL     1      44.864  42.370  30.784  1.00  0.00    -0.000 C 
BRANCH  18  19
ATOM     19  C   UNL     1      43.638  42.436  31.704  1.00  0.00    -0.003 C 
ATOM     20  C   UNL     1      43.665  43.694  32.568  1.00  0.00     0.004 C 
ENDBRANCH  18  19
ENDBRANCH  17  18
ENDBRANCH  16  17
ENDBRANCH  15  16
ENDBRANCH  14  15
ENDBRANCH  13  14
ENDBRANCH   2  13
TORSDOF 15
ENDMDL
