MODEL 1
REMARK VINA RESULT:    -3.278      0.000      0.000
REMARK INTER + INTRA:         -12.630
REMARK INTER:                  -8.261
REMARK INTRA:                  -4.369
REMARK UNBOUND:                -4.369
REMARK SMILES CCCCCCCCCCCCCCCCCCCCCCCCCCCC(=O)[O-]
REMARK SMILES IDX 15 1 16 2 17 3 18 4 19 5 20 6 21 7 22 8 23 9 24 10 25 11
REMARK SMILES IDX 26 12 27 13 28 14 29 15 30 16 14 17 13 18 12 19 11 20 10 21
REMARK SMILES IDX 9 22 8 23 7 24 6 25 5 26 4 27 3 28 2 29 1 30
REMARK H PARENT
REMARK Flexibility Score: inf
ROOT
ATOM      1  C   UNL     1       7.529  -3.254  -5.435  1.00  0.00     0.000 C 
ENDROOT
BRANCH   1   2
ATOM      2  C   UNL     1       9.008  -2.870  -5.244  1.00  0.00     0.000 C 
BRANCH   2   3
ATOM      3  C   UNL     1       9.239  -1.813  -4.144  1.00  0.00     0.000 C 
BRANCH   3   4
ATOM      4  C   UNL     1      10.666  -1.238  -4.165  1.00  0.00     0.000 C 
BRANCH   4   5
ATOM      5  C   UNL     1      10.907  -0.298  -5.360  1.00  0.00     0.000 C 
BRANCH   5   6
ATOM      6  C   UNL     1      10.274   1.102  -5.184  1.00  0.00     0.000 C 
BRANCH   6   7
ATOM      7  C   UNL     1       9.285   1.487  -6.304  1.00  0.00     0.000 C 
BRANCH   7   8
ATOM      8  C   UNL     1       9.042   0.393  -7.359  1.00  0.00     0.000 C 
BRANCH   8   9
ATOM      9  C   UNL     1       7.592  -0.121  -7.381  1.00  0.00     0.000 C 
BRANCH   9  10
ATOM     10  C   UNL     1       6.677   0.680  -6.430  1.00  0.00     0.000 C 
BRANCH  10  11
ATOM     11  C   UNL     1       5.636   1.556  -7.148  1.00  0.00     0.000 C 
BRANCH  11  12
ATOM     12  C   UNL     1       4.171   1.152  -6.910  1.00  0.00     0.006 C 
BRANCH  12  13
ATOM     13  C   UNL     1       3.817   1.049  -5.420  1.00  0.00     0.053 C 
BRANCH  13  14
ATOM     14  C   UNL     1       2.827   2.107  -5.043  1.00  0.00     0.041 C 
ATOM     15  O   UNL     1       2.581   3.051  -5.836  1.00  0.00    -0.550 OA
ATOM     16  O   UNL     1       2.225   2.084  -3.793  1.00  0.00    -0.550 OA
ENDBRANCH  13  14
ENDBRANCH  12  13
ENDBRANCH  11  12
ENDBRANCH  10  11
ENDBRANCH   9  10
ENDBRANCH   8   9
ENDBRANCH   7   8
ENDBRANCH   6   7
ENDBRANCH   5   6
ENDBRANCH   4   5
ENDBRANCH   3   4
ENDBRANCH   2   3
ENDBRANCH   1   2
BRANCH   1  17
ATOM     17  C   UNL     1       6.554  -2.554  -4.472  1.00  0.00     0.000 C 
BRANCH  17  18
ATOM     18  C   UNL     1       5.085  -2.901  -4.765  1.00  0.00     0.000 C 
BRANCH  18  19
ATOM     19  C   UNL     1       4.671  -2.422  -6.161  1.00  0.00     0.000 C 
BRANCH  19  20
ATOM     20  C   UNL     1       3.611  -3.348  -6.768  1.00  0.00     0.000 C 
BRANCH  20  21
ATOM     21  C   UNL     1       3.672  -4.746  -6.132  1.00  0.00     0.000 C 
BRANCH  21  22
ATOM     22  C   UNL     1       2.278  -5.367  -5.911  1.00  0.00    -0.000 C 
BRANCH  22  23
ATOM     23  C   UNL     1       1.694  -5.179  -4.493  1.00  0.00    -0.000 C 
BRANCH  23  24
ATOM     24  C   UNL     1       2.757  -5.018  -3.389  1.00  0.00    -0.000 C 
BRANCH  24  25
ATOM     25  C   UNL     1       3.062  -6.340  -2.664  1.00  0.00    -0.000 C 
BRANCH  25  26
ATOM     26  C   UNL     1       4.545  -6.456  -2.266  1.00  0.00    -0.000 C 
BRANCH  26  27
ATOM     27  C   UNL     1       5.510  -6.213  -3.441  1.00  0.00    -0.000 C 
BRANCH  27  28
ATOM     28  C   UNL     1       6.638  -7.259  -3.495  1.00  0.00    -0.000 C 
BRANCH  28  29
ATOM     29  C   UNL     1       7.908  -6.723  -4.176  1.00  0.00    -0.003 C 
ATOM     30  C   UNL     1       7.888  -6.907  -5.696  1.00  0.00     0.004 C 
ENDBRANCH  28  29
ENDBRANCH  27  28
ENDBRANCH  26  27
ENDBRANCH  25  26
ENDBRANCH  24  25
ENDBRANCH  23  24
ENDBRANCH  22  23
ENDBRANCH  21  22
ENDBRANCH  20  21
ENDBRANCH  19  20
ENDBRANCH  18  19
ENDBRANCH  17  18
ENDBRANCH   1  17
TORSDOF 26
ENDMDL
MODEL 2
REMARK VINA RESULT:    -3.198      9.931     13.127
REMARK INTER + INTRA:         -12.427
REMARK INTER:                  -8.338
REMARK INTRA:                  -4.089
REMARK UNBOUND:                -4.369
REMARK SMILES CCCCCCCCCCCCCCCCCCCCCCCCCCCC(=O)[O-]
REMARK SMILES IDX 15 1 16 2 17 3 18 4 19 5 20 6 21 7 22 8 23 9 24 10 25 11
REMARK SMILES IDX 26 12 27 13 28 14 29 15 30 16 14 17 13 18 12 19 11 20 10 21
REMARK SMILES IDX 9 22 8 23 7 24 6 25 5 26 4 27 3 28 2 29 1 30
REMARK H PARENT
REMARK Flexibility Score: inf
ROOT
ATOM      1  C   UNL     1       0.774   7.092   4.411  1.00  0.00     0.000 C 
ENDROOT
BRANCH   1   2
ATOM      2  C   UNL     1       0.847   5.795   5.236  1.00  0.00     0.000 C 
BRANCH   2   3
ATOM      3  C   UNL     1       0.925   4.515   4.377  1.00  0.00     0.000 C 
BRANCH   3   4
ATOM      4  C   UNL     1       1.744   3.400   5.049  1.00  0.00     0.000 C 
BRANCH   4   5
ATOM      5  C   UNL     1       3.254   3.533   4.783  1.00  0.00     0.000 C 
BRANCH   5   6
ATOM      6  C   UNL     1       3.592   3.993   3.346  1.00  0.00     0.000 C 
BRANCH   6   7
ATOM      7  C   UNL     1       4.691   5.072   3.276  1.00  0.00     0.000 C 
BRANCH   7   8
ATOM      8  C   UNL     1       4.199   6.473   2.868  1.00  0.00     0.000 C 
BRANCH   8   9
ATOM      9  C   UNL     1       3.981   6.626   1.353  1.00  0.00     0.000 C 
BRANCH   9  10
ATOM     10  C   UNL     1       5.173   7.321   0.661  1.00  0.00     0.000 C 
BRANCH  10  11
ATOM     11  C   UNL     1       5.881   6.454  -0.394  1.00  0.00     0.000 C 
BRANCH  11  12
ATOM     12  C   UNL     1       6.285   5.049   0.082  1.00  0.00     0.006 C 
BRANCH  12  13
ATOM     13  C   UNL     1       7.804   4.831   0.073  1.00  0.00     0.053 C 
BRANCH  13  14
ATOM     14  C   UNL     1       8.470   5.748   1.051  1.00  0.00     0.041 C 
ATOM     15  O   UNL     1       9.390   6.516   0.669  1.00  0.00    -0.550 OA
ATOM     16  O   UNL     1       8.118   5.710   2.393  1.00  0.00    -0.550 OA
ENDBRANCH  13  14
ENDBRANCH  12  13
ENDBRANCH  11  12
ENDBRANCH  10  11
ENDBRANCH   9  10
ENDBRANCH   8   9
ENDBRANCH   7   8
ENDBRANCH   6   7
ENDBRANCH   5   6
ENDBRANCH   4   5
ENDBRANCH   3   4
ENDBRANCH   2   3
ENDBRANCH   1   2
BRANCH   1  17
ATOM     17  C   UNL     1       0.394   6.894   2.933  1.00  0.00     0.000 C 
BRANCH  17  18
ATOM     18  C   UNL     1       0.877   8.048   2.041  1.00  0.00     0.000 C 
BRANCH  18  19
ATOM     19  C   UNL     1       0.104   8.088   0.718  1.00  0.00     0.000 C 
BRANCH  19  20
ATOM     20  C   UNL     1       1.047   7.898  -0.476  1.00  0.00     0.000 C 
BRANCH  20  21
ATOM     21  C   UNL     1       0.278   7.405  -1.712  1.00  0.00     0.000 C 
BRANCH  21  22
ATOM     22  C   UNL     1      -1.195   7.066  -1.409  1.00  0.00    -0.000 C 
BRANCH  22  23
ATOM     23  C   UNL     1      -1.627   5.630  -1.781  1.00  0.00    -0.000 C 
BRANCH  23  24
ATOM     24  C   UNL     1      -2.399   4.896  -0.668  1.00  0.00    -0.000 C 
BRANCH  24  25
ATOM     25  C   UNL     1      -2.759   5.818   0.510  1.00  0.00    -0.000 C 
BRANCH  25  26
ATOM     26  C   UNL     1      -2.505   5.147   1.872  1.00  0.00    -0.000 C 
BRANCH  26  27
ATOM     27  C   UNL     1      -3.127   5.915   3.053  1.00  0.00    -0.000 C 
BRANCH  27  28
ATOM     28  C   UNL     1      -2.723   5.319   4.414  1.00  0.00    -0.000 C 
BRANCH  28  29
ATOM     29  C   UNL     1      -3.610   4.132   4.823  1.00  0.00    -0.003 C 
ATOM     30  C   UNL     1      -3.041   3.346   6.008  1.00  0.00     0.004 C 
ENDBRANCH  28  29
ENDBRANCH  27  28
ENDBRANCH  26  27
ENDBRANCH  25  26
ENDBRANCH  24  25
ENDBRANCH  23  24
ENDBRANCH  22  23
ENDBRANCH  21  22
ENDBRANCH  20  21
ENDBRANCH  19  20
ENDBRANCH  18  19
ENDBRANCH  17  18
ENDBRANCH   1  17
TORSDOF 26
ENDMDL
MODEL 3
REMARK VINA RESULT:    -3.134     11.067     13.345
REMARK INTER + INTRA:         -12.266
REMARK INTER:                  -6.761
REMARK INTRA:                  -5.506
REMARK UNBOUND:                -4.369
REMARK SMILES CCCCCCCCCCCCCCCCCCCCCCCCCCCC(=O)[O-]
REMARK SMILES IDX 15 1 16 2 17 3 18 4 19 5 20 6 21 7 22 8 23 9 24 10 25 11
REMARK SMILES IDX 26 12 27 13 28 14 29 15 30 16 14 17 13 18 12 19 11 20 10 21
REMARK SMILES IDX 9 22 8 23 7 24 6 25 5 26 4 27 3 28 2 29 1 30
REMARK H PARENT
REMARK Flexibility Score: inf
ROOT
ATOM      1  C   UNL     1       1.770   4.807   5.431  1.00  0.00     0.000 C 
ENDROOT
BRANCH   1   2
ATOM      2  C   UNL     1       1.559   3.997   4.138  1.00  0.00     0.000 C 
BRANCH   2   3
ATOM      3  C   UNL     1       2.856   3.383   3.571  1.00  0.00     0.000 C 
BRANCH   3   4
ATOM      4  C   UNL     1       4.057   4.339   3.669  1.00  0.00     0.000 C 
BRANCH   4   5
ATOM      5  C   UNL     1       4.493   4.883   2.298  1.00  0.00     0.000 C 
BRANCH   5   6
ATOM      6  C   UNL     1       3.798   6.208   1.907  1.00  0.00     0.000 C 
BRANCH   6   7
ATOM      7  C   UNL     1       3.922   7.318   2.971  1.00  0.00     0.000 C 
BRANCH   7   8
ATOM      8  C   UNL     1       2.583   7.895   3.466  1.00  0.00     0.000 C 
BRANCH   8   9
ATOM      9  C   UNL     1       1.364   7.347   2.703  1.00  0.00     0.000 C 
BRANCH   9  10
ATOM     10  C   UNL     1       0.041   7.624   3.448  1.00  0.00     0.000 C 
BRANCH  10  11
ATOM     11  C   UNL     1      -1.042   6.553   3.227  1.00  0.00     0.000 C 
BRANCH  11  12
ATOM     12  C   UNL     1      -1.684   6.556   1.831  1.00  0.00     0.006 C 
BRANCH  12  13
ATOM     13  C   UNL     1      -2.411   5.243   1.507  1.00  0.00     0.053 C 
BRANCH  13  14
ATOM     14  C   UNL     1      -2.698   5.152   0.041  1.00  0.00     0.041 C 
ATOM     15  O   UNL     1      -3.309   6.085  -0.541  1.00  0.00    -0.550 OA
ATOM     16  O   UNL     1      -2.348   4.011  -0.668  1.00  0.00    -0.550 OA
ENDBRANCH  13  14
ENDBRANCH  12  13
ENDBRANCH  11  12
ENDBRANCH  10  11
ENDBRANCH   9  10
ENDBRANCH   8   9
ENDBRANCH   7   8
ENDBRANCH   6   7
ENDBRANCH   5   6
ENDBRANCH   4   5
ENDBRANCH   3   4
ENDBRANCH   2   3
ENDBRANCH   1   2
BRANCH   1  17
ATOM     17  C   UNL     1       0.697   4.585   6.511  1.00  0.00     0.000 C 
BRANCH  17  18
ATOM     18  C   UNL     1      -0.660   4.176   5.918  1.00  0.00     0.000 C 
BRANCH  18  19
ATOM     19  C   UNL     1      -1.303   3.048   6.731  1.00  0.00     0.000 C 
BRANCH  19  20
ATOM     20  C   UNL     1      -0.237   2.099   7.292  1.00  0.00     0.000 C 
BRANCH  20  21
ATOM     21  C   UNL     1      -0.121   0.831   6.432  1.00  0.00     0.000 C 
BRANCH  21  22
ATOM     22  C   UNL     1       1.202   0.759   5.643  1.00  0.00    -0.000 C 
BRANCH  22  23
ATOM     23  C   UNL     1       2.446   0.391   6.482  1.00  0.00    -0.000 C 
BRANCH  23  24
ATOM     24  C   UNL     1       3.408   1.568   6.733  1.00  0.00    -0.000 C 
BRANCH  24  25
ATOM     25  C   UNL     1       3.426   2.014   8.206  1.00  0.00    -0.000 C 
BRANCH  25  26
ATOM     26  C   UNL     1       3.692   3.523   8.353  1.00  0.00    -0.000 C 
BRANCH  26  27
ATOM     27  C   UNL     1       4.735   4.057   7.353  1.00  0.00    -0.000 C 
BRANCH  27  28
ATOM     28  C   UNL     1       5.158   5.503   7.668  1.00  0.00    -0.000 C 
BRANCH  28  29
ATOM     29  C   UNL     1       4.931   6.456   6.484  1.00  0.00    -0.003 C 
ATOM     30  C   UNL     1       6.231   6.843   5.775  1.00  0.00     0.004 C 
ENDBRANCH  28  29
ENDBRANCH  27  28
ENDBRANCH  26  27
ENDBRANCH  25  26
ENDBRANCH  24  25
ENDBRANCH  23  24
ENDBRANCH  22  23
ENDBRANCH  21  22
ENDBRANCH  20  21
ENDBRANCH  19  20
ENDBRANCH  18  19
ENDBRANCH  17  18
ENDBRANCH   1  17
TORSDOF 26
ENDMDL
MODEL 4
REMARK VINA RESULT:    -3.090     10.865     13.653
REMARK INTER + INTRA:         -12.156
REMARK INTER:                  -8.455
REMARK INTRA:                  -3.701
REMARK UNBOUND:                -4.369
REMARK SMILES CCCCCCCCCCCCCCCCCCCCCCCCCCCC(=O)[O-]
REMARK SMILES IDX 15 1 16 2 17 3 18 4 19 5 20 6 21 7 22 8 23 9 24 10 25 11
REMARK SMILES IDX 26 12 27 13 28 14 29 15 30 16 14 17 13 18 12 19 11 20 10 21
REMARK SMILES IDX 9 22 8 23 7 24 6 25 5 26 4 27 3 28 2 29 1 30
REMARK H PARENT
REMARK Flexibility Score: inf
ROOT
ATOM      1  C   UNL     1       0.865   6.470   3.307  1.00  0.00     0.000 C 
ENDROOT
BRANCH   1   2
ATOM      2  C   UNL     1       0.418   5.248   4.130  1.00  0.00     0.000 C 
BRANCH   2   3
ATOM      3  C   UNL     1      -0.038   5.597   5.563  1.00  0.00     0.000 C 
BRANCH   3   4
ATOM      4  C   UNL     1      -0.548   4.370   6.337  1.00  0.00     0.000 C 
BRANCH   4   5
ATOM      5  C   UNL     1      -1.975   4.564   6.879  1.00  0.00     0.000 C 
BRANCH   5   6
ATOM      6  C   UNL     1      -3.064   3.886   6.015  1.00  0.00     0.000 C 
BRANCH   6   7
ATOM      7  C   UNL     1      -3.779   4.845   5.041  1.00  0.00     0.000 C 
BRANCH   7   8
ATOM      8  C   UNL     1      -3.223   4.845   3.606  1.00  0.00     0.000 C 
BRANCH   8   9
ATOM      9  C   UNL     1      -2.973   6.257   3.048  1.00  0.00     0.000 C 
BRANCH   9  10
ATOM     10  C   UNL     1      -2.698   6.242   1.529  1.00  0.00     0.000 C 
BRANCH  10  11
ATOM     11  C   UNL     1      -2.428   4.842   0.952  1.00  0.00     0.000 C 
BRANCH  11  12
ATOM     12  C   UNL     1      -2.528   4.739  -0.579  1.00  0.00     0.006 C 
BRANCH  12  13
ATOM     13  C   UNL     1      -3.525   5.741  -1.178  1.00  0.00     0.053 C 
BRANCH  13  14
ATOM     14  C   UNL     1      -3.753   5.449  -2.628  1.00  0.00     0.041 C 
ATOM     15  O   UNL     1      -4.685   4.679  -2.976  1.00  0.00    -0.550 OA
ATOM     16  O   UNL     1      -2.900   5.975  -3.588  1.00  0.00    -0.550 OA
ENDBRANCH  13  14
ENDBRANCH  12  13
ENDBRANCH  11  12
ENDBRANCH  10  11
ENDBRANCH   9  10
ENDBRANCH   8   9
ENDBRANCH   7   8
ENDBRANCH   6   7
ENDBRANCH   5   6
ENDBRANCH   4   5
ENDBRANCH   3   4
ENDBRANCH   2   3
ENDBRANCH   1   2
BRANCH   1  17
ATOM     17  C   UNL     1       1.921   7.356   3.992  1.00  0.00     0.000 C 
BRANCH  17  18
ATOM     18  C   UNL     1       2.993   7.859   3.013  1.00  0.00     0.000 C 
BRANCH  18  19
ATOM     19  C   UNL     1       4.256   6.994   3.082  1.00  0.00     0.000 C 
BRANCH  19  20
ATOM     20  C   UNL     1       4.316   6.014   1.904  1.00  0.00     0.000 C 
BRANCH  20  21
ATOM     21  C   UNL     1       4.122   4.566   2.382  1.00  0.00     0.000 C 
BRANCH  21  22
ATOM     22  C   UNL     1       4.263   4.413   3.909  1.00  0.00    -0.000 C 
BRANCH  22  23
ATOM     23  C   UNL     1       3.398   3.299   4.539  1.00  0.00    -0.000 C 
BRANCH  23  24
ATOM     24  C   UNL     1       3.552   3.168   6.066  1.00  0.00    -0.000 C 
BRANCH  24  25
ATOM     25  C   UNL     1       4.167   1.822   6.486  1.00  0.00    -0.000 C 
BRANCH  25  26
ATOM     26  C   UNL     1       3.107   0.712   6.608  1.00  0.00    -0.000 C 
BRANCH  26  27
ATOM     27  C   UNL     1       1.710   1.243   6.980  1.00  0.00    -0.000 C 
BRANCH  27  28
ATOM     28  C   UNL     1       0.654   0.908   5.911  1.00  0.00    -0.000 C 
BRANCH  28  29
ATOM     29  C   UNL     1       0.712  -0.562   5.466  1.00  0.00    -0.003 C 
ATOM     30  C   UNL     1      -0.006  -1.505   6.435  1.00  0.00     0.004 C 
ENDBRANCH  28  29
ENDBRANCH  27  28
ENDBRANCH  26  27
ENDBRANCH  25  26
ENDBRANCH  24  25
ENDBRANCH  23  24
ENDBRANCH  22  23
ENDBRANCH  21  22
ENDBRANCH  20  21
ENDBRANCH  19  20
ENDBRANCH  18  19
ENDBRANCH  17  18
ENDBRANCH   1  17
TORSDOF 26
ENDMDL
MODEL 5
REMARK VINA RESULT:    -3.047     11.736     15.221
REMARK INTER + INTRA:         -12.048
REMARK INTER:                  -6.625
REMARK INTRA:                  -5.424
REMARK UNBOUND:                -4.369
REMARK SMILES CCCCCCCCCCCCCCCCCCCCCCCCCCCC(=O)[O-]
REMARK SMILES IDX 15 1 16 2 17 3 18 4 19 5 20 6 21 7 22 8 23 9 24 10 25 11
REMARK SMILES IDX 26 12 27 13 28 14 29 15 30 16 14 17 13 18 12 19 11 20 10 21
REMARK SMILES IDX 9 22 8 23 7 24 6 25 5 26 4 27 3 28 2 29 1 30
REMARK H PARENT
REMARK Flexibility Score: inf
ROOT
ATOM      1  C   UNL     1      -4.680  -3.385   5.322  1.00  0.00     0.000 C 
ENDROOT
BRANCH   1   2
ATOM      2  C   UNL     1      -6.096  -3.938   5.568  1.00  0.00     0.000 C 
BRANCH   2   3
ATOM      3  C   UNL     1      -7.209  -3.130   4.869  1.00  0.00     0.000 C 
BRANCH   3   4
ATOM      4  C   UNL     1      -8.101  -4.003   3.970  1.00  0.00     0.000 C 
BRANCH   4   5
ATOM      5  C   UNL     1      -7.617  -4.033   2.510  1.00  0.00     0.000 C 
BRANCH   5   6
ATOM      6  C   UNL     1      -7.156  -5.432   2.038  1.00  0.00     0.000 C 
BRANCH   6   7
ATOM      7  C   UNL     1      -7.537  -6.575   3.000  1.00  0.00     0.000 C 
BRANCH   7   8
ATOM      8  C   UNL     1      -6.365  -7.471   3.440  1.00  0.00     0.000 C 
BRANCH   8   9
ATOM      9  C   UNL     1      -5.000  -6.763   3.379  1.00  0.00     0.000 C 
BRANCH   9  10
ATOM     10  C   UNL     1      -3.963  -7.571   2.571  1.00  0.00     0.000 C 
BRANCH  10  11
ATOM     11  C   UNL     1      -3.066  -6.713   1.661  1.00  0.00     0.000 C 
BRANCH  11  12
ATOM     12  C   UNL     1      -3.691  -6.328   0.310  1.00  0.00     0.006 C 
BRANCH  12  13
ATOM     13  C   UNL     1      -3.591  -7.450  -0.733  1.00  0.00     0.053 C 
BRANCH  13  14
ATOM     14  C   UNL     1      -4.956  -7.879  -1.173  1.00  0.00     0.041 C 
ATOM     15  O   UNL     1      -5.145  -8.265  -2.355  1.00  0.00    -0.550 OA
ATOM     16  O   UNL     1      -6.029  -7.792  -0.297  1.00  0.00    -0.550 OA
ENDBRANCH  13  14
ENDBRANCH  12  13
ENDBRANCH  11  12
ENDBRANCH  10  11
ENDBRANCH   9  10
ENDBRANCH   8   9
ENDBRANCH   7   8
ENDBRANCH   6   7
ENDBRANCH   5   6
ENDBRANCH   4   5
ENDBRANCH   3   4
ENDBRANCH   2   3
ENDBRANCH   1   2
BRANCH   1  17
ATOM     17  C   UNL     1      -4.350  -3.094   3.847  1.00  0.00     0.000 C 
BRANCH  17  18
ATOM     18  C   UNL     1      -2.904  -3.467   3.483  1.00  0.00     0.000 C 
BRANCH  18  19
ATOM     19  C   UNL     1      -2.359  -4.552   4.419  1.00  0.00     0.000 C 
BRANCH  19  20
ATOM     20  C   UNL     1      -0.883  -4.844   4.122  1.00  0.00     0.000 C 
BRANCH  20  21
ATOM     21  C   UNL     1      -0.119  -3.549   3.805  1.00  0.00     0.000 C 
BRANCH  21  22
ATOM     22  C   UNL     1       0.530  -2.913   5.050  1.00  0.00    -0.000 C 
BRANCH  22  23
ATOM     23  C   UNL     1       0.220  -1.414   5.258  1.00  0.00    -0.000 C 
BRANCH  23  24
ATOM     24  C   UNL     1      -0.444  -1.088   6.609  1.00  0.00    -0.000 C 
BRANCH  24  25
ATOM     25  C   UNL     1      -1.870  -1.654   6.719  1.00  0.00    -0.000 C 
BRANCH  25  26
ATOM     26  C   UNL     1      -2.105  -2.382   8.056  1.00  0.00    -0.000 C 
BRANCH  26  27
ATOM     27  C   UNL     1      -1.991  -3.914   7.942  1.00  0.00    -0.000 C 
BRANCH  27  28
ATOM     28  C   UNL     1      -0.575  -4.419   8.273  1.00  0.00    -0.000 C 
BRANCH  28  29
ATOM     29  C   UNL     1      -0.272  -5.784   7.634  1.00  0.00    -0.003 C 
ATOM     30  C   UNL     1       1.162  -5.888   7.108  1.00  0.00     0.004 C 
ENDBRANCH  28  29
ENDBRANCH  27  28
ENDBRANCH  26  27
ENDBRANCH  25  26
ENDBRANCH  24  25
ENDBRANCH  23  24
ENDBRANCH  22  23
ENDBRANCH  21  22
ENDBRANCH  20  21
ENDBRANCH  19  20
ENDBRANCH  18  19
ENDBRANCH  17  18
ENDBRANCH   1  17
TORSDOF 26
ENDMDL
MODEL 6
REMARK VINA RESULT:    -3.044     11.530     14.647
REMARK INTER + INTRA:         -12.039
REMARK INTER:                  -7.252
REMARK INTRA:                  -4.787
REMARK UNBOUND:                -4.369
REMARK SMILES CCCCCCCCCCCCCCCCCCCCCCCCCCCC(=O)[O-]
REMARK SMILES IDX 15 1 16 2 17 3 18 4 19 5 20 6 21 7 22 8 23 9 24 10 25 11
REMARK SMILES IDX 26 12 27 13 28 14 29 15 30 16 14 17 13 18 12 19 11 20 10 21
REMARK SMILES IDX 9 22 8 23 7 24 6 25 5 26 4 27 3 28 2 29 1 30
REMARK H PARENT
REMARK Flexibility Score: inf
ROOT
ATOM      1  C   UNL     1      -0.506   7.625  -1.576  1.00  0.00     0.000 C 
ENDROOT
BRANCH   1   2
ATOM      2  C   UNL     1      -0.905   6.311  -2.273  1.00  0.00     0.000 C 
BRANCH   2   3
ATOM      3  C   UNL     1      -2.382   6.267  -2.720  1.00  0.00     0.000 C 
BRANCH   3   4
ATOM      4  C   UNL     1      -3.304   5.645  -1.658  1.00  0.00     0.000 C 
BRANCH   4   5
ATOM      5  C   UNL     1      -2.623   4.507  -0.877  1.00  0.00     0.000 C 
BRANCH   5   6
ATOM      6  C   UNL     1      -2.407   4.825   0.621  1.00  0.00     0.000 C 
BRANCH   6   7
ATOM      7  C   UNL     1      -2.896   6.227   1.040  1.00  0.00     0.000 C 
BRANCH   7   8
ATOM      8  C   UNL     1      -3.191   6.388   2.542  1.00  0.00     0.000 C 
BRANCH   8   9
ATOM      9  C   UNL     1      -2.903   5.117   3.360  1.00  0.00     0.000 C 
BRANCH   9  10
ATOM     10  C   UNL     1      -3.496   5.195   4.783  1.00  0.00     0.000 C 
BRANCH  10  11
ATOM     11  C   UNL     1      -3.386   3.886   5.584  1.00  0.00     0.000 C 
BRANCH  11  12
ATOM     12  C   UNL     1      -2.368   3.913   6.736  1.00  0.00     0.006 C 
BRANCH  12  13
ATOM     13  C   UNL     1      -1.930   5.336   7.109  1.00  0.00     0.053 C 
BRANCH  13  14
ATOM     14  C   UNL     1      -1.777   5.464   8.592  1.00  0.00     0.041 C 
ATOM     15  O   UNL     1      -1.692   4.434   9.309  1.00  0.00    -0.550 OA
ATOM     16  O   UNL     1      -1.790   6.718   9.188  1.00  0.00    -0.550 OA
ENDBRANCH  13  14
ENDBRANCH  12  13
ENDBRANCH  11  12
ENDBRANCH  10  11
ENDBRANCH   9  10
ENDBRANCH   8   9
ENDBRANCH   7   8
ENDBRANCH   6   7
ENDBRANCH   5   6
ENDBRANCH   4   5
ENDBRANCH   3   4
ENDBRANCH   2   3
ENDBRANCH   1   2
BRANCH   1  17
ATOM     17  C   UNL     1       0.557   7.472  -0.475  1.00  0.00     0.000 C 
BRANCH  17  18
ATOM     18  C   UNL     1       0.068   7.980   0.891  1.00  0.00     0.000 C 
BRANCH  18  19
ATOM     19  C   UNL     1       0.666   7.154   2.035  1.00  0.00     0.000 C 
BRANCH  19  20
ATOM     20  C   UNL     1       0.064   7.567   3.383  1.00  0.00     0.000 C 
BRANCH  20  21
ATOM     21  C   UNL     1       0.644   6.721   4.528  1.00  0.00     0.000 C 
BRANCH  21  22
ATOM     22  C   UNL     1       0.660   5.213   4.211  1.00  0.00    -0.000 C 
BRANCH  22  23
ATOM     23  C   UNL     1       1.174   4.309   5.354  1.00  0.00    -0.000 C 
BRANCH  23  24
ATOM     24  C   UNL     1       1.950   3.067   4.875  1.00  0.00    -0.000 C 
BRANCH  24  25
ATOM     25  C   UNL     1       2.416   3.188   3.414  1.00  0.00    -0.000 C 
BRANCH  25  26
ATOM     26  C   UNL     1       3.844   3.753   3.303  1.00  0.00    -0.000 C 
BRANCH  26  27
ATOM     27  C   UNL     1       3.902   5.123   2.601  1.00  0.00    -0.000 C 
BRANCH  27  28
ATOM     28  C   UNL     1       4.551   6.203   3.485  1.00  0.00    -0.000 C 
BRANCH  28  29
ATOM     29  C   UNL     1       4.676   5.767   4.953  1.00  0.00    -0.003 C 
ATOM     30  C   UNL     1       3.975   6.726   5.919  1.00  0.00     0.004 C 
ENDBRANCH  28  29
ENDBRANCH  27  28
ENDBRANCH  26  27
ENDBRANCH  25  26
ENDBRANCH  24  25
ENDBRANCH  23  24
ENDBRANCH  22  23
ENDBRANCH  21  22
ENDBRANCH  20  21
ENDBRANCH  19  20
ENDBRANCH  18  19
ENDBRANCH  17  18
ENDBRANCH   1  17
TORSDOF 26
ENDMDL
MODEL 7
REMARK VINA RESULT:    -3.039     10.677     13.333
REMARK INTER + INTRA:         -12.028
REMARK INTER:                  -7.755
REMARK INTRA:                  -4.273
REMARK UNBOUND:                -4.369
REMARK SMILES CCCCCCCCCCCCCCCCCCCCCCCCCCCC(=O)[O-]
REMARK SMILES IDX 15 1 16 2 17 3 18 4 19 5 20 6 21 7 22 8 23 9 24 10 25 11
REMARK SMILES IDX 26 12 27 13 28 14 29 15 30 16 14 17 13 18 12 19 11 20 10 21
REMARK SMILES IDX 9 22 8 23 7 24 6 25 5 26 4 27 3 28 2 29 1 30
REMARK H PARENT
REMARK Flexibility Score: inf
ROOT
ATOM      1  C   UNL     1       1.967   6.139   6.316  1.00  0.00     0.000 C 
ENDROOT
BRANCH   1   2
ATOM      2  C   UNL     1       3.505   6.199   6.372  1.00  0.00     0.000 C 
BRANCH   2   3
ATOM      3  C   UNL     1       4.180   4.812   6.420  1.00  0.00     0.000 C 
BRANCH   3   4
ATOM      4  C   UNL     1       3.236   3.679   5.986  1.00  0.00     0.000 C 
BRANCH   4   5
ATOM      5  C   UNL     1       3.748   2.925   4.746  1.00  0.00     0.000 C 
BRANCH   5   6
ATOM      6  C   UNL     1       3.268   3.534   3.408  1.00  0.00     0.000 C 
BRANCH   6   7
ATOM      7  C   UNL     1       4.304   4.454   2.731  1.00  0.00     0.000 C 
BRANCH   7   8
ATOM      8  C   UNL     1       3.758   5.817   2.268  1.00  0.00     0.000 C 
BRANCH   8   9
ATOM      9  C   UNL     1       4.579   7.011   2.786  1.00  0.00     0.000 C 
BRANCH   9  10
ATOM     10  C   UNL     1       5.830   6.560   3.568  1.00  0.00     0.000 C 
BRANCH  10  11
ATOM     11  C   UNL     1       7.159   7.048   2.966  1.00  0.00     0.000 C 
BRANCH  11  12
ATOM     12  C   UNL     1       8.035   5.948   2.345  1.00  0.00     0.006 C 
BRANCH  12  13
ATOM     13  C   UNL     1       8.231   6.126   0.833  1.00  0.00     0.053 C 
BRANCH  13  14
ATOM     14  C   UNL     1       7.650   4.965   0.089  1.00  0.00     0.041 C 
ATOM     15  O   UNL     1       6.402   4.840  -0.009  1.00  0.00    -0.550 OA
ATOM     16  O   UNL     1       8.483   3.990  -0.442  1.00  0.00    -0.550 OA
ENDBRANCH  13  14
ENDBRANCH  12  13
ENDBRANCH  11  12
ENDBRANCH  10  11
ENDBRANCH   9  10
ENDBRANCH   8   9
ENDBRANCH   7   8
ENDBRANCH   6   7
ENDBRANCH   5   6
ENDBRANCH   4   5
ENDBRANCH   3   4
ENDBRANCH   2   3
ENDBRANCH   1   2
BRANCH   1  17
ATOM     17  C   UNL     1       1.344   6.767   5.057  1.00  0.00     0.000 C 
BRANCH  17  18
ATOM     18  C   UNL     1       0.616   5.733   4.183  1.00  0.00     0.000 C 
BRANCH  18  19
ATOM     19  C   UNL     1      -0.888   5.724   4.473  1.00  0.00     0.000 C 
BRANCH  19  20
ATOM     20  C   UNL     1      -1.697   5.923   3.185  1.00  0.00     0.000 C 
BRANCH  20  21
ATOM     21  C   UNL     1      -3.080   5.261   3.296  1.00  0.00     0.000 C 
BRANCH  21  22
ATOM     22  C   UNL     1      -3.944   5.859   4.425  1.00  0.00    -0.000 C 
BRANCH  22  23
ATOM     23  C   UNL     1      -4.407   4.851   5.500  1.00  0.00    -0.000 C 
BRANCH  23  24
ATOM     24  C   UNL     1      -3.906   3.412   5.273  1.00  0.00    -0.000 C 
BRANCH  24  25
ATOM     25  C   UNL     1      -3.215   2.823   6.516  1.00  0.00    -0.000 C 
BRANCH  25  26
ATOM     26  C   UNL     1      -1.680   2.884   6.411  1.00  0.00    -0.000 C 
BRANCH  26  27
ATOM     27  C   UNL     1      -0.970   2.696   7.765  1.00  0.00    -0.000 C 
BRANCH  27  28
ATOM     28  C   UNL     1       0.379   1.970   7.619  1.00  0.00    -0.000 C 
BRANCH  28  29
ATOM     29  C   UNL     1       0.514   1.241   6.273  1.00  0.00    -0.003 C 
ATOM     30  C   UNL     1       1.546   0.111   6.310  1.00  0.00     0.004 C 
ENDBRANCH  28  29
ENDBRANCH  27  28
ENDBRANCH  26  27
ENDBRANCH  25  26
ENDBRANCH  24  25
ENDBRANCH  23  24
ENDBRANCH  22  23
ENDBRANCH  21  22
ENDBRANCH  20  21
ENDBRANCH  19  20
ENDBRANCH  18  19
ENDBRANCH  17  18
ENDBRANCH   1  17
TORSDOF 26
ENDMDL
MODEL 8
REMARK VINA RESULT:    -3.037     10.179     13.895
REMARK INTER + INTRA:         -12.023
REMARK INTER:                  -7.869
REMARK INTRA:                  -4.154
REMARK UNBOUND:                -4.369
REMARK SMILES CCCCCCCCCCCCCCCCCCCCCCCCCCCC(=O)[O-]
REMARK SMILES IDX 15 1 16 2 17 3 18 4 19 5 20 6 21 7 22 8 23 9 24 10 25 11
REMARK SMILES IDX 26 12 27 13 28 14 29 15 30 16 14 17 13 18 12 19 11 20 10 21
REMARK SMILES IDX 9 22 8 23 7 24 6 25 5 26 4 27 3 28 2 29 1 30
REMARK H PARENT
REMARK Flexibility Score: inf
ROOT
ATOM      1  C   UNL     1       1.399   8.494   2.098  1.00  0.00     0.000 C 
ENDROOT
BRANCH   1   2
ATOM      2  C   UNL     1       1.435   7.684   3.407  1.00  0.00     0.000 C 
BRANCH   2   3
ATOM      3  C   UNL     1       0.728   6.315   3.310  1.00  0.00     0.000 C 
BRANCH   3   4
ATOM      4  C   UNL     1       0.335   5.753   4.687  1.00  0.00     0.000 C 
BRANCH   4   5
ATOM      5  C   UNL     1       1.249   4.600   5.137  1.00  0.00     0.000 C 
BRANCH   5   6
ATOM      6  C   UNL     1       1.903   3.833   3.965  1.00  0.00     0.000 C 
BRANCH   6   7
ATOM      7  C   UNL     1       3.438   3.722   4.067  1.00  0.00     0.000 C 
BRANCH   7   8
ATOM      8  C   UNL     1       4.210   4.982   3.633  1.00  0.00     0.000 C 
BRANCH   8   9
ATOM      9  C   UNL     1       4.184   5.219   2.113  1.00  0.00     0.000 C 
BRANCH   9  10
ATOM     10  C   UNL     1       5.569   5.621   1.564  1.00  0.00     0.000 C 
BRANCH  10  11
ATOM     11  C   UNL     1       6.567   6.076   2.644  1.00  0.00     0.000 C 
BRANCH  11  12
ATOM     12  C   UNL     1       8.006   6.296   2.149  1.00  0.00     0.006 C 
BRANCH  12  13
ATOM     13  C   UNL     1       8.173   5.994   0.653  1.00  0.00     0.053 C 
BRANCH  13  14
ATOM     14  C   UNL     1       9.032   4.785   0.456  1.00  0.00     0.041 C 
ATOM     15  O   UNL     1       9.851   4.442   1.347  1.00  0.00    -0.550 OA
ATOM     16  O   UNL     1       8.973   4.075  -0.735  1.00  0.00    -0.550 OA
ENDBRANCH  13  14
ENDBRANCH  12  13
ENDBRANCH  11  12
ENDBRANCH  10  11
ENDBRANCH   9  10
ENDBRANCH   8   9
ENDBRANCH   7   8
ENDBRANCH   6   7
ENDBRANCH   5   6
ENDBRANCH   4   5
ENDBRANCH   3   4
ENDBRANCH   2   3
ENDBRANCH   1   2
BRANCH   1  17
ATOM     17  C   UNL     1       1.447   7.646   0.815  1.00  0.00     0.000 C 
BRANCH  17  18
ATOM     18  C   UNL     1       0.192   7.823  -0.055  1.00  0.00     0.000 C 
BRANCH  18  19
ATOM     19  C   UNL     1      -0.606   9.061   0.369  1.00  0.00     0.000 C 
BRANCH  19  20
ATOM     20  C   UNL     1      -2.087   8.719   0.571  1.00  0.00     0.000 C 
BRANCH  20  21
ATOM     21  C   UNL     1      -2.287   7.860   1.830  1.00  0.00     0.000 C 
BRANCH  21  22
ATOM     22  C   UNL     1      -3.120   6.591   1.566  1.00  0.00    -0.000 C 
BRANCH  22  23
ATOM     23  C   UNL     1      -2.306   5.282   1.455  1.00  0.00    -0.000 C 
BRANCH  23  24
ATOM     24  C   UNL     1      -2.588   4.470   0.178  1.00  0.00    -0.000 C 
BRANCH  24  25
ATOM     25  C   UNL     1      -2.318   5.273  -1.107  1.00  0.00    -0.000 C 
BRANCH  25  26
ATOM     26  C   UNL     1      -3.585   5.444  -1.963  1.00  0.00    -0.000 C 
BRANCH  26  27
ATOM     27  C   UNL     1      -4.061   6.906  -2.061  1.00  0.00    -0.000 C 
BRANCH  27  28
ATOM     28  C   UNL     1      -5.365   7.148  -1.280  1.00  0.00    -0.000 C 
BRANCH  28  29
ATOM     29  C   UNL     1      -5.847   8.605  -1.374  1.00  0.00    -0.003 C 
ATOM     30  C   UNL     1      -4.750   9.564  -1.842  1.00  0.00     0.004 C 
ENDBRANCH  28  29
ENDBRANCH  27  28
ENDBRANCH  26  27
ENDBRANCH  25  26
ENDBRANCH  24  25
ENDBRANCH  23  24
ENDBRANCH  22  23
ENDBRANCH  21  22
ENDBRANCH  20  21
ENDBRANCH  19  20
ENDBRANCH  18  19
ENDBRANCH  17  18
ENDBRANCH   1  17
TORSDOF 26
ENDMDL
MODEL 9
REMARK VINA RESULT:    -3.016      1.251      3.165
REMARK INTER + INTRA:         -11.968
REMARK INTER:                  -6.672
REMARK INTRA:                  -5.296
REMARK UNBOUND:                -4.369
REMARK SMILES CCCCCCCCCCCCCCCCCCCCCCCCCCCC(=O)[O-]
REMARK SMILES IDX 15 1 16 2 17 3 18 4 19 5 20 6 21 7 22 8 23 9 24 10 25 11
REMARK SMILES IDX 26 12 27 13 28 14 29 15 30 16 14 17 13 18 12 19 11 20 10 21
REMARK SMILES IDX 9 22 8 23 7 24 6 25 5 26 4 27 3 28 2 29 1 30
REMARK H PARENT
REMARK Flexibility Score: inf
ROOT
ATOM      1  C   UNL     1       5.687  -2.621  -4.510  1.00  0.00     0.000 C 
ENDROOT
BRANCH   1   2
ATOM      2  C   UNL     1       7.063  -3.239  -4.200  1.00  0.00     0.000 C 
BRANCH   2   3
ATOM      3  C   UNL     1       8.214  -2.212  -4.171  1.00  0.00     0.000 C 
BRANCH   3   4
ATOM      4  C   UNL     1       9.261  -2.463  -5.270  1.00  0.00     0.000 C 
BRANCH   4   5
ATOM      5  C   UNL     1       8.846  -3.587  -6.235  1.00  0.00     0.000 C 
BRANCH   5   6
ATOM      6  C   UNL     1       8.728  -3.129  -7.707  1.00  0.00     0.000 C 
BRANCH   6   7
ATOM      7  C   UNL     1       7.762  -1.945  -7.919  1.00  0.00     0.000 C 
BRANCH   7   8
ATOM      8  C   UNL     1       8.443  -0.599  -8.229  1.00  0.00     0.000 C 
BRANCH   8   9
ATOM      9  C   UNL     1       8.027   0.530  -7.270  1.00  0.00     0.000 C 
BRANCH   9  10
ATOM     10  C   UNL     1       6.687   0.231  -6.567  1.00  0.00     0.000 C 
BRANCH  10  11
ATOM     11  C   UNL     1       5.458   0.831  -7.271  1.00  0.00     0.000 C 
BRANCH  11  12
ATOM     12  C   UNL     1       4.103   0.456  -6.647  1.00  0.00     0.006 C 
BRANCH  12  13
ATOM     13  C   UNL     1       3.973   0.916  -5.188  1.00  0.00     0.053 C 
BRANCH  13  14
ATOM     14  C   UNL     1       2.845   1.889  -5.045  1.00  0.00     0.041 C 
ATOM     15  O   UNL     1       2.456   2.554  -6.039  1.00  0.00    -0.550 OA
ATOM     16  O   UNL     1       2.265   2.106  -3.802  1.00  0.00    -0.550 OA
ENDBRANCH  13  14
ENDBRANCH  12  13
ENDBRANCH  11  12
ENDBRANCH  10  11
ENDBRANCH   9  10
ENDBRANCH   8   9
ENDBRANCH   7   8
ENDBRANCH   6   7
ENDBRANCH   5   6
ENDBRANCH   4   5
ENDBRANCH   3   4
ENDBRANCH   2   3
ENDBRANCH   1   2
BRANCH   1  17
ATOM     17  C   UNL     1       5.113  -2.987  -5.889  1.00  0.00     0.000 C 
BRANCH  17  18
ATOM     18  C   UNL     1       3.835  -3.836  -5.788  1.00  0.00     0.000 C 
BRANCH  18  19
ATOM     19  C   UNL     1       4.004  -5.178  -6.507  1.00  0.00     0.000 C 
BRANCH  19  20
ATOM     20  C   UNL     1       5.481  -5.459  -6.808  1.00  0.00     0.000 C 
BRANCH  20  21
ATOM     21  C   UNL     1       5.846  -6.912  -6.465  1.00  0.00     0.000 C 
BRANCH  21  22
ATOM     22  C   UNL     1       7.185  -7.033  -5.710  1.00  0.00    -0.000 C 
BRANCH  22  23
ATOM     23  C   UNL     1       7.164  -6.520  -4.253  1.00  0.00    -0.000 C 
BRANCH  23  24
ATOM     24  C   UNL     1       6.790  -7.592  -3.212  1.00  0.00    -0.000 C 
BRANCH  24  25
ATOM     25  C   UNL     1       5.540  -7.216  -2.398  1.00  0.00    -0.000 C 
BRANCH  25  26
ATOM     26  C   UNL     1       4.849  -5.952  -2.944  1.00  0.00    -0.000 C 
BRANCH  26  27
ATOM     27  C   UNL     1       3.320  -5.970  -2.764  1.00  0.00    -0.000 C 
BRANCH  27  28
ATOM     28  C   UNL     1       2.736  -7.390  -2.875  1.00  0.00    -0.000 C 
BRANCH  28  29
ATOM     29  C   UNL     1       2.354  -7.758  -4.318  1.00  0.00    -0.003 C 
ATOM     30  C   UNL     1       1.190  -6.922  -4.856  1.00  0.00     0.004 C 
ENDBRANCH  28  29
ENDBRANCH  27  28
ENDBRANCH  26  27
ENDBRANCH  25  26
ENDBRANCH  24  25
ENDBRANCH  23  24
ENDBRANCH  22  23
ENDBRANCH  21  22
ENDBRANCH  20  21
ENDBRANCH  19  20
ENDBRANCH  18  19
ENDBRANCH  17  18
ENDBRANCH   1  17
TORSDOF 26
ENDMDL
