MODEL 1
REMARK VINA RESULT:    -4.914      0.000      0.000
REMARK INTER + INTRA:         -10.001
REMARK INTER:                  -8.936
REMARK INTRA:                  -1.064
REMARK UNBOUND:                -1.064
REMARK SMILES CCCCCCCCCCCCCCCC(=O)[O-]
REMARK SMILES IDX 9 1 10 2 11 3 12 4 13 5 14 6 15 7 16 8 17 9 18 10 8 11 7 12
REMARK SMILES IDX 6 13 5 14 4 15 3 16 2 17 1 18
REMARK H PARENT
REMARK Flexibility Score: inf
ROOT
ATOM      1  C   UNL     1      -4.313   1.081  11.764  1.00  0.00     0.000 C 
ENDROOT
BRANCH   1   2
ATOM      2  C   UNL     1      -5.180   0.927  13.028  1.00  0.00     0.000 C 
BRANCH   2   3
ATOM      3  C   UNL     1      -5.452   2.235  13.794  1.00  0.00     0.000 C 
BRANCH   3   4
ATOM      4  C   UNL     1      -4.962   2.189  15.251  1.00  0.00     0.000 C 
BRANCH   4   5
ATOM      5  C   UNL     1      -5.997   2.750  16.239  1.00  0.00     0.000 C 
BRANCH   5   6
ATOM      6  C   UNL     1      -7.195   3.409  15.534  1.00  0.00     0.006 C 
BRANCH   6   7
ATOM      7  C   UNL     1      -7.745   4.604  16.323  1.00  0.00     0.053 C 
BRANCH   7   8
ATOM      8  C   UNL     1      -6.700   5.655  16.536  1.00  0.00     0.041 C 
ATOM      9  O   UNL     1      -6.388   6.013  17.702  1.00  0.00    -0.550 OA
ATOM     10  O   UNL     1      -6.094   6.265  15.444  1.00  0.00    -0.550 OA
ENDBRANCH   7   8
ENDBRANCH   6   7
ENDBRANCH   5   6
ENDBRANCH   4   5
ENDBRANCH   3   4
ENDBRANCH   2   3
ENDBRANCH   1   2
BRANCH   1  11
ATOM     11  C   UNL     1      -3.943  -0.268  11.124  1.00  0.00     0.000 C 
BRANCH  11  12
ATOM     12  C   UNL     1      -3.853  -0.187   9.593  1.00  0.00    -0.000 C 
BRANCH  12  13
ATOM     13  C   UNL     1      -4.270  -1.501   8.908  1.00  0.00    -0.000 C 
BRANCH  13  14
ATOM     14  C   UNL     1      -3.066  -2.368   8.496  1.00  0.00    -0.000 C 
BRANCH  14  15
ATOM     15  C   UNL     1      -2.934  -3.698   9.260  1.00  0.00    -0.000 C 
BRANCH  15  16
ATOM     16  C   UNL     1      -4.142  -3.997  10.159  1.00  0.00    -0.000 C 
BRANCH  16  17
ATOM     17  C   UNL     1      -3.742  -3.981  11.639  1.00  0.00    -0.003 C 
ATOM     18  C   UNL     1      -2.293  -3.538  11.813  1.00  0.00     0.004 C 
ENDBRANCH  16  17
ENDBRANCH  15  16
ENDBRANCH  14  15
ENDBRANCH  13  14
ENDBRANCH  12  13
ENDBRANCH  11  12
ENDBRANCH   1  11
TORSDOF 14
ENDMDL
MODEL 2
REMARK VINA RESULT:    -4.803      1.392      1.924
REMARK INTER + INTRA:          -9.798
REMARK INTER:                  -8.832
REMARK INTRA:                  -0.966
REMARK UNBOUND:                -1.064
REMARK SMILES CCCCCCCCCCCCCCCC(=O)[O-]
REMARK SMILES IDX 9 1 10 2 11 3 12 4 13 5 14 6 15 7 16 8 17 9 18 10 8 11 7 12
REMARK SMILES IDX 6 13 5 14 4 15 3 16 2 17 1 18
REMARK H PARENT
REMARK Flexibility Score: inf
ROOT
ATOM      1  C   UNL     1      -3.229   1.208  11.630  1.00  0.00     0.000 C 
ENDROOT
BRANCH   1   2
ATOM      2  C   UNL     1      -2.591   1.113  13.029  1.00  0.00     0.000 C 
BRANCH   2   3
ATOM      3  C   UNL     1      -3.537   1.440  14.199  1.00  0.00     0.000 C 
BRANCH   3   4
ATOM      4  C   UNL     1      -5.018   1.467  13.784  1.00  0.00     0.000 C 
BRANCH   4   5
ATOM      5  C   UNL     1      -5.754   2.713  14.302  1.00  0.00     0.000 C 
BRANCH   5   6
ATOM      6  C   UNL     1      -5.594   2.908  15.820  1.00  0.00     0.006 C 
BRANCH   6   7
ATOM      7  C   UNL     1      -6.936   2.829  16.558  1.00  0.00     0.053 C 
BRANCH   7   8
ATOM      8  C   UNL     1      -7.806   4.009  16.253  1.00  0.00     0.041 C 
ATOM      9  O   UNL     1      -8.865   3.863  15.588  1.00  0.00    -0.550 OA
ATOM     10  O   UNL     1      -7.429   5.279  16.674  1.00  0.00    -0.550 OA
ENDBRANCH   7   8
ENDBRANCH   6   7
ENDBRANCH   5   6
ENDBRANCH   4   5
ENDBRANCH   3   4
ENDBRANCH   2   3
ENDBRANCH   1   2
BRANCH   1  11
ATOM     11  C   UNL     1      -3.196  -0.128  10.867  1.00  0.00     0.000 C 
BRANCH  11  12
ATOM     12  C   UNL     1      -3.699   0.009   9.422  1.00  0.00    -0.000 C 
BRANCH  12  13
ATOM     13  C   UNL     1      -4.334  -1.290   8.894  1.00  0.00    -0.000 C 
BRANCH  13  14
ATOM     14  C   UNL     1      -3.289  -2.363   8.538  1.00  0.00    -0.000 C 
BRANCH  14  15
ATOM     15  C   UNL     1      -3.558  -3.754   9.140  1.00  0.00    -0.000 C 
BRANCH  15  16
ATOM     16  C   UNL     1      -3.292  -3.816  10.651  1.00  0.00    -0.000 C 
BRANCH  16  17
ATOM     17  C   UNL     1      -4.402  -4.588  11.373  1.00  0.00    -0.003 C 
ATOM     18  C   UNL     1      -5.381  -5.205  10.378  1.00  0.00     0.004 C 
ENDBRANCH  16  17
ENDBRANCH  15  16
ENDBRANCH  14  15
ENDBRANCH  13  14
ENDBRANCH  12  13
ENDBRANCH  11  12
ENDBRANCH   1  11
TORSDOF 14
ENDMDL
MODEL 3
REMARK VINA RESULT:    -4.669      4.172      8.761
REMARK INTER + INTRA:          -9.554
REMARK INTER:                  -8.546
REMARK INTRA:                  -1.008
REMARK UNBOUND:                -1.064
REMARK SMILES CCCCCCCCCCCCCCCC(=O)[O-]
REMARK SMILES IDX 9 1 10 2 11 3 12 4 13 5 14 6 15 7 16 8 17 9 18 10 8 11 7 12
REMARK SMILES IDX 6 13 5 14 4 15 3 16 2 17 1 18
REMARK H PARENT
REMARK Flexibility Score: inf
ROOT
ATOM      1  C   UNL     1      -3.930   2.647  11.110  1.00  0.00     0.000 C 
ENDROOT
BRANCH   1   2
ATOM      2  C   UNL     1      -3.043   2.304   9.898  1.00  0.00     0.000 C 
BRANCH   2   3
ATOM      3  C   UNL     1      -2.610   0.830   9.806  1.00  0.00     0.000 C 
BRANCH   3   4
ATOM      4  C   UNL     1      -3.725  -0.092   9.285  1.00  0.00     0.000 C 
BRANCH   4   5
ATOM      5  C   UNL     1      -3.681  -1.490   9.923  1.00  0.00     0.000 C 
BRANCH   5   6
ATOM      6  C   UNL     1      -3.681  -2.619   8.878  1.00  0.00     0.006 C 
BRANCH   6   7
ATOM      7  C   UNL     1      -3.324  -3.978   9.494  1.00  0.00     0.053 C 
BRANCH   7   8
ATOM      8  C   UNL     1      -4.449  -4.524  10.319  1.00  0.00     0.041 C 
ATOM      9  O   UNL     1      -5.463  -5.020   9.761  1.00  0.00    -0.550 OA
ATOM     10  O   UNL     1      -4.393  -4.454  11.706  1.00  0.00    -0.550 OA
ENDBRANCH   7   8
ENDBRANCH   6   7
ENDBRANCH   5   6
ENDBRANCH   4   5
ENDBRANCH   3   4
ENDBRANCH   2   3
ENDBRANCH   1   2
BRANCH   1  11
ATOM     11  C   UNL     1      -3.588   1.812  12.356  1.00  0.00     0.000 C 
BRANCH  11  12
ATOM     12  C   UNL     1      -4.796   1.023  12.883  1.00  0.00    -0.000 C 
BRANCH  12  13
ATOM     13  C   UNL     1      -5.623   1.824  13.903  1.00  0.00    -0.000 C 
BRANCH  13  14
ATOM     14  C   UNL     1      -4.806   2.242  15.139  1.00  0.00    -0.000 C 
BRANCH  14  15
ATOM     15  C   UNL     1      -5.475   3.304  16.030  1.00  0.00    -0.000 C 
BRANCH  15  16
ATOM     16  C   UNL     1      -6.937   2.976  16.361  1.00  0.00    -0.000 C 
BRANCH  16  17
ATOM     17  C   UNL     1      -7.834   4.202  16.162  1.00  0.00    -0.003 C 
ATOM     18  C   UNL     1      -8.586   4.126  14.836  1.00  0.00     0.004 C 
ENDBRANCH  16  17
ENDBRANCH  15  16
ENDBRANCH  14  15
ENDBRANCH  13  14
ENDBRANCH  12  13
ENDBRANCH  11  12
ENDBRANCH   1  11
TORSDOF 14
ENDMDL
MODEL 4
REMARK VINA RESULT:    -4.647      1.740      3.062
REMARK INTER + INTRA:          -9.514
REMARK INTER:                  -7.564
REMARK INTRA:                  -1.950
REMARK UNBOUND:                -1.064
REMARK SMILES CCCCCCCCCCCCCCCC(=O)[O-]
REMARK SMILES IDX 9 1 10 2 11 3 12 4 13 5 14 6 15 7 16 8 17 9 18 10 8 11 7 12
REMARK SMILES IDX 6 13 5 14 4 15 3 16 2 17 1 18
REMARK H PARENT
REMARK Flexibility Score: inf
ROOT
ATOM      1  C   UNL     1      -1.730   0.649  11.880  1.00  0.00     0.000 C 
ENDROOT
BRANCH   1   2
ATOM      2  C   UNL     1      -3.137   1.183  11.552  1.00  0.00     0.000 C 
BRANCH   2   3
ATOM      3  C   UNL     1      -4.299   0.314  12.066  1.00  0.00     0.000 C 
BRANCH   3   4
ATOM      4  C   UNL     1      -5.192   1.047  13.082  1.00  0.00     0.000 C 
BRANCH   4   5
ATOM      5  C   UNL     1      -4.466   1.332  14.407  1.00  0.00     0.000 C 
BRANCH   5   6
ATOM      6  C   UNL     1      -4.825   2.707  14.996  1.00  0.00     0.006 C 
BRANCH   6   7
ATOM      7  C   UNL     1      -6.244   3.148  14.612  1.00  0.00     0.053 C 
BRANCH   7   8
ATOM      8  C   UNL     1      -7.166   3.135  15.792  1.00  0.00     0.041 C 
ATOM      9  O   UNL     1      -8.227   3.813  15.776  1.00  0.00    -0.550 OA
ATOM     10  O   UNL     1      -6.838   2.398  16.924  1.00  0.00    -0.550 OA
ENDBRANCH   7   8
ENDBRANCH   6   7
ENDBRANCH   5   6
ENDBRANCH   4   5
ENDBRANCH   3   4
ENDBRANCH   2   3
ENDBRANCH   1   2
BRANCH   1  11
ATOM     11  C   UNL     1      -1.723  -0.854  12.211  1.00  0.00     0.000 C 
BRANCH  11  12
ATOM     12  C   UNL     1      -0.721  -1.640  11.353  1.00  0.00    -0.000 C 
BRANCH  12  13
ATOM     13  C   UNL     1      -1.168  -3.092  11.108  1.00  0.00    -0.000 C 
BRANCH  13  14
ATOM     14  C   UNL     1      -2.445  -3.464  11.884  1.00  0.00    -0.000 C 
BRANCH  14  15
ATOM     15  C   UNL     1      -3.667  -3.786  11.006  1.00  0.00    -0.000 C 
BRANCH  15  16
ATOM     16  C   UNL     1      -3.458  -3.423   9.529  1.00  0.00    -0.000 C 
BRANCH  16  17
ATOM     17  C   UNL     1      -4.166  -2.110   9.181  1.00  0.00    -0.003 C 
ATOM     18  C   UNL     1      -3.192  -1.100   8.581  1.00  0.00     0.004 C 
ENDBRANCH  16  17
ENDBRANCH  15  16
ENDBRANCH  14  15
ENDBRANCH  13  14
ENDBRANCH  12  13
ENDBRANCH  11  12
ENDBRANCH   1  11
TORSDOF 14
ENDMDL
MODEL 5
REMARK VINA RESULT:    -4.628      1.686      2.910
REMARK INTER + INTRA:          -9.480
REMARK INTER:                  -7.827
REMARK INTRA:                  -1.654
REMARK UNBOUND:                -1.064
REMARK SMILES CCCCCCCCCCCCCCCC(=O)[O-]
REMARK SMILES IDX 9 1 10 2 11 3 12 4 13 5 14 6 15 7 16 8 17 9 18 10 8 11 7 12
REMARK SMILES IDX 6 13 5 14 4 15 3 16 2 17 1 18
REMARK H PARENT
REMARK Flexibility Score: inf
ROOT
ATOM      1  C   UNL     1      -3.318   0.176   9.312  1.00  0.00     0.000 C 
ENDROOT
BRANCH   1   2
ATOM      2  C   UNL     1      -4.009   1.055  10.371  1.00  0.00     0.000 C 
BRANCH   2   3
ATOM      3  C   UNL     1      -3.694   0.682  11.832  1.00  0.00     0.000 C 
BRANCH   3   4
ATOM      4  C   UNL     1      -4.950   0.617  12.718  1.00  0.00     0.000 C 
BRANCH   4   5
ATOM      5  C   UNL     1      -4.767   1.353  14.055  1.00  0.00     0.000 C 
BRANCH   5   6
ATOM      6  C   UNL     1      -5.642   2.615  14.161  1.00  0.00     0.006 C 
BRANCH   6   7
ATOM      7  C   UNL     1      -5.296   3.456  15.397  1.00  0.00     0.053 C 
BRANCH   7   8
ATOM      8  C   UNL     1      -6.435   3.508  16.367  1.00  0.00     0.041 C 
ATOM      9  O   UNL     1      -6.986   2.445  16.757  1.00  0.00    -0.550 OA
ATOM     10  O   UNL     1      -6.913   4.734  16.815  1.00  0.00    -0.550 OA
ENDBRANCH   7   8
ENDBRANCH   6   7
ENDBRANCH   5   6
ENDBRANCH   4   5
ENDBRANCH   3   4
ENDBRANCH   2   3
ENDBRANCH   1   2
BRANCH   1  11
ATOM     11  C   UNL     1      -4.174  -1.029   8.884  1.00  0.00     0.000 C 
BRANCH  11  12
ATOM     12  C   UNL     1      -3.325  -2.271   8.571  1.00  0.00    -0.000 C 
BRANCH  12  13
ATOM     13  C   UNL     1      -3.788  -3.512   9.353  1.00  0.00    -0.000 C 
BRANCH  13  14
ATOM     14  C   UNL     1      -3.636  -3.350  10.876  1.00  0.00    -0.000 C 
BRANCH  14  15
ATOM     15  C   UNL     1      -2.196  -3.493  11.403  1.00  0.00    -0.000 C 
BRANCH  15  16
ATOM     16  C   UNL     1      -1.604  -2.165  11.897  1.00  0.00    -0.000 C 
BRANCH  16  17
ATOM     17  C   UNL     1      -0.521  -1.656  10.941  1.00  0.00    -0.003 C 
ATOM     18  C   UNL     1      -0.074  -0.246  11.314  1.00  0.00     0.004 C 
ENDBRANCH  16  17
ENDBRANCH  15  16
ENDBRANCH  14  15
ENDBRANCH  13  14
ENDBRANCH  12  13
ENDBRANCH  11  12
ENDBRANCH   1  11
TORSDOF 14
ENDMDL
MODEL 6
REMARK VINA RESULT:    -4.621      1.398      3.305
REMARK INTER + INTRA:          -9.467
REMARK INTER:                  -7.884
REMARK INTRA:                  -1.583
REMARK UNBOUND:                -1.064
REMARK SMILES CCCCCCCCCCCCCCCC(=O)[O-]
REMARK SMILES IDX 9 1 10 2 11 3 12 4 13 5 14 6 15 7 16 8 17 9 18 10 8 11 7 12
REMARK SMILES IDX 6 13 5 14 4 15 3 16 2 17 1 18
REMARK H PARENT
REMARK Flexibility Score: inf
ROOT
ATOM      1  C   UNL     1      -2.942  -0.799   8.706  1.00  0.00     0.000 C 
ENDROOT
BRANCH   1   2
ATOM      2  C   UNL     1      -3.102   0.372   9.694  1.00  0.00     0.000 C 
BRANCH   2   3
ATOM      3  C   UNL     1      -3.948   0.059  10.942  1.00  0.00     0.000 C 
BRANCH   3   4
ATOM      4  C   UNL     1      -4.397   1.323  11.695  1.00  0.00     0.000 C 
BRANCH   4   5
ATOM      5  C   UNL     1      -5.105   1.000  13.020  1.00  0.00     0.000 C 
BRANCH   5   6
ATOM      6  C   UNL     1      -5.516   2.264  13.796  1.00  0.00     0.006 C 
BRANCH   6   7
ATOM      7  C   UNL     1      -5.102   2.197  15.272  1.00  0.00     0.053 C 
BRANCH   7   8
ATOM      8  C   UNL     1      -5.706   3.313  16.068  1.00  0.00     0.041 C 
ATOM      9  O   UNL     1      -6.844   3.177  16.588  1.00  0.00    -0.550 OA
ATOM     10  O   UNL     1      -5.025   4.516  16.207  1.00  0.00    -0.550 OA
ENDBRANCH   7   8
ENDBRANCH   6   7
ENDBRANCH   5   6
ENDBRANCH   4   5
ENDBRANCH   3   4
ENDBRANCH   2   3
ENDBRANCH   1   2
BRANCH   1  11
ATOM     11  C   UNL     1      -3.970  -1.921   8.936  1.00  0.00     0.000 C 
BRANCH  11  12
ATOM     12  C   UNL     1      -3.354  -3.320   8.797  1.00  0.00    -0.000 C 
BRANCH  12  13
ATOM     13  C   UNL     1      -3.769  -4.262   9.942  1.00  0.00    -0.000 C 
BRANCH  13  14
ATOM     14  C   UNL     1      -3.632  -3.612  11.330  1.00  0.00    -0.000 C 
BRANCH  14  15
ATOM     15  C   UNL     1      -2.232  -3.720  11.961  1.00  0.00    -0.000 C 
BRANCH  15  16
ATOM     16  C   UNL     1      -1.416  -2.425  11.838  1.00  0.00    -0.000 C 
BRANCH  16  17
ATOM     17  C   UNL     1       0.002  -2.715  11.338  1.00  0.00    -0.003 C 
ATOM     18  C   UNL     1      -0.008  -3.757  10.223  1.00  0.00     0.004 C 
ENDBRANCH  16  17
ENDBRANCH  15  16
ENDBRANCH  14  15
ENDBRANCH  13  14
ENDBRANCH  12  13
ENDBRANCH  11  12
ENDBRANCH   1  11
TORSDOF 14
ENDMDL
MODEL 7
REMARK VINA RESULT:    -4.557      4.138      9.005
REMARK INTER + INTRA:          -9.352
REMARK INTER:                  -8.032
REMARK INTRA:                  -1.320
REMARK UNBOUND:                -1.064
REMARK SMILES CCCCCCCCCCCCCCCC(=O)[O-]
REMARK SMILES IDX 9 1 10 2 11 3 12 4 13 5 14 6 15 7 16 8 17 9 18 10 8 11 7 12
REMARK SMILES IDX 6 13 5 14 4 15 3 16 2 17 1 18
REMARK H PARENT
REMARK Flexibility Score: inf
ROOT
ATOM      1  C   UNL     1      -5.268   2.336  13.776  1.00  0.00     0.000 C 
ENDROOT
BRANCH   1   2
ATOM      2  C   UNL     1      -5.438   1.019  12.996  1.00  0.00     0.000 C 
BRANCH   2   3
ATOM      3  C   UNL     1      -4.259   0.650  12.077  1.00  0.00     0.000 C 
BRANCH   3   4
ATOM      4  C   UNL     1      -4.332   1.336  10.702  1.00  0.00     0.000 C 
BRANCH   4   5
ATOM      5  C   UNL     1      -3.551   0.575   9.620  1.00  0.00     0.000 C 
BRANCH   5   6
ATOM      6  C   UNL     1      -3.245  -0.879  10.021  1.00  0.00     0.006 C 
BRANCH   6   7
ATOM      7  C   UNL     1      -4.092  -1.887   9.234  1.00  0.00     0.053 C 
BRANCH   7   8
ATOM      8  C   UNL     1      -3.909  -3.283   9.745  1.00  0.00     0.041 C 
ATOM      9  O   UNL     1      -4.719  -4.190   9.418  1.00  0.00    -0.550 OA
ATOM     10  O   UNL     1      -2.862  -3.575  10.610  1.00  0.00    -0.550 OA
ENDBRANCH   7   8
ENDBRANCH   6   7
ENDBRANCH   5   6
ENDBRANCH   4   5
ENDBRANCH   3   4
ENDBRANCH   2   3
ENDBRANCH   1   2
BRANCH   1  11
ATOM     11  C   UNL     1      -4.812   2.116  15.230  1.00  0.00     0.000 C 
BRANCH  11  12
ATOM     12  C   UNL     1      -5.473   3.099  16.207  1.00  0.00    -0.000 C 
BRANCH  12  13
ATOM     13  C   UNL     1      -6.985   2.854  16.356  1.00  0.00    -0.000 C 
BRANCH  13  14
ATOM     14  C   UNL     1      -7.832   4.057  15.904  1.00  0.00    -0.000 C 
BRANCH  14  15
ATOM     15  C   UNL     1      -7.035   5.343  15.620  1.00  0.00    -0.000 C 
BRANCH  15  16
ATOM     16  C   UNL     1      -6.952   5.680  14.124  1.00  0.00    -0.000 C 
BRANCH  16  17
ATOM     17  C   UNL     1      -5.510   5.985  13.709  1.00  0.00    -0.003 C 
ATOM     18  C   UNL     1      -4.686   6.476  14.896  1.00  0.00     0.004 C 
ENDBRANCH  16  17
ENDBRANCH  15  16
ENDBRANCH  14  15
ENDBRANCH  13  14
ENDBRANCH  12  13
ENDBRANCH  11  12
ENDBRANCH   1  11
TORSDOF 14
ENDMDL
MODEL 8
REMARK VINA RESULT:    -4.554      4.336      8.190
REMARK INTER + INTRA:          -9.346
REMARK INTER:                  -7.289
REMARK INTRA:                  -2.057
REMARK UNBOUND:                -1.064
REMARK SMILES CCCCCCCCCCCCCCCC(=O)[O-]
REMARK SMILES IDX 9 1 10 2 11 3 12 4 13 5 14 6 15 7 16 8 17 9 18 10 8 11 7 12
REMARK SMILES IDX 6 13 5 14 4 15 3 16 2 17 1 18
REMARK H PARENT
REMARK Flexibility Score: inf
ROOT
ATOM      1  C   UNL     1      -5.493   1.232  13.006  1.00  0.00     0.000 C 
ENDROOT
BRANCH   1   2
ATOM      2  C   UNL     1      -4.706   1.029  11.698  1.00  0.00     0.000 C 
BRANCH   2   3
ATOM      3  C   UNL     1      -3.505   0.072  11.802  1.00  0.00     0.000 C 
BRANCH   3   4
ATOM      4  C   UNL     1      -2.720  -0.052  10.486  1.00  0.00     0.000 C 
BRANCH   4   5
ATOM      5  C   UNL     1      -3.616   0.106   9.247  1.00  0.00     0.000 C 
BRANCH   5   6
ATOM      6  C   UNL     1      -4.375  -1.185   8.896  1.00  0.00     0.006 C 
BRANCH   6   7
ATOM      7  C   UNL     1      -3.462  -2.418   8.920  1.00  0.00     0.053 C 
BRANCH   7   8
ATOM      8  C   UNL     1      -3.997  -3.485   9.824  1.00  0.00     0.041 C 
ATOM      9  O   UNL     1      -3.768  -3.442  11.062  1.00  0.00    -0.550 OA
ATOM     10  O   UNL     1      -4.721  -4.547   9.296  1.00  0.00    -0.550 OA
ENDBRANCH   7   8
ENDBRANCH   6   7
ENDBRANCH   5   6
ENDBRANCH   4   5
ENDBRANCH   3   4
ENDBRANCH   2   3
ENDBRANCH   1   2
BRANCH   1  11
ATOM     11  C   UNL     1      -4.580   1.367  14.238  1.00  0.00     0.000 C 
BRANCH  11  12
ATOM     12  C   UNL     1      -4.911   2.606  15.082  1.00  0.00    -0.000 C 
BRANCH  12  13
ATOM     13  C   UNL     1      -5.495   3.753  14.238  1.00  0.00    -0.000 C 
BRANCH  13  14
ATOM     14  C   UNL     1      -4.429   4.770  13.792  1.00  0.00    -0.000 C 
BRANCH  14  15
ATOM     15  C   UNL     1      -4.045   4.696  12.303  1.00  0.00    -0.000 C 
BRANCH  15  16
ATOM     16  C   UNL     1      -2.711   3.976  12.062  1.00  0.00    -0.000 C 
BRANCH  16  17
ATOM     17  C   UNL     1      -2.417   3.850  10.564  1.00  0.00    -0.003 C 
ATOM     18  C   UNL     1      -3.694   3.980   9.739  1.00  0.00     0.004 C 
ENDBRANCH  16  17
ENDBRANCH  15  16
ENDBRANCH  14  15
ENDBRANCH  13  14
ENDBRANCH  12  13
ENDBRANCH  11  12
ENDBRANCH   1  11
TORSDOF 14
ENDMDL
MODEL 9
REMARK VINA RESULT:    -4.551      3.670      8.069
REMARK INTER + INTRA:          -9.340
REMARK INTER:                  -7.240
REMARK INTRA:                  -2.100
REMARK UNBOUND:                -1.064
REMARK SMILES CCCCCCCCCCCCCCCC(=O)[O-]
REMARK SMILES IDX 9 1 10 2 11 3 12 4 13 5 14 6 15 7 16 8 17 9 18 10 8 11 7 12
REMARK SMILES IDX 6 13 5 14 4 15 3 16 2 17 1 18
REMARK H PARENT
REMARK Flexibility Score: inf
ROOT
ATOM      1  C   UNL     1      -3.329   2.292  14.391  1.00  0.00     0.000 C 
ENDROOT
BRANCH   1   2
ATOM      2  C   UNL     1      -4.532   1.368  14.122  1.00  0.00     0.000 C 
BRANCH   2   3
ATOM      3  C   UNL     1      -5.105   1.446  12.695  1.00  0.00     0.000 C 
BRANCH   3   4
ATOM      4  C   UNL     1      -4.164   2.157  11.708  1.00  0.00     0.000 C 
BRANCH   4   5
ATOM      5  C   UNL     1      -4.372   1.695  10.257  1.00  0.00     0.000 C 
BRANCH   5   6
ATOM      6  C   UNL     1      -3.308   0.681   9.800  1.00  0.00     0.006 C 
BRANCH   6   7
ATOM      7  C   UNL     1      -3.843  -0.757   9.799  1.00  0.00     0.053 C 
BRANCH   7   8
ATOM      8  C   UNL     1      -3.220  -1.580  10.884  1.00  0.00     0.041 C 
ATOM      9  O   UNL     1      -2.220  -1.147  11.515  1.00  0.00    -0.550 OA
ATOM     10  O   UNL     1      -3.723  -2.842  11.176  1.00  0.00    -0.550 OA
ENDBRANCH   7   8
ENDBRANCH   6   7
ENDBRANCH   5   6
ENDBRANCH   4   5
ENDBRANCH   3   4
ENDBRANCH   2   3
ENDBRANCH   1   2
BRANCH   1  11
ATOM     11  C   UNL     1      -3.438   3.041  15.731  1.00  0.00     0.000 C 
BRANCH  11  12
ATOM     12  C   UNL     1      -3.775   4.527  15.548  1.00  0.00    -0.000 C 
BRANCH  12  13
ATOM     13  C   UNL     1      -3.797   4.947  14.067  1.00  0.00    -0.000 C 
BRANCH  13  14
ATOM     14  C   UNL     1      -5.209   5.303  13.567  1.00  0.00    -0.000 C 
BRANCH  14  15
ATOM     15  C   UNL     1      -6.276   5.420  14.670  1.00  0.00    -0.000 C 
BRANCH  15  16
ATOM     16  C   UNL     1      -7.361   4.338  14.573  1.00  0.00    -0.000 C 
BRANCH  16  17
ATOM     17  C   UNL     1      -7.863   3.937  15.964  1.00  0.00    -0.003 C 
ATOM     18  C   UNL     1      -7.026   2.801  16.545  1.00  0.00     0.004 C 
ENDBRANCH  16  17
ENDBRANCH  15  16
ENDBRANCH  14  15
ENDBRANCH  13  14
ENDBRANCH  12  13
ENDBRANCH  11  12
ENDBRANCH   1  11
TORSDOF 14
ENDMDL
