MODEL 1
REMARK VINA RESULT:    -3.957      0.000      0.000
REMARK INTER + INTRA:          -9.208
REMARK INTER:                  -7.195
REMARK INTRA:                  -2.013
REMARK UNBOUND:                -2.013
REMARK SMILES CCCCCCCCCCCCCCCC(=O)[O-]
REMARK SMILES IDX 9 1 10 2 11 3 12 4 13 5 14 6 15 7 16 8 17 9 18 10 8 11 7 12
REMARK SMILES IDX 6 13 5 14 4 15 3 16 2 17 1 18
REMARK H PARENT
REMARK Flexibility Score: inf
ROOT
ATOM      1  C   UNL     1      10.940  -7.178  34.910  1.00  0.00     0.000 C 
ENDROOT
BRANCH   1   2
ATOM      2  C   UNL     1      10.591  -8.092  33.718  1.00  0.00     0.000 C 
BRANCH   2   3
ATOM      3  C   UNL     1       9.114  -8.519  33.632  1.00  0.00     0.000 C 
BRANCH   3   4
ATOM      4  C   UNL     1       8.148  -7.323  33.581  1.00  0.00     0.000 C 
BRANCH   4   5
ATOM      5  C   UNL     1       7.110  -7.353  34.714  1.00  0.00     0.000 C 
BRANCH   5   6
ATOM      6  C   UNL     1       7.178  -6.107  35.614  1.00  0.00     0.006 C 
BRANCH   6   7
ATOM      7  C   UNL     1       7.895  -4.936  34.928  1.00  0.00     0.053 C 
BRANCH   7   8
ATOM      8  C   UNL     1       7.519  -3.618  35.534  1.00  0.00     0.041 C 
ATOM      9  O   UNL     1       7.926  -3.312  36.685  1.00  0.00    -0.550 OA
ATOM     10  O   UNL     1       6.693  -2.743  34.840  1.00  0.00    -0.550 OA
ENDBRANCH   7   8
ENDBRANCH   6   7
ENDBRANCH   5   6
ENDBRANCH   4   5
ENDBRANCH   3   4
ENDBRANCH   2   3
ENDBRANCH   1   2
BRANCH   1  11
ATOM     11  C   UNL     1      10.765  -7.821  36.300  1.00  0.00     0.000 C 
BRANCH  11  12
ATOM     12  C   UNL     1      10.382  -6.839  37.426  1.00  0.00    -0.000 C 
BRANCH  12  13
ATOM     13  C   UNL     1      10.810  -5.378  37.185  1.00  0.00    -0.000 C 
BRANCH  13  14
ATOM     14  C   UNL     1      12.248  -5.037  37.625  1.00  0.00    -0.000 C 
BRANCH  14  15
ATOM     15  C   UNL     1      12.788  -5.871  38.801  1.00  0.00    -0.000 C 
BRANCH  15  16
ATOM     16  C   UNL     1      14.302  -6.126  38.706  1.00  0.00    -0.000 C 
BRANCH  16  17
ATOM     17  C   UNL     1      14.652  -7.621  38.778  1.00  0.00    -0.003 C 
ATOM     18  C   UNL     1      13.416  -8.519  38.825  1.00  0.00     0.004 C 
ENDBRANCH  16  17
ENDBRANCH  15  16
ENDBRANCH  14  15
ENDBRANCH  13  14
ENDBRANCH  12  13
ENDBRANCH  11  12
ENDBRANCH   1  11
TORSDOF 14
ENDMDL
MODEL 2
REMARK VINA RESULT:    -3.899      2.504      5.289
REMARK INTER + INTRA:          -9.103
REMARK INTER:                  -6.751
REMARK INTRA:                  -2.352
REMARK UNBOUND:                -2.013
REMARK SMILES CCCCCCCCCCCCCCCC(=O)[O-]
REMARK SMILES IDX 9 1 10 2 11 3 12 4 13 5 14 6 15 7 16 8 17 9 18 10 8 11 7 12
REMARK SMILES IDX 6 13 5 14 4 15 3 16 2 17 1 18
REMARK H PARENT
REMARK Flexibility Score: inf
ROOT
ATOM      1  C   UNL     1      10.476  -8.934  34.233  1.00  0.00     0.000 C 
ENDROOT
BRANCH   1   2
ATOM      2  C   UNL     1       9.666  -9.146  35.529  1.00  0.00     0.000 C 
BRANCH   2   3
ATOM      3  C   UNL     1      10.213  -8.414  36.768  1.00  0.00     0.000 C 
BRANCH   3   4
ATOM      4  C   UNL     1      10.885  -7.074  36.422  1.00  0.00     0.000 C 
BRANCH   4   5
ATOM      5  C   UNL     1      11.562  -6.421  37.638  1.00  0.00     0.000 C 
BRANCH   5   6
ATOM      6  C   UNL     1      11.628  -4.888  37.527  1.00  0.00     0.006 C 
BRANCH   6   7
ATOM      7  C   UNL     1      11.988  -4.425  36.109  1.00  0.00     0.053 C 
BRANCH   7   8
ATOM      8  C   UNL     1      13.092  -3.412  36.115  1.00  0.00     0.041 C 
ATOM      9  O   UNL     1      14.294  -3.786  36.132  1.00  0.00    -0.550 OA
ATOM     10  O   UNL     1      12.792  -2.056  36.134  1.00  0.00    -0.550 OA
ENDBRANCH   7   8
ENDBRANCH   6   7
ENDBRANCH   5   6
ENDBRANCH   4   5
ENDBRANCH   3   4
ENDBRANCH   2   3
ENDBRANCH   1   2
BRANCH   1  11
ATOM     11  C   UNL     1       9.689  -8.308  33.065  1.00  0.00     0.000 C 
BRANCH  11  12
ATOM     12  C   UNL     1       8.584  -7.318  33.482  1.00  0.00    -0.000 C 
BRANCH  12  13
ATOM     13  C   UNL     1       8.886  -5.839  33.168  1.00  0.00    -0.000 C 
BRANCH  13  14
ATOM     14  C   UNL     1       8.643  -4.859  34.333  1.00  0.00    -0.000 C 
BRANCH  14  15
ATOM     15  C   UNL     1       7.407  -5.165  35.198  1.00  0.00    -0.000 C 
BRANCH  15  16
ATOM     16  C   UNL     1       7.750  -5.350  36.685  1.00  0.00    -0.000 C 
BRANCH  16  17
ATOM     17  C   UNL     1       7.094  -6.602  37.290  1.00  0.00    -0.003 C 
ATOM     18  C   UNL     1       6.313  -7.418  36.260  1.00  0.00     0.004 C 
ENDBRANCH  16  17
ENDBRANCH  15  16
ENDBRANCH  14  15
ENDBRANCH  13  14
ENDBRANCH  12  13
ENDBRANCH  11  12
ENDBRANCH   1  11
TORSDOF 14
ENDMDL
MODEL 3
REMARK VINA RESULT:    -3.840      2.338      4.146
REMARK INTER + INTRA:          -8.995
REMARK INTER:                  -6.845
REMARK INTRA:                  -2.150
REMARK UNBOUND:                -2.013
REMARK SMILES CCCCCCCCCCCCCCCC(=O)[O-]
REMARK SMILES IDX 9 1 10 2 11 3 12 4 13 5 14 6 15 7 16 8 17 9 18 10 8 11 7 12
REMARK SMILES IDX 6 13 5 14 4 15 3 16 2 17 1 18
REMARK H PARENT
REMARK Flexibility Score: inf
ROOT
ATOM      1  C   UNL     1       9.218  -5.269  33.722  1.00  0.00     0.000 C 
ENDROOT
BRANCH   1   2
ATOM      2  C   UNL     1       8.399  -4.080  34.266  1.00  0.00     0.000 C 
BRANCH   2   3
ATOM      3  C   UNL     1       7.636  -4.356  35.574  1.00  0.00     0.000 C 
BRANCH   3   4
ATOM      4  C   UNL     1       8.096  -3.457  36.735  1.00  0.00     0.000 C 
BRANCH   4   5
ATOM      5  C   UNL     1       9.309  -4.033  37.484  1.00  0.00     0.000 C 
BRANCH   5   6
ATOM      6  C   UNL     1      10.587  -3.205  37.266  1.00  0.00     0.006 C 
BRANCH   6   7
ATOM      7  C   UNL     1      11.598  -3.927  36.365  1.00  0.00     0.053 C 
BRANCH   7   8
ATOM      8  C   UNL     1      12.854  -3.130  36.182  1.00  0.00     0.041 C 
ATOM      9  O   UNL     1      12.842  -1.883  36.352  1.00  0.00    -0.550 OA
ATOM     10  O   UNL     1      14.028  -3.761  35.792  1.00  0.00    -0.550 OA
ENDBRANCH   7   8
ENDBRANCH   6   7
ENDBRANCH   5   6
ENDBRANCH   4   5
ENDBRANCH   3   4
ENDBRANCH   2   3
ENDBRANCH   1   2
BRANCH   1  11
ATOM     11  C   UNL     1       8.810  -6.650  34.270  1.00  0.00     0.000 C 
BRANCH  11  12
ATOM     12  C   UNL     1       9.973  -7.645  34.458  1.00  0.00    -0.000 C 
BRANCH  12  13
ATOM     13  C   UNL     1      10.859  -7.380  35.692  1.00  0.00    -0.000 C 
BRANCH  13  14
ATOM     14  C   UNL     1      10.136  -7.482  37.050  1.00  0.00    -0.000 C 
BRANCH  14  15
ATOM     15  C   UNL     1      11.031  -7.275  38.285  1.00  0.00    -0.000 C 
BRANCH  15  16
ATOM     16  C   UNL     1      12.355  -8.052  38.200  1.00  0.00    -0.000 C 
BRANCH  16  17
ATOM     17  C   UNL     1      13.490  -7.370  38.981  1.00  0.00    -0.003 C 
ATOM     18  C   UNL     1      13.380  -5.845  38.976  1.00  0.00     0.004 C 
ENDBRANCH  16  17
ENDBRANCH  15  16
ENDBRANCH  14  15
ENDBRANCH  13  14
ENDBRANCH  12  13
ENDBRANCH  11  12
ENDBRANCH   1  11
TORSDOF 14
ENDMDL
MODEL 4
REMARK VINA RESULT:    -3.802      2.495      4.018
REMARK INTER + INTRA:          -8.927
REMARK INTER:                  -6.354
REMARK INTRA:                  -2.573
REMARK UNBOUND:                -2.013
REMARK SMILES CCCCCCCCCCCCCCCC(=O)[O-]
REMARK SMILES IDX 9 1 10 2 11 3 12 4 13 5 14 6 15 7 16 8 17 9 18 10 8 11 7 12
REMARK SMILES IDX 6 13 5 14 4 15 3 16 2 17 1 18
REMARK H PARENT
REMARK Flexibility Score: inf
ROOT
ATOM      1  C   UNL     1      10.504  -8.740  33.922  1.00  0.00     0.000 C 
ENDROOT
BRANCH   1   2
ATOM      2  C   UNL     1       9.422  -7.976  33.131  1.00  0.00     0.000 C 
BRANCH   2   3
ATOM      3  C   UNL     1       8.167  -7.597  33.938  1.00  0.00     0.000 C 
BRANCH   3   4
ATOM      4  C   UNL     1       8.100  -6.096  34.267  1.00  0.00     0.000 C 
BRANCH   4   5
ATOM      5  C   UNL     1       9.285  -5.310  33.685  1.00  0.00     0.000 C 
BRANCH   5   6
ATOM      6  C   UNL     1       9.989  -4.434  34.737  1.00  0.00     0.006 C 
BRANCH   6   7
ATOM      7  C   UNL     1      11.513  -4.429  34.559  1.00  0.00     0.053 C 
BRANCH   7   8
ATOM      8  C   UNL     1      12.204  -3.706  35.675  1.00  0.00     0.041 C 
ATOM      9  O   UNL     1      11.539  -3.258  36.646  1.00  0.00    -0.550 OA
ATOM     10  O   UNL     1      13.577  -3.499  35.626  1.00  0.00    -0.550 OA
ENDBRANCH   7   8
ENDBRANCH   6   7
ENDBRANCH   5   6
ENDBRANCH   4   5
ENDBRANCH   3   4
ENDBRANCH   2   3
ENDBRANCH   1   2
BRANCH   1  11
ATOM     11  C   UNL     1       9.994  -9.499  35.163  1.00  0.00     0.000 C 
BRANCH  11  12
ATOM     12  C   UNL     1      10.565  -9.005  36.507  1.00  0.00    -0.000 C 
BRANCH  12  13
ATOM     13  C   UNL     1      10.899  -7.500  36.556  1.00  0.00    -0.000 C 
BRANCH  13  14
ATOM     14  C   UNL     1      10.794  -6.851  37.950  1.00  0.00    -0.000 C 
BRANCH  14  15
ATOM     15  C   UNL     1       9.648  -5.837  38.116  1.00  0.00    -0.000 C 
BRANCH  15  16
ATOM     16  C   UNL     1       8.369  -6.470  38.689  1.00  0.00    -0.000 C 
BRANCH  16  17
ATOM     17  C   UNL     1       7.393  -6.922  37.590  1.00  0.00    -0.003 C 
ATOM     18  C   UNL     1       7.046  -8.408  37.679  1.00  0.00     0.004 C 
ENDBRANCH  16  17
ENDBRANCH  15  16
ENDBRANCH  14  15
ENDBRANCH  13  14
ENDBRANCH  12  13
ENDBRANCH  11  12
ENDBRANCH   1  11
TORSDOF 14
ENDMDL
MODEL 5
REMARK VINA RESULT:    -3.791      4.214      7.693
REMARK INTER + INTRA:          -8.906
REMARK INTER:                  -7.417
REMARK INTRA:                  -1.489
REMARK UNBOUND:                -2.013
REMARK SMILES CCCCCCCCCCCCCCCC(=O)[O-]
REMARK SMILES IDX 9 1 10 2 11 3 12 4 13 5 14 6 15 7 16 8 17 9 18 10 8 11 7 12
REMARK SMILES IDX 6 13 5 14 4 15 3 16 2 17 1 18
REMARK H PARENT
REMARK Flexibility Score: inf
ROOT
ATOM      1  C   UNL     1      11.256  -4.919  36.590  1.00  0.00     0.000 C 
ENDROOT
BRANCH   1   2
ATOM      2  C   UNL     1      12.538  -4.745  37.431  1.00  0.00     0.000 C 
BRANCH   2   3
ATOM      3  C   UNL     1      12.553  -5.512  38.766  1.00  0.00     0.000 C 
BRANCH   3   4
ATOM      4  C   UNL     1      13.568  -6.668  38.779  1.00  0.00     0.000 C 
BRANCH   4   5
ATOM      5  C   UNL     1      12.894  -8.047  38.699  1.00  0.00     0.000 C 
BRANCH   5   6
ATOM      6  C   UNL     1      13.909  -9.204  38.695  1.00  0.00     0.006 C 
BRANCH   6   7
ATOM      7  C   UNL     1      15.357  -8.703  38.604  1.00  0.00     0.053 C 
BRANCH   7   8
ATOM      8  C   UNL     1      16.321  -9.821  38.347  1.00  0.00     0.041 C 
ATOM      9  O   UNL     1      16.098 -10.968  38.815  1.00  0.00    -0.550 OA
ATOM     10  O   UNL     1      17.480  -9.587  37.619  1.00  0.00    -0.550 OA
ENDBRANCH   7   8
ENDBRANCH   6   7
ENDBRANCH   5   6
ENDBRANCH   4   5
ENDBRANCH   3   4
ENDBRANCH   2   3
ENDBRANCH   1   2
BRANCH   1  11
ATOM     11  C   UNL     1      11.332  -6.005  35.499  1.00  0.00     0.000 C 
BRANCH  11  12
ATOM     12  C   UNL     1      10.420  -7.225  35.734  1.00  0.00    -0.000 C 
BRANCH  12  13
ATOM     13  C   UNL     1      10.502  -8.315  34.646  1.00  0.00    -0.000 C 
BRANCH  13  14
ATOM     14  C   UNL     1       9.819  -7.959  33.310  1.00  0.00    -0.000 C 
BRANCH  14  15
ATOM     15  C   UNL     1       8.555  -7.089  33.433  1.00  0.00    -0.000 C 
BRANCH  15  16
ATOM     16  C   UNL     1       8.721  -5.701  32.793  1.00  0.00    -0.000 C 
BRANCH  16  17
ATOM     17  C   UNL     1       8.567  -4.560  33.812  1.00  0.00    -0.003 C 
ATOM     18  C   UNL     1       7.645  -4.925  34.975  1.00  0.00     0.004 C 
ENDBRANCH  16  17
ENDBRANCH  15  16
ENDBRANCH  14  15
ENDBRANCH  13  14
ENDBRANCH  12  13
ENDBRANCH  11  12
ENDBRANCH   1  11
TORSDOF 14
ENDMDL
MODEL 6
REMARK VINA RESULT:    -3.727      2.967      5.390
REMARK INTER + INTRA:          -8.790
REMARK INTER:                  -6.304
REMARK INTRA:                  -2.485
REMARK UNBOUND:                -2.013
REMARK SMILES CCCCCCCCCCCCCCCC(=O)[O-]
REMARK SMILES IDX 9 1 10 2 11 3 12 4 13 5 14 6 15 7 16 8 17 9 18 10 8 11 7 12
REMARK SMILES IDX 6 13 5 14 4 15 3 16 2 17 1 18
REMARK H PARENT
REMARK Flexibility Score: inf
ROOT
ATOM      1  C   UNL     1       8.599  -7.295  33.454  1.00  0.00     0.000 C 
ENDROOT
BRANCH   1   2
ATOM      2  C   UNL     1       8.781  -5.815  33.061  1.00  0.00     0.000 C 
BRANCH   2   3
ATOM      3  C   UNL     1       8.999  -4.848  34.238  1.00  0.00     0.000 C 
BRANCH   3   4
ATOM      4  C   UNL     1      10.486  -4.628  34.564  1.00  0.00     0.000 C 
BRANCH   4   5
ATOM      5  C   UNL     1      10.993  -5.564  35.672  1.00  0.00     0.000 C 
BRANCH   5   6
ATOM      6  C   UNL     1      11.746  -4.813  36.784  1.00  0.00     0.006 C 
BRANCH   6   7
ATOM      7  C   UNL     1      11.608  -5.506  38.146  1.00  0.00     0.053 C 
BRANCH   7   8
ATOM      8  C   UNL     1      12.869  -6.210  38.546  1.00  0.00     0.041 C 
ATOM      9  O   UNL     1      13.943  -5.563  38.670  1.00  0.00    -0.550 OA
ATOM     10  O   UNL     1      12.865  -7.584  38.749  1.00  0.00    -0.550 OA
ENDBRANCH   7   8
ENDBRANCH   6   7
ENDBRANCH   5   6
ENDBRANCH   4   5
ENDBRANCH   3   4
ENDBRANCH   2   3
ENDBRANCH   1   2
BRANCH   1  11
ATOM     11  C   UNL     1       9.664  -8.258  32.894  1.00  0.00     0.000 C 
BRANCH  11  12
ATOM     12  C   UNL     1      10.635  -8.835  33.943  1.00  0.00    -0.000 C 
BRANCH  12  13
ATOM     13  C   UNL     1       9.957  -9.473  35.172  1.00  0.00    -0.000 C 
BRANCH  13  14
ATOM     14  C   UNL     1      10.544  -9.053  36.535  1.00  0.00    -0.000 C 
BRANCH  14  15
ATOM     15  C   UNL     1       9.516  -8.548  37.563  1.00  0.00    -0.000 C 
BRANCH  15  16
ATOM     16  C   UNL     1       8.162  -8.190  36.928  1.00  0.00    -0.000 C 
BRANCH  16  17
ATOM     17  C   UNL     1       7.788  -6.713  37.133  1.00  0.00    -0.003 C 
ATOM     18  C   UNL     1       6.432  -6.355  36.527  1.00  0.00     0.004 C 
ENDBRANCH  16  17
ENDBRANCH  15  16
ENDBRANCH  14  15
ENDBRANCH  13  14
ENDBRANCH  12  13
ENDBRANCH  11  12
ENDBRANCH   1  11
TORSDOF 14
ENDMDL
MODEL 7
REMARK VINA RESULT:    -3.716      1.498      2.707
REMARK INTER + INTRA:          -8.771
REMARK INTER:                  -6.564
REMARK INTRA:                  -2.207
REMARK UNBOUND:                -2.013
REMARK SMILES CCCCCCCCCCCCCCCC(=O)[O-]
REMARK SMILES IDX 9 1 10 2 11 3 12 4 13 5 14 6 15 7 16 8 17 9 18 10 8 11 7 12
REMARK SMILES IDX 6 13 5 14 4 15 3 16 2 17 1 18
REMARK H PARENT
REMARK Flexibility Score: inf
ROOT
ATOM      1  C   UNL     1      10.469  -8.505  36.037  1.00  0.00     0.000 C 
ENDROOT
BRANCH   1   2
ATOM      2  C   UNL     1      10.868  -7.807  34.720  1.00  0.00     0.000 C 
BRANCH   2   3
ATOM      3  C   UNL     1      10.063  -8.239  33.481  1.00  0.00     0.000 C 
BRANCH   3   4
ATOM      4  C   UNL     1       8.854  -7.327  33.208  1.00  0.00     0.000 C 
BRANCH   4   5
ATOM      5  C   UNL     1       7.553  -7.872  33.819  1.00  0.00     0.000 C 
BRANCH   5   6
ATOM      6  C   UNL     1       7.096  -7.071  35.050  1.00  0.00     0.006 C 
BRANCH   6   7
ATOM      7  C   UNL     1       7.808  -5.716  35.156  1.00  0.00     0.053 C 
BRANCH   7   8
ATOM      8  C   UNL     1       6.870  -4.621  35.564  1.00  0.00     0.041 C 
ATOM      9  O   UNL     1       7.307  -3.458  35.769  1.00  0.00    -0.550 OA
ATOM     10  O   UNL     1       5.521  -4.893  35.750  1.00  0.00    -0.550 OA
ENDBRANCH   7   8
ENDBRANCH   6   7
ENDBRANCH   5   6
ENDBRANCH   4   5
ENDBRANCH   3   4
ENDBRANCH   2   3
ENDBRANCH   1   2
BRANCH   1  11
ATOM     11  C   UNL     1      10.336  -7.573  37.257  1.00  0.00     0.000 C 
BRANCH  11  12
ATOM     12  C   UNL     1      11.669  -7.201  37.938  1.00  0.00    -0.000 C 
BRANCH  12  13
ATOM     13  C   UNL     1      11.851  -5.698  38.228  1.00  0.00    -0.000 C 
BRANCH  13  14
ATOM     14  C   UNL     1      10.622  -4.819  37.924  1.00  0.00    -0.000 C 
BRANCH  14  15
ATOM     15  C   UNL     1      10.872  -3.661  36.940  1.00  0.00    -0.000 C 
BRANCH  15  16
ATOM     16  C   UNL     1      10.937  -4.125  35.476  1.00  0.00    -0.000 C 
BRANCH  16  17
ATOM     17  C   UNL     1      12.379  -4.235  34.956  1.00  0.00    -0.003 C 
ATOM     18  C   UNL     1      13.363  -3.375  35.750  1.00  0.00     0.004 C 
ENDBRANCH  16  17
ENDBRANCH  15  16
ENDBRANCH  14  15
ENDBRANCH  13  14
ENDBRANCH  12  13
ENDBRANCH  11  12
ENDBRANCH   1  11
TORSDOF 14
ENDMDL
MODEL 8
REMARK VINA RESULT:    -3.695      2.209      5.263
REMARK INTER + INTRA:          -8.732
REMARK INTER:                  -6.127
REMARK INTRA:                  -2.605
REMARK UNBOUND:                -2.013
REMARK SMILES CCCCCCCCCCCCCCCC(=O)[O-]
REMARK SMILES IDX 9 1 10 2 11 3 12 4 13 5 14 6 15 7 16 8 17 9 18 10 8 11 7 12
REMARK SMILES IDX 6 13 5 14 4 15 3 16 2 17 1 18
REMARK H PARENT
REMARK Flexibility Score: inf
ROOT
ATOM      1  C   UNL     1       9.131  -8.158  33.462  1.00  0.00     0.000 C 
ENDROOT
BRANCH   1   2
ATOM      2  C   UNL     1      10.389  -8.230  34.351  1.00  0.00     0.000 C 
BRANCH   2   3
ATOM      3  C   UNL     1      10.158  -8.790  35.766  1.00  0.00     0.000 C 
BRANCH   3   4
ATOM      4  C   UNL     1      10.930  -8.016  36.848  1.00  0.00     0.000 C 
BRANCH   4   5
ATOM      5  C   UNL     1      10.010  -7.154  37.728  1.00  0.00     0.000 C 
BRANCH   5   6
ATOM      6  C   UNL     1      10.533  -5.717  37.902  1.00  0.00     0.006 C 
BRANCH   6   7
ATOM      7  C   UNL     1      11.552  -5.337  36.821  1.00  0.00     0.053 C 
BRANCH   7   8
ATOM      8  C   UNL     1      11.470  -3.885  36.460  1.00  0.00     0.041 C 
ATOM      9  O   UNL     1      10.810  -3.090  37.180  1.00  0.00    -0.550 OA
ATOM     10  O   UNL     1      12.095  -3.416  35.312  1.00  0.00    -0.550 OA
ENDBRANCH   7   8
ENDBRANCH   6   7
ENDBRANCH   5   6
ENDBRANCH   4   5
ENDBRANCH   3   4
ENDBRANCH   2   3
ENDBRANCH   1   2
BRANCH   1  11
ATOM     11  C   UNL     1       8.687  -6.734  33.070  1.00  0.00     0.000 C 
BRANCH  11  12
ATOM     12  C   UNL     1       9.338  -5.603  33.890  1.00  0.00    -0.000 C 
BRANCH  12  13
ATOM     13  C   UNL     1       8.358  -4.533  34.411  1.00  0.00    -0.000 C 
BRANCH  13  14
ATOM     14  C   UNL     1       7.725  -4.839  35.783  1.00  0.00    -0.000 C 
BRANCH  14  15
ATOM     15  C   UNL     1       6.432  -5.673  35.736  1.00  0.00    -0.000 C 
BRANCH  15  16
ATOM     16  C   UNL     1       6.653  -7.140  36.140  1.00  0.00    -0.000 C 
BRANCH  16  17
ATOM     17  C   UNL     1       5.480  -8.046  35.732  1.00  0.00    -0.003 C 
ATOM     18  C   UNL     1       5.582  -8.534  34.287  1.00  0.00     0.004 C 
ENDBRANCH  16  17
ENDBRANCH  15  16
ENDBRANCH  14  15
ENDBRANCH  13  14
ENDBRANCH  12  13
ENDBRANCH  11  12
ENDBRANCH   1  11
TORSDOF 14
ENDMDL
MODEL 9
REMARK VINA RESULT:    -3.681      2.934      5.538
REMARK INTER + INTRA:          -8.707
REMARK INTER:                  -6.279
REMARK INTRA:                  -2.429
REMARK UNBOUND:                -2.013
REMARK SMILES CCCCCCCCCCCCCCCC(=O)[O-]
REMARK SMILES IDX 9 1 10 2 11 3 12 4 13 5 14 6 15 7 16 8 17 9 18 10 8 11 7 12
REMARK SMILES IDX 6 13 5 14 4 15 3 16 2 17 1 18
REMARK H PARENT
REMARK Flexibility Score: inf
ROOT
ATOM      1  C   UNL     1       8.739  -7.845  33.488  1.00  0.00     0.000 C 
ENDROOT
BRANCH   1   2
ATOM      2  C   UNL     1       9.001  -6.406  32.998  1.00  0.00     0.000 C 
BRANCH   2   3
ATOM      3  C   UNL     1       8.264  -5.304  33.781  1.00  0.00     0.000 C 
BRANCH   3   4
ATOM      4  C   UNL     1       9.081  -4.769  34.971  1.00  0.00     0.000 C 
BRANCH   4   5
ATOM      5  C   UNL     1      10.588  -4.719  34.677  1.00  0.00     0.000 C 
BRANCH   5   6
ATOM      6  C   UNL     1      11.432  -5.348  35.800  1.00  0.00     0.006 C 
BRANCH   6   7
ATOM      7  C   UNL     1      11.855  -4.316  36.853  1.00  0.00     0.053 C 
BRANCH   7   8
ATOM      8  C   UNL     1      13.015  -3.487  36.391  1.00  0.00     0.041 C 
ATOM      9  O   UNL     1      14.183  -3.953  36.436  1.00  0.00    -0.550 OA
ATOM     10  O   UNL     1      12.807  -2.189  35.940  1.00  0.00    -0.550 OA
ENDBRANCH   7   8
ENDBRANCH   6   7
ENDBRANCH   5   6
ENDBRANCH   4   5
ENDBRANCH   3   4
ENDBRANCH   2   3
ENDBRANCH   1   2
BRANCH   1  11
ATOM     11  C   UNL     1       9.990  -8.614  33.957  1.00  0.00     0.000 C 
BRANCH  11  12
ATOM     12  C   UNL     1      10.135  -8.748  35.486  1.00  0.00    -0.000 C 
BRANCH  12  13
ATOM     13  C   UNL     1       8.803  -8.792  36.262  1.00  0.00    -0.000 C 
BRANCH  13  14
ATOM     14  C   UNL     1       8.536  -7.577  37.172  1.00  0.00    -0.000 C 
BRANCH  14  15
ATOM     15  C   UNL     1       7.071  -7.110  37.228  1.00  0.00    -0.000 C 
BRANCH  15  16
ATOM     16  C   UNL     1       6.245  -7.590  36.023  1.00  0.00    -0.000 C 
BRANCH  16  17
ATOM     17  C   UNL     1       4.984  -6.740  35.797  1.00  0.00    -0.003 C 
ATOM     18  C   UNL     1       5.272  -5.239  35.800  1.00  0.00     0.004 C 
ENDBRANCH  16  17
ENDBRANCH  15  16
ENDBRANCH  14  15
ENDBRANCH  13  14
ENDBRANCH  12  13
ENDBRANCH  11  12
ENDBRANCH   1  11
TORSDOF 14
ENDMDL
