MODEL 1
REMARK VINA RESULT:    -2.554      0.000      0.000
REMARK INTER + INTRA:         -12.975
REMARK INTER:                  -6.735
REMARK INTRA:                  -6.241
REMARK UNBOUND:                -6.241
REMARK SMILES CCCCCCCCCCCCCCCCCCCCCCCCCCCCCC(=O)[O-]
REMARK SMILES IDX 16 1 17 2 18 3 19 4 20 5 21 6 22 7 23 8 24 9 25 10 26 11
REMARK SMILES IDX 27 12 28 13 29 14 30 15 31 16 32 17 15 18 14 19 13 20 12 21
REMARK SMILES IDX 11 22 10 23 9 24 8 25 7 26 6 27 5 28 4 29 3 30 2 31 1 32
REMARK H PARENT
REMARK Flexibility Score: inf
ROOT
ATOM      1  C   UNL     1       7.628 -18.607  22.633  1.00  0.00     0.000 C 
ENDROOT
BRANCH   1   2
ATOM      2  C   UNL     1       8.283 -19.984  22.445  1.00  0.00     0.000 C 
BRANCH   2   3
ATOM      3  C   UNL     1       9.798 -19.972  22.719  1.00  0.00     0.000 C 
BRANCH   3   4
ATOM      4  C   UNL     1      10.288 -18.848  23.656  1.00  0.00     0.000 C 
BRANCH   4   5
ATOM      5  C   UNL     1      11.816 -18.729  23.792  1.00  0.00     0.000 C 
BRANCH   5   6
ATOM      6  C   UNL     1      12.571 -19.810  23.002  1.00  0.00     0.000 C 
BRANCH   6   7
ATOM      7  C   UNL     1      13.981 -19.329  22.628  1.00  0.00     0.000 C 
BRANCH   7   8
ATOM      8  C   UNL     1      14.095 -17.797  22.585  1.00  0.00     0.000 C 
BRANCH   8   9
ATOM      9  C   UNL     1      14.771 -17.289  21.299  1.00  0.00     0.000 C 
BRANCH   9  10
ATOM     10  C   UNL     1      14.841 -15.755  21.240  1.00  0.00     0.000 C 
BRANCH  10  11
ATOM     11  C   UNL     1      13.464 -15.092  21.415  1.00  0.00     0.000 C 
BRANCH  11  12
ATOM     12  C   UNL     1      13.513 -13.562  21.248  1.00  0.00     0.000 C 
BRANCH  12  13
ATOM     13  C   UNL     1      12.700 -13.013  20.058  1.00  0.00     0.006 C 
BRANCH  13  14
ATOM     14  C   UNL     1      11.823 -11.798  20.394  1.00  0.00     0.053 C 
BRANCH  14  15
ATOM     15  C   UNL     1      12.455 -10.513  19.954  1.00  0.00     0.041 C 
ATOM     16  O   UNL     1      13.679 -10.302  20.166  1.00  0.00    -0.550 OA
ATOM     17  O   UNL     1      11.701  -9.563  19.277  1.00  0.00    -0.550 OA
ENDBRANCH  14  15
ENDBRANCH  13  14
ENDBRANCH  12  13
ENDBRANCH  11  12
ENDBRANCH  10  11
ENDBRANCH   9  10
ENDBRANCH   8   9
ENDBRANCH   7   8
ENDBRANCH   6   7
ENDBRANCH   5   6
ENDBRANCH   4   5
ENDBRANCH   3   4
ENDBRANCH   2   3
ENDBRANCH   1   2
BRANCH   1  18
ATOM     18  C   UNL     1       6.715 -18.269  21.446  1.00  0.00     0.000 C 
BRANCH  18  19
ATOM     19  C   UNL     1       6.814 -19.304  20.314  1.00  0.00     0.000 C 
BRANCH  19  20
ATOM     20  C   UNL     1       6.743 -18.659  18.918  1.00  0.00     0.000 C 
BRANCH  20  21
ATOM     21  C   UNL     1       8.003 -18.932  18.080  1.00  0.00     0.000 C 
BRANCH  21  22
ATOM     22  C   UNL     1       9.117 -19.609  18.897  1.00  0.00     0.000 C 
BRANCH  22  23
ATOM     23  C   UNL     1      10.526 -19.310  18.342  1.00  0.00     0.000 C 
BRANCH  23  24
ATOM     24  C   UNL     1      11.549 -18.900  19.420  1.00  0.00    -0.000 C 
BRANCH  24  25
ATOM     25  C   UNL     1      11.150 -17.687  20.281  1.00  0.00    -0.000 C 
BRANCH  25  26
ATOM     26  C   UNL     1      10.718 -16.434  19.496  1.00  0.00    -0.000 C 
BRANCH  26  27
ATOM     27  C   UNL     1       9.541 -15.689  20.152  1.00  0.00    -0.000 C 
BRANCH  27  28
ATOM     28  C   UNL     1       9.589 -15.724  21.690  1.00  0.00    -0.000 C 
BRANCH  28  29
ATOM     29  C   UNL     1       9.650 -14.348  22.379  1.00  0.00    -0.000 C 
BRANCH  29  30
ATOM     30  C   UNL     1       9.906 -14.447  23.893  1.00  0.00    -0.000 C 
BRANCH  30  31
ATOM     31  C   UNL     1      11.330 -14.016  24.277  1.00  0.00    -0.003 C 
ATOM     32  C   UNL     1      12.177 -15.172  24.808  1.00  0.00     0.004 C 
ENDBRANCH  30  31
ENDBRANCH  29  30
ENDBRANCH  28  29
ENDBRANCH  27  28
ENDBRANCH  26  27
ENDBRANCH  25  26
ENDBRANCH  24  25
ENDBRANCH  23  24
ENDBRANCH  22  23
ENDBRANCH  21  22
ENDBRANCH  20  21
ENDBRANCH  19  20
ENDBRANCH  18  19
ENDBRANCH   1  18
TORSDOF 28
ENDMDL
MODEL 2
REMARK VINA RESULT:    -2.551      4.567      8.339
REMARK INTER + INTRA:         -12.968
REMARK INTER:                  -7.858
REMARK INTRA:                  -5.110
REMARK UNBOUND:                -6.241
REMARK SMILES CCCCCCCCCCCCCCCCCCCCCCCCCCCCCC(=O)[O-]
REMARK SMILES IDX 16 1 17 2 18 3 19 4 20 5 21 6 22 7 23 8 24 9 25 10 26 11
REMARK SMILES IDX 27 12 28 13 29 14 30 15 31 16 32 17 15 18 14 19 13 20 12 21
REMARK SMILES IDX 11 22 10 23 9 24 8 25 7 26 6 27 5 28 4 29 3 30 2 31 1 32
REMARK H PARENT
REMARK Flexibility Score: inf
ROOT
ATOM      1  C   UNL     1      10.523 -16.986  21.283  1.00  0.00     0.000 C 
ENDROOT
BRANCH   1   2
ATOM      2  C   UNL     1      10.757 -18.447  21.695  1.00  0.00     0.000 C 
BRANCH   2   3
ATOM      3  C   UNL     1      11.727 -19.188  20.758  1.00  0.00     0.000 C 
BRANCH   3   4
ATOM      4  C   UNL     1      11.675 -18.750  19.279  1.00  0.00     0.000 C 
BRANCH   4   5
ATOM      5  C   UNL     1      10.593 -19.442  18.430  1.00  0.00     0.000 C 
BRANCH   5   6
ATOM      6  C   UNL     1       9.421 -18.511  18.084  1.00  0.00     0.000 C 
BRANCH   6   7
ATOM      7  C   UNL     1       8.077 -19.200  18.363  1.00  0.00     0.000 C 
BRANCH   7   8
ATOM      8  C   UNL     1       8.213 -20.422  19.284  1.00  0.00     0.000 C 
BRANCH   8   9
ATOM      9  C   UNL     1       7.635 -20.174  20.689  1.00  0.00     0.000 C 
BRANCH   9  10
ATOM     10  C   UNL     1       6.789 -18.893  20.758  1.00  0.00     0.000 C 
BRANCH  10  11
ATOM     11  C   UNL     1       5.285 -19.184  20.890  1.00  0.00     0.000 C 
BRANCH  11  12
ATOM     12  C   UNL     1       4.505 -18.891  19.595  1.00  0.00     0.000 C 
BRANCH  12  13
ATOM     13  C   UNL     1       3.040 -18.455  19.805  1.00  0.00     0.006 C 
BRANCH  13  14
ATOM     14  C   UNL     1       2.017 -19.241  18.971  1.00  0.00     0.053 C 
BRANCH  14  15
ATOM     15  C   UNL     1       1.217 -20.186  19.814  1.00  0.00     0.041 C 
ATOM     16  O   UNL     1       1.641 -20.545  20.944  1.00  0.00    -0.550 OA
ATOM     17  O   UNL     1      -0.017 -20.642  19.367  1.00  0.00    -0.550 OA
ENDBRANCH  14  15
ENDBRANCH  13  14
ENDBRANCH  12  13
ENDBRANCH  11  12
ENDBRANCH  10  11
ENDBRANCH   9  10
ENDBRANCH   8   9
ENDBRANCH   7   8
ENDBRANCH   6   7
ENDBRANCH   5   6
ENDBRANCH   4   5
ENDBRANCH   3   4
ENDBRANCH   2   3
ENDBRANCH   1   2
BRANCH   1  18
ATOM     18  C   UNL     1      11.503 -16.050  22.005  1.00  0.00     0.000 C 
BRANCH  18  19
ATOM     19  C   UNL     1      12.591 -15.500  21.067  1.00  0.00     0.000 C 
BRANCH  19  20
ATOM     20  C   UNL     1      12.049 -15.179  19.663  1.00  0.00     0.000 C 
BRANCH  20  21
ATOM     21  C   UNL     1      12.308 -13.720  19.252  1.00  0.00     0.000 C 
BRANCH  21  22
ATOM     22  C   UNL     1      12.650 -12.823  20.455  1.00  0.00     0.000 C 
BRANCH  22  23
ATOM     23  C   UNL     1      11.650 -11.661  20.633  1.00  0.00     0.000 C 
BRANCH  23  24
ATOM     24  C   UNL     1      10.762 -11.786  21.886  1.00  0.00    -0.000 C 
BRANCH  24  25
ATOM     25  C   UNL     1       9.258 -11.546  21.655  1.00  0.00    -0.000 C 
BRANCH  25  26
ATOM     26  C   UNL     1       8.755 -11.833  20.228  1.00  0.00    -0.000 C 
BRANCH  26  27
ATOM     27  C   UNL     1       7.814 -13.049  20.154  1.00  0.00    -0.000 C 
BRANCH  27  28
ATOM     28  C   UNL     1       8.551 -14.361  19.831  1.00  0.00    -0.000 C 
BRANCH  28  29
ATOM     29  C   UNL     1       7.645 -15.567  19.522  1.00  0.00    -0.000 C 
BRANCH  29  30
ATOM     30  C   UNL     1       7.096 -15.552  18.085  1.00  0.00    -0.000 C 
BRANCH  30  31
ATOM     31  C   UNL     1       5.564 -15.646  18.041  1.00  0.00    -0.003 C 
ATOM     32  C   UNL     1       4.887 -14.276  17.987  1.00  0.00     0.004 C 
ENDBRANCH  30  31
ENDBRANCH  29  30
ENDBRANCH  28  29
ENDBRANCH  27  28
ENDBRANCH  26  27
ENDBRANCH  25  26
ENDBRANCH  24  25
ENDBRANCH  23  24
ENDBRANCH  22  23
ENDBRANCH  21  22
ENDBRANCH  20  21
ENDBRANCH  19  20
ENDBRANCH  18  19
ENDBRANCH   1  18
TORSDOF 28
ENDMDL
MODEL 3
REMARK VINA RESULT:    -2.535      1.585      2.246
REMARK INTER + INTRA:         -12.926
REMARK INTER:                  -6.662
REMARK INTRA:                  -6.264
REMARK UNBOUND:                -6.241
REMARK SMILES CCCCCCCCCCCCCCCCCCCCCCCCCCCCCC(=O)[O-]
REMARK SMILES IDX 16 1 17 2 18 3 19 4 20 5 21 6 22 7 23 8 24 9 25 10 26 11
REMARK SMILES IDX 27 12 28 13 29 14 30 15 31 16 32 17 15 18 14 19 13 20 12 21
REMARK SMILES IDX 11 22 10 23 9 24 8 25 7 26 6 27 5 28 4 29 3 30 2 31 1 32
REMARK H PARENT
REMARK Flexibility Score: inf
ROOT
ATOM      1  C   UNL     1       7.981 -17.116  23.002  1.00  0.00     0.000 C 
ENDROOT
BRANCH   1   2
ATOM      2  C   UNL     1       8.813 -18.376  23.286  1.00  0.00     0.000 C 
BRANCH   2   3
ATOM      3  C   UNL     1      10.206 -18.337  22.630  1.00  0.00     0.000 C 
BRANCH   3   4
ATOM      4  C   UNL     1      10.837 -19.716  22.345  1.00  0.00     0.000 C 
BRANCH   4   5
ATOM      5  C   UNL     1      12.369 -19.714  22.193  1.00  0.00     0.000 C 
BRANCH   5   6
ATOM      6  C   UNL     1      12.864 -18.695  21.155  1.00  0.00     0.000 C 
BRANCH   6   7
ATOM      7  C   UNL     1      14.098 -17.943  21.675  1.00  0.00     0.000 C 
BRANCH   7   8
ATOM      8  C   UNL     1      13.997 -16.423  21.475  1.00  0.00     0.000 C 
BRANCH   8   9
ATOM      9  C   UNL     1      12.884 -15.785  22.326  1.00  0.00     0.000 C 
BRANCH   9  10
ATOM     10  C   UNL     1      11.780 -15.149  21.466  1.00  0.00     0.000 C 
BRANCH  10  11
ATOM     11  C   UNL     1      12.198 -14.984  19.995  1.00  0.00     0.000 C 
BRANCH  11  12
ATOM     12  C   UNL     1      12.263 -13.510  19.556  1.00  0.00     0.000 C 
BRANCH  12  13
ATOM     13  C   UNL     1      13.271 -12.643  20.337  1.00  0.00     0.006 C 
BRANCH  13  14
ATOM     14  C   UNL     1      12.905 -11.153  20.414  1.00  0.00     0.053 C 
BRANCH  14  15
ATOM     15  C   UNL     1      14.022 -10.332  20.981  1.00  0.00     0.041 C 
ATOM     16  O   UNL     1      14.636  -9.506  20.254  1.00  0.00    -0.550 OA
ATOM     17  O   UNL     1      14.362 -10.451  22.322  1.00  0.00    -0.550 OA
ENDBRANCH  14  15
ENDBRANCH  13  14
ENDBRANCH  12  13
ENDBRANCH  11  12
ENDBRANCH  10  11
ENDBRANCH   9  10
ENDBRANCH   8   9
ENDBRANCH   7   8
ENDBRANCH   6   7
ENDBRANCH   5   6
ENDBRANCH   4   5
ENDBRANCH   3   4
ENDBRANCH   2   3
ENDBRANCH   1   2
BRANCH   1  18
ATOM     18  C   UNL     1       6.735 -17.459  22.173  1.00  0.00     0.000 C 
BRANCH  18  19
ATOM     19  C   UNL     1       6.608 -18.966  21.896  1.00  0.00     0.000 C 
BRANCH  19  20
ATOM     20  C   UNL     1       6.683 -19.297  20.394  1.00  0.00     0.000 C 
BRANCH  20  21
ATOM     21  C   UNL     1       7.953 -20.083  20.028  1.00  0.00     0.000 C 
BRANCH  21  22
ATOM     22  C   UNL     1       8.562 -19.624  18.692  1.00  0.00     0.000 C 
BRANCH  22  23
ATOM     23  C   UNL     1       9.837 -18.775  18.880  1.00  0.00     0.000 C 
BRANCH  23  24
ATOM     24  C   UNL     1       9.559 -17.291  19.192  1.00  0.00    -0.000 C 
BRANCH  24  25
ATOM     25  C   UNL     1       8.451 -16.635  18.347  1.00  0.00    -0.000 C 
BRANCH  25  26
ATOM     26  C   UNL     1       7.683 -15.493  19.039  1.00  0.00    -0.000 C 
BRANCH  26  27
ATOM     27  C   UNL     1       8.471 -14.851  20.195  1.00  0.00    -0.000 C 
BRANCH  27  28
ATOM     28  C   UNL     1       8.608 -13.324  20.055  1.00  0.00    -0.000 C 
BRANCH  28  29
ATOM     29  C   UNL     1       8.343 -12.517  21.340  1.00  0.00    -0.000 C 
BRANCH  29  30
ATOM     30  C   UNL     1       9.619 -11.886  21.924  1.00  0.00    -0.000 C 
BRANCH  30  31
ATOM     31  C   UNL     1      10.063 -12.562  23.230  1.00  0.00    -0.003 C 
ATOM     32  C   UNL     1      11.422 -12.065  23.722  1.00  0.00     0.004 C 
ENDBRANCH  30  31
ENDBRANCH  29  30
ENDBRANCH  28  29
ENDBRANCH  27  28
ENDBRANCH  26  27
ENDBRANCH  25  26
ENDBRANCH  24  25
ENDBRANCH  23  24
ENDBRANCH  22  23
ENDBRANCH  21  22
ENDBRANCH  20  21
ENDBRANCH  19  20
ENDBRANCH  18  19
ENDBRANCH   1  18
TORSDOF 28
ENDMDL
MODEL 4
REMARK VINA RESULT:    -2.483      2.771      6.751
REMARK INTER + INTRA:         -12.789
REMARK INTER:                  -6.514
REMARK INTRA:                  -6.275
REMARK UNBOUND:                -6.241
REMARK SMILES CCCCCCCCCCCCCCCCCCCCCCCCCCCCCC(=O)[O-]
REMARK SMILES IDX 16 1 17 2 18 3 19 4 20 5 21 6 22 7 23 8 24 9 25 10 26 11
REMARK SMILES IDX 27 12 28 13 29 14 30 15 31 16 32 17 15 18 14 19 13 20 12 21
REMARK SMILES IDX 11 22 10 23 9 24 8 25 7 26 6 27 5 28 4 29 3 30 2 31 1 32
REMARK H PARENT
REMARK Flexibility Score: inf
ROOT
ATOM      1  C   UNL     1      10.900 -17.885  23.989  1.00  0.00     0.000 C 
ENDROOT
BRANCH   1   2
ATOM      2  C   UNL     1      11.850 -18.839  23.250  1.00  0.00     0.000 C 
BRANCH   2   3
ATOM      3  C   UNL     1      11.275 -19.346  21.915  1.00  0.00     0.000 C 
BRANCH   3   4
ATOM      4  C   UNL     1      12.050 -18.904  20.655  1.00  0.00     0.000 C 
BRANCH   4   5
ATOM      5  C   UNL     1      11.254 -18.025  19.673  1.00  0.00     0.000 C 
BRANCH   5   6
ATOM      6  C   UNL     1      10.211 -17.141  20.374  1.00  0.00     0.000 C 
BRANCH   6   7
ATOM      7  C   UNL     1       9.455 -16.276  19.354  1.00  0.00     0.000 C 
BRANCH   7   8
ATOM      8  C   UNL     1       8.778 -17.106  18.254  1.00  0.00     0.000 C 
BRANCH   8   9
ATOM      9  C   UNL     1       7.255 -17.216  18.446  1.00  0.00     0.000 C 
BRANCH   9  10
ATOM     10  C   UNL     1       6.788 -18.671  18.612  1.00  0.00     0.000 C 
BRANCH  10  11
ATOM     11  C   UNL     1       7.959 -19.667  18.654  1.00  0.00     0.000 C 
BRANCH  11  12
ATOM     12  C   UNL     1       8.186 -20.262  20.056  1.00  0.00     0.000 C 
BRANCH  12  13
ATOM     13  C   UNL     1       7.136 -19.856  21.110  1.00  0.00     0.006 C 
BRANCH  13  14
ATOM     14  C   UNL     1       7.690 -19.011  22.268  1.00  0.00     0.053 C 
BRANCH  14  15
ATOM     15  C   UNL     1       7.050 -17.658  22.329  1.00  0.00     0.041 C 
ATOM     16  O   UNL     1       5.947 -17.451  21.758  1.00  0.00    -0.550 OA
ATOM     17  O   UNL     1       7.654 -16.635  23.049  1.00  0.00    -0.550 OA
ENDBRANCH  14  15
ENDBRANCH  13  14
ENDBRANCH  12  13
ENDBRANCH  11  12
ENDBRANCH  10  11
ENDBRANCH   9  10
ENDBRANCH   8   9
ENDBRANCH   7   8
ENDBRANCH   6   7
ENDBRANCH   5   6
ENDBRANCH   4   5
ENDBRANCH   3   4
ENDBRANCH   2   3
ENDBRANCH   1   2
BRANCH   1  18
ATOM     18  C   UNL     1      11.289 -16.421  23.736  1.00  0.00     0.000 C 
BRANCH  18  19
ATOM     19  C   UNL     1      12.676 -16.074  24.303  1.00  0.00     0.000 C 
BRANCH  19  20
ATOM     20  C   UNL     1      13.551 -15.311  23.293  1.00  0.00     0.000 C 
BRANCH  20  21
ATOM     21  C   UNL     1      14.282 -16.251  22.320  1.00  0.00     0.000 C 
BRANCH  21  22
ATOM     22  C   UNL     1      14.011 -15.899  20.847  1.00  0.00     0.000 C 
BRANCH  22  23
ATOM     23  C   UNL     1      13.615 -14.420  20.653  1.00  0.00     0.000 C 
BRANCH  23  24
ATOM     24  C   UNL     1      12.456 -14.207  19.659  1.00  0.00    -0.000 C 
BRANCH  24  25
ATOM     25  C   UNL     1      11.379 -13.201  20.107  1.00  0.00    -0.000 C 
BRANCH  25  26
ATOM     26  C   UNL     1      10.750 -13.479  21.485  1.00  0.00    -0.000 C 
BRANCH  26  27
ATOM     27  C   UNL     1      10.957 -12.328  22.485  1.00  0.00    -0.000 C 
BRANCH  27  28
ATOM     28  C   UNL     1      12.416 -11.838  22.546  1.00  0.00    -0.000 C 
BRANCH  28  29
ATOM     29  C   UNL     1      12.635 -10.369  22.141  1.00  0.00    -0.000 C 
BRANCH  29  30
ATOM     30  C   UNL     1      13.944 -10.150  21.363  1.00  0.00    -0.000 C 
BRANCH  30  31
ATOM     31  C   UNL     1      13.725  -9.383  20.050  1.00  0.00    -0.003 C 
ATOM     32  C   UNL     1      12.500  -9.868  19.276  1.00  0.00     0.004 C 
ENDBRANCH  30  31
ENDBRANCH  29  30
ENDBRANCH  28  29
ENDBRANCH  27  28
ENDBRANCH  26  27
ENDBRANCH  25  26
ENDBRANCH  24  25
ENDBRANCH  23  24
ENDBRANCH  22  23
ENDBRANCH  21  22
ENDBRANCH  20  21
ENDBRANCH  19  20
ENDBRANCH  18  19
ENDBRANCH   1  18
TORSDOF 28
ENDMDL
MODEL 5
REMARK VINA RESULT:    -2.481      1.791      4.040
REMARK INTER + INTRA:         -12.784
REMARK INTER:                  -7.063
REMARK INTRA:                  -5.721
REMARK UNBOUND:                -6.241
REMARK SMILES CCCCCCCCCCCCCCCCCCCCCCCCCCCCCC(=O)[O-]
REMARK SMILES IDX 16 1 17 2 18 3 19 4 20 5 21 6 22 7 23 8 24 9 25 10 26 11
REMARK SMILES IDX 27 12 28 13 29 14 30 15 31 16 32 17 15 18 14 19 13 20 12 21
REMARK SMILES IDX 11 22 10 23 9 24 8 25 7 26 6 27 5 28 4 29 3 30 2 31 1 32
REMARK H PARENT
REMARK Flexibility Score: inf
ROOT
ATOM      1  C   UNL     1      10.491 -16.688  20.725  1.00  0.00     0.000 C 
ENDROOT
BRANCH   1   2
ATOM      2  C   UNL     1      11.458 -17.533  19.881  1.00  0.00     0.000 C 
BRANCH   2   3
ATOM      3  C   UNL     1      11.732 -18.920  20.490  1.00  0.00     0.000 C 
BRANCH   3   4
ATOM      4  C   UNL     1      10.904 -19.262  21.747  1.00  0.00     0.000 C 
BRANCH   4   5
ATOM      5  C   UNL     1      11.728 -19.556  23.013  1.00  0.00     0.000 C 
BRANCH   5   6
ATOM      6  C   UNL     1      12.961 -20.429  22.732  1.00  0.00     0.000 C 
BRANCH   6   7
ATOM      7  C   UNL     1      14.240 -19.746  23.238  1.00  0.00     0.000 C 
BRANCH   7   8
ATOM      8  C   UNL     1      14.103 -18.219  23.332  1.00  0.00     0.000 C 
BRANCH   8   9
ATOM      9  C   UNL     1      14.706 -17.493  22.116  1.00  0.00     0.000 C 
BRANCH   9  10
ATOM     10  C   UNL     1      14.544 -15.967  22.204  1.00  0.00     0.000 C 
BRANCH  10  11
ATOM     11  C   UNL     1      14.181 -15.332  20.852  1.00  0.00     0.000 C 
BRANCH  11  12
ATOM     12  C   UNL     1      13.158 -14.189  20.985  1.00  0.00     0.000 C 
BRANCH  12  13
ATOM     13  C   UNL     1      12.608 -13.650  19.648  1.00  0.00     0.006 C 
BRANCH  13  14
ATOM     14  C   UNL     1      12.147 -12.186  19.694  1.00  0.00     0.053 C 
BRANCH  14  15
ATOM     15  C   UNL     1      11.106 -11.960  20.748  1.00  0.00     0.041 C 
ATOM     16  O   UNL     1       9.970 -12.492  20.642  1.00  0.00    -0.550 OA
ATOM     17  O   UNL     1      11.404 -11.191  21.865  1.00  0.00    -0.550 OA
ENDBRANCH  14  15
ENDBRANCH  13  14
ENDBRANCH  12  13
ENDBRANCH  11  12
ENDBRANCH  10  11
ENDBRANCH   9  10
ENDBRANCH   8   9
ENDBRANCH   7   8
ENDBRANCH   6   7
ENDBRANCH   5   6
ENDBRANCH   4   5
ENDBRANCH   3   4
ENDBRANCH   2   3
ENDBRANCH   1   2
BRANCH   1  18
ATOM     18  C   UNL     1       9.558 -15.864  19.825  1.00  0.00     0.000 C 
BRANCH  18  19
ATOM     19  C   UNL     1       9.221 -16.584  18.510  1.00  0.00     0.000 C 
BRANCH  19  20
ATOM     20  C   UNL     1       7.706 -16.670  18.256  1.00  0.00     0.000 C 
BRANCH  20  21
ATOM     21  C   UNL     1       7.253 -18.089  17.875  1.00  0.00     0.000 C 
BRANCH  21  22
ATOM     22  C   UNL     1       8.413 -19.100  17.889  1.00  0.00     0.000 C 
BRANCH  22  23
ATOM     23  C   UNL     1       8.391 -20.014  19.132  1.00  0.00     0.000 C 
BRANCH  23  24
ATOM     24  C   UNL     1       7.188 -19.772  20.066  1.00  0.00    -0.000 C 
BRANCH  24  25
ATOM     25  C   UNL     1       7.313 -20.383  21.474  1.00  0.00    -0.000 C 
BRANCH  25  26
ATOM     26  C   UNL     1       7.316 -19.371  22.634  1.00  0.00    -0.000 C 
BRANCH  26  27
ATOM     27  C   UNL     1       7.422 -17.910  22.160  1.00  0.00    -0.000 C 
BRANCH  27  28
ATOM     28  C   UNL     1       6.312 -17.010  22.732  1.00  0.00    -0.000 C 
BRANCH  28  29
ATOM     29  C   UNL     1       4.906 -17.249  22.152  1.00  0.00    -0.000 C 
BRANCH  29  30
ATOM     30  C   UNL     1       4.851 -17.080  20.624  1.00  0.00    -0.000 C 
BRANCH  30  31
ATOM     31  C   UNL     1       3.558 -17.645  20.017  1.00  0.00    -0.003 C 
ATOM     32  C   UNL     1       3.806 -18.847  19.107  1.00  0.00     0.004 C 
ENDBRANCH  30  31
ENDBRANCH  29  30
ENDBRANCH  28  29
ENDBRANCH  27  28
ENDBRANCH  26  27
ENDBRANCH  25  26
ENDBRANCH  24  25
ENDBRANCH  23  24
ENDBRANCH  22  23
ENDBRANCH  21  22
ENDBRANCH  20  21
ENDBRANCH  19  20
ENDBRANCH  18  19
ENDBRANCH   1  18
TORSDOF 28
ENDMDL
MODEL 6
REMARK VINA RESULT:    -2.478      4.511      8.120
REMARK INTER + INTRA:         -12.776
REMARK INTER:                  -7.851
REMARK INTRA:                  -4.925
REMARK UNBOUND:                -6.241
REMARK SMILES CCCCCCCCCCCCCCCCCCCCCCCCCCCCCC(=O)[O-]
REMARK SMILES IDX 16 1 17 2 18 3 19 4 20 5 21 6 22 7 23 8 24 9 25 10 26 11
REMARK SMILES IDX 27 12 28 13 29 14 30 15 31 16 32 17 15 18 14 19 13 20 12 21
REMARK SMILES IDX 11 22 10 23 9 24 8 25 7 26 6 27 5 28 4 29 3 30 2 31 1 32
REMARK H PARENT
REMARK Flexibility Score: inf
ROOT
ATOM      1  C   UNL     1       7.851 -15.618  19.825  1.00  0.00     0.000 C 
ENDROOT
BRANCH   1   2
ATOM      2  C   UNL     1       9.051 -16.272  19.124  1.00  0.00     0.000 C 
BRANCH   2   3
ATOM      3  C   UNL     1       8.637 -17.249  18.008  1.00  0.00     0.000 C 
BRANCH   3   4
ATOM      4  C   UNL     1       9.272 -18.652  18.093  1.00  0.00     0.000 C 
BRANCH   4   5
ATOM      5  C   UNL     1       8.326 -19.771  18.564  1.00  0.00     0.000 C 
BRANCH   5   6
ATOM      6  C   UNL     1       6.941 -19.247  18.973  1.00  0.00     0.000 C 
BRANCH   6   7
ATOM      7  C   UNL     1       6.810 -19.187  20.503  1.00  0.00     0.000 C 
BRANCH   7   8
ATOM      8  C   UNL     1       7.344 -20.449  21.197  1.00  0.00     0.000 C 
BRANCH   8   9
ATOM      9  C   UNL     1       8.659 -20.198  21.955  1.00  0.00     0.000 C 
BRANCH   9  10
ATOM     10  C   UNL     1       8.793 -18.743  22.431  1.00  0.00     0.000 C 
BRANCH  10  11
ATOM     11  C   UNL     1      10.167 -18.137  22.100  1.00  0.00     0.000 C 
BRANCH  11  12
ATOM     12  C   UNL     1      11.004 -19.030  21.166  1.00  0.00     0.000 C 
BRANCH  12  13
ATOM     13  C   UNL     1      12.432 -18.520  20.887  1.00  0.00     0.006 C 
BRANCH  13  14
ATOM     14  C   UNL     1      12.520 -17.021  20.561  1.00  0.00     0.053 C 
BRANCH  14  15
ATOM     15  C   UNL     1      13.580 -16.335  21.367  1.00  0.00     0.041 C 
ATOM     16  O   UNL     1      14.293 -15.436  20.847  1.00  0.00    -0.550 OA
ATOM     17  O   UNL     1      13.755 -16.662  22.706  1.00  0.00    -0.550 OA
ENDBRANCH  14  15
ENDBRANCH  13  14
ENDBRANCH  12  13
ENDBRANCH  11  12
ENDBRANCH  10  11
ENDBRANCH   9  10
ENDBRANCH   8   9
ENDBRANCH   7   8
ENDBRANCH   6   7
ENDBRANCH   5   6
ENDBRANCH   4   5
ENDBRANCH   3   4
ENDBRANCH   2   3
ENDBRANCH   1   2
BRANCH   1  18
ATOM     18  C   UNL     1       7.214 -14.544  18.932  1.00  0.00     0.000 C 
BRANCH  18  19
ATOM     19  C   UNL     1       5.841 -14.970  18.386  1.00  0.00     0.000 C 
BRANCH  19  20
ATOM     20  C   UNL     1       5.177 -16.058  19.248  1.00  0.00     0.000 C 
BRANCH  20  21
ATOM     21  C   UNL     1       3.730 -16.348  18.816  1.00  0.00     0.000 C 
BRANCH  21  22
ATOM     22  C   UNL     1       3.551 -17.782  18.289  1.00  0.00     0.000 C 
BRANCH  22  23
ATOM     23  C   UNL     1       3.316 -18.807  19.419  1.00  0.00     0.000 C 
BRANCH  23  24
ATOM     24  C   UNL     1       2.123 -19.751  19.170  1.00  0.00    -0.000 C 
BRANCH  24  25
ATOM     25  C   UNL     1       1.444 -20.304  20.437  1.00  0.00    -0.000 C 
BRANCH  25  26
ATOM     26  C   UNL     1       0.114 -21.045  20.202  1.00  0.00    -0.000 C 
BRANCH  26  27
ATOM     27  C   UNL     1      -0.640 -20.548  18.956  1.00  0.00    -0.000 C 
BRANCH  27  28
ATOM     28  C   UNL     1      -1.967 -19.845  19.297  1.00  0.00    -0.000 C 
BRANCH  28  29
ATOM     29  C   UNL     1      -2.172 -18.469  18.636  1.00  0.00    -0.000 C 
BRANCH  29  30
ATOM     30  C   UNL     1      -0.928 -17.979  17.875  1.00  0.00    -0.000 C 
BRANCH  30  31
ATOM     31  C   UNL     1      -0.346 -16.688  18.472  1.00  0.00    -0.003 C 
ATOM     32  C   UNL     1      -0.028 -16.815  19.962  1.00  0.00     0.004 C 
ENDBRANCH  30  31
ENDBRANCH  29  30
ENDBRANCH  28  29
ENDBRANCH  27  28
ENDBRANCH  26  27
ENDBRANCH  25  26
ENDBRANCH  24  25
ENDBRANCH  23  24
ENDBRANCH  22  23
ENDBRANCH  21  22
ENDBRANCH  20  21
ENDBRANCH  19  20
ENDBRANCH  18  19
ENDBRANCH   1  18
TORSDOF 28
ENDMDL
MODEL 7
REMARK VINA RESULT:    -2.436      3.321      6.930
REMARK INTER + INTRA:         -12.665
REMARK INTER:                  -6.301
REMARK INTRA:                  -6.364
REMARK UNBOUND:                -6.241
REMARK SMILES CCCCCCCCCCCCCCCCCCCCCCCCCCCCCC(=O)[O-]
REMARK SMILES IDX 16 1 17 2 18 3 19 4 20 5 21 6 22 7 23 8 24 9 25 10 26 11
REMARK SMILES IDX 27 12 28 13 29 14 30 15 31 16 32 17 15 18 14 19 13 20 12 21
REMARK SMILES IDX 11 22 10 23 9 24 8 25 7 26 6 27 5 28 4 29 3 30 2 31 1 32
REMARK H PARENT
REMARK Flexibility Score: inf
ROOT
ATOM      1  C   UNL     1      11.139 -18.216  23.981  1.00  0.00     0.000 C 
ENDROOT
BRANCH   1   2
ATOM      2  C   UNL     1      12.343 -18.976  23.401  1.00  0.00     0.000 C 
BRANCH   2   3
ATOM      3  C   UNL     1      12.067 -19.563  22.005  1.00  0.00     0.000 C 
BRANCH   3   4
ATOM      4  C   UNL     1      12.655 -18.761  20.825  1.00  0.00     0.000 C 
BRANCH   4   5
ATOM      5  C   UNL     1      11.635 -18.324  19.758  1.00  0.00     0.000 C 
BRANCH   5   6
ATOM      6  C   UNL     1      10.490 -17.479  20.337  1.00  0.00     0.000 C 
BRANCH   6   7
ATOM      7  C   UNL     1      10.107 -16.346  19.374  1.00  0.00     0.000 C 
BRANCH   7   8
ATOM      8  C   UNL     1       8.869 -16.678  18.527  1.00  0.00     0.000 C 
BRANCH   8   9
ATOM      9  C   UNL     1       7.629 -16.990  19.384  1.00  0.00     0.000 C 
BRANCH   9  10
ATOM     10  C   UNL     1       6.964 -18.319  18.992  1.00  0.00     0.000 C 
BRANCH  10  11
ATOM     11  C   UNL     1       7.915 -19.252  18.224  1.00  0.00     0.000 C 
BRANCH  11  12
ATOM     12  C   UNL     1       8.482 -20.381  19.105  1.00  0.00     0.000 C 
BRANCH  12  13
ATOM     13  C   UNL     1       7.736 -20.601  20.437  1.00  0.00     0.006 C 
BRANCH  13  14
ATOM     14  C   UNL     1       8.560 -20.267  21.690  1.00  0.00     0.053 C 
BRANCH  14  15
ATOM     15  C   UNL     1       7.761 -19.496  22.695  1.00  0.00     0.041 C 
ATOM     16  O   UNL     1       7.034 -20.100  23.528  1.00  0.00    -0.550 OA
ATOM     17  O   UNL     1       7.848 -18.110  22.737  1.00  0.00    -0.550 OA
ENDBRANCH  14  15
ENDBRANCH  13  14
ENDBRANCH  12  13
ENDBRANCH  11  12
ENDBRANCH  10  11
ENDBRANCH   9  10
ENDBRANCH   8   9
ENDBRANCH   7   8
ENDBRANCH   6   7
ENDBRANCH   5   6
ENDBRANCH   4   5
ENDBRANCH   3   4
ENDBRANCH   2   3
ENDBRANCH   1   2
BRANCH   1  18
ATOM     18  C   UNL     1      11.325 -16.699  23.827  1.00  0.00     0.000 C 
BRANCH  18  19
ATOM     19  C   UNL     1      12.785 -16.261  24.029  1.00  0.00     0.000 C 
BRANCH  19  20
ATOM     20  C   UNL     1      13.175 -15.079  23.123  1.00  0.00     0.000 C 
BRANCH  20  21
ATOM     21  C   UNL     1      13.933 -15.530  21.863  1.00  0.00     0.000 C 
BRANCH  21  22
ATOM     22  C   UNL     1      13.287 -15.003  20.570  1.00  0.00     0.000 C 
BRANCH  22  23
ATOM     23  C   UNL     1      13.102 -13.471  20.578  1.00  0.00     0.000 C 
BRANCH  23  24
ATOM     24  C   UNL     1      11.910 -12.980  19.734  1.00  0.00    -0.000 C 
BRANCH  24  25
ATOM     25  C   UNL     1      10.818 -12.222  20.511  1.00  0.00    -0.000 C 
BRANCH  25  26
ATOM     26  C   UNL     1      10.583 -12.703  21.956  1.00  0.00    -0.000 C 
BRANCH  26  27
ATOM     27  C   UNL     1       9.581 -13.867  22.049  1.00  0.00    -0.000 C 
BRANCH  27  28
ATOM     28  C   UNL     1       8.474 -13.795  20.981  1.00  0.00    -0.000 C 
BRANCH  28  29
ATOM     29  C   UNL     1       7.033 -13.802  21.523  1.00  0.00    -0.000 C 
BRANCH  29  30
ATOM     30  C   UNL     1       5.976 -13.634  20.419  1.00  0.00    -0.000 C 
BRANCH  30  31
ATOM     31  C   UNL     1       6.603 -13.385  19.039  1.00  0.00    -0.003 C 
ATOM     32  C   UNL     1       5.866 -14.109  17.913  1.00  0.00     0.004 C 
ENDBRANCH  30  31
ENDBRANCH  29  30
ENDBRANCH  28  29
ENDBRANCH  27  28
ENDBRANCH  26  27
ENDBRANCH  25  26
ENDBRANCH  24  25
ENDBRANCH  23  24
ENDBRANCH  22  23
ENDBRANCH  21  22
ENDBRANCH  20  21
ENDBRANCH  19  20
ENDBRANCH  18  19
ENDBRANCH   1  18
TORSDOF 28
ENDMDL
MODEL 8
REMARK VINA RESULT:    -2.429      3.403      7.027
REMARK INTER + INTRA:         -12.645
REMARK INTER:                  -7.017
REMARK INTRA:                  -5.628
REMARK UNBOUND:                -6.241
REMARK SMILES CCCCCCCCCCCCCCCCCCCCCCCCCCCCCC(=O)[O-]
REMARK SMILES IDX 16 1 17 2 18 3 19 4 20 5 21 6 22 7 23 8 24 9 25 10 26 11
REMARK SMILES IDX 27 12 28 13 29 14 30 15 31 16 32 17 15 18 14 19 13 20 12 21
REMARK SMILES IDX 11 22 10 23 9 24 8 25 7 26 6 27 5 28 4 29 3 30 2 31 1 32
REMARK H PARENT
REMARK Flexibility Score: inf
ROOT
ATOM      1  C   UNL     1      12.467 -14.764  19.385  1.00  0.00     0.000 C 
ENDROOT
BRANCH   1   2
ATOM      2  C   UNL     1      13.361 -14.407  20.582  1.00  0.00     0.000 C 
BRANCH   2   3
ATOM      3  C   UNL     1      14.293 -15.558  21.002  1.00  0.00     0.000 C 
BRANCH   3   4
ATOM      4  C   UNL     1      14.176 -15.994  22.477  1.00  0.00     0.000 C 
BRANCH   4   5
ATOM      5  C   UNL     1      13.206 -15.157  23.331  1.00  0.00     0.000 C 
BRANCH   5   6
ATOM      6  C   UNL     1      12.005 -15.969  23.839  1.00  0.00     0.000 C 
BRANCH   6   7
ATOM      7  C   UNL     1      12.107 -17.434  23.389  1.00  0.00     0.000 C 
BRANCH   7   8
ATOM      8  C   UNL     1      10.970 -17.847  22.442  1.00  0.00     0.000 C 
BRANCH   8   9
ATOM      9  C   UNL     1      11.331 -19.067  21.576  1.00  0.00     0.000 C 
BRANCH   9  10
ATOM     10  C   UNL     1      12.077 -18.674  20.291  1.00  0.00     0.000 C 
BRANCH  10  11
ATOM     11  C   UNL     1      11.283 -19.012  19.019  1.00  0.00     0.000 C 
BRANCH  11  12
ATOM     12  C   UNL     1       9.895 -18.346  18.988  1.00  0.00     0.000 C 
BRANCH  12  13
ATOM     13  C   UNL     1       8.800 -19.161  18.269  1.00  0.00     0.006 C 
BRANCH  13  14
ATOM     14  C   UNL     1       8.334 -20.411  19.031  1.00  0.00     0.053 C 
BRANCH  14  15
ATOM     15  C   UNL     1       7.723 -20.065  20.354  1.00  0.00     0.041 C 
ATOM     16  O   UNL     1       6.754 -19.263  20.417  1.00  0.00    -0.550 OA
ATOM     17  O   UNL     1       8.202 -20.656  21.516  1.00  0.00    -0.550 OA
ENDBRANCH  14  15
ENDBRANCH  13  14
ENDBRANCH  12  13
ENDBRANCH  11  12
ENDBRANCH  10  11
ENDBRANCH   9  10
ENDBRANCH   8   9
ENDBRANCH   7   8
ENDBRANCH   6   7
ENDBRANCH   5   6
ENDBRANCH   4   5
ENDBRANCH   3   4
ENDBRANCH   2   3
ENDBRANCH   1   2
BRANCH   1  18
ATOM     18  C   UNL     1      11.053 -15.141  19.852  1.00  0.00     0.000 C 
BRANCH  18  19
ATOM     19  C   UNL     1      10.498 -14.162  20.899  1.00  0.00     0.000 C 
BRANCH  19  20
ATOM     20  C   UNL     1       9.298 -13.355  20.373  1.00  0.00     0.000 C 
BRANCH  20  21
ATOM     21  C   UNL     1       9.560 -11.839  20.383  1.00  0.00     0.000 C 
BRANCH  21  22
ATOM     22  C   UNL     1      11.055 -11.502  20.520  1.00  0.00     0.000 C 
BRANCH  22  23
ATOM     23  C   UNL     1      11.363 -10.025  20.197  1.00  0.00     0.000 C 
BRANCH  23  24
ATOM     24  C   UNL     1      12.585  -9.826  19.280  1.00  0.00    -0.000 C 
BRANCH  24  25
ATOM     25  C   UNL     1      13.736  -8.999  19.884  1.00  0.00    -0.000 C 
BRANCH  25  26
ATOM     26  C   UNL     1      14.895  -9.818  20.481  1.00  0.00    -0.000 C 
BRANCH  26  27
ATOM     27  C   UNL     1      14.778 -10.007  22.004  1.00  0.00    -0.000 C 
BRANCH  27  28
ATOM     28  C   UNL     1      14.180 -11.371  22.396  1.00  0.00    -0.000 C 
BRANCH  28  29
ATOM     29  C   UNL     1      13.474 -11.412  23.764  1.00  0.00    -0.000 C 
BRANCH  29  30
ATOM     30  C   UNL     1      12.441 -10.286  23.939  1.00  0.00    -0.000 C 
BRANCH  30  31
ATOM     31  C   UNL     1      11.007 -10.820  24.073  1.00  0.00    -0.003 C 
ATOM     32  C   UNL     1      10.947 -12.345  24.151  1.00  0.00     0.004 C 
ENDBRANCH  30  31
ENDBRANCH  29  30
ENDBRANCH  28  29
ENDBRANCH  27  28
ENDBRANCH  26  27
ENDBRANCH  25  26
ENDBRANCH  24  25
ENDBRANCH  23  24
ENDBRANCH  22  23
ENDBRANCH  21  22
ENDBRANCH  20  21
ENDBRANCH  19  20
ENDBRANCH  18  19
ENDBRANCH   1  18
TORSDOF 28
ENDMDL
MODEL 9
REMARK VINA RESULT:    -2.377      2.427      5.220
REMARK INTER + INTRA:         -12.508
REMARK INTER:                  -5.980
REMARK INTRA:                  -6.529
REMARK UNBOUND:                -6.241
REMARK SMILES CCCCCCCCCCCCCCCCCCCCCCCCCCCCCC(=O)[O-]
REMARK SMILES IDX 16 1 17 2 18 3 19 4 20 5 21 6 22 7 23 8 24 9 25 10 26 11
REMARK SMILES IDX 27 12 28 13 29 14 30 15 31 16 32 17 15 18 14 19 13 20 12 21
REMARK SMILES IDX 11 22 10 23 9 24 8 25 7 26 6 27 5 28 4 29 3 30 2 31 1 32
REMARK H PARENT
REMARK Flexibility Score: inf
ROOT
ATOM      1  C   UNL     1      10.063 -14.388  20.913  1.00  0.00     0.000 C 
ENDROOT
BRANCH   1   2
ATOM      2  C   UNL     1      10.782 -13.290  20.113  1.00  0.00     0.000 C 
BRANCH   2   3
ATOM      3  C   UNL     1      12.255 -13.627  19.820  1.00  0.00     0.000 C 
BRANCH   3   4
ATOM      4  C   UNL     1      13.011 -14.325  20.971  1.00  0.00     0.000 C 
BRANCH   4   5
ATOM      5  C   UNL     1      13.647 -15.679  20.608  1.00  0.00     0.000 C 
BRANCH   5   6
ATOM      6  C   UNL     1      14.951 -15.950  21.373  1.00  0.00     0.000 C 
BRANCH   6   7
ATOM      7  C   UNL     1      14.966 -17.378  21.938  1.00  0.00     0.000 C 
BRANCH   7   8
ATOM      8  C   UNL     1      13.683 -18.160  21.615  1.00  0.00     0.000 C 
BRANCH   8   9
ATOM      9  C   UNL     1      13.604 -19.504  22.362  1.00  0.00     0.000 C 
BRANCH   9  10
ATOM     10  C   UNL     1      12.284 -19.670  23.132  1.00  0.00     0.000 C 
BRANCH  10  11
ATOM     11  C   UNL     1      12.141 -18.662  24.285  1.00  0.00     0.000 C 
BRANCH  11  12
ATOM     12  C   UNL     1      10.958 -17.696  24.088  1.00  0.00     0.000 C 
BRANCH  12  13
ATOM     13  C   UNL     1      11.356 -16.236  23.789  1.00  0.00     0.006 C 
BRANCH  13  14
ATOM     14  C   UNL     1      12.672 -15.788  24.443  1.00  0.00     0.053 C 
BRANCH  14  15
ATOM     15  C   UNL     1      12.449 -15.192  25.799  1.00  0.00     0.041 C 
ATOM     16  O   UNL     1      11.307 -14.775  26.129  1.00  0.00    -0.550 OA
ATOM     17  O   UNL     1      13.494 -15.130  26.712  1.00  0.00    -0.550 OA
ENDBRANCH  14  15
ENDBRANCH  13  14
ENDBRANCH  12  13
ENDBRANCH  11  12
ENDBRANCH  10  11
ENDBRANCH   9  10
ENDBRANCH   8   9
ENDBRANCH   7   8
ENDBRANCH   6   7
ENDBRANCH   5   6
ENDBRANCH   4   5
ENDBRANCH   3   4
ENDBRANCH   2   3
ENDBRANCH   1   2
BRANCH   1  18
ATOM     18  C   UNL     1       9.140 -15.212  20.002  1.00  0.00     0.000 C 
BRANCH  18  19
ATOM     19  C   UNL     1       9.851 -16.431  19.393  1.00  0.00     0.000 C 
BRANCH  19  20
ATOM     20  C   UNL     1      10.381 -17.401  20.465  1.00  0.00     0.000 C 
BRANCH  20  21
ATOM     21  C   UNL     1      10.399 -18.860  19.980  1.00  0.00     0.000 C 
BRANCH  21  22
ATOM     22  C   UNL     1       9.782 -19.022  18.580  1.00  0.00     0.000 C 
BRANCH  22  23
ATOM     23  C   UNL     1       8.447 -19.796  18.604  1.00  0.00     0.000 C 
BRANCH  23  24
ATOM     24  C   UNL     1       7.201 -18.900  18.462  1.00  0.00    -0.000 C 
BRANCH  24  25
ATOM     25  C   UNL     1       6.679 -18.282  19.772  1.00  0.00    -0.000 C 
BRANCH  25  26
ATOM     26  C   UNL     1       5.814 -19.214  20.642  1.00  0.00    -0.000 C 
BRANCH  26  27
ATOM     27  C   UNL     1       6.587 -19.821  21.827  1.00  0.00    -0.000 C 
BRANCH  27  28
ATOM     28  C   UNL     1       7.654 -18.870  22.400  1.00  0.00    -0.000 C 
BRANCH  28  29
ATOM     29  C   UNL     1       7.132 -17.811  23.388  1.00  0.00    -0.000 C 
BRANCH  29  30
ATOM     30  C   UNL     1       7.696 -16.406  23.115  1.00  0.00    -0.000 C 
BRANCH  30  31
ATOM     31  C   UNL     1       6.592 -15.378  22.822  1.00  0.00    -0.003 C 
ATOM     32  C   UNL     1       5.261 -16.028  22.448  1.00  0.00     0.004 C 
ENDBRANCH  30  31
ENDBRANCH  29  30
ENDBRANCH  28  29
ENDBRANCH  27  28
ENDBRANCH  26  27
ENDBRANCH  25  26
ENDBRANCH  24  25
ENDBRANCH  23  24
ENDBRANCH  22  23
ENDBRANCH  21  22
ENDBRANCH  20  21
ENDBRANCH  19  20
ENDBRANCH  18  19
ENDBRANCH   1  18
TORSDOF 28
ENDMDL
