MODEL 1
REMARK VINA RESULT:    -4.439      0.000      0.000
REMARK INTER + INTRA:          -8.015
REMARK INTER:                  -7.034
REMARK INTRA:                  -0.981
REMARK UNBOUND:                -0.981
REMARK SMILES CCCCCCCCCCCC(=O)[O-]
REMARK SMILES IDX 7 1 8 2 9 3 10 4 11 5 12 6 13 7 14 8 6 9 5 10 4 11 3 12 2 13
REMARK SMILES IDX 1 14
REMARK H PARENT
REMARK Flexibility Score: inf
ROOT
ATOM      1  C   UNL     1      -1.278 -38.091  20.516  1.00  0.00     0.000 C 
ENDROOT
BRANCH   1   2
ATOM      2  C   UNL     1      -2.315 -37.250  21.279  1.00  0.00     0.000 C 
BRANCH   2   3
ATOM      3  C   UNL     1      -2.028 -35.742  21.196  1.00  0.00     0.000 C 
BRANCH   3   4
ATOM      4  C   UNL     1      -2.401 -34.995  22.488  1.00  0.00     0.006 C 
BRANCH   4   5
ATOM      5  C   UNL     1      -1.397 -33.884  22.824  1.00  0.00     0.053 C 
BRANCH   5   6
ATOM      6  C   UNL     1      -1.961 -32.908  23.812  1.00  0.00     0.041 C 
ATOM      7  O   UNL     1      -2.929 -32.169  23.492  1.00  0.00    -0.550 OA
ATOM      8  O   UNL     1      -1.439 -32.842  25.097  1.00  0.00    -0.550 OA
ENDBRANCH   5   6
ENDBRANCH   4   5
ENDBRANCH   3   4
ENDBRANCH   2   3
ENDBRANCH   1   2
BRANCH   1   9
ATOM      9  C   UNL     1       0.154 -37.863  21.025  1.00  0.00     0.000 C 
BRANCH   9  10
ATOM     10  C   UNL     1       1.112 -37.393  19.914  1.00  0.00    -0.000 C 
BRANCH  10  11
ATOM     11  C   UNL     1       1.602 -35.952  20.127  1.00  0.00    -0.000 C 
BRANCH  11  12
ATOM     12  C   UNL     1       1.897 -35.641  21.601  1.00  0.00    -0.000 C 
BRANCH  12  13
ATOM     13  C   UNL     1       3.408 -35.599  21.861  1.00  0.00    -0.003 C 
ATOM     14  C   UNL     1       3.942 -36.978  22.235  1.00  0.00     0.004 C 
ENDBRANCH  12  13
ENDBRANCH  11  12
ENDBRANCH  10  11
ENDBRANCH   9  10
ENDBRANCH   1   9
TORSDOF 10
ENDMDL
MODEL 2
REMARK VINA RESULT:    -4.416      4.249      6.713
REMARK INTER + INTRA:          -7.979
REMARK INTER:                  -7.127
REMARK INTRA:                  -0.852
REMARK UNBOUND:                -0.981
REMARK SMILES CCCCCCCCCCCC(=O)[O-]
REMARK SMILES IDX 7 1 8 2 9 3 10 4 11 5 12 6 13 7 14 8 6 9 5 10 4 11 3 12 2 13
REMARK SMILES IDX 1 14
REMARK H PARENT
REMARK Flexibility Score: inf
ROOT
ATOM      1  C   UNL     1      -0.795 -35.939  21.193  1.00  0.00     0.000 C 
ENDROOT
BRANCH   1   2
ATOM      2  C   UNL     1      -0.089 -37.306  21.162  1.00  0.00     0.000 C 
BRANCH   2   3
ATOM      3  C   UNL     1       0.951 -37.407  20.034  1.00  0.00     0.000 C 
BRANCH   3   4
ATOM      4  C   UNL     1       2.209 -36.565  20.309  1.00  0.00     0.006 C 
BRANCH   4   5
ATOM      5  C   UNL     1       2.549 -35.633  19.138  1.00  0.00     0.053 C 
BRANCH   5   6
ATOM      6  C   UNL     1       3.388 -36.323  18.107  1.00  0.00     0.041 C 
ATOM      7  O   UNL     1       4.644 -36.308  18.197  1.00  0.00    -0.550 OA
ATOM      8  O   UNL     1       2.781 -37.013  17.065  1.00  0.00    -0.550 OA
ENDBRANCH   5   6
ENDBRANCH   4   5
ENDBRANCH   3   4
ENDBRANCH   2   3
ENDBRANCH   1   2
BRANCH   1   9
ATOM      9  C   UNL     1      -2.241 -36.012  20.677  1.00  0.00     0.000 C 
BRANCH   9  10
ATOM     10  C   UNL     1      -3.025 -37.196  21.273  1.00  0.00    -0.000 C 
BRANCH  10  11
ATOM     11  C   UNL     1      -3.722 -38.044  20.197  1.00  0.00    -0.000 C 
BRANCH  11  12
ATOM     12  C   UNL     1      -3.157 -37.797  18.792  1.00  0.00    -0.000 C 
BRANCH  12  13
ATOM     13  C   UNL     1      -4.284 -37.520  17.789  1.00  0.00    -0.003 C 
ATOM     14  C   UNL     1      -4.462 -36.022  17.558  1.00  0.00     0.004 C 
ENDBRANCH  12  13
ENDBRANCH  11  12
ENDBRANCH  10  11
ENDBRANCH   9  10
ENDBRANCH   1   9
TORSDOF 10
ENDMDL
MODEL 3
REMARK VINA RESULT:    -4.381      0.981      1.706
REMARK INTER + INTRA:          -7.922
REMARK INTER:                  -7.056
REMARK INTRA:                  -0.866
REMARK UNBOUND:                -0.981
REMARK SMILES CCCCCCCCCCCC(=O)[O-]
REMARK SMILES IDX 7 1 8 2 9 3 10 4 11 5 12 6 13 7 14 8 6 9 5 10 4 11 3 12 2 13
REMARK SMILES IDX 1 14
REMARK H PARENT
REMARK Flexibility Score: inf
ROOT
ATOM      1  C   UNL     1       0.239 -37.206  21.007  1.00  0.00     0.000 C 
ENDROOT
BRANCH   1   2
ATOM      2  C   UNL     1      -0.245 -35.764  21.235  1.00  0.00     0.000 C 
BRANCH   2   3
ATOM      3  C   UNL     1      -1.778 -35.658  21.290  1.00  0.00     0.000 C 
BRANCH   3   4
ATOM      4  C   UNL     1      -2.274 -34.850  22.502  1.00  0.00     0.006 C 
BRANCH   4   5
ATOM      5  C   UNL     1      -1.319 -33.704  22.863  1.00  0.00     0.053 C 
BRANCH   5   6
ATOM      6  C   UNL     1      -1.899 -32.810  23.916  1.00  0.00     0.041 C 
ATOM      7  O   UNL     1      -1.447 -32.837  25.091  1.00  0.00    -0.550 OA
ATOM      8  O   UNL     1      -2.916 -31.922  23.589  1.00  0.00    -0.550 OA
ENDBRANCH   5   6
ENDBRANCH   4   5
ENDBRANCH   3   4
ENDBRANCH   2   3
ENDBRANCH   1   2
BRANCH   1   9
ATOM      9  C   UNL     1       1.285 -37.305  19.886  1.00  0.00     0.000 C 
BRANCH   9  10
ATOM     10  C   UNL     1       1.895 -35.940  19.519  1.00  0.00    -0.000 C 
BRANCH  10  11
ATOM     11  C   UNL     1       3.430 -35.938  19.592  1.00  0.00    -0.000 C 
BRANCH  11  12
ATOM     12  C   UNL     1       3.959 -36.539  20.902  1.00  0.00    -0.000 C 
BRANCH  12  13
ATOM     13  C   UNL     1       4.316 -35.436  21.906  1.00  0.00    -0.003 C 
ATOM     14  C   UNL     1       3.138 -35.122  22.823  1.00  0.00     0.004 C 
ENDBRANCH  12  13
ENDBRANCH  11  12
ENDBRANCH  10  11
ENDBRANCH   9  10
ENDBRANCH   1   9
TORSDOF 10
ENDMDL
MODEL 4
REMARK VINA RESULT:    -4.364      3.023      5.920
REMARK INTER + INTRA:          -7.897
REMARK INTER:                  -7.029
REMARK INTRA:                  -0.868
REMARK UNBOUND:                -0.981
REMARK SMILES CCCCCCCCCCCC(=O)[O-]
REMARK SMILES IDX 7 1 8 2 9 3 10 4 11 5 12 6 13 7 14 8 6 9 5 10 4 11 3 12 2 13
REMARK SMILES IDX 1 14
REMARK H PARENT
REMARK Flexibility Score: inf
ROOT
ATOM      1  C   UNL     1      -0.498 -36.235  21.046  1.00  0.00     0.000 C 
ENDROOT
BRANCH   1   2
ATOM      2  C   UNL     1       0.119 -37.618  20.779  1.00  0.00     0.000 C 
BRANCH   2   3
ATOM      3  C   UNL     1       1.556 -37.529  20.240  1.00  0.00     0.000 C 
BRANCH   3   4
ATOM      4  C   UNL     1       1.999 -36.081  19.968  1.00  0.00     0.006 C 
BRANCH   4   5
ATOM      5  C   UNL     1       3.384 -35.779  20.555  1.00  0.00     0.053 C 
BRANCH   5   6
ATOM      6  C   UNL     1       3.368 -35.803  22.053  1.00  0.00     0.041 C 
ATOM      7  O   UNL     1       3.986 -36.704  22.679  1.00  0.00    -0.550 OA
ATOM      8  O   UNL     1       2.700 -34.809  22.757  1.00  0.00    -0.550 OA
ENDBRANCH   5   6
ENDBRANCH   4   5
ENDBRANCH   3   4
ENDBRANCH   2   3
ENDBRANCH   1   2
BRANCH   1   9
ATOM      9  C   UNL     1      -1.982 -36.165  20.650  1.00  0.00     0.000 C 
BRANCH   9  10
ATOM     10  C   UNL     1      -2.809 -37.323  21.239  1.00  0.00    -0.000 C 
BRANCH  10  11
ATOM     11  C   UNL     1      -3.752 -37.960  20.206  1.00  0.00    -0.000 C 
BRANCH  11  12
ATOM     12  C   UNL     1      -3.210 -37.867  18.773  1.00  0.00    -0.000 C 
BRANCH  12  13
ATOM     13  C   UNL     1      -4.325 -37.501  17.787  1.00  0.00    -0.003 C 
ATOM     14  C   UNL     1      -4.463 -35.988  17.646  1.00  0.00     0.004 C 
ENDBRANCH  12  13
ENDBRANCH  11  12
ENDBRANCH  10  11
ENDBRANCH   9  10
ENDBRANCH   1   9
TORSDOF 10
ENDMDL
MODEL 5
REMARK VINA RESULT:    -4.337      2.036      3.251
REMARK INTER + INTRA:          -7.854
REMARK INTER:                  -6.694
REMARK INTRA:                  -1.159
REMARK UNBOUND:                -0.981
REMARK SMILES CCCCCCCCCCCC(=O)[O-]
REMARK SMILES IDX 7 1 8 2 9 3 10 4 11 5 12 6 13 7 14 8 6 9 5 10 4 11 3 12 2 13
REMARK SMILES IDX 1 14
REMARK H PARENT
REMARK Flexibility Score: inf
ROOT
ATOM      1  C   UNL     1       2.107 -37.761  18.716  1.00  0.00     0.000 C 
ENDROOT
BRANCH   1   2
ATOM      2  C   UNL     1       1.150 -37.435  19.876  1.00  0.00     0.000 C 
BRANCH   2   3
ATOM      3  C   UNL     1       1.120 -35.935  20.212  1.00  0.00     0.000 C 
BRANCH   3   4
ATOM      4  C   UNL     1       0.175 -35.608  21.381  1.00  0.00     0.006 C 
BRANCH   4   5
ATOM      5  C   UNL     1      -1.301 -35.680  20.968  1.00  0.00     0.053 C 
BRANCH   5   6
ATOM      6  C   UNL     1      -2.207 -35.210  22.065  1.00  0.00     0.041 C 
ATOM      7  O   UNL     1      -3.303 -35.792  22.276  1.00  0.00    -0.550 OA
ATOM      8  O   UNL     1      -1.823 -34.149  22.876  1.00  0.00    -0.550 OA
ENDBRANCH   5   6
ENDBRANCH   4   5
ENDBRANCH   3   4
ENDBRANCH   2   3
ENDBRANCH   1   2
BRANCH   1   9
ATOM      9  C   UNL     1       2.910 -36.534  18.254  1.00  0.00     0.000 C 
BRANCH   9  10
ATOM     10  C   UNL     1       4.432 -36.752  18.346  1.00  0.00    -0.000 C 
BRANCH  10  11
ATOM     11  C   UNL     1       4.829 -37.664  19.517  1.00  0.00    -0.000 C 
BRANCH  11  12
ATOM     12  C   UNL     1       5.319 -36.876  20.740  1.00  0.00    -0.000 C 
BRANCH  12  13
ATOM     13  C   UNL     1       4.354 -37.040  21.920  1.00  0.00    -0.003 C 
ATOM     14  C   UNL     1       3.920 -35.684  22.470  1.00  0.00     0.004 C 
ENDBRANCH  12  13
ENDBRANCH  11  12
ENDBRANCH  10  11
ENDBRANCH   9  10
ENDBRANCH   1   9
TORSDOF 10
ENDMDL
MODEL 6
REMARK VINA RESULT:    -4.291      1.600      2.128
REMARK INTER + INTRA:          -7.781
REMARK INTER:                  -7.108
REMARK INTRA:                  -0.673
REMARK UNBOUND:                -0.981
REMARK SMILES CCCCCCCCCCCC(=O)[O-]
REMARK SMILES IDX 7 1 8 2 9 3 10 4 11 5 12 6 13 7 14 8 6 9 5 10 4 11 3 12 2 13
REMARK SMILES IDX 1 14
REMARK H PARENT
REMARK Flexibility Score: inf
ROOT
ATOM      1  C   UNL     1      -0.190 -37.411  20.987  1.00  0.00     0.000 C 
ENDROOT
BRANCH   1   2
ATOM      2  C   UNL     1      -0.725 -35.970  21.050  1.00  0.00     0.000 C 
BRANCH   2   3
ATOM      3  C   UNL     1      -2.226 -35.912  21.375  1.00  0.00     0.000 C 
BRANCH   3   4
ATOM      4  C   UNL     1      -2.549 -34.925  22.511  1.00  0.00     0.006 C 
BRANCH   4   5
ATOM      5  C   UNL     1      -1.353 -34.028  22.855  1.00  0.00     0.053 C 
BRANCH   5   6
ATOM      6  C   UNL     1      -1.774 -32.819  23.633  1.00  0.00     0.041 C 
ATOM      7  O   UNL     1      -2.978 -32.450  23.631  1.00  0.00    -0.550 OA
ATOM      8  O   UNL     1      -0.841 -32.120  24.389  1.00  0.00    -0.550 OA
ENDBRANCH   5   6
ENDBRANCH   4   5
ENDBRANCH   3   4
ENDBRANCH   2   3
ENDBRANCH   1   2
BRANCH   1   9
ATOM      9  C   UNL     1       1.343 -37.467  20.893  1.00  0.00     0.000 C 
BRANCH   9  10
ATOM     10  C   UNL     1       1.973 -36.086  20.633  1.00  0.00    -0.000 C 
BRANCH  10  11
ATOM     11  C   UNL     1       2.381 -35.889  19.165  1.00  0.00    -0.000 C 
BRANCH  11  12
ATOM     12  C   UNL     1       2.335 -37.195  18.359  1.00  0.00    -0.000 C 
BRANCH  12  13
ATOM     13  C   UNL     1       3.715 -37.534  17.784  1.00  0.00    -0.003 C 
ATOM     14  C   UNL     1       4.790 -36.610  18.350  1.00  0.00     0.004 C 
ENDBRANCH  12  13
ENDBRANCH  11  12
ENDBRANCH  10  11
ENDBRANCH   9  10
ENDBRANCH   1   9
TORSDOF 10
ENDMDL
MODEL 7
REMARK VINA RESULT:    -4.261      2.288      3.782
REMARK INTER + INTRA:          -7.734
REMARK INTER:                  -6.549
REMARK INTRA:                  -1.184
REMARK UNBOUND:                -0.981
REMARK SMILES CCCCCCCCCCCC(=O)[O-]
REMARK SMILES IDX 7 1 8 2 9 3 10 4 11 5 12 6 13 7 14 8 6 9 5 10 4 11 3 12 2 13
REMARK SMILES IDX 1 14
REMARK H PARENT
REMARK Flexibility Score: inf
ROOT
ATOM      1  C   UNL     1       2.661 -35.992  21.233  1.00  0.00     0.000 C 
ENDROOT
BRANCH   1   2
ATOM      2  C   UNL     1       1.194 -35.876  20.786  1.00  0.00     0.000 C 
BRANCH   2   3
ATOM      3  C   UNL     1       0.541 -37.247  20.544  1.00  0.00     0.000 C 
BRANCH   3   4
ATOM      4  C   UNL     1      -0.926 -37.295  21.005  1.00  0.00     0.006 C 
BRANCH   4   5
ATOM      5  C   UNL     1      -1.667 -35.983  20.712  1.00  0.00     0.053 C 
BRANCH   5   6
ATOM      6  C   UNL     1      -2.322 -35.430  21.941  1.00  0.00     0.041 C 
ATOM      7  O   UNL     1      -1.735 -34.559  22.636  1.00  0.00    -0.550 OA
ATOM      8  O   UNL     1      -3.596 -35.852  22.299  1.00  0.00    -0.550 OA
ENDBRANCH   5   6
ENDBRANCH   4   5
ENDBRANCH   3   4
ENDBRANCH   2   3
ENDBRANCH   1   2
BRANCH   1   9
ATOM      9  C   UNL     1       3.052 -37.433  21.602  1.00  0.00     0.000 C 
BRANCH   9  10
ATOM     10  C   UNL     1       4.200 -37.978  20.732  1.00  0.00    -0.000 C 
BRANCH  10  11
ATOM     11  C   UNL     1       4.934 -36.870  19.961  1.00  0.00    -0.000 C 
BRANCH  11  12
ATOM     12  C   UNL     1       4.971 -37.129  18.448  1.00  0.00    -0.000 C 
BRANCH  12  13
ATOM     13  C   UNL     1       3.716 -37.883  17.990  1.00  0.00    -0.003 C 
ATOM     14  C   UNL     1       2.672 -36.925  17.425  1.00  0.00     0.004 C 
ENDBRANCH  12  13
ENDBRANCH  11  12
ENDBRANCH  10  11
ENDBRANCH   9  10
ENDBRANCH   1   9
TORSDOF 10
ENDMDL
MODEL 8
REMARK VINA RESULT:    -4.175      2.261      3.378
REMARK INTER + INTRA:          -7.597
REMARK INTER:                  -6.605
REMARK INTRA:                  -0.992
REMARK UNBOUND:                -0.981
REMARK SMILES CCCCCCCCCCCC(=O)[O-]
REMARK SMILES IDX 7 1 8 2 9 3 10 4 11 5 12 6 13 7 14 8 6 9 5 10 4 11 3 12 2 13
REMARK SMILES IDX 1 14
REMARK H PARENT
REMARK Flexibility Score: inf
ROOT
ATOM      1  C   UNL     1       2.169 -35.795  19.446  1.00  0.00     0.000 C 
ENDROOT
BRANCH   1   2
ATOM      2  C   UNL     1       1.582 -36.258  20.790  1.00  0.00     0.000 C 
BRANCH   2   3
ATOM      3  C   UNL     1       0.587 -37.420  20.630  1.00  0.00     0.000 C 
BRANCH   3   4
ATOM      4  C   UNL     1      -0.835 -37.050  21.085  1.00  0.00     0.006 C 
BRANCH   4   5
ATOM      5  C   UNL     1      -1.062 -35.532  21.097  1.00  0.00     0.053 C 
BRANCH   5   6
ATOM      6  C   UNL     1      -2.128 -35.139  22.074  1.00  0.00     0.041 C 
ATOM      7  O   UNL     1      -3.186 -35.816  22.166  1.00  0.00    -0.550 OA
ATOM      8  O   UNL     1      -1.935 -34.045  22.908  1.00  0.00    -0.550 OA
ENDBRANCH   5   6
ENDBRANCH   4   5
ENDBRANCH   3   4
ENDBRANCH   2   3
ENDBRANCH   1   2
BRANCH   1   9
ATOM      9  C   UNL     1       2.261 -36.935  18.420  1.00  0.00     0.000 C 
BRANCH   9  10
ATOM     10  C   UNL     1       3.625 -36.986  17.708  1.00  0.00    -0.000 C 
BRANCH  10  11
ATOM     11  C   UNL     1       4.615 -37.940  18.395  1.00  0.00    -0.000 C 
BRANCH  11  12
ATOM     12  C   UNL     1       5.554 -37.215  19.369  1.00  0.00    -0.000 C 
BRANCH  12  13
ATOM     13  C   UNL     1       5.223 -37.576  20.822  1.00  0.00    -0.003 C 
ATOM     14  C   UNL     1       5.239 -36.339  21.715  1.00  0.00     0.004 C 
ENDBRANCH  12  13
ENDBRANCH  11  12
ENDBRANCH  10  11
ENDBRANCH   9  10
ENDBRANCH   1   9
TORSDOF 10
ENDMDL
MODEL 9
REMARK VINA RESULT:    -3.998      3.339      6.185
REMARK INTER + INTRA:          -7.316
REMARK INTER:                  -6.331
REMARK INTRA:                  -0.985
REMARK UNBOUND:                -0.981
REMARK SMILES CCCCCCCCCCCC(=O)[O-]
REMARK SMILES IDX 7 1 8 2 9 3 10 4 11 5 12 6 13 7 14 8 6 9 5 10 4 11 3 12 2 13
REMARK SMILES IDX 1 14
REMARK H PARENT
REMARK Flexibility Score: inf
ROOT
ATOM      1  C   UNL     1       2.011 -36.744  18.851  1.00  0.00     0.000 C 
ENDROOT
BRANCH   1   2
ATOM      2  C   UNL     1       3.142 -37.205  17.917  1.00  0.00     0.000 C 
BRANCH   2   3
ATOM      3  C   UNL     1       4.514 -36.649  18.332  1.00  0.00     0.000 C 
BRANCH   3   4
ATOM      4  C   UNL     1       5.296 -37.615  19.239  1.00  0.00     0.006 C 
BRANCH   4   5
ATOM      5  C   UNL     1       5.667 -36.973  20.583  1.00  0.00     0.053 C 
BRANCH   5   6
ATOM      6  C   UNL     1       4.457 -36.725  21.431  1.00  0.00     0.041 C 
ATOM      7  O   UNL     1       3.888 -37.681  22.021  1.00  0.00    -0.550 OA
ATOM      8  O   UNL     1       3.979 -35.431  21.597  1.00  0.00    -0.550 OA
ENDBRANCH   5   6
ENDBRANCH   4   5
ENDBRANCH   3   4
ENDBRANCH   2   3
ENDBRANCH   1   2
BRANCH   1   9
ATOM      9  C   UNL     1       1.342 -37.915  19.588  1.00  0.00     0.000 C 
BRANCH   9  10
ATOM     10  C   UNL     1       0.464 -37.453  20.766  1.00  0.00    -0.000 C 
BRANCH  10  11
ATOM     11  C   UNL     1       0.434 -35.924  20.916  1.00  0.00    -0.000 C 
BRANCH  11  12
ATOM     12  C   UNL     1      -0.929 -35.403  21.393  1.00  0.00    -0.000 C 
BRANCH  12  13
ATOM     13  C   UNL     1      -2.074 -36.134  20.681  1.00  0.00    -0.003 C 
ATOM     14  C   UNL     1      -3.164 -36.544  21.667  1.00  0.00     0.004 C 
ENDBRANCH  12  13
ENDBRANCH  11  12
ENDBRANCH  10  11
ENDBRANCH   9  10
ENDBRANCH   1   9
TORSDOF 10
ENDMDL
