MODEL 1
REMARK VINA RESULT:    -7.731      0.000      0.000
REMARK INTER + INTRA:          -9.337
REMARK INTER:                  -9.313
REMARK INTRA:                  -0.024
REMARK UNBOUND:                -0.024
REMARK SMILES O=c1c(O)c(-c2ccc(O)c(O)c2)oc2cc(O)cc(O)c12
REMARK SMILES IDX 5 1 3 2 2 3 1 4 22 5 20 6 19 7 17 8 16 9 15 10 14 11 6 12
REMARK SMILES IDX 7 13 8 14 9 15 13 16 11 17 10 18 12 20 4 22 21 24 18 26
REMARK H PARENT 10 19 12 21 4 23 21 25 18 27
REMARK Flexibility Score: inf
ROOT
ATOM      1  C   UNL     1     -17.072 -33.566  -8.615  1.00  0.00     0.180 A 
ATOM      2  C   UNL     1     -17.820 -34.355  -9.512  1.00  0.00     0.208 A 
ATOM      3  C   UNL     1     -18.243 -33.787 -10.724  1.00  0.00     0.238 A 
ATOM      4  O   UNL     1     -18.904 -34.486 -11.539  1.00  0.00    -0.285 OA
ATOM      5  C   UNL     1     -17.931 -32.442 -11.010  1.00  0.00     0.111 A 
ATOM      6  C   UNL     1     -18.324 -31.794 -12.207  1.00  0.00     0.134 A 
ATOM      7  C   UNL     1     -17.982 -30.449 -12.414  1.00  0.00     0.093 A 
ATOM      8  C   UNL     1     -17.257 -29.742 -11.448  1.00  0.00     0.123 A 
ATOM      9  C   UNL     1     -16.868 -30.376 -10.268  1.00  0.00     0.094 A 
ATOM     10  C   UNL     1     -17.198 -31.716 -10.043  1.00  0.00     0.146 A 
ATOM     11  O   UNL     1     -16.810 -32.296  -8.913  1.00  0.00    -0.452 OA
ENDROOT
BRANCH   1  12
ATOM     12  C   UNL     1     -16.574 -34.098  -7.327  1.00  0.00     0.025 A 
ATOM     13  C   UNL     1     -17.436 -34.728  -6.413  1.00  0.00     0.016 A 
ATOM     14  C   UNL     1     -16.939 -35.243  -5.213  1.00  0.00     0.051 A 
ATOM     15  C   UNL     1     -15.573 -35.151  -4.915  1.00  0.00     0.157 A 
ATOM     16  C   UNL     1     -15.202 -34.025  -7.033  1.00  0.00     0.062 A 
ATOM     17  C   UNL     1     -14.701 -34.541  -5.833  1.00  0.00     0.158 A 
BRANCH  15  18
ATOM     18  O   UNL     1     -15.080 -35.665  -3.717  1.00  0.00    -0.504 OA
ATOM     19  H   UNL     1     -14.497 -35.110  -3.101  1.00  0.00     0.293 HD
ENDBRANCH  15  18
BRANCH  17  20
ATOM     20  O   UNL     1     -13.335 -34.439  -5.570  1.00  0.00    -0.504 OA
ATOM     21  H   UNL     1     -12.913 -34.850  -4.746  1.00  0.00     0.293 HD
ENDBRANCH  17  20
ENDBRANCH   1  12
BRANCH   2  22
ATOM     22  O   UNL     1     -18.158 -35.670  -9.182  1.00  0.00    -0.502 OA
ATOM     23  H   UNL     1     -17.679 -36.187  -8.455  1.00  0.00     0.293 HD
ENDBRANCH   2  22
BRANCH   6  24
ATOM     24  O   UNL     1     -19.047 -32.474 -13.188  1.00  0.00    -0.507 OA
ATOM     25  H   UNL     1     -18.663 -32.646 -14.110  1.00  0.00     0.293 HD
ENDBRANCH   6  24
BRANCH   8  26
ATOM     26  O   UNL     1     -16.919 -28.405 -11.653  1.00  0.00    -0.508 OA
ATOM     27  H   UNL     1     -16.680 -28.055 -12.573  1.00  0.00     0.293 HD
ENDBRANCH   8  26
TORSDOF 6
ENDMDL
MODEL 2
REMARK VINA RESULT:    -7.505      2.022      2.878
REMARK INTER + INTRA:          -9.064
REMARK INTER:                  -9.395
REMARK INTRA:                   0.331
REMARK UNBOUND:                -0.024
REMARK SMILES O=c1c(O)c(-c2ccc(O)c(O)c2)oc2cc(O)cc(O)c12
REMARK SMILES IDX 5 1 3 2 2 3 1 4 22 5 20 6 19 7 17 8 16 9 15 10 14 11 6 12
REMARK SMILES IDX 7 13 8 14 9 15 13 16 11 17 10 18 12 20 4 22 21 24 18 26
REMARK H PARENT 10 19 12 21 4 23 21 25 18 27
REMARK Flexibility Score: inf
ROOT
ATOM      1  C   UNL     1     -16.829 -34.979  -6.511  1.00  0.00     0.180 A 
ATOM      2  C   UNL     1     -17.831 -35.818  -7.039  1.00  0.00     0.208 A 
ATOM      3  C   UNL     1     -18.236 -35.635  -8.371  1.00  0.00     0.238 A 
ATOM      4  O   UNL     1     -19.125 -36.385  -8.857  1.00  0.00    -0.285 OA
ATOM      5  C   UNL     1     -17.652 -34.609  -9.143  1.00  0.00     0.111 A 
ATOM      6  C   UNL     1     -18.007 -34.356 -10.490  1.00  0.00     0.134 A 
ATOM      7  C   UNL     1     -17.385 -33.311 -11.188  1.00  0.00     0.093 A 
ATOM      8  C   UNL     1     -16.417 -32.515 -10.566  1.00  0.00     0.123 A 
ATOM      9  C   UNL     1     -16.064 -32.760  -9.238  1.00  0.00     0.094 A 
ATOM     10  C   UNL     1     -16.671 -33.799  -8.525  1.00  0.00     0.146 A 
ATOM     11  O   UNL     1     -16.311 -34.013  -7.265  1.00  0.00    -0.452 OA
ENDROOT
BRANCH   1  12
ATOM     12  C   UNL     1     -16.335 -35.122  -5.123  1.00  0.00     0.025 A 
ATOM     13  C   UNL     1     -16.470 -36.331  -4.419  1.00  0.00     0.016 A 
ATOM     14  C   UNL     1     -15.975 -36.450  -3.117  1.00  0.00     0.051 A 
ATOM     15  C   UNL     1     -15.325 -35.369  -2.506  1.00  0.00     0.157 A 
ATOM     16  C   UNL     1     -15.666 -34.048  -4.514  1.00  0.00     0.062 A 
ATOM     17  C   UNL     1     -15.168 -34.163  -3.211  1.00  0.00     0.158 A 
BRANCH  15  18
ATOM     18  O   UNL     1     -14.834 -35.489  -1.208  1.00  0.00    -0.504 OA
ATOM     19  H   UNL     1     -13.896 -35.827  -1.024  1.00  0.00     0.293 HD
ENDBRANCH  15  18
BRANCH  17  20
ATOM     20  O   UNL     1     -14.522 -33.071  -2.634  1.00  0.00    -0.504 OA
ATOM     21  H   UNL     1     -13.779 -33.182  -1.955  1.00  0.00     0.293 HD
ENDBRANCH  17  20
ENDBRANCH   1  12
BRANCH   2  22
ATOM     22  O   UNL     1     -18.430 -36.793  -6.238  1.00  0.00    -0.502 OA
ATOM     23  H   UNL     1     -18.244 -36.869  -5.245  1.00  0.00     0.293 HD
ENDBRANCH   2  22
BRANCH   6  24
ATOM     24  O   UNL     1     -18.969 -35.133 -11.137  1.00  0.00    -0.507 OA
ATOM     25  H   UNL     1     -19.564 -35.778 -10.628  1.00  0.00     0.293 HD
ENDBRANCH   6  24
BRANCH   8  26
ATOM     26  O   UNL     1     -15.800 -31.475 -11.259  1.00  0.00    -0.508 OA
ATOM     27  H   UNL     1     -14.791 -31.411 -11.328  1.00  0.00     0.293 HD
ENDBRANCH   8  26
TORSDOF 6
ENDMDL
MODEL 3
REMARK VINA RESULT:    -7.497      1.250      1.426
REMARK INTER + INTRA:          -9.054
REMARK INTER:                  -9.185
REMARK INTRA:                   0.131
REMARK UNBOUND:                -0.024
REMARK SMILES O=c1c(O)c(-c2ccc(O)c(O)c2)oc2cc(O)cc(O)c12
REMARK SMILES IDX 5 1 3 2 2 3 1 4 22 5 20 6 19 7 17 8 16 9 15 10 14 11 6 12
REMARK SMILES IDX 7 13 8 14 9 15 13 16 11 17 10 18 12 20 4 22 21 24 18 26
REMARK H PARENT 10 19 12 21 4 23 21 25 18 27
REMARK Flexibility Score: inf
ROOT
ATOM      1  C   UNL     1     -17.041 -33.034  -8.992  1.00  0.00     0.180 A 
ATOM      2  C   UNL     1     -17.914 -33.392 -10.039  1.00  0.00     0.208 A 
ATOM      3  C   UNL     1     -17.931 -32.609 -11.204  1.00  0.00     0.238 A 
ATOM      4  O   UNL     1     -18.700 -32.925 -12.152  1.00  0.00    -0.285 OA
ATOM      5  C   UNL     1     -17.097 -31.476 -11.296  1.00  0.00     0.111 A 
ATOM      6  C   UNL     1     -17.058 -30.633 -12.433  1.00  0.00     0.134 A 
ATOM      7  C   UNL     1     -16.206 -29.518 -12.443  1.00  0.00     0.093 A 
ATOM      8  C   UNL     1     -15.395 -29.231 -11.340  1.00  0.00     0.123 A 
ATOM      9  C   UNL     1     -15.429 -30.059 -10.217  1.00  0.00     0.094 A 
ATOM     10  C   UNL     1     -16.271 -31.176 -10.188  1.00  0.00     0.146 A 
ATOM     11  O   UNL     1     -16.279 -31.950  -9.108  1.00  0.00    -0.452 OA
ENDROOT
BRANCH   1  12
ATOM     12  C   UNL     1     -16.951 -33.820  -7.741  1.00  0.00     0.025 A 
ATOM     13  C   UNL     1     -18.099 -34.341  -7.119  1.00  0.00     0.016 A 
ATOM     14  C   UNL     1     -17.987 -35.100  -5.951  1.00  0.00     0.051 A 
ATOM     15  C   UNL     1     -16.728 -35.361  -5.395  1.00  0.00     0.157 A 
ATOM     16  C   UNL     1     -15.689 -34.102  -7.191  1.00  0.00     0.062 A 
ATOM     17  C   UNL     1     -15.573 -34.862  -6.022  1.00  0.00     0.158 A 
BRANCH  15  18
ATOM     18  O   UNL     1     -16.619 -36.117  -4.230  1.00  0.00    -0.504 OA
ATOM     19  H   UNL     1     -16.150 -35.758  -3.406  1.00  0.00     0.293 HD
ENDBRANCH  15  18
BRANCH  17  20
ATOM     20  O   UNL     1     -14.305 -35.109  -5.498  1.00  0.00    -0.504 OA
ATOM     21  H   UNL     1     -14.084 -35.967  -5.007  1.00  0.00     0.293 HD
ENDBRANCH  17  20
ENDBRANCH   1  12
BRANCH   2  22
ATOM     22  O   UNL     1     -18.766 -34.490  -9.903  1.00  0.00    -0.502 OA
ATOM     23  H   UNL     1     -19.709 -34.493 -10.273  1.00  0.00     0.293 HD
ENDBRANCH   2  22
BRANCH   6  24
ATOM     24  O   UNL     1     -17.856 -30.893 -13.548  1.00  0.00    -0.507 OA
ATOM     25  H   UNL     1     -18.514 -31.664 -13.563  1.00  0.00     0.293 HD
ENDBRANCH   6  24
BRANCH   8  26
ATOM     26  O   UNL     1     -14.549 -28.123 -11.349  1.00  0.00    -0.508 OA
ATOM     27  H   UNL     1     -14.890 -27.195 -11.129  1.00  0.00     0.293 HD
ENDBRANCH   8  26
TORSDOF 6
ENDMDL
MODEL 4
REMARK VINA RESULT:    -7.429      1.892      3.521
REMARK INTER + INTRA:          -8.972
REMARK INTER:                  -8.709
REMARK INTRA:                  -0.263
REMARK UNBOUND:                -0.024
REMARK SMILES O=c1c(O)c(-c2ccc(O)c(O)c2)oc2cc(O)cc(O)c12
REMARK SMILES IDX 5 1 3 2 2 3 1 4 22 5 20 6 19 7 17 8 16 9 15 10 14 11 6 12
REMARK SMILES IDX 7 13 8 14 9 15 13 16 11 17 10 18 12 20 4 22 21 24 18 26
REMARK H PARENT 10 19 12 21 4 23 21 25 18 27
REMARK Flexibility Score: inf
ROOT
ATOM      1  C   UNL     1     -16.825 -31.747  -9.707  1.00  0.00     0.180 A 
ATOM      2  C   UNL     1     -16.499 -30.406  -9.420  1.00  0.00     0.208 A 
ATOM      3  C   UNL     1     -16.476 -29.474 -10.470  1.00  0.00     0.238 A 
ATOM      4  O   UNL     1     -16.197 -28.270 -10.224  1.00  0.00    -0.285 OA
ATOM      5  C   UNL     1     -16.757 -29.899 -11.785  1.00  0.00     0.111 A 
ATOM      6  C   UNL     1     -16.751 -29.024 -12.899  1.00  0.00     0.134 A 
ATOM      7  C   UNL     1     -17.032 -29.526 -14.178  1.00  0.00     0.093 A 
ATOM      8  C   UNL     1     -17.319 -30.883 -14.365  1.00  0.00     0.123 A 
ATOM      9  C   UNL     1     -17.326 -31.749 -13.270  1.00  0.00     0.094 A 
ATOM     10  C   UNL     1     -17.050 -31.268 -11.987  1.00  0.00     0.146 A 
ATOM     11  O   UNL     1     -17.069 -32.113 -10.962  1.00  0.00    -0.452 OA
ENDROOT
BRANCH   1  12
ATOM     12  C   UNL     1     -16.888 -32.783  -8.652  1.00  0.00     0.025 A 
ATOM     13  C   UNL     1     -18.117 -33.291  -8.197  1.00  0.00     0.016 A 
ATOM     14  C   UNL     1     -18.152 -34.286  -7.217  1.00  0.00     0.051 A 
ATOM     15  C   UNL     1     -16.960 -34.799  -6.688  1.00  0.00     0.157 A 
ATOM     16  C   UNL     1     -15.696 -33.315  -8.134  1.00  0.00     0.062 A 
ATOM     17  C   UNL     1     -15.726 -34.312  -7.152  1.00  0.00     0.158 A 
BRANCH  15  18
ATOM     18  O   UNL     1     -16.997 -35.790  -5.709  1.00  0.00    -0.504 OA
ATOM     19  H   UNL     1     -16.148 -36.188  -5.324  1.00  0.00     0.293 HD
ENDBRANCH  15  18
BRANCH  17  20
ATOM     20  O   UNL     1     -14.522 -34.806  -6.651  1.00  0.00    -0.504 OA
ATOM     21  H   UNL     1     -13.633 -34.605  -7.092  1.00  0.00     0.293 HD
ENDBRANCH  17  20
ENDBRANCH   1  12
BRANCH   2  22
ATOM     22  O   UNL     1     -16.176 -30.021  -8.117  1.00  0.00    -0.502 OA
ATOM     23  H   UNL     1     -16.509 -29.157  -7.708  1.00  0.00     0.293 HD
ENDBRANCH   2  22
BRANCH   6  24
ATOM     24  O   UNL     1     -16.468 -27.666 -12.744  1.00  0.00    -0.507 OA
ATOM     25  H   UNL     1     -15.628 -27.250 -13.129  1.00  0.00     0.293 HD
ENDBRANCH   6  24
BRANCH   8  26
ATOM     26  O   UNL     1     -17.597 -31.382 -15.636  1.00  0.00    -0.508 OA
ATOM     27  H   UNL     1     -17.268 -32.294 -15.930  1.00  0.00     0.293 HD
ENDBRANCH   8  26
TORSDOF 6
ENDMDL
MODEL 5
REMARK VINA RESULT:    -7.385      2.171      3.677
REMARK INTER + INTRA:          -8.919
REMARK INTER:                  -8.935
REMARK INTRA:                   0.016
REMARK UNBOUND:                -0.024
REMARK SMILES O=c1c(O)c(-c2ccc(O)c(O)c2)oc2cc(O)cc(O)c12
REMARK SMILES IDX 5 1 3 2 2 3 1 4 22 5 20 6 19 7 17 8 16 9 15 10 14 11 6 12
REMARK SMILES IDX 7 13 8 14 9 15 13 16 11 17 10 18 12 20 4 22 21 24 18 26
REMARK H PARENT 10 19 12 21 4 23 21 25 18 27
REMARK Flexibility Score: inf
ROOT
ATOM      1  C   UNL     1     -16.855 -32.661  -9.405  1.00  0.00     0.180 A 
ATOM      2  C   UNL     1     -15.632 -32.091  -8.997  1.00  0.00     0.208 A 
ATOM      3  C   UNL     1     -15.169 -30.939  -9.652  1.00  0.00     0.238 A 
ATOM      4  O   UNL     1     -14.082 -30.414  -9.290  1.00  0.00    -0.285 OA
ATOM      5  C   UNL     1     -15.920 -30.391 -10.712  1.00  0.00     0.111 A 
ATOM      6  C   UNL     1     -15.522 -29.235 -11.427  1.00  0.00     0.134 A 
ATOM      7  C   UNL     1     -16.321 -28.756 -12.475  1.00  0.00     0.093 A 
ATOM      8  C   UNL     1     -17.508 -29.409 -12.823  1.00  0.00     0.123 A 
ATOM      9  C   UNL     1     -17.905 -30.549 -12.122  1.00  0.00     0.094 A 
ATOM     10  C   UNL     1     -17.123 -31.041 -11.072  1.00  0.00     0.146 A 
ATOM     11  O   UNL     1     -17.529 -32.124 -10.418  1.00  0.00    -0.452 OA
ENDROOT
BRANCH   1  12
ATOM     12  C   UNL     1     -17.418 -33.864  -8.751  1.00  0.00     0.025 A 
ATOM     13  C   UNL     1     -17.793 -34.995  -9.496  1.00  0.00     0.016 A 
ATOM     14  C   UNL     1     -18.301 -36.127  -8.854  1.00  0.00     0.051 A 
ATOM     15  C   UNL     1     -18.427 -36.153  -7.459  1.00  0.00     0.157 A 
ATOM     16  C   UNL     1     -17.527 -33.901  -7.350  1.00  0.00     0.062 A 
ATOM     17  C   UNL     1     -18.035 -35.034  -6.704  1.00  0.00     0.158 A 
BRANCH  15  18
ATOM     18  O   UNL     1     -18.935 -37.283  -6.822  1.00  0.00    -0.504 OA
ATOM     19  H   UNL     1     -18.942 -37.365  -5.811  1.00  0.00     0.293 HD
ENDBRANCH  15  18
BRANCH  17  20
ATOM     20  O   UNL     1     -18.142 -35.030  -5.314  1.00  0.00    -0.504 OA
ATOM     21  H   UNL     1     -18.117 -35.884  -4.770  1.00  0.00     0.293 HD
ENDBRANCH  17  20
ENDBRANCH   1  12
BRANCH   2  22
ATOM     22  O   UNL     1     -14.882 -32.683  -7.978  1.00  0.00    -0.502 OA
ATOM     23  H   UNL     1     -14.386 -33.556  -8.107  1.00  0.00     0.293 HD
ENDBRANCH   2  22
BRANCH   6  24
ATOM     24  O   UNL     1     -14.343 -28.562 -11.103  1.00  0.00    -0.507 OA
ATOM     25  H   UNL     1     -14.354 -27.632 -10.698  1.00  0.00     0.293 HD
ENDBRANCH   6  24
BRANCH   8  26
ATOM     26  O   UNL     1     -18.302 -28.934 -13.865  1.00  0.00    -0.508 OA
ATOM     27  H   UNL     1     -19.033 -28.251 -13.705  1.00  0.00     0.293 HD
ENDBRANCH   8  26
TORSDOF 6
ENDMDL
MODEL 6
REMARK VINA RESULT:    -7.310      1.700      2.091
REMARK INTER + INTRA:          -8.829
REMARK INTER:                  -8.923
REMARK INTRA:                   0.093
REMARK UNBOUND:                -0.024
REMARK SMILES O=c1c(O)c(-c2ccc(O)c(O)c2)oc2cc(O)cc(O)c12
REMARK SMILES IDX 5 1 3 2 2 3 1 4 22 5 20 6 19 7 17 8 16 9 15 10 14 11 6 12
REMARK SMILES IDX 7 13 8 14 9 15 13 16 11 17 10 18 12 20 4 22 21 24 18 26
REMARK H PARENT 10 19 12 21 4 23 21 25 18 27
REMARK Flexibility Score: inf
ROOT
ATOM      1  C   UNL     1     -15.967 -32.411  -9.519  1.00  0.00     0.180 A 
ATOM      2  C   UNL     1     -16.803 -32.877 -10.553  1.00  0.00     0.208 A 
ATOM      3  C   UNL     1     -16.998 -32.069 -11.684  1.00  0.00     0.238 A 
ATOM      4  O   UNL     1     -17.736 -32.480 -12.620  1.00  0.00    -0.285 OA
ATOM      5  C   UNL     1     -16.375 -30.806 -11.754  1.00  0.00     0.111 A 
ATOM      6  C   UNL     1     -16.524 -29.929 -12.856  1.00  0.00     0.134 A 
ATOM      7  C   UNL     1     -15.877 -28.684 -12.847  1.00  0.00     0.093 A 
ATOM      8  C   UNL     1     -15.087 -28.300 -11.758  1.00  0.00     0.123 A 
ATOM      9  C   UNL     1     -14.937 -29.160 -10.669  1.00  0.00     0.094 A 
ATOM     10  C   UNL     1     -15.572 -30.406 -10.661  1.00  0.00     0.146 A 
ATOM     11  O   UNL     1     -15.408 -31.208  -9.614  1.00  0.00    -0.452 OA
ENDROOT
BRANCH   1  12
ATOM     12  C   UNL     1     -15.697 -33.213  -8.305  1.00  0.00     0.025 A 
ATOM     13  C   UNL     1     -16.726 -33.895  -7.633  1.00  0.00     0.016 A 
ATOM     14  C   UNL     1     -16.443 -34.665  -6.502  1.00  0.00     0.051 A 
ATOM     15  C   UNL     1     -15.127 -34.777  -6.034  1.00  0.00     0.157 A 
ATOM     16  C   UNL     1     -14.376 -33.344  -7.844  1.00  0.00     0.062 A 
ATOM     17  C   UNL     1     -14.089 -34.115  -6.711  1.00  0.00     0.158 A 
BRANCH  15  18
ATOM     18  O   UNL     1     -14.849 -35.544  -4.905  1.00  0.00    -0.504 OA
ATOM     19  H   UNL     1     -14.621 -36.529  -4.975  1.00  0.00     0.293 HD
ENDBRANCH  15  18
BRANCH  17  20
ATOM     20  O   UNL     1     -12.768 -34.212  -6.275  1.00  0.00    -0.504 OA
ATOM     21  H   UNL     1     -12.035 -33.618  -6.644  1.00  0.00     0.293 HD
ENDBRANCH  17  20
ENDBRANCH   1  12
BRANCH   2  22
ATOM     22  O   UNL     1     -17.448 -34.111 -10.437  1.00  0.00    -0.502 OA
ATOM     23  H   UNL     1     -17.093 -34.856  -9.850  1.00  0.00     0.293 HD
ENDBRANCH   2  22
BRANCH   6  24
ATOM     24  O   UNL     1     -17.305 -30.285 -13.956  1.00  0.00    -0.507 OA
ATOM     25  H   UNL     1     -17.683 -29.588 -14.589  1.00  0.00     0.293 HD
ENDBRANCH   6  24
BRANCH   8  26
ATOM     26  O   UNL     1     -14.445 -27.063 -11.747  1.00  0.00    -0.508 OA
ATOM     27  H   UNL     1     -13.449 -26.985 -11.579  1.00  0.00     0.293 HD
ENDBRANCH   8  26
TORSDOF 6
ENDMDL
MODEL 7
REMARK VINA RESULT:    -7.146      1.787      7.029
REMARK INTER + INTRA:          -8.632
REMARK INTER:                  -8.576
REMARK INTRA:                  -0.057
REMARK UNBOUND:                -0.024
REMARK SMILES O=c1c(O)c(-c2ccc(O)c(O)c2)oc2cc(O)cc(O)c12
REMARK SMILES IDX 5 1 3 2 2 3 1 4 22 5 20 6 19 7 17 8 16 9 15 10 14 11 6 12
REMARK SMILES IDX 7 13 8 14 9 15 13 16 11 17 10 18 12 20 4 22 21 24 18 26
REMARK H PARENT 10 19 12 21 4 23 21 25 18 27
REMARK Flexibility Score: inf
ROOT
ATOM      1  C   UNL     1     -17.086 -32.000 -11.059  1.00  0.00     0.180 A 
ATOM      2  C   UNL     1     -18.023 -33.012 -10.771  1.00  0.00     0.208 A 
ATOM      3  C   UNL     1     -17.820 -33.823  -9.643  1.00  0.00     0.238 A 
ATOM      4  O   UNL     1     -18.657 -34.725  -9.370  1.00  0.00    -0.285 OA
ATOM      5  C   UNL     1     -16.679 -33.625  -8.838  1.00  0.00     0.111 A 
ATOM      6  C   UNL     1     -16.398 -34.402  -7.688  1.00  0.00     0.134 A 
ATOM      7  C   UNL     1     -15.237 -34.148  -6.944  1.00  0.00     0.093 A 
ATOM      8  C   UNL     1     -14.352 -33.135  -7.328  1.00  0.00     0.123 A 
ATOM      9  C   UNL     1     -14.624 -32.366  -8.461  1.00  0.00     0.094 A 
ATOM     10  C   UNL     1     -15.777 -32.602  -9.215  1.00  0.00     0.146 A 
ATOM     11  O   UNL     1     -16.014 -31.852 -10.285  1.00  0.00    -0.452 OA
ENDROOT
BRANCH   1  12
ATOM     12  C   UNL     1     -17.241 -31.092 -12.218  1.00  0.00     0.025 A 
ATOM     13  C   UNL     1     -17.247 -29.695 -12.058  1.00  0.00     0.016 A 
ATOM     14  C   UNL     1     -17.371 -28.858 -13.170  1.00  0.00     0.051 A 
ATOM     15  C   UNL     1     -17.476 -29.402 -14.457  1.00  0.00     0.157 A 
ATOM     16  C   UNL     1     -17.326 -31.632 -13.512  1.00  0.00     0.062 A 
ATOM     17  C   UNL     1     -17.450 -30.796 -14.627  1.00  0.00     0.158 A 
BRANCH  15  18
ATOM     18  O   UNL     1     -17.601 -28.564 -15.564  1.00  0.00    -0.504 OA
ATOM     19  H   UNL     1     -17.601 -28.929 -16.509  1.00  0.00     0.293 HD
ENDBRANCH  15  18
BRANCH  17  20
ATOM     20  O   UNL     1     -17.546 -31.369 -15.895  1.00  0.00    -0.504 OA
ATOM     21  H   UNL     1     -17.222 -32.310 -16.086  1.00  0.00     0.293 HD
ENDBRANCH  17  20
ENDBRANCH   1  12
BRANCH   2  22
ATOM     22  O   UNL     1     -19.119 -33.220 -11.612  1.00  0.00    -0.502 OA
ATOM     23  H   UNL     1     -19.772 -32.482 -11.845  1.00  0.00     0.293 HD
ENDBRANCH   2  22
BRANCH   6  24
ATOM     24  O   UNL     1     -17.262 -35.420  -7.281  1.00  0.00    -0.507 OA
ATOM     25  H   UNL     1     -17.365 -35.673  -6.305  1.00  0.00     0.293 HD
ENDBRANCH   6  24
BRANCH   8  26
ATOM     26  O   UNL     1     -13.197 -32.883  -6.590  1.00  0.00    -0.508 OA
ATOM     27  H   UNL     1     -12.360 -32.513  -7.026  1.00  0.00     0.293 HD
ENDBRANCH   8  26
TORSDOF 6
ENDMDL
MODEL 8
REMARK VINA RESULT:    -7.047      1.917      7.126
REMARK INTER + INTRA:          -8.512
REMARK INTER:                  -8.327
REMARK INTRA:                  -0.186
REMARK UNBOUND:                -0.024
REMARK SMILES O=c1c(O)c(-c2ccc(O)c(O)c2)oc2cc(O)cc(O)c12
REMARK SMILES IDX 5 1 3 2 2 3 1 4 22 5 20 6 19 7 17 8 16 9 15 10 14 11 6 12
REMARK SMILES IDX 7 13 8 14 9 15 13 16 11 17 10 18 12 20 4 22 21 24 18 26
REMARK H PARENT 10 19 12 21 4 23 21 25 18 27
REMARK Flexibility Score: inf
ROOT
ATOM      1  C   UNL     1     -16.058 -31.989  -9.463  1.00  0.00     0.180 A 
ATOM      2  C   UNL     1     -14.794 -32.088  -8.849  1.00  0.00     0.208 A 
ATOM      3  C   UNL     1     -14.624 -32.992  -7.789  1.00  0.00     0.238 A 
ATOM      4  O   UNL     1     -13.495 -33.097  -7.238  1.00  0.00    -0.285 OA
ATOM      5  C   UNL     1     -15.720 -33.762  -7.347  1.00  0.00     0.111 A 
ATOM      6  C   UNL     1     -15.633 -34.692  -6.283  1.00  0.00     0.134 A 
ATOM      7  C   UNL     1     -16.772 -35.415  -5.897  1.00  0.00     0.093 A 
ATOM      8  C   UNL     1     -17.993 -35.226  -6.554  1.00  0.00     0.123 A 
ATOM      9  C   UNL     1     -18.083 -34.311  -7.603  1.00  0.00     0.094 A 
ATOM     10  C   UNL     1     -16.959 -33.581  -8.004  1.00  0.00     0.146 A 
ATOM     11  O   UNL     1     -17.072 -32.721  -9.010  1.00  0.00    -0.452 OA
ENDROOT
BRANCH   1  12
ATOM     12  C   UNL     1     -16.311 -31.074 -10.599  1.00  0.00     0.025 A 
ATOM     13  C   UNL     1     -16.630 -31.563 -11.877  1.00  0.00     0.016 A 
ATOM     14  C   UNL     1     -16.888 -30.680 -12.928  1.00  0.00     0.051 A 
ATOM     15  C   UNL     1     -16.846 -29.296 -12.715  1.00  0.00     0.157 A 
ATOM     16  C   UNL     1     -16.290 -29.685 -10.385  1.00  0.00     0.062 A 
ATOM     17  C   UNL     1     -16.548 -28.797 -11.435  1.00  0.00     0.158 A 
BRANCH  15  18
ATOM     18  O   UNL     1     -17.102 -28.417 -13.766  1.00  0.00    -0.504 OA
ATOM     19  H   UNL     1     -17.991 -27.939 -13.854  1.00  0.00     0.293 HD
ENDBRANCH  15  18
BRANCH  17  20
ATOM     20  O   UNL     1     -16.505 -27.426 -11.189  1.00  0.00    -0.504 OA
ATOM     21  H   UNL     1     -16.493 -26.744 -11.938  1.00  0.00     0.293 HD
ENDBRANCH  17  20
ENDBRANCH   1  12
BRANCH   2  22
ATOM     22  O   UNL     1     -13.738 -31.277  -9.273  1.00  0.00    -0.502 OA
ATOM     23  H   UNL     1     -12.784 -31.612  -9.322  1.00  0.00     0.293 HD
ENDBRANCH   2  22
BRANCH   6  24
ATOM     24  O   UNL     1     -14.430 -34.902  -5.608  1.00  0.00    -0.507 OA
ATOM     25  H   UNL     1     -13.900 -35.760  -5.719  1.00  0.00     0.293 HD
ENDBRANCH   6  24
BRANCH   8  26
ATOM     26  O   UNL     1     -19.125 -35.943  -6.170  1.00  0.00    -0.508 OA
ATOM     27  H   UNL     1     -19.221 -36.930  -6.378  1.00  0.00     0.293 HD
ENDBRANCH   8  26
TORSDOF 6
ENDMDL
MODEL 9
REMARK VINA RESULT:    -7.007      2.022      7.512
REMARK INTER + INTRA:          -8.465
REMARK INTER:                  -8.379
REMARK INTRA:                  -0.086
REMARK UNBOUND:                -0.024
REMARK SMILES O=c1c(O)c(-c2ccc(O)c(O)c2)oc2cc(O)cc(O)c12
REMARK SMILES IDX 5 1 3 2 2 3 1 4 22 5 20 6 19 7 17 8 16 9 15 10 14 11 6 12
REMARK SMILES IDX 7 13 8 14 9 15 13 16 11 17 10 18 12 20 4 22 21 24 18 26
REMARK H PARENT 10 19 12 21 4 23 21 25 18 27
REMARK Flexibility Score: inf
ROOT
ATOM      1  C   UNL     1     -16.880 -31.565 -11.115  1.00  0.00     0.180 A 
ATOM      2  C   UNL     1     -15.771 -31.252 -10.304  1.00  0.00     0.208 A 
ATOM      3  C   UNL     1     -15.519 -32.036  -9.167  1.00  0.00     0.238 A 
ATOM      4  O   UNL     1     -14.524 -31.772  -8.440  1.00  0.00    -0.285 OA
ATOM      5  C   UNL     1     -16.387 -33.100  -8.848  1.00  0.00     0.111 A 
ATOM      6  C   UNL     1     -16.207 -33.935  -7.719  1.00  0.00     0.134 A 
ATOM      7  C   UNL     1     -17.120 -34.969  -7.465  1.00  0.00     0.093 A 
ATOM      8  C   UNL     1     -18.208 -35.184  -8.317  1.00  0.00     0.123 A 
ATOM      9  C   UNL     1     -18.391 -34.364  -9.432  1.00  0.00     0.094 A 
ATOM     10  C   UNL     1     -17.491 -33.328  -9.703  1.00  0.00     0.146 A 
ATOM     11  O   UNL     1     -17.685 -32.567 -10.774  1.00  0.00    -0.452 OA
ENDROOT
BRANCH   1  12
ATOM     12  C   UNL     1     -17.200 -30.797 -12.340  1.00  0.00     0.025 A 
ATOM     13  C   UNL     1     -17.421 -29.410 -12.298  1.00  0.00     0.016 A 
ATOM     14  C   UNL     1     -17.699 -28.703 -13.471  1.00  0.00     0.051 A 
ATOM     15  C   UNL     1     -17.745 -29.368 -14.703  1.00  0.00     0.157 A 
ATOM     16  C   UNL     1     -17.227 -31.457 -13.580  1.00  0.00     0.062 A 
ATOM     17  C   UNL     1     -17.504 -30.752 -14.757  1.00  0.00     0.158 A 
BRANCH  15  18
ATOM     18  O   UNL     1     -18.023 -28.661 -15.871  1.00  0.00    -0.504 OA
ATOM     19  H   UNL     1     -17.513 -27.820 -16.117  1.00  0.00     0.293 HD
ENDBRANCH  15  18
BRANCH  17  20
ATOM     20  O   UNL     1     -17.537 -31.442 -15.968  1.00  0.00    -0.504 OA
ATOM     21  H   UNL     1     -16.691 -31.701 -16.462  1.00  0.00     0.293 HD
ENDBRANCH  17  20
ENDBRANCH   1  12
BRANCH   2  22
ATOM     22  O   UNL     1     -14.955 -30.161 -10.614  1.00  0.00    -0.502 OA
ATOM     23  H   UNL     1     -14.089 -29.975 -10.125  1.00  0.00     0.293 HD
ENDBRANCH   2  22
BRANCH   6  24
ATOM     24  O   UNL     1     -15.131 -33.745  -6.850  1.00  0.00    -0.507 OA
ATOM     25  H   UNL     1     -14.904 -34.419  -6.127  1.00  0.00     0.293 HD
ENDBRANCH   6  24
BRANCH   8  26
ATOM     26  O   UNL     1     -19.117 -36.210  -8.065  1.00  0.00    -0.508 OA
ATOM     27  H   UNL     1     -19.809 -36.484  -8.752  1.00  0.00     0.293 HD
ENDBRANCH   8  26
TORSDOF 6
ENDMDL
