MODEL 1
REMARK VINA RESULT:    -6.109      0.000      0.000
REMARK INTER + INTRA:         -15.065
REMARK INTER:                 -13.251
REMARK INTRA:                  -1.814
REMARK UNBOUND:                -1.814
REMARK SMILES CCCCCCCCCCCCCCCCCCCCCC(=O)[O-]
REMARK SMILES IDX 12 1 11 2 10 3 9 4 8 5 7 6 6 7 5 8 4 9 3 10 2 11 1 12 13 13
REMARK SMILES IDX 14 14 15 15 16 16 17 17 18 18 19 19 20 20 21 21 22 22 23 23
REMARK SMILES IDX 24 24
REMARK H PARENT
REMARK Flexibility Score: inf
ROOT
ATOM      1  C   UNL     1      44.011 -48.001 160.424  1.00  0.00     0.000 C 
ENDROOT
BRANCH   1   2
ATOM      2  C   UNL     1      42.498 -47.727 160.459  1.00  0.00     0.000 C 
BRANCH   2   3
ATOM      3  C   UNL     1      41.984 -47.258 161.837  1.00  0.00     0.000 C 
BRANCH   3   4
ATOM      4  C   UNL     1      40.721 -48.015 162.275  1.00  0.00    -0.000 C 
BRANCH   4   5
ATOM      5  C   UNL     1      39.454 -47.315 161.767  1.00  0.00    -0.000 C 
BRANCH   5   6
ATOM      6  C   UNL     1      38.443 -48.335 161.223  1.00  0.00    -0.000 C 
BRANCH   6   7
ATOM      7  C   UNL     1      37.797 -49.184 162.331  1.00  0.00    -0.000 C 
BRANCH   7   8
ATOM      8  C   UNL     1      36.303 -48.874 162.521  1.00  0.00    -0.000 C 
BRANCH   8   9
ATOM      9  C   UNL     1      35.414 -50.122 162.375  1.00  0.00    -0.000 C 
BRANCH   9  10
ATOM     10  C   UNL     1      36.120 -51.437 162.769  1.00  0.00    -0.000 C 
BRANCH  10  11
ATOM     11  C   UNL     1      35.712 -52.609 161.864  1.00  0.00    -0.003 C 
ATOM     12  C   UNL     1      35.173 -52.110 160.527  1.00  0.00     0.004 C 
ENDBRANCH  10  11
ENDBRANCH   9  10
ENDBRANCH   8   9
ENDBRANCH   7   8
ENDBRANCH   6   7
ENDBRANCH   5   6
ENDBRANCH   4   5
ENDBRANCH   3   4
ENDBRANCH   2   3
ENDBRANCH   1   2
BRANCH   1  13
ATOM     13  C   UNL     1      44.729 -47.561 161.711  1.00  0.00     0.000 C 
BRANCH  13  14
ATOM     14  C   UNL     1      45.410 -48.732 162.438  1.00  0.00     0.000 C 
BRANCH  14  15
ATOM     15  C   UNL     1      44.613 -49.216 163.658  1.00  0.00     0.000 C 
BRANCH  15  16
ATOM     16  C   UNL     1      45.051 -48.473 164.927  1.00  0.00     0.000 C 
BRANCH  16  17
ATOM     17  C   UNL     1      44.252 -47.172 165.109  1.00  0.00     0.000 C 
BRANCH  17  18
ATOM     18  C   UNL     1      45.113 -45.915 164.902  1.00  0.00     0.000 C 
BRANCH  18  19
ATOM     19  C   UNL     1      46.534 -46.067 165.474  1.00  0.00     0.000 C 
BRANCH  19  20
ATOM     20  C   UNL     1      47.583 -46.370 164.386  1.00  0.00     0.006 C 
BRANCH  20  21
ATOM     21  C   UNL     1      48.878 -46.995 164.931  1.00  0.00     0.053 C 
BRANCH  21  22
ATOM     22  C   UNL     1      48.896 -48.485 164.800  1.00  0.00     0.041 C 
ATOM     23  O   UNL     1      48.514 -49.033 163.733  1.00  0.00    -0.550 OA
ATOM     24  O   UNL     1      49.319 -49.273 165.865  1.00  0.00    -0.550 OA
ENDBRANCH  21  22
ENDBRANCH  20  21
ENDBRANCH  19  20
ENDBRANCH  18  19
ENDBRANCH  17  18
ENDBRANCH  16  17
ENDBRANCH  15  16
ENDBRANCH  14  15
ENDBRANCH  13  14
ENDBRANCH   1  13
TORSDOF 20
ENDMDL
MODEL 2
REMARK VINA RESULT:    -6.072      4.088      7.030
REMARK INTER + INTRA:         -14.985
REMARK INTER:                 -13.005
REMARK INTRA:                  -1.980
REMARK UNBOUND:                -1.814
REMARK SMILES CCCCCCCCCCCCCCCCCCCCCC(=O)[O-]
REMARK SMILES IDX 12 1 11 2 10 3 9 4 8 5 7 6 6 7 5 8 4 9 3 10 2 11 1 12 13 13
REMARK SMILES IDX 14 14 15 15 16 16 17 17 18 18 19 19 20 20 21 21 22 22 23 23
REMARK SMILES IDX 24 24
REMARK H PARENT
REMARK Flexibility Score: inf
ROOT
ATOM      1  C   UNL     1      48.185 -48.145 164.578  1.00  0.00     0.000 C 
ENDROOT
BRANCH   1   2
ATOM      2  C   UNL     1      47.450 -49.125 163.648  1.00  0.00     0.000 C 
BRANCH   2   3
ATOM      3  C   UNL     1      45.938 -48.844 163.520  1.00  0.00     0.000 C 
BRANCH   3   4
ATOM      4  C   UNL     1      45.610 -47.351 163.666  1.00  0.00    -0.000 C 
BRANCH   4   5
ATOM      5  C   UNL     1      44.787 -46.847 162.473  1.00  0.00    -0.000 C 
BRANCH   5   6
ATOM      6  C   UNL     1      44.385 -48.007 161.552  1.00  0.00    -0.000 C 
BRANCH   6   7
ATOM      7  C   UNL     1      42.964 -47.851 160.983  1.00  0.00    -0.000 C 
BRANCH   7   8
ATOM      8  C   UNL     1      41.962 -47.328 162.025  1.00  0.00    -0.000 C 
BRANCH   8   9
ATOM      9  C   UNL     1      41.111 -48.450 162.646  1.00  0.00    -0.000 C 
BRANCH   9  10
ATOM     10  C   UNL     1      41.801 -49.176 163.821  1.00  0.00    -0.000 C 
BRANCH  10  11
ATOM     11  C   UNL     1      41.692 -48.388 165.134  1.00  0.00    -0.003 C 
ATOM     12  C   UNL     1      43.030 -48.351 165.867  1.00  0.00     0.004 C 
ENDBRANCH  10  11
ENDBRANCH   9  10
ENDBRANCH   8   9
ENDBRANCH   7   8
ENDBRANCH   6   7
ENDBRANCH   5   6
ENDBRANCH   4   5
ENDBRANCH   3   4
ENDBRANCH   2   3
ENDBRANCH   1   2
BRANCH   1  13
ATOM     13  C   UNL     1      49.186 -48.843 165.513  1.00  0.00     0.000 C 
BRANCH  13  14
ATOM     14  C   UNL     1      50.612 -48.287 165.372  1.00  0.00     0.000 C 
BRANCH  14  15
ATOM     15  C   UNL     1      50.637 -46.764 165.172  1.00  0.00     0.000 C 
BRANCH  15  16
ATOM     16  C   UNL     1      51.833 -46.137 165.897  1.00  0.00     0.000 C 
BRANCH  16  17
ATOM     17  C   UNL     1      53.040 -47.088 165.897  1.00  0.00     0.000 C 
BRANCH  17  18
ATOM     18  C   UNL     1      54.061 -46.751 166.996  1.00  0.00     0.000 C 
BRANCH  18  19
ATOM     19  C   UNL     1      53.866 -45.338 167.574  1.00  0.00     0.000 C 
BRANCH  19  20
ATOM     20  C   UNL     1      54.750 -44.284 166.877  1.00  0.00     0.006 C 
BRANCH  20  21
ATOM     21  C   UNL     1      53.961 -43.296 166.000  1.00  0.00     0.053 C 
BRANCH  21  22
ATOM     22  C   UNL     1      54.440 -43.276 164.584  1.00  0.00     0.041 C 
ATOM     23  O   UNL     1      54.853 -44.333 164.039  1.00  0.00    -0.550 OA
ATOM     24  O   UNL     1      54.447 -42.084 163.867  1.00  0.00    -0.550 OA
ENDBRANCH  21  22
ENDBRANCH  20  21
ENDBRANCH  19  20
ENDBRANCH  18  19
ENDBRANCH  17  18
ENDBRANCH  16  17
ENDBRANCH  15  16
ENDBRANCH  14  15
ENDBRANCH  13  14
ENDBRANCH   1  13
TORSDOF 20
ENDMDL
MODEL 3
REMARK VINA RESULT:    -6.023      4.145     11.480
REMARK INTER + INTRA:         -14.880
REMARK INTER:                 -13.143
REMARK INTRA:                  -1.737
REMARK UNBOUND:                -1.814
REMARK SMILES CCCCCCCCCCCCCCCCCCCCCC(=O)[O-]
REMARK SMILES IDX 12 1 11 2 10 3 9 4 8 5 7 6 6 7 5 8 4 9 3 10 2 11 1 12 13 13
REMARK SMILES IDX 14 14 15 15 16 16 17 17 18 18 19 19 20 20 21 21 22 22 23 23
REMARK SMILES IDX 24 24
REMARK H PARENT
REMARK Flexibility Score: inf
ROOT
ATOM      1  C   UNL     1      46.532 -46.516 165.095  1.00  0.00     0.000 C 
ENDROOT
BRANCH   1   2
ATOM      2  C   UNL     1      47.797 -45.657 165.263  1.00  0.00     0.000 C 
BRANCH   2   3
ATOM      3  C   UNL     1      49.038 -46.233 164.549  1.00  0.00     0.000 C 
BRANCH   3   4
ATOM      4  C   UNL     1      49.378 -47.652 165.029  1.00  0.00    -0.000 C 
BRANCH   4   5
ATOM      5  C   UNL     1      50.823 -47.733 165.537  1.00  0.00    -0.000 C 
BRANCH   5   6
ATOM      6  C   UNL     1      51.463 -46.339 165.601  1.00  0.00    -0.000 C 
BRANCH   6   7
ATOM      7  C   UNL     1      52.767 -46.318 166.416  1.00  0.00    -0.000 C 
BRANCH   7   8
ATOM      8  C   UNL     1      54.003 -46.654 165.565  1.00  0.00    -0.000 C 
BRANCH   8   9
ATOM      9  C   UNL     1      54.462 -48.113 165.736  1.00  0.00    -0.000 C 
BRANCH   9  10
ATOM     10  C   UNL     1      54.100 -48.722 167.108  1.00  0.00    -0.000 C 
BRANCH  10  11
ATOM     11  C   UNL     1      54.339 -50.238 167.151  1.00  0.00    -0.003 C 
ATOM     12  C   UNL     1      53.922 -50.823 168.498  1.00  0.00     0.004 C 
ENDBRANCH  10  11
ENDBRANCH   9  10
ENDBRANCH   8   9
ENDBRANCH   7   8
ENDBRANCH   6   7
ENDBRANCH   5   6
ENDBRANCH   4   5
ENDBRANCH   3   4
ENDBRANCH   2   3
ENDBRANCH   1   2
BRANCH   1  13
ATOM     13  C   UNL     1      45.695 -46.115 163.869  1.00  0.00     0.000 C 
BRANCH  13  14
ATOM     14  C   UNL     1      44.884 -47.290 163.298  1.00  0.00     0.000 C 
BRANCH  14  15
ATOM     15  C   UNL     1      45.300 -48.642 163.896  1.00  0.00     0.000 C 
BRANCH  15  16
ATOM     16  C   UNL     1      44.138 -49.279 164.669  1.00  0.00     0.000 C 
BRANCH  16  17
ATOM     17  C   UNL     1      43.283 -48.206 165.362  1.00  0.00     0.000 C 
BRANCH  17  18
ATOM     18  C   UNL     1      41.774 -48.465 165.215  1.00  0.00     0.000 C 
BRANCH  18  19
ATOM     19  C   UNL     1      41.448 -49.436 164.066  1.00  0.00     0.000 C 
BRANCH  19  20
ATOM     20  C   UNL     1      40.499 -48.819 163.019  1.00  0.00     0.006 C 
BRANCH  20  21
ATOM     21  C   UNL     1      41.173 -47.776 162.111  1.00  0.00     0.053 C 
BRANCH  21  22
ATOM     22  C   UNL     1      40.196 -46.807 161.525  1.00  0.00     0.041 C 
ATOM     23  O   UNL     1      39.017 -47.170 161.272  1.00  0.00    -0.550 OA
ATOM     24  O   UNL     1      40.591 -45.505 161.240  1.00  0.00    -0.550 OA
ENDBRANCH  21  22
ENDBRANCH  20  21
ENDBRANCH  19  20
ENDBRANCH  18  19
ENDBRANCH  17  18
ENDBRANCH  16  17
ENDBRANCH  15  16
ENDBRANCH  14  15
ENDBRANCH  13  14
ENDBRANCH   1  13
TORSDOF 20
ENDMDL
MODEL 4
REMARK VINA RESULT:    -5.961      4.103     11.597
REMARK INTER + INTRA:         -14.745
REMARK INTER:                 -13.101
REMARK INTRA:                  -1.644
REMARK UNBOUND:                -1.814
REMARK SMILES CCCCCCCCCCCCCCCCCCCCCC(=O)[O-]
REMARK SMILES IDX 12 1 11 2 10 3 9 4 8 5 7 6 6 7 5 8 4 9 3 10 2 11 1 12 13 13
REMARK SMILES IDX 14 14 15 15 16 16 17 17 18 18 19 19 20 20 21 21 22 22 23 23
REMARK SMILES IDX 24 24
REMARK H PARENT
REMARK Flexibility Score: inf
ROOT
ATOM      1  C   UNL     1      46.214 -46.135 165.516  1.00  0.00     0.000 C 
ENDROOT
BRANCH   1   2
ATOM      2  C   UNL     1      47.587 -45.441 165.494  1.00  0.00     0.000 C 
BRANCH   2   3
ATOM      3  C   UNL     1      48.668 -46.228 164.724  1.00  0.00     0.000 C 
BRANCH   3   4
ATOM      4  C   UNL     1      48.707 -47.709 165.128  1.00  0.00    -0.000 C 
BRANCH   4   5
ATOM      5  C   UNL     1      50.150 -48.228 165.189  1.00  0.00    -0.000 C 
BRANCH   5   6
ATOM      6  C   UNL     1      51.138 -47.078 165.434  1.00  0.00    -0.000 C 
BRANCH   6   7
ATOM      7  C   UNL     1      52.569 -47.571 165.709  1.00  0.00    -0.000 C 
BRANCH   7   8
ATOM      8  C   UNL     1      53.370 -46.600 166.592  1.00  0.00    -0.000 C 
BRANCH   8   9
ATOM      9  C   UNL     1      53.449 -45.183 165.997  1.00  0.00    -0.000 C 
BRANCH   9  10
ATOM     10  C   UNL     1      54.771 -44.892 165.255  1.00  0.00    -0.000 C 
BRANCH  10  11
ATOM     11  C   UNL     1      54.640 -43.720 164.272  1.00  0.00    -0.003 C 
ATOM     12  C   UNL     1      53.844 -42.572 164.888  1.00  0.00     0.004 C 
ENDBRANCH  10  11
ENDBRANCH   9  10
ENDBRANCH   8   9
ENDBRANCH   7   8
ENDBRANCH   6   7
ENDBRANCH   5   6
ENDBRANCH   4   5
ENDBRANCH   3   4
ENDBRANCH   2   3
ENDBRANCH   1   2
BRANCH   1  13
ATOM     13  C   UNL     1      45.425 -45.942 164.210  1.00  0.00     0.000 C 
BRANCH  13  14
ATOM     14  C   UNL     1      45.054 -47.276 163.542  1.00  0.00     0.000 C 
BRANCH  14  15
ATOM     15  C   UNL     1      45.341 -48.488 164.441  1.00  0.00     0.000 C 
BRANCH  15  16
ATOM     16  C   UNL     1      44.035 -49.132 164.923  1.00  0.00     0.000 C 
BRANCH  16  17
ATOM     17  C   UNL     1      43.022 -48.062 165.364  1.00  0.00     0.000 C 
BRANCH  17  18
ATOM     18  C   UNL     1      41.565 -48.514 165.177  1.00  0.00     0.000 C 
BRANCH  18  19
ATOM     19  C   UNL     1      41.395 -49.509 164.015  1.00  0.00     0.000 C 
BRANCH  19  20
ATOM     20  C   UNL     1      40.612 -48.911 162.830  1.00  0.00     0.006 C 
BRANCH  20  21
ATOM     21  C   UNL     1      41.315 -47.717 162.162  1.00  0.00     0.053 C 
BRANCH  21  22
ATOM     22  C   UNL     1      40.350 -46.727 161.591  1.00  0.00     0.041 C 
ATOM     23  O   UNL     1      40.728 -45.557 161.320  1.00  0.00    -0.550 OA
ATOM     24  O   UNL     1      39.026 -47.090 161.374  1.00  0.00    -0.550 OA
ENDBRANCH  21  22
ENDBRANCH  20  21
ENDBRANCH  19  20
ENDBRANCH  18  19
ENDBRANCH  17  18
ENDBRANCH  16  17
ENDBRANCH  15  16
ENDBRANCH  14  15
ENDBRANCH  13  14
ENDBRANCH   1  13
TORSDOF 20
ENDMDL
MODEL 5
REMARK VINA RESULT:    -5.955      4.074     11.848
REMARK INTER + INTRA:         -14.731
REMARK INTER:                 -12.782
REMARK INTRA:                  -1.949
REMARK UNBOUND:                -1.814
REMARK SMILES CCCCCCCCCCCCCCCCCCCCCC(=O)[O-]
REMARK SMILES IDX 12 1 11 2 10 3 9 4 8 5 7 6 6 7 5 8 4 9 3 10 2 11 1 12 13 13
REMARK SMILES IDX 14 14 15 15 16 16 17 17 18 18 19 19 20 20 21 21 22 22 23 23
REMARK SMILES IDX 24 24
REMARK H PARENT
REMARK Flexibility Score: inf
ROOT
ATOM      1  C   UNL     1      48.613 -49.352 164.810  1.00  0.00     0.000 C 
ENDROOT
BRANCH   1   2
ATOM      2  C   UNL     1      49.216 -48.122 165.512  1.00  0.00     0.000 C 
BRANCH   2   3
ATOM      3  C   UNL     1      49.349 -46.888 164.596  1.00  0.00     0.000 C 
BRANCH   3   4
ATOM      4  C   UNL     1      50.674 -46.141 164.815  1.00  0.00    -0.000 C 
BRANCH   4   5
ATOM      5  C   UNL     1      51.487 -46.779 165.948  1.00  0.00    -0.000 C 
BRANCH   5   6
ATOM      6  C   UNL     1      52.738 -47.481 165.401  1.00  0.00    -0.000 C 
BRANCH   6   7
ATOM      7  C   UNL     1      54.019 -47.093 166.158  1.00  0.00    -0.000 C 
BRANCH   7   8
ATOM      8  C   UNL     1      54.877 -46.075 165.388  1.00  0.00    -0.000 C 
BRANCH   8   9
ATOM      9  C   UNL     1      54.622 -44.624 165.835  1.00  0.00    -0.000 C 
BRANCH   9  10
ATOM     10  C   UNL     1      53.621 -43.865 164.937  1.00  0.00    -0.000 C 
BRANCH  10  11
ATOM     11  C   UNL     1      53.697 -42.345 165.139  1.00  0.00    -0.003 C 
ATOM     12  C   UNL     1      54.154 -41.642 163.864  1.00  0.00     0.004 C 
ENDBRANCH  10  11
ENDBRANCH   9  10
ENDBRANCH   8   9
ENDBRANCH   7   8
ENDBRANCH   6   7
ENDBRANCH   5   6
ENDBRANCH   4   5
ENDBRANCH   3   4
ENDBRANCH   2   3
ENDBRANCH   1   2
BRANCH   1  13
ATOM     13  C   UNL     1      48.359 -49.120 163.311  1.00  0.00     0.000 C 
BRANCH  13  14
ATOM     14  C   UNL     1      46.923 -49.475 162.894  1.00  0.00     0.000 C 
BRANCH  14  15
ATOM     15  C   UNL     1      45.889 -49.128 163.976  1.00  0.00     0.000 C 
BRANCH  15  16
ATOM     16  C   UNL     1      45.569 -47.628 163.966  1.00  0.00     0.000 C 
BRANCH  16  17
ATOM     17  C   UNL     1      44.595 -47.264 165.098  1.00  0.00     0.000 C 
BRANCH  17  18
ATOM     18  C   UNL     1      43.795 -48.475 165.604  1.00  0.00     0.000 C 
BRANCH  18  19
ATOM     19  C   UNL     1      42.298 -48.387 165.253  1.00  0.00     0.000 C 
BRANCH  19  20
ATOM     20  C   UNL     1      41.959 -49.082 163.920  1.00  0.00     0.006 C 
BRANCH  20  21
ATOM     21  C   UNL     1      40.934 -48.317 163.065  1.00  0.00     0.053 C 
BRANCH  21  22
ATOM     22  C   UNL     1      41.577 -47.516 161.978  1.00  0.00     0.041 C 
ATOM     23  O   UNL     1      40.874 -46.802 161.215  1.00  0.00    -0.550 OA
ATOM     24  O   UNL     1      42.954 -47.571 161.793  1.00  0.00    -0.550 OA
ENDBRANCH  21  22
ENDBRANCH  20  21
ENDBRANCH  19  20
ENDBRANCH  18  19
ENDBRANCH  17  18
ENDBRANCH  16  17
ENDBRANCH  15  16
ENDBRANCH  14  15
ENDBRANCH  13  14
ENDBRANCH   1  13
TORSDOF 20
ENDMDL
MODEL 6
REMARK VINA RESULT:    -5.943      4.347      7.291
REMARK INTER + INTRA:         -14.704
REMARK INTER:                 -13.344
REMARK INTRA:                  -1.361
REMARK UNBOUND:                -1.814
REMARK SMILES CCCCCCCCCCCCCCCCCCCCCC(=O)[O-]
REMARK SMILES IDX 12 1 11 2 10 3 9 4 8 5 7 6 6 7 5 8 4 9 3 10 2 11 1 12 13 13
REMARK SMILES IDX 14 14 15 15 16 16 17 17 18 18 19 19 20 20 21 21 22 22 23 23
REMARK SMILES IDX 24 24
REMARK H PARENT
REMARK Flexibility Score: inf
ROOT
ATOM      1  C   UNL     1      49.500 -48.286 165.499  1.00  0.00     0.000 C 
ENDROOT
BRANCH   1   2
ATOM      2  C   UNL     1      48.538 -48.892 164.463  1.00  0.00     0.000 C 
BRANCH   2   3
ATOM      3  C   UNL     1      47.266 -48.049 164.229  1.00  0.00     0.000 C 
BRANCH   3   4
ATOM      4  C   UNL     1      46.186 -48.826 163.462  1.00  0.00    -0.000 C 
BRANCH   4   5
ATOM      5  C   UNL     1      45.200 -49.500 164.425  1.00  0.00    -0.000 C 
BRANCH   5   6
ATOM      6  C   UNL     1      44.182 -48.487 164.967  1.00  0.00    -0.000 C 
BRANCH   6   7
ATOM      7  C   UNL     1      43.027 -48.220 163.987  1.00  0.00    -0.000 C 
BRANCH   7   8
ATOM      8  C   UNL     1      41.872 -49.224 164.144  1.00  0.00    -0.000 C 
BRANCH   8   9
ATOM      9  C   UNL     1      40.822 -49.102 163.026  1.00  0.00    -0.000 C 
BRANCH   9  10
ATOM     10  C   UNL     1      40.698 -47.678 162.443  1.00  0.00    -0.000 C 
BRANCH  10  11
ATOM     11  C   UNL     1      39.547 -47.562 161.433  1.00  0.00    -0.003 C 
ATOM     12  C   UNL     1      38.368 -48.442 161.839  1.00  0.00     0.004 C 
ENDBRANCH  10  11
ENDBRANCH   9  10
ENDBRANCH   8   9
ENDBRANCH   7   8
ENDBRANCH   6   7
ENDBRANCH   5   6
ENDBRANCH   4   5
ENDBRANCH   3   4
ENDBRANCH   2   3
ENDBRANCH   1   2
BRANCH   1  13
ATOM     13  C   UNL     1      50.000 -46.886 165.104  1.00  0.00     0.000 C 
BRANCH  13  14
ATOM     14  C   UNL     1      51.482 -46.670 165.448  1.00  0.00     0.000 C 
BRANCH  14  15
ATOM     15  C   UNL     1      52.184 -47.965 165.884  1.00  0.00     0.000 C 
BRANCH  15  16
ATOM     16  C   UNL     1      53.708 -47.794 165.867  1.00  0.00     0.000 C 
BRANCH  16  17
ATOM     17  C   UNL     1      54.321 -48.170 167.226  1.00  0.00     0.000 C 
BRANCH  17  18
ATOM     18  C   UNL     1      55.032 -46.987 167.903  1.00  0.00     0.000 C 
BRANCH  18  19
ATOM     19  C   UNL     1      54.087 -45.801 168.171  1.00  0.00     0.000 C 
BRANCH  19  20
ATOM     20  C   UNL     1      54.634 -44.470 167.618  1.00  0.00     0.006 C 
BRANCH  20  21
ATOM     21  C   UNL     1      54.372 -44.269 166.116  1.00  0.00     0.053 C 
BRANCH  21  22
ATOM     22  C   UNL     1      53.866 -42.897 165.800  1.00  0.00     0.041 C 
ATOM     23  O   UNL     1      53.361 -42.651 164.673  1.00  0.00    -0.550 OA
ATOM     24  O   UNL     1      53.967 -41.882 166.744  1.00  0.00    -0.550 OA
ENDBRANCH  21  22
ENDBRANCH  20  21
ENDBRANCH  19  20
ENDBRANCH  18  19
ENDBRANCH  17  18
ENDBRANCH  16  17
ENDBRANCH  15  16
ENDBRANCH  14  15
ENDBRANCH  13  14
ENDBRANCH   1  13
TORSDOF 20
ENDMDL
MODEL 7
REMARK VINA RESULT:    -5.926      4.505     12.459
REMARK INTER + INTRA:         -14.668
REMARK INTER:                 -12.951
REMARK INTRA:                  -1.716
REMARK UNBOUND:                -1.814
REMARK SMILES CCCCCCCCCCCCCCCCCCCCCC(=O)[O-]
REMARK SMILES IDX 12 1 11 2 10 3 9 4 8 5 7 6 6 7 5 8 4 9 3 10 2 11 1 12 13 13
REMARK SMILES IDX 14 14 15 15 16 16 17 17 18 18 19 19 20 20 21 21 22 22 23 23
REMARK SMILES IDX 24 24
REMARK H PARENT
REMARK Flexibility Score: inf
ROOT
ATOM      1  C   UNL     1      49.669 -47.884 165.278  1.00  0.00     0.000 C 
ENDROOT
BRANCH   1   2
ATOM      2  C   UNL     1      50.389 -46.533 165.128  1.00  0.00     0.000 C 
BRANCH   2   3
ATOM      3  C   UNL     1      51.886 -46.582 165.503  1.00  0.00     0.000 C 
BRANCH   3   4
ATOM      4  C   UNL     1      52.345 -47.999 165.877  1.00  0.00    -0.000 C 
BRANCH   4   5
ATOM      5  C   UNL     1      53.869 -48.060 166.044  1.00  0.00    -0.000 C 
BRANCH   5   6
ATOM      6  C   UNL     1      54.255 -48.231 167.520  1.00  0.00    -0.000 C 
BRANCH   6   7
ATOM      7  C   UNL     1      55.120 -47.074 168.048  1.00  0.00    -0.000 C 
BRANCH   7   8
ATOM      8  C   UNL     1      54.288 -45.840 168.433  1.00  0.00    -0.000 C 
BRANCH   8   9
ATOM      9  C   UNL     1      54.785 -44.552 167.753  1.00  0.00    -0.000 C 
BRANCH   9  10
ATOM     10  C   UNL     1      54.958 -44.684 166.225  1.00  0.00    -0.000 C 
BRANCH  10  11
ATOM     11  C   UNL     1      53.993 -43.774 165.450  1.00  0.00    -0.003 C 
ATOM     12  C   UNL     1      54.581 -43.370 164.101  1.00  0.00     0.004 C 
ENDBRANCH  10  11
ENDBRANCH   9  10
ENDBRANCH   8   9
ENDBRANCH   7   8
ENDBRANCH   6   7
ENDBRANCH   5   6
ENDBRANCH   4   5
ENDBRANCH   3   4
ENDBRANCH   2   3
ENDBRANCH   1   2
BRANCH   1  13
ATOM     13  C   UNL     1      48.328 -47.934 164.528  1.00  0.00     0.000 C 
BRANCH  13  14
ATOM     14  C   UNL     1      47.679 -46.548 164.387  1.00  0.00     0.000 C 
BRANCH  14  15
ATOM     15  C   UNL     1      46.546 -46.319 165.398  1.00  0.00     0.000 C 
BRANCH  15  16
ATOM     16  C   UNL     1      45.206 -46.115 164.680  1.00  0.00     0.000 C 
BRANCH  16  17
ATOM     17  C   UNL     1      44.253 -47.291 164.944  1.00  0.00     0.000 C 
BRANCH  17  18
ATOM     18  C   UNL     1      44.592 -48.530 164.099  1.00  0.00     0.000 C 
BRANCH  18  19
ATOM     19  C   UNL     1      45.028 -48.170 162.667  1.00  0.00     0.000 C 
BRANCH  19  20
ATOM     20  C   UNL     1      44.017 -47.251 161.952  1.00  0.00     0.006 C 
BRANCH  20  21
ATOM     21  C   UNL     1      42.783 -47.992 161.409  1.00  0.00     0.053 C 
BRANCH  21  22
ATOM     22  C   UNL     1      41.524 -47.607 162.118  1.00  0.00     0.041 C 
ATOM     23  O   UNL     1      41.235 -48.129 163.226  1.00  0.00    -0.550 OA
ATOM     24  O   UNL     1      40.658 -46.681 161.547  1.00  0.00    -0.550 OA
ENDBRANCH  21  22
ENDBRANCH  20  21
ENDBRANCH  19  20
ENDBRANCH  18  19
ENDBRANCH  17  18
ENDBRANCH  16  17
ENDBRANCH  15  16
ENDBRANCH  14  15
ENDBRANCH  13  14
ENDBRANCH   1  13
TORSDOF 20
ENDMDL
MODEL 8
REMARK VINA RESULT:    -5.862      5.052     12.511
REMARK INTER + INTRA:         -14.529
REMARK INTER:                 -13.424
REMARK INTRA:                  -1.105
REMARK UNBOUND:                -1.814
REMARK SMILES CCCCCCCCCCCCCCCCCCCCCC(=O)[O-]
REMARK SMILES IDX 12 1 11 2 10 3 9 4 8 5 7 6 6 7 5 8 4 9 3 10 2 11 1 12 13 13
REMARK SMILES IDX 14 14 15 15 16 16 17 17 18 18 19 19 20 20 21 21 22 22 23 23
REMARK SMILES IDX 24 24
REMARK H PARENT
REMARK Flexibility Score: inf
ROOT
ATOM      1  C   UNL     1      45.109 -46.190 164.621  1.00  0.00     0.000 C 
ENDROOT
BRANCH   1   2
ATOM      2  C   UNL     1      46.472 -45.998 165.310  1.00  0.00     0.000 C 
BRANCH   2   3
ATOM      3  C   UNL     1      47.581 -46.916 164.756  1.00  0.00     0.000 C 
BRANCH   3   4
ATOM      4  C   UNL     1      48.924 -46.184 164.612  1.00  0.00    -0.000 C 
BRANCH   4   5
ATOM      5  C   UNL     1      50.081 -47.044 165.135  1.00  0.00    -0.000 C 
BRANCH   5   6
ATOM      6  C   UNL     1      51.289 -46.173 165.509  1.00  0.00    -0.000 C 
BRANCH   6   7
ATOM      7  C   UNL     1      52.512 -47.001 165.937  1.00  0.00    -0.000 C 
BRANCH   7   8
ATOM      8  C   UNL     1      53.546 -46.172 166.716  1.00  0.00    -0.000 C 
BRANCH   8   9
ATOM      9  C   UNL     1      54.464 -45.348 165.795  1.00  0.00    -0.000 C 
BRANCH   9  10
ATOM     10  C   UNL     1      54.305 -43.822 165.965  1.00  0.00    -0.000 C 
BRANCH  10  11
ATOM     11  C   UNL     1      53.411 -43.206 164.879  1.00  0.00    -0.003 C 
ATOM     12  C   UNL     1      54.040 -41.942 164.299  1.00  0.00     0.004 C 
ENDBRANCH  10  11
ENDBRANCH   9  10
ENDBRANCH   8   9
ENDBRANCH   7   8
ENDBRANCH   6   7
ENDBRANCH   5   6
ENDBRANCH   4   5
ENDBRANCH   3   4
ENDBRANCH   2   3
ENDBRANCH   1   2
BRANCH   1  13
ATOM     13  C   UNL     1      45.235 -46.483 163.117  1.00  0.00     0.000 C 
BRANCH  13  14
ATOM     14  C   UNL     1      43.989 -47.181 162.546  1.00  0.00     0.000 C 
BRANCH  14  15
ATOM     15  C   UNL     1      43.251 -48.026 163.595  1.00  0.00     0.000 C 
BRANCH  15  16
ATOM     16  C   UNL     1      41.806 -48.298 163.159  1.00  0.00     0.000 C 
BRANCH  16  17
ATOM     17  C   UNL     1      41.379 -47.340 162.035  1.00  0.00     0.000 C 
BRANCH  17  18
ATOM     18  C   UNL     1      39.901 -47.506 161.645  1.00  0.00     0.000 C 
BRANCH  18  19
ATOM     19  C   UNL     1      39.221 -48.676 162.379  1.00  0.00     0.000 C 
BRANCH  19  20
ATOM     20  C   UNL     1      37.730 -48.820 162.012  1.00  0.00     0.006 C 
BRANCH  20  21
ATOM     21  C   UNL     1      37.360 -48.185 160.661  1.00  0.00     0.053 C 
BRANCH  21  22
ATOM     22  C   UNL     1      35.882 -48.113 160.445  1.00  0.00     0.041 C 
ATOM     23  O   UNL     1      35.225 -47.131 160.879  1.00  0.00    -0.550 OA
ATOM     24  O   UNL     1      35.224 -49.142 159.779  1.00  0.00    -0.550 OA
ENDBRANCH  21  22
ENDBRANCH  20  21
ENDBRANCH  19  20
ENDBRANCH  18  19
ENDBRANCH  17  18
ENDBRANCH  16  17
ENDBRANCH  15  16
ENDBRANCH  14  15
ENDBRANCH  13  14
ENDBRANCH   1  13
TORSDOF 20
ENDMDL
MODEL 9
REMARK VINA RESULT:    -5.850      3.041      4.776
REMARK INTER + INTRA:         -14.505
REMARK INTER:                 -13.310
REMARK INTRA:                  -1.194
REMARK UNBOUND:                -1.814
REMARK SMILES CCCCCCCCCCCCCCCCCCCCCC(=O)[O-]
REMARK SMILES IDX 12 1 11 2 10 3 9 4 8 5 7 6 6 7 5 8 4 9 3 10 2 11 1 12 13 13
REMARK SMILES IDX 14 14 15 15 16 16 17 17 18 18 19 19 20 20 21 21 22 22 23 23
REMARK SMILES IDX 24 24
REMARK H PARENT
REMARK Flexibility Score: inf
ROOT
ATOM      1  C   UNL     1      45.056 -46.496 165.052  1.00  0.00     0.000 C 
ENDROOT
BRANCH   1   2
ATOM      2  C   UNL     1      44.144 -47.725 164.889  1.00  0.00     0.000 C 
BRANCH   2   3
ATOM      3  C   UNL     1      44.110 -48.286 163.451  1.00  0.00     0.000 C 
BRANCH   3   4
ATOM      4  C   UNL     1      42.777 -47.996 162.745  1.00  0.00    -0.000 C 
BRANCH   4   5
ATOM      5  C   UNL     1      41.587 -48.284 163.670  1.00  0.00    -0.000 C 
BRANCH   5   6
ATOM      6  C   UNL     1      40.885 -49.590 163.273  1.00  0.00    -0.000 C 
BRANCH   6   7
ATOM      7  C   UNL     1      39.395 -49.391 162.947  1.00  0.00    -0.000 C 
BRANCH   7   8
ATOM      8  C   UNL     1      39.155 -48.246 161.949  1.00  0.00    -0.000 C 
BRANCH   8   9
ATOM      9  C   UNL     1      37.757 -48.301 161.307  1.00  0.00    -0.000 C 
BRANCH   9  10
ATOM     10  C   UNL     1      36.714 -49.061 162.155  1.00  0.00    -0.000 C 
BRANCH  10  11
ATOM     11  C   UNL     1      35.351 -48.352 162.170  1.00  0.00    -0.003 C 
ATOM     12  C   UNL     1      35.115 -47.585 160.872  1.00  0.00     0.004 C 
ENDBRANCH  10  11
ENDBRANCH   9  10
ENDBRANCH   8   9
ENDBRANCH   7   8
ENDBRANCH   6   7
ENDBRANCH   5   6
ENDBRANCH   4   5
ENDBRANCH   3   4
ENDBRANCH   2   3
ENDBRANCH   1   2
BRANCH   1  13
ATOM     13  C   UNL     1      46.233 -46.490 164.062  1.00  0.00     0.000 C 
BRANCH  13  14
ATOM     14  C   UNL     1      47.595 -46.601 164.766  1.00  0.00     0.000 C 
BRANCH  14  15
ATOM     15  C   UNL     1      48.221 -47.997 164.629  1.00  0.00     0.000 C 
BRANCH  15  16
ATOM     16  C   UNL     1      49.666 -48.002 165.141  1.00  0.00     0.000 C 
BRANCH  16  17
ATOM     17  C   UNL     1      50.251 -46.580 165.155  1.00  0.00     0.000 C 
BRANCH  17  18
ATOM     18  C   UNL     1      51.694 -46.539 165.684  1.00  0.00     0.000 C 
BRANCH  18  19
ATOM     19  C   UNL     1      52.265 -47.941 165.962  1.00  0.00     0.000 C 
BRANCH  19  20
ATOM     20  C   UNL     1      53.721 -47.900 166.467  1.00  0.00     0.006 C 
BRANCH  20  21
ATOM     21  C   UNL     1      54.288 -49.282 166.837  1.00  0.00     0.053 C 
BRANCH  21  22
ATOM     22  C   UNL     1      54.243 -49.546 168.309  1.00  0.00     0.041 C 
ATOM     23  O   UNL     1      54.532 -48.633 169.126  1.00  0.00    -0.550 OA
ATOM     24  O   UNL     1      53.899 -50.808 168.780  1.00  0.00    -0.550 OA
ENDBRANCH  21  22
ENDBRANCH  20  21
ENDBRANCH  19  20
ENDBRANCH  18  19
ENDBRANCH  17  18
ENDBRANCH  16  17
ENDBRANCH  15  16
ENDBRANCH  14  15
ENDBRANCH  13  14
ENDBRANCH   1  13
TORSDOF 20
ENDMDL
