MODEL 1
REMARK VINA RESULT:    -3.642      0.000      0.000
REMARK INTER + INTRA:         -12.683
REMARK INTER:                  -9.603
REMARK INTRA:                  -3.081
REMARK UNBOUND:                -3.081
REMARK SMILES CCCCCCCCCCCCCCCCCCCCCCCCCCCCCC(=O)[O-]
REMARK SMILES IDX 16 1 17 2 18 3 19 4 20 5 21 6 22 7 23 8 24 9 25 10 26 11
REMARK SMILES IDX 27 12 28 13 29 14 30 15 31 16 32 17 15 18 14 19 13 20 12 21
REMARK SMILES IDX 11 22 10 23 9 24 8 25 7 26 6 27 5 28 4 29 3 30 2 31 1 32
REMARK H PARENT
REMARK Flexibility Score: inf
ROOT
ATOM      1  C   UNL     1      20.683 -19.166 -18.556  1.00  0.00     0.000 C 
ENDROOT
BRANCH   1   2
ATOM      2  C   UNL     1      21.225 -18.941 -17.138  1.00  0.00     0.000 C 
BRANCH   2   3
ATOM      3  C   UNL     1      22.484 -19.784 -16.854  1.00  0.00     0.000 C 
BRANCH   3   4
ATOM      4  C   UNL     1      23.799 -19.051 -17.191  1.00  0.00     0.000 C 
BRANCH   4   5
ATOM      5  C   UNL     1      24.419 -19.520 -18.519  1.00  0.00     0.000 C 
BRANCH   5   6
ATOM      6  C   UNL     1      24.807 -18.342 -19.438  1.00  0.00     0.000 C 
BRANCH   6   7
ATOM      7  C   UNL     1      23.932 -17.098 -19.205  1.00  0.00     0.000 C 
BRANCH   7   8
ATOM      8  C   UNL     1      24.724 -15.869 -18.715  1.00  0.00     0.000 C 
BRANCH   8   9
ATOM      9  C   UNL     1      24.475 -15.557 -17.230  1.00  0.00     0.000 C 
BRANCH   9  10
ATOM     10  C   UNL     1      23.148 -14.812 -17.038  1.00  0.00     0.000 C 
BRANCH  10  11
ATOM     11  C   UNL     1      22.060 -15.757 -16.512  1.00  0.00     0.000 C 
BRANCH  11  12
ATOM     12  C   UNL     1      20.769 -14.990 -16.188  1.00  0.00     0.000 C 
BRANCH  12  13
ATOM     13  C   UNL     1      19.513 -15.878 -16.258  1.00  0.00     0.006 C 
BRANCH  13  14
ATOM     14  C   UNL     1      18.538 -15.696 -15.083  1.00  0.00     0.053 C 
BRANCH  14  15
ATOM     15  C   UNL     1      17.222 -15.136 -15.527  1.00  0.00     0.041 C 
ATOM     16  O   UNL     1      16.702 -14.173 -14.904  1.00  0.00    -0.550 OA
ATOM     17  O   UNL     1      16.587 -15.652 -16.648  1.00  0.00    -0.550 OA
ENDBRANCH  14  15
ENDBRANCH  13  14
ENDBRANCH  12  13
ENDBRANCH  11  12
ENDBRANCH  10  11
ENDBRANCH   9  10
ENDBRANCH   8   9
ENDBRANCH   7   8
ENDBRANCH   6   7
ENDBRANCH   5   6
ENDBRANCH   4   5
ENDBRANCH   3   4
ENDBRANCH   2   3
ENDBRANCH   1   2
BRANCH   1  18
ATOM     18  C   UNL     1      20.585 -20.665 -18.875  1.00  0.00     0.000 C 
BRANCH  18  19
ATOM     19  C   UNL     1      20.378 -20.950 -20.372  1.00  0.00     0.000 C 
BRANCH  19  20
ATOM     20  C   UNL     1      21.681 -21.305 -21.119  1.00  0.00     0.000 C 
BRANCH  20  21
ATOM     21  C   UNL     1      22.420 -22.482 -20.459  1.00  0.00     0.000 C 
BRANCH  21  22
ATOM     22  C   UNL     1      21.899 -23.850 -20.928  1.00  0.00     0.000 C 
BRANCH  22  23
ATOM     23  C   UNL     1      21.299 -24.682 -19.781  1.00  0.00     0.000 C 
BRANCH  23  24
ATOM     24  C   UNL     1      19.854 -25.123 -20.070  1.00  0.00    -0.000 C 
BRANCH  24  25
ATOM     25  C   UNL     1      19.043 -24.045 -20.809  1.00  0.00    -0.000 C 
BRANCH  25  26
ATOM     26  C   UNL     1      17.645 -23.832 -20.200  1.00  0.00    -0.000 C 
BRANCH  26  27
ATOM     27  C   UNL     1      17.615 -23.701 -18.665  1.00  0.00    -0.000 C 
BRANCH  27  28
ATOM     28  C   UNL     1      16.294 -24.130 -17.997  1.00  0.00    -0.000 C 
BRANCH  28  29
ATOM     29  C   UNL     1      15.317 -22.984 -17.687  1.00  0.00    -0.000 C 
BRANCH  29  30
ATOM     30  C   UNL     1      15.111 -22.035 -18.880  1.00  0.00    -0.000 C 
BRANCH  30  31
ATOM     31  C   UNL     1      14.025 -22.537 -19.845  1.00  0.00    -0.003 C 
ATOM     32  C   UNL     1      13.558 -23.956 -19.520  1.00  0.00     0.004 C 
ENDBRANCH  30  31
ENDBRANCH  29  30
ENDBRANCH  28  29
ENDBRANCH  27  28
ENDBRANCH  26  27
ENDBRANCH  25  26
ENDBRANCH  24  25
ENDBRANCH  23  24
ENDBRANCH  22  23
ENDBRANCH  21  22
ENDBRANCH  20  21
ENDBRANCH  19  20
ENDBRANCH  18  19
ENDBRANCH   1  18
TORSDOF 28
ENDMDL
MODEL 2
REMARK VINA RESULT:    -3.406      1.309      2.052
REMARK INTER + INTRA:         -12.063
REMARK INTER:                  -9.090
REMARK INTRA:                  -2.973
REMARK UNBOUND:                -3.081
REMARK SMILES CCCCCCCCCCCCCCCCCCCCCCCCCCCCCC(=O)[O-]
REMARK SMILES IDX 16 1 17 2 18 3 19 4 20 5 21 6 22 7 23 8 24 9 25 10 26 11
REMARK SMILES IDX 27 12 28 13 29 14 30 15 31 16 32 17 15 18 14 19 13 20 12 21
REMARK SMILES IDX 11 22 10 23 9 24 8 25 7 26 6 27 5 28 4 29 3 30 2 31 1 32
REMARK H PARENT
REMARK Flexibility Score: inf
ROOT
ATOM      1  C   UNL     1      20.764 -19.148 -18.718  1.00  0.00     0.000 C 
ENDROOT
BRANCH   1   2
ATOM      2  C   UNL     1      21.293 -19.191 -17.278  1.00  0.00     0.000 C 
BRANCH   2   3
ATOM      3  C   UNL     1      22.659 -19.897 -17.179  1.00  0.00     0.000 C 
BRANCH   3   4
ATOM      4  C   UNL     1      23.856 -18.943 -17.372  1.00  0.00     0.000 C 
BRANCH   4   5
ATOM      5  C   UNL     1      24.458 -19.019 -18.787  1.00  0.00     0.000 C 
BRANCH   5   6
ATOM      6  C   UNL     1      24.640 -17.625 -19.426  1.00  0.00     0.000 C 
BRANCH   6   7
ATOM      7  C   UNL     1      23.694 -16.571 -18.827  1.00  0.00     0.000 C 
BRANCH   7   8
ATOM      8  C   UNL     1      24.391 -15.590 -17.863  1.00  0.00     0.000 C 
BRANCH   8   9
ATOM      9  C   UNL     1      23.516 -15.227 -16.652  1.00  0.00     0.000 C 
BRANCH   9  10
ATOM     10  C   UNL     1      22.475 -14.164 -17.022  1.00  0.00     0.000 C 
BRANCH  10  11
ATOM     11  C   UNL     1      21.130 -14.455 -16.345  1.00  0.00     0.000 C 
BRANCH  11  12
ATOM     12  C   UNL     1      20.943 -15.962 -16.108  1.00  0.00     0.000 C 
BRANCH  12  13
ATOM     13  C   UNL     1      19.502 -16.435 -16.374  1.00  0.00     0.006 C 
BRANCH  13  14
ATOM     14  C   UNL     1      18.475 -15.968 -15.331  1.00  0.00     0.053 C 
BRANCH  14  15
ATOM     15  C   UNL     1      17.528 -14.952 -15.890  1.00  0.00     0.041 C 
ATOM     16  O   UNL     1      16.653 -15.296 -16.727  1.00  0.00    -0.550 OA
ATOM     17  O   UNL     1      17.587 -13.633 -15.460  1.00  0.00    -0.550 OA
ENDBRANCH  14  15
ENDBRANCH  13  14
ENDBRANCH  12  13
ENDBRANCH  11  12
ENDBRANCH  10  11
ENDBRANCH   9  10
ENDBRANCH   8   9
ENDBRANCH   7   8
ENDBRANCH   6   7
ENDBRANCH   5   6
ENDBRANCH   4   5
ENDBRANCH   3   4
ENDBRANCH   2   3
ENDBRANCH   1   2
BRANCH   1  18
ATOM     18  C   UNL     1      20.044 -20.456 -19.079  1.00  0.00     0.000 C 
BRANCH  18  19
ATOM     19  C   UNL     1      20.535 -21.070 -20.400  1.00  0.00     0.000 C 
BRANCH  19  20
ATOM     20  C   UNL     1      21.663 -22.108 -20.217  1.00  0.00     0.000 C 
BRANCH  20  21
ATOM     21  C   UNL     1      21.116 -23.484 -19.803  1.00  0.00     0.000 C 
BRANCH  21  22
ATOM     22  C   UNL     1      20.023 -24.001 -20.752  1.00  0.00     0.000 C 
BRANCH  22  23
ATOM     23  C   UNL     1      18.914 -24.773 -20.016  1.00  0.00     0.000 C 
BRANCH  23  24
ATOM     24  C   UNL     1      17.508 -24.399 -20.515  1.00  0.00    -0.000 C 
BRANCH  24  25
ATOM     25  C   UNL     1      17.100 -22.971 -20.114  1.00  0.00    -0.000 C 
BRANCH  25  26
ATOM     26  C   UNL     1      15.574 -22.798 -20.007  1.00  0.00    -0.000 C 
BRANCH  26  27
ATOM     27  C   UNL     1      14.840 -23.927 -19.256  1.00  0.00    -0.000 C 
BRANCH  27  28
ATOM     28  C   UNL     1      15.205 -24.066 -17.765  1.00  0.00    -0.000 C 
BRANCH  28  29
ATOM     29  C   UNL     1      15.262 -22.744 -16.981  1.00  0.00    -0.000 C 
BRANCH  29  30
ATOM     30  C   UNL     1      14.404 -22.767 -15.705  1.00  0.00    -0.000 C 
BRANCH  30  31
ATOM     31  C   UNL     1      14.389 -21.410 -14.985  1.00  0.00    -0.003 C 
ATOM     32  C   UNL     1      13.164 -21.232 -14.088  1.00  0.00     0.004 C 
ENDBRANCH  30  31
ENDBRANCH  29  30
ENDBRANCH  28  29
ENDBRANCH  27  28
ENDBRANCH  26  27
ENDBRANCH  25  26
ENDBRANCH  24  25
ENDBRANCH  23  24
ENDBRANCH  22  23
ENDBRANCH  21  22
ENDBRANCH  20  21
ENDBRANCH  19  20
ENDBRANCH  18  19
ENDBRANCH   1  18
TORSDOF 28
ENDMDL
MODEL 3
REMARK VINA RESULT:    -3.119      2.341      8.412
REMARK INTER + INTRA:         -11.306
REMARK INTER:                  -9.011
REMARK INTRA:                  -2.295
REMARK UNBOUND:                -3.081
REMARK SMILES CCCCCCCCCCCCCCCCCCCCCCCCCCCCCC(=O)[O-]
REMARK SMILES IDX 16 1 17 2 18 3 19 4 20 5 21 6 22 7 23 8 24 9 25 10 26 11
REMARK SMILES IDX 27 12 28 13 29 14 30 15 31 16 32 17 15 18 14 19 13 20 12 21
REMARK SMILES IDX 11 22 10 23 9 24 8 25 7 26 6 27 5 28 4 29 3 30 2 31 1 32
REMARK H PARENT
REMARK Flexibility Score: inf
ROOT
ATOM      1  C   UNL     1      20.842 -19.421 -17.797  1.00  0.00     0.000 C 
ENDROOT
BRANCH   1   2
ATOM      2  C   UNL     1      20.391 -19.585 -19.254  1.00  0.00     0.000 C 
BRANCH   2   3
ATOM      3  C   UNL     1      20.506 -21.044 -19.739  1.00  0.00     0.000 C 
BRANCH   3   4
ATOM      4  C   UNL     1      19.214 -21.862 -19.530  1.00  0.00     0.000 C 
BRANCH   4   5
ATOM      5  C   UNL     1      18.865 -22.745 -20.742  1.00  0.00     0.000 C 
BRANCH   5   6
ATOM      6  C   UNL     1      17.350 -23.014 -20.859  1.00  0.00     0.000 C 
BRANCH   6   7
ATOM      7  C   UNL     1      16.518 -21.720 -20.862  1.00  0.00     0.000 C 
BRANCH   7   8
ATOM      8  C   UNL     1      15.200 -21.830 -20.068  1.00  0.00     0.000 C 
BRANCH   8   9
ATOM      9  C   UNL     1      14.524 -23.201 -20.232  1.00  0.00     0.000 C 
BRANCH   9  10
ATOM     10  C   UNL     1      14.147 -23.797 -18.869  1.00  0.00     0.000 C 
BRANCH  10  11
ATOM     11  C   UNL     1      15.391 -23.985 -17.991  1.00  0.00     0.000 C 
BRANCH  11  12
ATOM     12  C   UNL     1      15.098 -23.614 -16.529  1.00  0.00     0.000 C 
BRANCH  12  13
ATOM     13  C   UNL     1      14.394 -22.251 -16.387  1.00  0.00     0.006 C 
BRANCH  13  14
ATOM     14  C   UNL     1      14.518 -21.613 -14.995  1.00  0.00     0.053 C 
BRANCH  14  15
ATOM     15  C   UNL     1      13.207 -21.088 -14.498  1.00  0.00     0.041 C 
ATOM     16  O   UNL     1      12.214 -21.032 -15.271  1.00  0.00    -0.550 OA
ATOM     17  O   UNL     1      13.069 -20.696 -13.173  1.00  0.00    -0.550 OA
ENDBRANCH  14  15
ENDBRANCH  13  14
ENDBRANCH  12  13
ENDBRANCH  11  12
ENDBRANCH  10  11
ENDBRANCH   9  10
ENDBRANCH   8   9
ENDBRANCH   7   8
ENDBRANCH   6   7
ENDBRANCH   5   6
ENDBRANCH   4   5
ENDBRANCH   3   4
ENDBRANCH   2   3
ENDBRANCH   1   2
BRANCH   1  18
ATOM     18  C   UNL     1      22.235 -18.778 -17.721  1.00  0.00     0.000 C 
BRANCH  18  19
ATOM     19  C   UNL     1      23.369 -19.754 -18.075  1.00  0.00     0.000 C 
BRANCH  19  20
ATOM     20  C   UNL     1      24.424 -19.155 -19.029  1.00  0.00     0.000 C 
BRANCH  20  21
ATOM     21  C   UNL     1      25.092 -17.903 -18.435  1.00  0.00     0.000 C 
BRANCH  21  22
ATOM     22  C   UNL     1      25.111 -17.911 -16.899  1.00  0.00     0.000 C 
BRANCH  22  23
ATOM     23  C   UNL     1      24.756 -16.542 -16.294  1.00  0.00     0.000 C 
BRANCH  23  24
ATOM     24  C   UNL     1      24.499 -15.474 -17.370  1.00  0.00    -0.000 C 
BRANCH  24  25
ATOM     25  C   UNL     1      23.004 -15.311 -17.696  1.00  0.00    -0.000 C 
BRANCH  25  26
ATOM     26  C   UNL     1      22.175 -14.870 -16.476  1.00  0.00    -0.000 C 
BRANCH  26  27
ATOM     27  C   UNL     1      21.145 -15.904 -15.979  1.00  0.00    -0.000 C 
BRANCH  27  28
ATOM     28  C   UNL     1      19.674 -15.564 -16.290  1.00  0.00    -0.000 C 
BRANCH  28  29
ATOM     29  C   UNL     1      18.636 -16.312 -15.436  1.00  0.00    -0.000 C 
BRANCH  29  30
ATOM     30  C   UNL     1      17.464 -15.418 -14.998  1.00  0.00    -0.000 C 
BRANCH  30  31
ATOM     31  C   UNL     1      17.048 -14.423 -16.094  1.00  0.00    -0.003 C 
ATOM     32  C   UNL     1      16.077 -15.033 -17.105  1.00  0.00     0.004 C 
ENDBRANCH  30  31
ENDBRANCH  29  30
ENDBRANCH  28  29
ENDBRANCH  27  28
ENDBRANCH  26  27
ENDBRANCH  25  26
ENDBRANCH  24  25
ENDBRANCH  23  24
ENDBRANCH  22  23
ENDBRANCH  21  22
ENDBRANCH  20  21
ENDBRANCH  19  20
ENDBRANCH  18  19
ENDBRANCH   1  18
TORSDOF 28
ENDMDL
MODEL 4
REMARK VINA RESULT:    -3.088      2.868      6.076
REMARK INTER + INTRA:         -11.224
REMARK INTER:                  -8.328
REMARK INTRA:                  -2.897
REMARK UNBOUND:                -3.081
REMARK SMILES CCCCCCCCCCCCCCCCCCCCCCCCCCCCCC(=O)[O-]
REMARK SMILES IDX 16 1 17 2 18 3 19 4 20 5 21 6 22 7 23 8 24 9 25 10 26 11
REMARK SMILES IDX 27 12 28 13 29 14 30 15 31 16 32 17 15 18 14 19 13 20 12 21
REMARK SMILES IDX 11 22 10 23 9 24 8 25 7 26 6 27 5 28 4 29 3 30 2 31 1 32
REMARK H PARENT
REMARK Flexibility Score: inf
ROOT
ATOM      1  C   UNL     1      16.243 -15.622 -17.565  1.00  0.00     0.000 C 
ENDROOT
BRANCH   1   2
ATOM      2  C   UNL     1      16.596 -14.709 -16.383  1.00  0.00     0.000 C 
BRANCH   2   3
ATOM      3  C   UNL     1      17.668 -15.330 -15.467  1.00  0.00     0.000 C 
BRANCH   3   4
ATOM      4  C   UNL     1      19.007 -15.597 -16.186  1.00  0.00     0.000 C 
BRANCH   4   5
ATOM      5  C   UNL     1      19.579 -16.994 -15.881  1.00  0.00     0.000 C 
BRANCH   5   6
ATOM      6  C   UNL     1      20.598 -17.459 -16.943  1.00  0.00     0.000 C 
BRANCH   6   7
ATOM      7  C   UNL     1      21.045 -18.917 -16.736  1.00  0.00     0.000 C 
BRANCH   7   8
ATOM      8  C   UNL     1      22.506 -19.181 -17.153  1.00  0.00     0.000 C 
BRANCH   8   9
ATOM      9  C   UNL     1      22.625 -19.703 -18.594  1.00  0.00     0.000 C 
BRANCH   9  10
ATOM     10  C   UNL     1      24.075 -20.080 -18.926  1.00  0.00     0.000 C 
BRANCH  10  11
ATOM     11  C   UNL     1      25.019 -18.897 -18.675  1.00  0.00     0.000 C 
BRANCH  11  12
ATOM     12  C   UNL     1      24.892 -17.842 -19.784  1.00  0.00     0.000 C 
BRANCH  12  13
ATOM     13  C   UNL     1      24.852 -16.402 -19.238  1.00  0.00     0.006 C 
BRANCH  13  14
ATOM     14  C   UNL     1      23.515 -16.002 -18.594  1.00  0.00     0.053 C 
BRANCH  14  15
ATOM     15  C   UNL     1      23.709 -15.317 -17.277  1.00  0.00     0.041 C 
ATOM     16  O   UNL     1      23.697 -14.060 -17.209  1.00  0.00    -0.550 OA
ATOM     17  O   UNL     1      23.866 -16.066 -16.118  1.00  0.00    -0.550 OA
ENDBRANCH  14  15
ENDBRANCH  13  14
ENDBRANCH  12  13
ENDBRANCH  11  12
ENDBRANCH  10  11
ENDBRANCH   9  10
ENDBRANCH   8   9
ENDBRANCH   7   8
ENDBRANCH   6   7
ENDBRANCH   5   6
ENDBRANCH   4   5
ENDBRANCH   3   4
ENDBRANCH   2   3
ENDBRANCH   1   2
BRANCH   1  18
ATOM     18  C   UNL     1      15.307 -14.909 -18.551  1.00  0.00     0.000 C 
BRANCH  18  19
ATOM     19  C   UNL     1      15.638 -15.210 -20.023  1.00  0.00     0.000 C 
BRANCH  19  20
ATOM     20  C   UNL     1      15.683 -16.718 -20.349  1.00  0.00     0.000 C 
BRANCH  20  21
ATOM     21  C   UNL     1      14.402 -17.192 -21.057  1.00  0.00     0.000 C 
BRANCH  21  22
ATOM     22  C   UNL     1      14.281 -18.723 -21.106  1.00  0.00     0.000 C 
BRANCH  22  23
ATOM     23  C   UNL     1      15.624 -19.433 -20.864  1.00  0.00     0.000 C 
BRANCH  23  24
ATOM     24  C   UNL     1      15.451 -20.936 -20.584  1.00  0.00    -0.000 C 
BRANCH  24  25
ATOM     25  C   UNL     1      14.135 -21.253 -19.853  1.00  0.00    -0.000 C 
BRANCH  25  26
ATOM     26  C   UNL     1      13.747 -22.740 -19.947  1.00  0.00    -0.000 C 
BRANCH  26  27
ATOM     27  C   UNL     1      14.915 -23.731 -19.777  1.00  0.00    -0.000 C 
BRANCH  27  28
ATOM     28  C   UNL     1      15.384 -23.948 -18.325  1.00  0.00    -0.000 C 
BRANCH  28  29
ATOM     29  C   UNL     1      16.836 -23.528 -18.038  1.00  0.00    -0.000 C 
BRANCH  29  30
ATOM     30  C   UNL     1      17.728 -23.567 -19.291  1.00  0.00    -0.000 C 
BRANCH  30  31
ATOM     31  C   UNL     1      18.610 -22.315 -19.419  1.00  0.00    -0.003 C 
ATOM     32  C   UNL     1      20.067 -22.579 -19.035  1.00  0.00     0.004 C 
ENDBRANCH  30  31
ENDBRANCH  29  30
ENDBRANCH  28  29
ENDBRANCH  27  28
ENDBRANCH  26  27
ENDBRANCH  25  26
ENDBRANCH  24  25
ENDBRANCH  23  24
ENDBRANCH  22  23
ENDBRANCH  21  22
ENDBRANCH  20  21
ENDBRANCH  19  20
ENDBRANCH  18  19
ENDBRANCH   1  18
TORSDOF 28
ENDMDL
MODEL 5
REMARK VINA RESULT:    -2.969      2.883      5.890
REMARK INTER + INTRA:         -10.909
REMARK INTER:                  -8.279
REMARK INTRA:                  -2.630
REMARK UNBOUND:                -3.081
REMARK SMILES CCCCCCCCCCCCCCCCCCCCCCCCCCCCCC(=O)[O-]
REMARK SMILES IDX 16 1 17 2 18 3 19 4 20 5 21 6 22 7 23 8 24 9 25 10 26 11
REMARK SMILES IDX 27 12 28 13 29 14 30 15 31 16 32 17 15 18 14 19 13 20 12 21
REMARK SMILES IDX 11 22 10 23 9 24 8 25 7 26 6 27 5 28 4 29 3 30 2 31 1 32
REMARK H PARENT
REMARK Flexibility Score: inf
ROOT
ATOM      1  C   UNL     1      15.341 -15.160 -18.198  1.00  0.00     0.000 C 
ENDROOT
BRANCH   1   2
ATOM      2  C   UNL     1      16.414 -15.610 -17.197  1.00  0.00     0.000 C 
BRANCH   2   3
ATOM      3  C   UNL     1      16.648 -14.568 -16.085  1.00  0.00     0.000 C 
BRANCH   3   4
ATOM      4  C   UNL     1      17.537 -15.089 -14.936  1.00  0.00     0.000 C 
BRANCH   4   5
ATOM      5  C   UNL     1      18.645 -16.040 -15.424  1.00  0.00     0.000 C 
BRANCH   5   6
ATOM      6  C   UNL     1      19.751 -15.304 -16.209  1.00  0.00     0.000 C 
BRANCH   6   7
ATOM      7  C   UNL     1      21.152 -15.879 -15.935  1.00  0.00     0.000 C 
BRANCH   7   8
ATOM      8  C   UNL     1      22.243 -15.319 -16.870  1.00  0.00     0.000 C 
BRANCH   8   9
ATOM      9  C   UNL     1      23.513 -16.186 -16.883  1.00  0.00     0.000 C 
BRANCH   9  10
ATOM     10  C   UNL     1      23.812 -16.707 -18.295  1.00  0.00     0.000 C 
BRANCH  10  11
ATOM     11  C   UNL     1      23.655 -18.231 -18.361  1.00  0.00     0.000 C 
BRANCH  11  12
ATOM     12  C   UNL     1      23.244 -18.806 -16.997  1.00  0.00     0.000 C 
BRANCH  12  13
ATOM     13  C   UNL     1      21.805 -19.355 -16.988  1.00  0.00     0.006 C 
BRANCH  13  14
ATOM     14  C   UNL     1      20.961 -18.948 -18.206  1.00  0.00     0.053 C 
BRANCH  14  15
ATOM     15  C   UNL     1      20.658 -20.113 -19.096  1.00  0.00     0.041 C 
ATOM     16  O   UNL     1      19.802 -20.005 -20.012  1.00  0.00    -0.550 OA
ATOM     17  O   UNL     1      21.347 -21.308 -18.937  1.00  0.00    -0.550 OA
ENDBRANCH  14  15
ENDBRANCH  13  14
ENDBRANCH  12  13
ENDBRANCH  11  12
ENDBRANCH  10  11
ENDBRANCH   9  10
ENDBRANCH   8   9
ENDBRANCH   7   8
ENDBRANCH   6   7
ENDBRANCH   5   6
ENDBRANCH   4   5
ENDBRANCH   3   4
ENDBRANCH   2   3
ENDBRANCH   1   2
BRANCH   1  18
ATOM     18  C   UNL     1      15.946 -14.940 -19.592  1.00  0.00     0.000 C 
BRANCH  18  19
ATOM     19  C   UNL     1      14.960 -15.243 -20.732  1.00  0.00     0.000 C 
BRANCH  19  20
ATOM     20  C   UNL     1      14.494 -16.714 -20.771  1.00  0.00     0.000 C 
BRANCH  20  21
ATOM     21  C   UNL     1      15.678 -17.689 -20.889  1.00  0.00     0.000 C 
BRANCH  21  22
ATOM     22  C   UNL     1      15.232 -19.141 -21.123  1.00  0.00     0.000 C 
BRANCH  22  23
ATOM     23  C   UNL     1      16.410 -20.130 -21.124  1.00  0.00     0.000 C 
BRANCH  23  24
ATOM     24  C   UNL     1      15.982 -21.553 -20.724  1.00  0.00    -0.000 C 
BRANCH  24  25
ATOM     25  C   UNL     1      14.657 -21.573 -19.943  1.00  0.00    -0.000 C 
BRANCH  25  26
ATOM     26  C   UNL     1      14.024 -22.975 -19.883  1.00  0.00    -0.000 C 
BRANCH  26  27
ATOM     27  C   UNL     1      14.193 -23.709 -18.538  1.00  0.00    -0.000 C 
BRANCH  27  28
ATOM     28  C   UNL     1      15.309 -23.159 -17.627  1.00  0.00    -0.000 C 
BRANCH  28  29
ATOM     29  C   UNL     1      16.722 -23.681 -17.939  1.00  0.00    -0.000 C 
BRANCH  29  30
ATOM     30  C   UNL     1      16.743 -24.702 -19.089  1.00  0.00    -0.000 C 
BRANCH  30  31
ATOM     31  C   UNL     1      18.137 -24.846 -19.718  1.00  0.00    -0.003 C 
ATOM     32  C   UNL     1      18.813 -23.497 -19.969  1.00  0.00     0.004 C 
ENDBRANCH  30  31
ENDBRANCH  29  30
ENDBRANCH  28  29
ENDBRANCH  27  28
ENDBRANCH  26  27
ENDBRANCH  25  26
ENDBRANCH  24  25
ENDBRANCH  23  24
ENDBRANCH  22  23
ENDBRANCH  21  22
ENDBRANCH  20  21
ENDBRANCH  19  20
ENDBRANCH  18  19
ENDBRANCH   1  18
TORSDOF 28
ENDMDL
MODEL 6
REMARK VINA RESULT:    -2.899      2.993      7.565
REMARK INTER + INTRA:         -10.725
REMARK INTER:                  -8.216
REMARK INTRA:                  -2.509
REMARK UNBOUND:                -3.081
REMARK SMILES CCCCCCCCCCCCCCCCCCCCCCCCCCCCCC(=O)[O-]
REMARK SMILES IDX 16 1 17 2 18 3 19 4 20 5 21 6 22 7 23 8 24 9 25 10 26 11
REMARK SMILES IDX 27 12 28 13 29 14 30 15 31 16 32 17 15 18 14 19 13 20 12 21
REMARK SMILES IDX 11 22 10 23 9 24 8 25 7 26 6 27 5 28 4 29 3 30 2 31 1 32
REMARK H PARENT
REMARK Flexibility Score: inf
ROOT
ATOM      1  C   UNL     1      24.198 -15.876 -16.593  1.00  0.00     0.000 C 
ENDROOT
BRANCH   1   2
ATOM      2  C   UNL     1      23.813 -17.362 -16.630  1.00  0.00     0.000 C 
BRANCH   2   3
ATOM      3  C   UNL     1      24.004 -17.978 -18.029  1.00  0.00     0.000 C 
BRANCH   3   4
ATOM      4  C   UNL     1      23.546 -19.449 -18.117  1.00  0.00     0.000 C 
BRANCH   4   5
ATOM      5  C   UNL     1      22.317 -19.745 -17.238  1.00  0.00     0.000 C 
BRANCH   5   6
ATOM      6  C   UNL     1      21.006 -19.787 -18.051  1.00  0.00     0.000 C 
BRANCH   6   7
ATOM      7  C   UNL     1      20.766 -21.153 -18.716  1.00  0.00     0.000 C 
BRANCH   7   8
ATOM      8  C   UNL     1      21.001 -21.149 -20.240  1.00  0.00     0.000 C 
BRANCH   8   9
ATOM      9  C   UNL     1      20.765 -22.528 -20.880  1.00  0.00     0.000 C 
BRANCH   9  10
ATOM     10  C   UNL     1      19.513 -23.197 -20.302  1.00  0.00     0.000 C 
BRANCH  10  11
ATOM     11  C   UNL     1      18.245 -22.441 -20.719  1.00  0.00     0.000 C 
BRANCH  11  12
ATOM     12  C   UNL     1      17.036 -22.879 -19.879  1.00  0.00     0.000 C 
BRANCH  12  13
ATOM     13  C   UNL     1      17.407 -23.202 -18.419  1.00  0.00     0.006 C 
BRANCH  13  14
ATOM     14  C   UNL     1      16.378 -24.068 -17.676  1.00  0.00     0.053 C 
BRANCH  14  15
ATOM     15  C   UNL     1      14.980 -23.561 -17.859  1.00  0.00     0.041 C 
ATOM     16  O   UNL     1      14.617 -22.494 -17.300  1.00  0.00    -0.550 OA
ATOM     17  O   UNL     1      14.091 -24.247 -18.675  1.00  0.00    -0.550 OA
ENDBRANCH  14  15
ENDBRANCH  13  14
ENDBRANCH  12  13
ENDBRANCH  11  12
ENDBRANCH  10  11
ENDBRANCH   9  10
ENDBRANCH   8   9
ENDBRANCH   7   8
ENDBRANCH   6   7
ENDBRANCH   5   6
ENDBRANCH   4   5
ENDBRANCH   3   4
ENDBRANCH   2   3
ENDBRANCH   1   2
BRANCH   1  18
ATOM     18  C   UNL     1      23.039 -14.996 -17.080  1.00  0.00     0.000 C 
BRANCH  18  19
ATOM     19  C   UNL     1      21.735 -15.226 -16.296  1.00  0.00     0.000 C 
BRANCH  19  20
ATOM     20  C   UNL     1      20.852 -16.347 -16.885  1.00  0.00     0.000 C 
BRANCH  20  21
ATOM     21  C   UNL     1      19.631 -16.643 -15.997  1.00  0.00     0.000 C 
BRANCH  21  22
ATOM     22  C   UNL     1      18.605 -15.499 -15.994  1.00  0.00     0.000 C 
BRANCH  22  23
ATOM     23  C   UNL     1      17.217 -15.947 -15.507  1.00  0.00     0.000 C 
BRANCH  23  24
ATOM     24  C   UNL     1      16.089 -15.047 -16.039  1.00  0.00    -0.000 C 
BRANCH  24  25
ATOM     25  C   UNL     1      16.309 -14.626 -17.502  1.00  0.00    -0.000 C 
BRANCH  25  26
ATOM     26  C   UNL     1      15.570 -15.537 -18.499  1.00  0.00    -0.000 C 
BRANCH  26  27
ATOM     27  C   UNL     1      15.421 -14.962 -19.922  1.00  0.00    -0.000 C 
BRANCH  27  28
ATOM     28  C   UNL     1      14.972 -15.974 -20.994  1.00  0.00    -0.000 C 
BRANCH  28  29
ATOM     29  C   UNL     1      15.518 -17.401 -20.813  1.00  0.00    -0.000 C 
BRANCH  29  30
ATOM     30  C   UNL     1      14.430 -18.479 -20.951  1.00  0.00    -0.000 C 
BRANCH  30  31
ATOM     31  C   UNL     1      14.956 -19.886 -20.627  1.00  0.00    -0.003 C 
ATOM     32  C   UNL     1      13.835 -20.879 -20.320  1.00  0.00     0.004 C 
ENDBRANCH  30  31
ENDBRANCH  29  30
ENDBRANCH  28  29
ENDBRANCH  27  28
ENDBRANCH  26  27
ENDBRANCH  25  26
ENDBRANCH  24  25
ENDBRANCH  23  24
ENDBRANCH  22  23
ENDBRANCH  21  22
ENDBRANCH  20  21
ENDBRANCH  19  20
ENDBRANCH  18  19
ENDBRANCH   1  18
TORSDOF 28
ENDMDL
MODEL 7
REMARK VINA RESULT:    -2.831      3.182      6.049
REMARK INTER + INTRA:         -10.545
REMARK INTER:                  -8.526
REMARK INTRA:                  -2.020
REMARK UNBOUND:                -3.081
REMARK SMILES CCCCCCCCCCCCCCCCCCCCCCCCCCCCCC(=O)[O-]
REMARK SMILES IDX 16 1 17 2 18 3 19 4 20 5 21 6 22 7 23 8 24 9 25 10 26 11
REMARK SMILES IDX 27 12 28 13 29 14 30 15 31 16 32 17 15 18 14 19 13 20 12 21
REMARK SMILES IDX 11 22 10 23 9 24 8 25 7 26 6 27 5 28 4 29 3 30 2 31 1 32
REMARK H PARENT
REMARK Flexibility Score: inf
ROOT
ATOM      1  C   UNL     1      15.340 -15.259 -18.573  1.00  0.00     0.000 C 
ENDROOT
BRANCH   1   2
ATOM      2  C   UNL     1      16.433 -15.619 -17.557  1.00  0.00     0.000 C 
BRANCH   2   3
ATOM      3  C   UNL     1      16.552 -14.572 -16.433  1.00  0.00     0.000 C 
BRANCH   3   4
ATOM      4  C   UNL     1      17.270 -15.104 -15.175  1.00  0.00     0.000 C 
BRANCH   4   5
ATOM      5  C   UNL     1      18.486 -15.986 -15.511  1.00  0.00     0.000 C 
BRANCH   5   6
ATOM      6  C   UNL     1      19.627 -15.188 -16.177  1.00  0.00     0.000 C 
BRANCH   6   7
ATOM      7  C   UNL     1      21.018 -15.753 -15.842  1.00  0.00     0.000 C 
BRANCH   7   8
ATOM      8  C   UNL     1      22.071 -15.494 -16.938  1.00  0.00     0.000 C 
BRANCH   8   9
ATOM      9  C   UNL     1      23.343 -16.337 -16.748  1.00  0.00     0.000 C 
BRANCH   9  10
ATOM     10  C   UNL     1      23.769 -16.998 -18.065  1.00  0.00     0.000 C 
BRANCH  10  11
ATOM     11  C   UNL     1      23.603 -18.521 -17.993  1.00  0.00     0.000 C 
BRANCH  11  12
ATOM     12  C   UNL     1      22.911 -18.942 -16.687  1.00  0.00     0.000 C 
BRANCH  12  13
ATOM     13  C   UNL     1      21.519 -19.558 -16.920  1.00  0.00     0.006 C 
BRANCH  13  14
ATOM     14  C   UNL     1      21.043 -19.523 -18.381  1.00  0.00     0.053 C 
BRANCH  14  15
ATOM     15  C   UNL     1      21.139 -20.865 -19.036  1.00  0.00     0.041 C 
ATOM     16  O   UNL     1      22.126 -21.143 -19.767  1.00  0.00    -0.550 OA
ATOM     17  O   UNL     1      20.159 -21.823 -18.811  1.00  0.00    -0.550 OA
ENDBRANCH  14  15
ENDBRANCH  13  14
ENDBRANCH  12  13
ENDBRANCH  11  12
ENDBRANCH  10  11
ENDBRANCH   9  10
ENDBRANCH   8   9
ENDBRANCH   7   8
ENDBRANCH   6   7
ENDBRANCH   5   6
ENDBRANCH   4   5
ENDBRANCH   3   4
ENDBRANCH   2   3
ENDBRANCH   1   2
BRANCH   1  18
ATOM     18  C   UNL     1      15.951 -14.883 -19.930  1.00  0.00     0.000 C 
BRANCH  18  19
ATOM     19  C   UNL     1      15.066 -15.283 -21.122  1.00  0.00     0.000 C 
BRANCH  19  20
ATOM     20  C   UNL     1      14.511 -16.720 -21.024  1.00  0.00     0.000 C 
BRANCH  20  21
ATOM     21  C   UNL     1      15.608 -17.737 -20.666  1.00  0.00     0.000 C 
BRANCH  21  22
ATOM     22  C   UNL     1      15.189 -19.188 -20.948  1.00  0.00     0.000 C 
BRANCH  22  23
ATOM     23  C   UNL     1      16.359 -20.179 -20.820  1.00  0.00     0.000 C 
BRANCH  23  24
ATOM     24  C   UNL     1      15.900 -21.574 -20.360  1.00  0.00    -0.000 C 
BRANCH  24  25
ATOM     25  C   UNL     1      14.410 -21.608 -19.978  1.00  0.00    -0.000 C 
BRANCH  25  26
ATOM     26  C   UNL     1      13.780 -23.000 -20.168  1.00  0.00    -0.000 C 
BRANCH  26  27
ATOM     27  C   UNL     1      13.743 -23.878 -18.901  1.00  0.00    -0.000 C 
BRANCH  27  28
ATOM     28  C   UNL     1      15.091 -24.026 -18.168  1.00  0.00    -0.000 C 
BRANCH  28  29
ATOM     29  C   UNL     1      15.075 -23.621 -16.685  1.00  0.00    -0.000 C 
BRANCH  29  30
ATOM     30  C   UNL     1      14.642 -22.161 -16.469  1.00  0.00    -0.000 C 
BRANCH  30  31
ATOM     31  C   UNL     1      14.605 -21.776 -14.981  1.00  0.00    -0.003 C 
ATOM     32  C   UNL     1      13.231 -21.275 -14.536  1.00  0.00     0.004 C 
ENDBRANCH  30  31
ENDBRANCH  29  30
ENDBRANCH  28  29
ENDBRANCH  27  28
ENDBRANCH  26  27
ENDBRANCH  25  26
ENDBRANCH  24  25
ENDBRANCH  23  24
ENDBRANCH  22  23
ENDBRANCH  21  22
ENDBRANCH  20  21
ENDBRANCH  19  20
ENDBRANCH  18  19
ENDBRANCH   1  18
TORSDOF 28
ENDMDL
MODEL 8
REMARK VINA RESULT:    -2.643      2.360      8.017
REMARK INTER + INTRA:         -10.049
REMARK INTER:                  -7.622
REMARK INTRA:                  -2.427
REMARK UNBOUND:                -3.081
REMARK SMILES CCCCCCCCCCCCCCCCCCCCCCCCCCCCCC(=O)[O-]
REMARK SMILES IDX 16 1 17 2 18 3 19 4 20 5 21 6 22 7 23 8 24 9 25 10 26 11
REMARK SMILES IDX 27 12 28 13 29 14 30 15 31 16 32 17 15 18 14 19 13 20 12 21
REMARK SMILES IDX 11 22 10 23 9 24 8 25 7 26 6 27 5 28 4 29 3 30 2 31 1 32
REMARK H PARENT
REMARK Flexibility Score: inf
ROOT
ATOM      1  C   UNL     1      23.485 -19.574 -18.575  1.00  0.00     0.000 C 
ENDROOT
BRANCH   1   2
ATOM      2  C   UNL     1      22.092 -19.051 -18.196  1.00  0.00     0.000 C 
BRANCH   2   3
ATOM      3  C   UNL     1      20.967 -19.992 -18.672  1.00  0.00     0.000 C 
BRANCH   3   4
ATOM      4  C   UNL     1      21.365 -21.483 -18.645  1.00  0.00     0.000 C 
BRANCH   4   5
ATOM      5  C   UNL     1      21.296 -22.143 -20.034  1.00  0.00     0.000 C 
BRANCH   5   6
ATOM      6  C   UNL     1      21.190 -23.680 -19.952  1.00  0.00     0.000 C 
BRANCH   6   7
ATOM      7  C   UNL     1      19.939 -24.226 -20.663  1.00  0.00     0.000 C 
BRANCH   7   8
ATOM      8  C   UNL     1      18.911 -23.137 -21.028  1.00  0.00     0.000 C 
BRANCH   8   9
ATOM      9  C   UNL     1      17.594 -23.281 -20.247  1.00  0.00     0.000 C 
BRANCH   9  10
ATOM     10  C   UNL     1      17.830 -23.154 -18.737  1.00  0.00     0.000 C 
BRANCH  10  11
ATOM     11  C   UNL     1      16.687 -23.801 -17.947  1.00  0.00     0.000 C 
BRANCH  11  12
ATOM     12  C   UNL     1      15.522 -24.187 -18.872  1.00  0.00     0.000 C 
BRANCH  12  13
ATOM     13  C   UNL     1      14.288 -23.285 -18.687  1.00  0.00     0.006 C 
BRANCH  13  14
ATOM     14  C   UNL     1      13.782 -22.626 -19.980  1.00  0.00     0.053 C 
BRANCH  14  15
ATOM     15  C   UNL     1      14.060 -21.155 -20.007  1.00  0.00     0.041 C 
ATOM     16  O   UNL     1      13.109 -20.331 -20.042  1.00  0.00    -0.550 OA
ATOM     17  O   UNL     1      15.369 -20.692 -19.957  1.00  0.00    -0.550 OA
ENDBRANCH  14  15
ENDBRANCH  13  14
ENDBRANCH  12  13
ENDBRANCH  11  12
ENDBRANCH  10  11
ENDBRANCH   9  10
ENDBRANCH   8   9
ENDBRANCH   7   8
ENDBRANCH   6   7
ENDBRANCH   5   6
ENDBRANCH   4   5
ENDBRANCH   3   4
ENDBRANCH   2   3
ENDBRANCH   1   2
BRANCH   1  18
ATOM     18  C   UNL     1      24.514 -19.232 -17.489  1.00  0.00     0.000 C 
BRANCH  18  19
ATOM     19  C   UNL     1      24.033 -18.133 -16.526  1.00  0.00     0.000 C 
BRANCH  19  20
ATOM     20  C   UNL     1      24.969 -16.907 -16.471  1.00  0.00     0.000 C 
BRANCH  20  21
ATOM     21  C   UNL     1      24.199 -15.588 -16.654  1.00  0.00     0.000 C 
BRANCH  21  22
ATOM     22  C   UNL     1      22.872 -15.772 -17.406  1.00  0.00     0.000 C 
BRANCH  22  23
ATOM     23  C   UNL     1      21.645 -15.614 -16.492  1.00  0.00     0.000 C 
BRANCH  23  24
ATOM     24  C   UNL     1      20.640 -16.767 -16.654  1.00  0.00    -0.000 C 
BRANCH  24  25
ATOM     25  C   UNL     1      19.411 -16.613 -15.742  1.00  0.00    -0.000 C 
BRANCH  25  26
ATOM     26  C   UNL     1      18.547 -15.394 -16.112  1.00  0.00    -0.000 C 
BRANCH  26  27
ATOM     27  C   UNL     1      17.312 -15.173 -15.215  1.00  0.00    -0.000 C 
BRANCH  27  28
ATOM     28  C   UNL     1      16.082 -14.579 -15.929  1.00  0.00    -0.000 C 
BRANCH  28  29
ATOM     29  C   UNL     1      16.222 -14.429 -17.454  1.00  0.00    -0.000 C 
BRANCH  29  30
ATOM     30  C   UNL     1      15.508 -15.546 -18.233  1.00  0.00    -0.000 C 
BRANCH  30  31
ATOM     31  C   UNL     1      15.357 -15.213 -19.726  1.00  0.00    -0.003 C 
ATOM     32  C   UNL     1      15.494 -16.444 -20.622  1.00  0.00     0.004 C 
ENDBRANCH  30  31
ENDBRANCH  29  30
ENDBRANCH  28  29
ENDBRANCH  27  28
ENDBRANCH  26  27
ENDBRANCH  25  26
ENDBRANCH  24  25
ENDBRANCH  23  24
ENDBRANCH  22  23
ENDBRANCH  21  22
ENDBRANCH  20  21
ENDBRANCH  19  20
ENDBRANCH  18  19
ENDBRANCH   1  18
TORSDOF 28
ENDMDL
MODEL 9
REMARK VINA RESULT:    -2.570      1.894      3.327
REMARK INTER + INTRA:          -9.857
REMARK INTER:                  -7.923
REMARK INTRA:                  -1.935
REMARK UNBOUND:                -3.081
REMARK SMILES CCCCCCCCCCCCCCCCCCCCCCCCCCCCCC(=O)[O-]
REMARK SMILES IDX 16 1 17 2 18 3 19 4 20 5 21 6 22 7 23 8 24 9 25 10 26 11
REMARK SMILES IDX 27 12 28 13 29 14 30 15 31 16 32 17 15 18 14 19 13 20 12 21
REMARK SMILES IDX 11 22 10 23 9 24 8 25 7 26 6 27 5 28 4 29 3 30 2 31 1 32
REMARK H PARENT
REMARK Flexibility Score: inf
ROOT
ATOM      1  C   UNL     1      21.892 -18.989 -17.703  1.00  0.00     0.000 C 
ENDROOT
BRANCH   1   2
ATOM      2  C   UNL     1      23.311 -19.100 -17.130  1.00  0.00     0.000 C 
BRANCH   2   3
ATOM      3  C   UNL     1      24.375 -18.545 -18.097  1.00  0.00     0.000 C 
BRANCH   3   4
ATOM      4  C   UNL     1      24.807 -17.100 -17.767  1.00  0.00     0.000 C 
BRANCH   4   5
ATOM      5  C   UNL     1      23.669 -16.081 -17.950  1.00  0.00     0.000 C 
BRANCH   5   6
ATOM      6  C   UNL     1      23.316 -15.348 -16.639  1.00  0.00     0.000 C 
BRANCH   6   7
ATOM      7  C   UNL     1      21.876 -14.805 -16.633  1.00  0.00     0.000 C 
BRANCH   7   8
ATOM      8  C   UNL     1      20.819 -15.858 -16.244  1.00  0.00     0.000 C 
BRANCH   8   9
ATOM      9  C   UNL     1      19.418 -15.252 -16.065  1.00  0.00     0.000 C 
BRANCH   9  10
ATOM     10  C   UNL     1      18.458 -16.261 -15.423  1.00  0.00     0.000 C 
BRANCH  10  11
ATOM     11  C   UNL     1      17.014 -16.007 -15.873  1.00  0.00     0.000 C 
BRANCH  11  12
ATOM     12  C   UNL     1      16.880 -14.640 -16.561  1.00  0.00     0.000 C 
BRANCH  12  13
ATOM     13  C   UNL     1      15.747 -14.604 -17.604  1.00  0.00     0.006 C 
BRANCH  13  14
ATOM     14  C   UNL     1      15.716 -15.812 -18.554  1.00  0.00     0.053 C 
BRANCH  14  15
ATOM     15  C   UNL     1      15.396 -15.413 -19.961  1.00  0.00     0.041 C 
ATOM     16  O   UNL     1      15.884 -14.358 -20.446  1.00  0.00    -0.550 OA
ATOM     17  O   UNL     1      14.590 -16.223 -20.749  1.00  0.00    -0.550 OA
ENDBRANCH  14  15
ENDBRANCH  13  14
ENDBRANCH  12  13
ENDBRANCH  11  12
ENDBRANCH  10  11
ENDBRANCH   9  10
ENDBRANCH   8   9
ENDBRANCH   7   8
ENDBRANCH   6   7
ENDBRANCH   5   6
ENDBRANCH   4   5
ENDBRANCH   3   4
ENDBRANCH   2   3
ENDBRANCH   1   2
BRANCH   1  18
ATOM     18  C   UNL     1      21.161 -20.338 -17.626  1.00  0.00     0.000 C 
BRANCH  18  19
ATOM     19  C   UNL     1      20.966 -20.997 -19.002  1.00  0.00     0.000 C 
BRANCH  19  20
ATOM     20  C   UNL     1      22.156 -20.784 -19.962  1.00  0.00     0.000 C 
BRANCH  20  21
ATOM     21  C   UNL     1      22.542 -22.080 -20.696  1.00  0.00     0.000 C 
BRANCH  21  22
ATOM     22  C   UNL     1      21.330 -22.972 -21.007  1.00  0.00     0.000 C 
BRANCH  22  23
ATOM     23  C   UNL     1      21.202 -24.159 -20.037  1.00  0.00     0.000 C 
BRANCH  23  24
ATOM     24  C   UNL     1      20.026 -25.084 -20.395  1.00  0.00    -0.000 C 
BRANCH  24  25
ATOM     25  C   UNL     1      18.892 -24.343 -21.125  1.00  0.00    -0.000 C 
BRANCH  25  26
ATOM     26  C   UNL     1      17.788 -23.858 -20.169  1.00  0.00    -0.000 C 
BRANCH  26  27
ATOM     27  C   UNL     1      16.591 -24.817 -20.014  1.00  0.00    -0.000 C 
BRANCH  27  28
ATOM     28  C   UNL     1      15.681 -24.538 -18.802  1.00  0.00    -0.000 C 
BRANCH  28  29
ATOM     29  C   UNL     1      16.241 -23.530 -17.784  1.00  0.00    -0.000 C 
BRANCH  29  30
ATOM     30  C   UNL     1      15.378 -23.417 -16.516  1.00  0.00    -0.000 C 
BRANCH  30  31
ATOM     31  C   UNL     1      14.519 -22.143 -16.505  1.00  0.00    -0.003 C 
ATOM     32  C   UNL     1      14.063 -21.751 -15.099  1.00  0.00     0.004 C 
ENDBRANCH  30  31
ENDBRANCH  29  30
ENDBRANCH  28  29
ENDBRANCH  27  28
ENDBRANCH  26  27
ENDBRANCH  25  26
ENDBRANCH  24  25
ENDBRANCH  23  24
ENDBRANCH  22  23
ENDBRANCH  21  22
ENDBRANCH  20  21
ENDBRANCH  19  20
ENDBRANCH  18  19
ENDBRANCH   1  18
TORSDOF 28
ENDMDL
