MODEL 1
REMARK VINA RESULT:    -6.287      0.000      0.000
REMARK INTER + INTRA:         -10.349
REMARK INTER:                  -8.676
REMARK INTRA:                  -1.673
REMARK UNBOUND:                -1.673
REMARK SMILES CC[C@@H](CC[C@@H](C)[C@@H]1CC[C@H]2[C@@H]3CC=C4C[C@@H](O)CC[C@]4(C)[C@@H]3CC[C@]21C)C(C)C
REMARK SMILES IDX 5 1 4 2 3 3 2 4 1 5 28 6 29 7 30 8 6 9 7 10 8 11 9 12 26 13
REMARK SMILES IDX 10 14 11 15 25 16 27 17 12 18 24 19 23 20 13 21 21 22 14 23
REMARK SMILES IDX 15 24 20 25 22 26 16 27 19 28 17 29 18 30
REMARK H PARENT 18 31
REMARK Flexibility Score: inf
ROOT
ATOM      1  C   UNL     1     138.722 134.047 146.892  1.00  0.00     0.004 C 
ENDROOT
BRANCH   1   2
ATOM      2  C   UNL     1     138.052 135.030 147.870  1.00  0.00     0.004 C 
BRANCH   2   3
ATOM      3  C   UNL     1     137.137 134.321 148.893  1.00  0.00    -0.009 C 
BRANCH   3   4
ATOM      4  C   UNL     1     137.795 134.325 150.307  1.00  0.00     0.000 C 
ATOM      5  C   UNL     1     139.163 135.026 150.372  1.00  0.00     0.004 C 
ENDBRANCH   3   4
BRANCH   3   6
ATOM      6  C   UNL     1     136.684 132.892 148.437  1.00  0.00    -0.014 C 
ATOM      7  C   UNL     1     136.759 131.902 149.618  1.00  0.00     0.007 C 
ATOM      8  C   UNL     1     135.244 132.862 147.875  1.00  0.00     0.007 C 
ENDBRANCH   3   6
ENDBRANCH   2   3
ENDBRANCH   1   2
BRANCH   1   9
ATOM      9  C   UNL     1     140.043 133.435 147.435  1.00  0.00    -0.011 C 
ATOM     10  C   UNL     1     140.045 131.901 147.147  1.00  0.00     0.008 C 
BRANCH   9  11
ATOM     11  C   UNL     1     141.334 134.072 146.806  1.00  0.00    -0.002 C 
ATOM     12  C   UNL     1     142.083 133.026 145.946  1.00  0.00     0.005 C 
ATOM     13  C   UNL     1     142.448 134.752 147.704  1.00  0.00    -0.026 C 
ATOM     14  C   UNL     1     143.574 133.158 146.201  1.00  0.00     0.005 C 
ATOM     15  C   UNL     1     143.804 134.463 146.969  1.00  0.00    -0.001 C 
ATOM     16  C   UNL     1     142.199 136.291 147.848  1.00  0.00     0.007 C 
ATOM     17  C   UNL     1     142.542 134.128 149.125  1.00  0.00     0.012 C 
ATOM     18  C   UNL     1     144.327 135.592 146.031  1.00  0.00     0.000 C 
ATOM     19  C   UNL     1     142.347 137.119 146.543  1.00  0.00     0.005 C 
ATOM     20  C   UNL     1     143.174 136.424 145.418  1.00  0.00     0.003 C 
ATOM     21  C   UNL     1     145.312 136.554 146.723  1.00  0.00     0.031 C 
ATOM     22  C   UNL     1     143.746 137.388 144.285  1.00  0.00    -0.008 C 
ATOM     23  C   UNL     1     145.842 137.533 145.723  1.00  0.00    -0.027 C 
ATOM     24  C   UNL     1     145.128 137.955 144.647  1.00  0.00    -0.065 C 
ATOM     25  C   UNL     1     142.791 138.603 143.981  1.00  0.00     0.014 C 
ATOM     26  C   UNL     1     143.887 136.531 142.986  1.00  0.00     0.016 C 
ATOM     27  C   UNL     1     145.758 138.967 143.711  1.00  0.00     0.063 C 
ATOM     28  C   UNL     1     143.389 139.594 142.955  1.00  0.00     0.033 C 
ATOM     29  C   UNL     1     144.773 140.108 143.399  1.00  0.00     0.118 C 
BRANCH  29  30
ATOM     30  O   UNL     1     145.330 140.967 142.439  1.00  0.00    -0.393 OA
ATOM     31  H   UNL     1     145.964 141.576 142.915  1.00  0.00     0.210 HD
ENDBRANCH  29  30
ENDBRANCH   9  11
ENDBRANCH   1   9
TORSDOF 7
ENDMDL
MODEL 2
REMARK VINA RESULT:    -6.256      3.253      4.859
REMARK INTER + INTRA:         -10.307
REMARK INTER:                  -7.269
REMARK INTRA:                  -3.038
REMARK UNBOUND:                -1.673
REMARK SMILES CC[C@@H](CC[C@@H](C)[C@@H]1CC[C@H]2[C@@H]3CC=C4C[C@@H](O)CC[C@]4(C)[C@@H]3CC[C@]21C)C(C)C
REMARK SMILES IDX 5 1 4 2 3 3 2 4 1 5 28 6 29 7 30 8 6 9 7 10 8 11 9 12 26 13
REMARK SMILES IDX 10 14 11 15 25 16 27 17 12 18 24 19 23 20 13 21 21 22 14 23
REMARK SMILES IDX 15 24 20 25 22 26 16 27 19 28 17 29 18 30
REMARK H PARENT 18 31
REMARK Flexibility Score: inf
ROOT
ATOM      1  C   UNL     1     138.445 135.112 149.305  1.00  0.00     0.004 C 
ENDROOT
BRANCH   1   2
ATOM      2  C   UNL     1     137.918 134.871 147.877  1.00  0.00     0.004 C 
BRANCH   2   3
ATOM      3  C   UNL     1     137.354 133.445 147.685  1.00  0.00    -0.009 C 
BRANCH   3   4
ATOM      4  C   UNL     1     137.125 132.760 149.067  1.00  0.00     0.000 C 
ATOM      5  C   UNL     1     135.825 131.943 149.167  1.00  0.00     0.004 C 
ENDBRANCH   3   4
BRANCH   3   6
ATOM      6  C   UNL     1     138.201 132.568 146.703  1.00  0.00    -0.014 C 
ATOM      7  C   UNL     1     139.089 131.583 147.492  1.00  0.00     0.007 C 
ATOM      8  C   UNL     1     137.335 131.750 145.717  1.00  0.00     0.007 C 
ENDBRANCH   3   6
ENDBRANCH   2   3
ENDBRANCH   1   2
BRANCH   1   9
ATOM      9  C   UNL     1     139.947 135.508 149.353  1.00  0.00    -0.011 C 
ATOM     10  C   UNL     1     140.516 135.164 150.764  1.00  0.00     0.008 C 
BRANCH   9  11
ATOM     11  C   UNL     1     140.821 134.787 148.263  1.00  0.00    -0.002 C 
ATOM     12  C   UNL     1     141.741 133.734 148.926  1.00  0.00     0.005 C 
ATOM     13  C   UNL     1     141.757 135.600 147.277  1.00  0.00    -0.026 C 
ATOM     14  C   UNL     1     143.114 133.807 148.282  1.00  0.00     0.005 C 
ATOM     15  C   UNL     1     142.995 134.670 147.023  1.00  0.00    -0.001 C 
ATOM     16  C   UNL     1     141.016 135.935 145.939  1.00  0.00     0.007 C 
ATOM     17  C   UNL     1     142.285 136.924 147.898  1.00  0.00     0.012 C 
ATOM     18  C   UNL     1     142.939 133.795 145.735  1.00  0.00     0.000 C 
ATOM     19  C   UNL     1     140.660 134.715 145.046  1.00  0.00     0.005 C 
ATOM     20  C   UNL     1     141.488 133.427 145.340  1.00  0.00     0.003 C 
ATOM     21  C   UNL     1     143.626 134.450 144.521  1.00  0.00     0.031 C 
ATOM     22  C   UNL     1     141.504 132.336 144.178  1.00  0.00    -0.008 C 
ATOM     23  C   UNL     1     143.619 133.498 143.366  1.00  0.00    -0.027 C 
ATOM     24  C   UNL     1     142.643 132.573 143.174  1.00  0.00    -0.065 C 
ATOM     25  C   UNL     1     140.152 132.285 143.372  1.00  0.00     0.014 C 
ATOM     26  C   UNL     1     141.727 130.947 144.860  1.00  0.00     0.016 C 
ATOM     27  C   UNL     1     142.727 131.674 141.956  1.00  0.00     0.063 C 
ATOM     28  C   UNL     1     140.200 131.299 142.181  1.00  0.00     0.033 C 
ATOM     29  C   UNL     1     141.372 131.613 141.229  1.00  0.00     0.118 C 
BRANCH  29  30
ATOM     30  O   UNL     1     141.438 130.683 140.180  1.00  0.00    -0.393 OA
ATOM     31  H   UNL     1     141.781 129.825 140.562  1.00  0.00     0.210 HD
ENDBRANCH  29  30
ENDBRANCH   9  11
ENDBRANCH   1   9
TORSDOF 7
ENDMDL
MODEL 3
REMARK VINA RESULT:    -6.223      7.533     10.812
REMARK INTER + INTRA:         -10.261
REMARK INTER:                  -7.128
REMARK INTRA:                  -3.134
REMARK UNBOUND:                -1.673
REMARK SMILES CC[C@@H](CC[C@@H](C)[C@@H]1CC[C@H]2[C@@H]3CC=C4C[C@@H](O)CC[C@]4(C)[C@@H]3CC[C@]21C)C(C)C
REMARK SMILES IDX 5 1 4 2 3 3 2 4 1 5 28 6 29 7 30 8 6 9 7 10 8 11 9 12 26 13
REMARK SMILES IDX 10 14 11 15 25 16 27 17 12 18 24 19 23 20 13 21 21 22 14 23
REMARK SMILES IDX 15 24 20 25 22 26 16 27 19 28 17 29 18 30
REMARK H PARENT 18 31
REMARK Flexibility Score: inf
ROOT
ATOM      1  C   UNL     1     141.617 142.555 143.624  1.00  0.00     0.004 C 
ENDROOT
BRANCH   1   2
ATOM      2  C   UNL     1     141.324 141.085 143.267  1.00  0.00     0.004 C 
BRANCH   2   3
ATOM      3  C   UNL     1     142.303 140.524 142.211  1.00  0.00    -0.009 C 
BRANCH   3   4
ATOM      4  C   UNL     1     143.426 141.562 141.905  1.00  0.00     0.000 C 
ATOM      5  C   UNL     1     144.832 141.133 142.359  1.00  0.00     0.004 C 
ENDBRANCH   3   4
BRANCH   3   6
ATOM      6  C   UNL     1     141.590 140.000 140.918  1.00  0.00    -0.014 C 
ATOM      7  C   UNL     1     141.775 141.002 139.759  1.00  0.00     0.007 C 
ATOM      8  C   UNL     1     142.115 138.623 140.452  1.00  0.00     0.007 C 
ENDBRANCH   3   6
ENDBRANCH   2   3
ENDBRANCH   1   2
BRANCH   1   9
ATOM      9  C   UNL     1     140.507 143.539 143.161  1.00  0.00    -0.011 C 
ATOM     10  C   UNL     1     141.179 144.831 142.602  1.00  0.00     0.008 C 
BRANCH   9  11
ATOM     11  C   UNL     1     139.559 142.941 142.060  1.00  0.00    -0.002 C 
ATOM     12  C   UNL     1     139.631 143.794 140.771  1.00  0.00     0.005 C 
ATOM     13  C   UNL     1     138.014 142.714 142.327  1.00  0.00    -0.026 C 
ATOM     14  C   UNL     1     138.229 143.957 140.211  1.00  0.00     0.005 C 
ATOM     15  C   UNL     1     137.314 142.974 140.947  1.00  0.00    -0.001 C 
ATOM     16  C   UNL     1     137.733 141.262 142.840  1.00  0.00     0.007 C 
ATOM     17  C   UNL     1     137.423 143.726 143.349  1.00  0.00     0.012 C 
ATOM     18  C   UNL     1     137.021 141.711 140.081  1.00  0.00     0.000 C 
ATOM     19  C   UNL     1     138.011 140.125 141.818  1.00  0.00     0.005 C 
ATOM     20  C   UNL     1     138.050 140.581 140.328  1.00  0.00     0.003 C 
ATOM     21  C   UNL     1     135.606 141.140 140.294  1.00  0.00     0.031 C 
ATOM     22  C   UNL     1     137.855 139.427 139.247  1.00  0.00    -0.008 C 
ATOM     23  C   UNL     1     135.377 140.003 139.348  1.00  0.00    -0.027 C 
ATOM     24  C   UNL     1     136.375 139.192 138.907  1.00  0.00    -0.065 C 
ATOM     25  C   UNL     1     138.468 138.051 139.708  1.00  0.00     0.014 C 
ATOM     26  C   UNL     1     138.595 139.887 137.949  1.00  0.00     0.016 C 
ATOM     27  C   UNL     1     136.024 138.057 137.967  1.00  0.00     0.063 C 
ATOM     28  C   UNL     1     138.192 136.905 138.707  1.00  0.00     0.033 C 
ATOM     29  C   UNL     1     136.684 136.745 138.425  1.00  0.00     0.118 C 
BRANCH  29  30
ATOM     30  O   UNL     1     136.448 135.737 137.478  1.00  0.00    -0.393 OA
ATOM     31  H   UNL     1     136.437 136.171 136.577  1.00  0.00     0.210 HD
ENDBRANCH  29  30
ENDBRANCH   9  11
ENDBRANCH   1   9
TORSDOF 7
ENDMDL
MODEL 4
REMARK VINA RESULT:    -6.139      2.408      4.825
REMARK INTER + INTRA:         -10.145
REMARK INTER:                  -8.014
REMARK INTRA:                  -2.131
REMARK UNBOUND:                -1.673
REMARK SMILES CC[C@@H](CC[C@@H](C)[C@@H]1CC[C@H]2[C@@H]3CC=C4C[C@@H](O)CC[C@]4(C)[C@@H]3CC[C@]21C)C(C)C
REMARK SMILES IDX 5 1 4 2 3 3 2 4 1 5 28 6 29 7 30 8 6 9 7 10 8 11 9 12 26 13
REMARK SMILES IDX 10 14 11 15 25 16 27 17 12 18 24 19 23 20 13 21 21 22 14 23
REMARK SMILES IDX 15 24 20 25 22 26 16 27 19 28 17 29 18 30
REMARK H PARENT 18 31
REMARK Flexibility Score: inf
ROOT
ATOM      1  C   UNL     1     139.875 135.349 146.329  1.00  0.00     0.004 C 
ENDROOT
BRANCH   1   2
ATOM      2  C   UNL     1     141.175 134.582 146.640  1.00  0.00     0.004 C 
BRANCH   2   3
ATOM      3  C   UNL     1     141.746 134.922 148.036  1.00  0.00    -0.009 C 
BRANCH   3   4
ATOM      4  C   UNL     1     140.634 135.532 148.944  1.00  0.00     0.000 C 
ATOM      5  C   UNL     1     140.776 135.197 150.439  1.00  0.00     0.004 C 
ENDBRANCH   3   4
BRANCH   3   6
ATOM      6  C   UNL     1     143.040 135.803 147.981  1.00  0.00    -0.014 C 
ATOM      7  C   UNL     1     144.153 135.074 147.199  1.00  0.00     0.007 C 
ATOM      8  C   UNL     1     142.809 137.180 147.319  1.00  0.00     0.007 C 
ENDBRANCH   3   6
ENDBRANCH   2   3
ENDBRANCH   1   2
BRANCH   1   9
ATOM      9  C   UNL     1     139.564 135.452 144.810  1.00  0.00    -0.011 C 
ATOM     10  C   UNL     1     138.170 136.127 144.625  1.00  0.00     0.008 C 
BRANCH   9  11
ATOM     11  C   UNL     1     140.637 136.271 144.005  1.00  0.00    -0.002 C 
ATOM     12  C   UNL     1     140.013 137.580 143.463  1.00  0.00     0.005 C 
ATOM     13  C   UNL     1     141.418 135.639 142.780  1.00  0.00    -0.026 C 
ATOM     14  C   UNL     1     140.500 137.802 142.042  1.00  0.00     0.005 C 
ATOM     15  C   UNL     1     141.653 136.827 141.783  1.00  0.00    -0.001 C 
ATOM     16  C   UNL     1     142.775 135.007 143.238  1.00  0.00     0.007 C 
ATOM     17  C   UNL     1     140.591 134.555 142.031  1.00  0.00     0.012 C 
ATOM     18  C   UNL     1     143.035 137.540 141.883  1.00  0.00     0.000 C 
ATOM     19  C   UNL     1     143.838 136.010 143.761  1.00  0.00     0.005 C 
ATOM     20  C   UNL     1     143.618 137.488 143.316  1.00  0.00     0.003 C 
ATOM     21  C   UNL     1     144.085 136.975 140.907  1.00  0.00     0.031 C 
ATOM     22  C   UNL     1     144.894 138.438 143.416  1.00  0.00    -0.008 C 
ATOM     23  C   UNL     1     145.340 137.786 140.995  1.00  0.00    -0.027 C 
ATOM     24  C   UNL     1     145.741 138.410 142.134  1.00  0.00    -0.065 C 
ATOM     25  C   UNL     1     145.834 138.068 144.624  1.00  0.00     0.014 C 
ATOM     26  C   UNL     1     144.364 139.893 143.628  1.00  0.00     0.016 C 
ATOM     27  C   UNL     1     147.041 139.187 142.114  1.00  0.00     0.063 C 
ATOM     28  C   UNL     1     147.123 138.922 144.664  1.00  0.00     0.033 C 
ATOM     29  C   UNL     1     147.906 138.834 143.338  1.00  0.00     0.118 C 
BRANCH  29  30
ATOM     30  O   UNL     1     149.047 139.651 143.365  1.00  0.00    -0.393 OA
ATOM     31  H   UNL     1     149.689 139.290 142.689  1.00  0.00     0.210 HD
ENDBRANCH  29  30
ENDBRANCH   9  11
ENDBRANCH   1   9
TORSDOF 7
ENDMDL
MODEL 5
REMARK VINA RESULT:    -6.101      6.327      9.411
REMARK INTER + INTRA:         -10.092
REMARK INTER:                  -6.944
REMARK INTRA:                  -3.148
REMARK UNBOUND:                -1.673
REMARK SMILES CC[C@@H](CC[C@@H](C)[C@@H]1CC[C@H]2[C@@H]3CC=C4C[C@@H](O)CC[C@]4(C)[C@@H]3CC[C@]21C)C(C)C
REMARK SMILES IDX 5 1 4 2 3 3 2 4 1 5 28 6 29 7 30 8 6 9 7 10 8 11 9 12 26 13
REMARK SMILES IDX 10 14 11 15 25 16 27 17 12 18 24 19 23 20 13 21 21 22 14 23
REMARK SMILES IDX 15 24 20 25 22 26 16 27 19 28 17 29 18 30
REMARK H PARENT 18 31
REMARK Flexibility Score: inf
ROOT
ATOM      1  C   UNL     1     136.465 141.759 142.079  1.00  0.00     0.004 C 
ENDROOT
BRANCH   1   2
ATOM      2  C   UNL     1     137.003 140.598 141.221  1.00  0.00     0.004 C 
BRANCH   2   3
ATOM      3  C   UNL     1     137.587 139.450 142.074  1.00  0.00    -0.009 C 
BRANCH   3   4
ATOM      4  C   UNL     1     137.354 139.727 143.592  1.00  0.00     0.000 C 
ATOM      5  C   UNL     1     136.631 138.596 144.344  1.00  0.00     0.004 C 
ENDBRANCH   3   4
BRANCH   3   6
ATOM      6  C   UNL     1     139.081 139.123 141.737  1.00  0.00    -0.014 C 
ATOM      7  C   UNL     1     139.997 139.521 142.914  1.00  0.00     0.007 C 
ATOM      8  C   UNL     1     139.320 137.628 141.427  1.00  0.00     0.007 C 
ENDBRANCH   3   6
ENDBRANCH   2   3
ENDBRANCH   1   2
BRANCH   1   9
ATOM      9  C   UNL     1     137.339 143.042 142.003  1.00  0.00    -0.011 C 
ATOM     10  C   UNL     1     137.441 143.669 143.428  1.00  0.00     0.008 C 
BRANCH   9  11
ATOM     11  C   UNL     1     138.789 142.781 141.457  1.00  0.00    -0.002 C 
ATOM     12  C   UNL     1     139.835 143.051 142.566  1.00  0.00     0.005 C 
ATOM     13  C   UNL     1     139.340 143.525 140.172  1.00  0.00    -0.026 C 
ATOM     14  C   UNL     1     141.014 143.790 141.959  1.00  0.00     0.005 C 
ATOM     15  C   UNL     1     140.874 143.725 140.435  1.00  0.00    -0.001 C 
ATOM     16  C   UNL     1     139.094 142.680 138.878  1.00  0.00     0.007 C 
ATOM     17  C   UNL     1     138.712 144.934 139.973  1.00  0.00     0.012 C 
ATOM     18  C   UNL     1     141.819 142.647 139.822  1.00  0.00     0.000 C 
ATOM     19  C   UNL     1     139.883 141.345 138.788  1.00  0.00     0.005 C 
ATOM     20  C   UNL     1     141.135 141.263 139.714  1.00  0.00     0.003 C 
ATOM     21  C   UNL     1     142.365 143.033 138.434  1.00  0.00     0.031 C 
ATOM     22  C   UNL     1     142.213 140.156 139.323  1.00  0.00    -0.008 C 
ATOM     23  C   UNL     1     143.342 141.997 137.974  1.00  0.00    -0.027 C 
ATOM     24  C   UNL     1     143.256 140.688 138.328  1.00  0.00    -0.065 C 
ATOM     25  C   UNL     1     141.561 138.867 138.695  1.00  0.00     0.014 C 
ATOM     26  C   UNL     1     142.947 139.748 140.640  1.00  0.00     0.016 C 
ATOM     27  C   UNL     1     144.290 139.722 137.785  1.00  0.00     0.063 C 
ATOM     28  C   UNL     1     142.610 137.834 138.222  1.00  0.00     0.033 C 
ATOM     29  C   UNL     1     143.614 138.455 137.229  1.00  0.00     0.118 C 
BRANCH  29  30
ATOM     30  O   UNL     1     144.591 137.525 136.845  1.00  0.00    -0.393 OA
ATOM     31  H   UNL     1     144.120 136.670 136.625  1.00  0.00     0.210 HD
ENDBRANCH  29  30
ENDBRANCH   9  11
ENDBRANCH   1   9
TORSDOF 7
ENDMDL
MODEL 6
REMARK VINA RESULT:    -6.082      4.308      7.990
REMARK INTER + INTRA:         -10.066
REMARK INTER:                  -7.680
REMARK INTRA:                  -2.386
REMARK UNBOUND:                -1.673
REMARK SMILES CC[C@@H](CC[C@@H](C)[C@@H]1CC[C@H]2[C@@H]3CC=C4C[C@@H](O)CC[C@]4(C)[C@@H]3CC[C@]21C)C(C)C
REMARK SMILES IDX 5 1 4 2 3 3 2 4 1 5 28 6 29 7 30 8 6 9 7 10 8 11 9 12 26 13
REMARK SMILES IDX 10 14 11 15 25 16 27 17 12 18 24 19 23 20 13 21 21 22 14 23
REMARK SMILES IDX 15 24 20 25 22 26 16 27 19 28 17 29 18 30
REMARK H PARENT 18 31
REMARK Flexibility Score: inf
ROOT
ATOM      1  C   UNL     1     144.736 136.640 145.464  1.00  0.00     0.004 C 
ENDROOT
BRANCH   1   2
ATOM      2  C   UNL     1     145.309 138.064 145.597  1.00  0.00     0.004 C 
BRANCH   2   3
ATOM      3  C   UNL     1     146.758 138.173 145.072  1.00  0.00    -0.009 C 
BRANCH   3   4
ATOM      4  C   UNL     1     147.752 138.385 146.255  1.00  0.00     0.000 C 
ATOM      5  C   UNL     1     147.642 137.337 147.377  1.00  0.00     0.004 C 
ENDBRANCH   3   4
BRANCH   3   6
ATOM      6  C   UNL     1     146.930 139.236 143.934  1.00  0.00    -0.014 C 
ATOM      7  C   UNL     1     145.860 140.340 144.065  1.00  0.00     0.007 C 
ATOM      8  C   UNL     1     148.321 139.911 143.940  1.00  0.00     0.007 C 
ENDBRANCH   3   6
ENDBRANCH   2   3
ENDBRANCH   1   2
BRANCH   1   9
ATOM      9  C   UNL     1     143.340 136.595 144.784  1.00  0.00    -0.011 C 
ATOM     10  C   UNL     1     142.261 137.060 145.810  1.00  0.00     0.008 C 
BRANCH   9  11
ATOM     11  C   UNL     1     143.240 137.493 143.498  1.00  0.00    -0.002 C 
ATOM     12  C   UNL     1     142.010 138.428 143.594  1.00  0.00     0.005 C 
ATOM     13  C   UNL     1     143.175 136.864 142.046  1.00  0.00    -0.026 C 
ATOM     14  C   UNL     1     141.322 138.474 142.242  1.00  0.00     0.005 C 
ATOM     15  C   UNL     1     142.261 137.832 141.216  1.00  0.00    -0.001 C 
ATOM     16  C   UNL     1     144.602 136.751 141.413  1.00  0.00     0.007 C 
ATOM     17  C   UNL     1     142.510 135.458 142.026  1.00  0.00     0.012 C 
ATOM     18  C   UNL     1     143.000 138.909 140.367  1.00  0.00     0.000 C 
ATOM     19  C   UNL     1     145.306 138.100 141.102  1.00  0.00     0.005 C 
ATOM     20  C   UNL     1     144.350 139.327 140.999  1.00  0.00     0.003 C 
ATOM     21  C   UNL     1     143.256 138.471 138.912  1.00  0.00     0.031 C 
ATOM     22  C   UNL     1     144.935 140.597 140.234  1.00  0.00    -0.008 C 
ATOM     23  C   UNL     1     143.868 139.602 138.147  1.00  0.00    -0.027 C 
ATOM     24  C   UNL     1     144.667 140.539 138.722  1.00  0.00    -0.065 C 
ATOM     25  C   UNL     1     146.487 140.771 140.442  1.00  0.00     0.014 C 
ATOM     26  C   UNL     1     144.214 141.854 140.817  1.00  0.00     0.016 C 
ATOM     27  C   UNL     1     145.250 141.629 137.845  1.00  0.00     0.063 C 
ATOM     28  C   UNL     1     147.075 141.942 139.620  1.00  0.00     0.033 C 
ATOM     29  C   UNL     1     146.755 141.801 138.118  1.00  0.00     0.118 C 
BRANCH  29  30
ATOM     30  O   UNL     1     147.249 142.893 137.388  1.00  0.00    -0.393 OA
ATOM     31  H   UNL     1     146.742 142.929 136.526  1.00  0.00     0.210 HD
ENDBRANCH  29  30
ENDBRANCH   9  11
ENDBRANCH   1   9
TORSDOF 7
ENDMDL
MODEL 7
REMARK VINA RESULT:    -6.054      1.458      2.831
REMARK INTER + INTRA:         -10.027
REMARK INTER:                  -6.966
REMARK INTRA:                  -3.061
REMARK UNBOUND:                -1.673
REMARK SMILES CC[C@@H](CC[C@@H](C)[C@@H]1CC[C@H]2[C@@H]3CC=C4C[C@@H](O)CC[C@]4(C)[C@@H]3CC[C@]21C)C(C)C
REMARK SMILES IDX 5 1 4 2 3 3 2 4 1 5 28 6 29 7 30 8 6 9 7 10 8 11 9 12 26 13
REMARK SMILES IDX 10 14 11 15 25 16 27 17 12 18 24 19 23 20 13 21 21 22 14 23
REMARK SMILES IDX 15 24 20 25 22 26 16 27 19 28 17 29 18 30
REMARK H PARENT 18 31
REMARK Flexibility Score: inf
ROOT
ATOM      1  C   UNL     1     138.655 133.927 147.548  1.00  0.00     0.004 C 
ENDROOT
BRANCH   1   2
ATOM      2  C   UNL     1     138.818 135.300 146.868  1.00  0.00     0.004 C 
BRANCH   2   3
ATOM      3  C   UNL     1     138.517 135.253 145.353  1.00  0.00    -0.009 C 
BRANCH   3   4
ATOM      4  C   UNL     1     138.087 133.815 144.929  1.00  0.00     0.000 C 
ATOM      5  C   UNL     1     136.967 133.769 143.875  1.00  0.00     0.004 C 
ENDBRANCH   3   4
BRANCH   3   6
ATOM      6  C   UNL     1     139.676 135.828 144.471  1.00  0.00    -0.014 C 
ATOM      7  C   UNL     1     140.358 134.695 143.676  1.00  0.00     0.007 C 
ATOM      8  C   UNL     1     139.199 136.901 143.465  1.00  0.00     0.007 C 
ENDBRANCH   3   6
ENDBRANCH   2   3
ENDBRANCH   1   2
BRANCH   1   9
ATOM      9  C   UNL     1     139.998 133.307 148.023  1.00  0.00    -0.011 C 
ATOM     10  C   UNL     1     139.960 131.768 147.774  1.00  0.00     0.008 C 
BRANCH   9  11
ATOM     11  C   UNL     1     141.257 133.909 147.300  1.00  0.00    -0.002 C 
ATOM     12  C   UNL     1     141.954 132.822 146.446  1.00  0.00     0.005 C 
ATOM     13  C   UNL     1     142.421 134.618 148.107  1.00  0.00    -0.026 C 
ATOM     14  C   UNL     1     143.457 132.954 146.616  1.00  0.00     0.005 C 
ATOM     15  C   UNL     1     143.734 134.288 147.315  1.00  0.00    -0.001 C 
ATOM     16  C   UNL     1     142.188 136.163 148.200  1.00  0.00     0.007 C 
ATOM     17  C   UNL     1     142.588 134.053 149.547  1.00  0.00     0.012 C 
ATOM     18  C   UNL     1     144.211 135.373 146.303  1.00  0.00     0.000 C 
ATOM     19  C   UNL     1     142.270 136.935 146.855  1.00  0.00     0.005 C 
ATOM     20  C   UNL     1     143.032 136.187 145.718  1.00  0.00     0.003 C 
ATOM     21  C   UNL     1     145.237 136.356 146.900  1.00  0.00     0.031 C 
ATOM     22  C   UNL     1     143.547 137.099 144.516  1.00  0.00    -0.008 C 
ATOM     23  C   UNL     1     145.718 137.289 145.833  1.00  0.00    -0.027 C 
ATOM     24  C   UNL     1     144.949 137.670 144.780  1.00  0.00    -0.065 C 
ATOM     25  C   UNL     1     142.583 138.306 144.212  1.00  0.00     0.014 C 
ATOM     26  C   UNL     1     143.613 136.187 143.249  1.00  0.00     0.016 C 
ATOM     27  C   UNL     1     145.533 138.637 143.770  1.00  0.00     0.063 C 
ATOM     28  C   UNL     1     143.130 139.249 143.115  1.00  0.00     0.033 C 
ATOM     29  C   UNL     1     144.539 139.771 143.463  1.00  0.00     0.118 C 
BRANCH  29  30
ATOM     30  O   UNL     1     145.047 140.585 142.439  1.00  0.00    -0.393 OA
ATOM     31  H   UNL     1     144.583 140.324 141.592  1.00  0.00     0.210 HD
ENDBRANCH  29  30
ENDBRANCH   9  11
ENDBRANCH   1   9
TORSDOF 7
ENDMDL
MODEL 8
REMARK VINA RESULT:    -6.045      3.630      7.814
REMARK INTER + INTRA:         -10.015
REMARK INTER:                  -7.471
REMARK INTRA:                  -2.544
REMARK UNBOUND:                -1.673
REMARK SMILES CC[C@@H](CC[C@@H](C)[C@@H]1CC[C@H]2[C@@H]3CC=C4C[C@@H](O)CC[C@]4(C)[C@@H]3CC[C@]21C)C(C)C
REMARK SMILES IDX 5 1 4 2 3 3 2 4 1 5 28 6 29 7 30 8 6 9 7 10 8 11 9 12 26 13
REMARK SMILES IDX 10 14 11 15 25 16 27 17 12 18 24 19 23 20 13 21 21 22 14 23
REMARK SMILES IDX 15 24 20 25 22 26 16 27 19 28 17 29 18 30
REMARK H PARENT 18 31
REMARK Flexibility Score: inf
ROOT
ATOM      1  C   UNL     1     142.410 137.140 146.165  1.00  0.00     0.004 C 
ENDROOT
BRANCH   1   2
ATOM      2  C   UNL     1     143.009 136.483 147.422  1.00  0.00     0.004 C 
BRANCH   2   3
ATOM      3  C   UNL     1     142.026 135.509 148.110  1.00  0.00    -0.009 C 
BRANCH   3   4
ATOM      4  C   UNL     1     141.249 136.236 149.251  1.00  0.00     0.000 C 
ATOM      5  C   UNL     1     140.501 135.296 150.213  1.00  0.00     0.004 C 
ENDBRANCH   3   4
BRANCH   3   6
ATOM      6  C   UNL     1     142.698 134.176 148.584  1.00  0.00    -0.014 C 
ATOM      7  C   UNL     1     141.917 132.960 148.045  1.00  0.00     0.007 C 
ATOM      8  C   UNL     1     144.170 134.044 148.129  1.00  0.00     0.007 C 
ENDBRANCH   3   6
ENDBRANCH   2   3
ENDBRANCH   1   2
BRANCH   1   9
ATOM      9  C   UNL     1     142.382 136.201 144.927  1.00  0.00    -0.011 C 
ATOM     10  C   UNL     1     143.781 135.530 144.770  1.00  0.00     0.008 C 
BRANCH   9  11
ATOM     11  C   UNL     1     141.286 135.078 145.017  1.00  0.00    -0.002 C 
ATOM     12  C   UNL     1     141.866 133.726 144.537  1.00  0.00     0.005 C 
ATOM     13  C   UNL     1     139.889 135.219 144.285  1.00  0.00    -0.026 C 
ATOM     14  C   UNL     1     140.828 133.024 143.679  1.00  0.00     0.005 C 
ATOM     15  C   UNL     1     139.496 133.761 143.858  1.00  0.00    -0.001 C 
ATOM     16  C   UNL     1     138.810 135.840 145.235  1.00  0.00     0.007 C 
ATOM     17  C   UNL     1     139.968 136.080 142.992  1.00  0.00     0.012 C 
ATOM     18  C   UNL     1     138.548 132.997 144.830  1.00  0.00     0.000 C 
ATOM     19  C   UNL     1     138.403 134.963 146.450  1.00  0.00     0.005 C 
ATOM     20  C   UNL     1     138.730 133.446 146.300  1.00  0.00     0.003 C 
ATOM     21  C   UNL     1     137.058 133.129 144.458  1.00  0.00     0.031 C 
ATOM     22  C   UNL     1     137.928 132.467 147.268  1.00  0.00    -0.008 C 
ATOM     23  C   UNL     1     136.235 132.279 145.375  1.00  0.00    -0.027 C 
ATOM     24  C   UNL     1     136.591 132.014 146.659  1.00  0.00    -0.065 C 
ATOM     25  C   UNL     1     137.624 133.114 148.672  1.00  0.00     0.014 C 
ATOM     26  C   UNL     1     138.825 131.206 147.488  1.00  0.00     0.016 C 
ATOM     27  C   UNL     1     135.670 131.158 147.504  1.00  0.00     0.063 C 
ATOM     28  C   UNL     1     136.759 132.205 149.576  1.00  0.00     0.033 C 
ATOM     29  C   UNL     1     135.441 131.800 148.884  1.00  0.00     0.118 C 
BRANCH  29  30
ATOM     30  O   UNL     1     134.687 130.935 149.692  1.00  0.00    -0.393 OA
ATOM     31  H   UNL     1     135.197 130.798 150.541  1.00  0.00     0.210 HD
ENDBRANCH  29  30
ENDBRANCH   9  11
ENDBRANCH   1   9
TORSDOF 7
ENDMDL
MODEL 9
REMARK VINA RESULT:    -6.024      4.451      8.621
REMARK INTER + INTRA:          -9.986
REMARK INTER:                  -6.827
REMARK INTRA:                  -3.158
REMARK UNBOUND:                -1.673
REMARK SMILES CC[C@@H](CC[C@@H](C)[C@@H]1CC[C@H]2[C@@H]3CC=C4C[C@@H](O)CC[C@]4(C)[C@@H]3CC[C@]21C)C(C)C
REMARK SMILES IDX 5 1 4 2 3 3 2 4 1 5 28 6 29 7 30 8 6 9 7 10 8 11 9 12 26 13
REMARK SMILES IDX 10 14 11 15 25 16 27 17 12 18 24 19 23 20 13 21 21 22 14 23
REMARK SMILES IDX 15 24 20 25 22 26 16 27 19 28 17 29 18 30
REMARK H PARENT 18 31
REMARK Flexibility Score: inf
ROOT
ATOM      1  C   UNL     1     144.200 139.126 138.196  1.00  0.00     0.004 C 
ENDROOT
BRANCH   1   2
ATOM      2  C   UNL     1     144.168 137.833 139.033  1.00  0.00     0.004 C 
BRANCH   2   3
ATOM      3  C   UNL     1     142.732 137.308 139.261  1.00  0.00    -0.009 C 
BRANCH   3   4
ATOM      4  C   UNL     1     141.700 138.201 138.505  1.00  0.00     0.000 C 
ATOM      5  C   UNL     1     140.871 137.458 137.443  1.00  0.00     0.004 C 
ENDBRANCH   3   4
BRANCH   3   6
ATOM      6  C   UNL     1     142.374 137.112 140.773  1.00  0.00    -0.014 C 
ATOM      7  C   UNL     1     141.388 138.204 141.238  1.00  0.00     0.007 C 
ATOM      8  C   UNL     1     141.742 135.733 141.073  1.00  0.00     0.007 C 
ENDBRANCH   3   6
ENDBRANCH   2   3
ENDBRANCH   1   2
BRANCH   1   9
ATOM      9  C   UNL     1     144.577 140.389 139.019  1.00  0.00    -0.011 C 
ATOM     10  C   UNL     1     143.615 141.553 138.628  1.00  0.00     0.008 C 
BRANCH   9  11
ATOM     11  C   UNL     1     144.504 140.169 140.574  1.00  0.00    -0.002 C 
ATOM     12  C   UNL     1     143.503 141.165 141.208  1.00  0.00     0.005 C 
ATOM     13  C   UNL     1     145.797 140.236 141.485  1.00  0.00    -0.026 C 
ATOM     14  C   UNL     1     144.095 141.698 142.501  1.00  0.00     0.005 C 
ATOM     15  C   UNL     1     145.310 140.833 142.852  1.00  0.00    -0.001 C 
ATOM     16  C   UNL     1     146.429 138.817 141.680  1.00  0.00     0.007 C 
ATOM     17  C   UNL     1     146.886 141.192 140.919  1.00  0.00     0.012 C 
ATOM     18  C   UNL     1     144.970 139.799 143.967  1.00  0.00     0.000 C 
ATOM     19  C   UNL     1     145.570 137.807 142.488  1.00  0.00     0.005 C 
ATOM     20  C   UNL     1     144.470 138.454 143.384  1.00  0.00     0.003 C 
ATOM     21  C   UNL     1     146.151 139.513 144.915  1.00  0.00     0.031 C 
ATOM     22  C   UNL     1     143.905 137.534 144.557  1.00  0.00    -0.008 C 
ATOM     23  C   UNL     1     145.704 138.598 146.011  1.00  0.00    -0.027 C 
ATOM     24  C   UNL     1     144.726 137.668 145.849  1.00  0.00    -0.065 C 
ATOM     25  C   UNL     1     143.864 136.009 144.167  1.00  0.00     0.014 C 
ATOM     26  C   UNL     1     142.445 138.011 144.847  1.00  0.00     0.016 C 
ATOM     27  C   UNL     1     144.370 136.780 147.023  1.00  0.00     0.063 C 
ATOM     28  C   UNL     1     143.411 135.103 145.336  1.00  0.00     0.033 C 
ATOM     29  C   UNL     1     144.289 135.306 146.587  1.00  0.00     0.118 C 
BRANCH  29  30
ATOM     30  O   UNL     1     143.840 134.517 147.658  1.00  0.00    -0.393 OA
ATOM     31  H   UNL     1     143.943 135.060 148.492  1.00  0.00     0.210 HD
ENDBRANCH  29  30
ENDBRANCH   9  11
ENDBRANCH   1   9
TORSDOF 7
ENDMDL
