MODEL 1
REMARK VINA RESULT:    -2.848      0.000      0.000
REMARK INTER + INTRA:          -7.976
REMARK INTER:                  -6.179
REMARK INTRA:                  -1.797
REMARK UNBOUND:                -1.797
REMARK SMILES CCCCCCCCCCCCCCCCCCCCCC(=O)[O-]
REMARK SMILES IDX 12 1 11 2 10 3 9 4 8 5 7 6 6 7 5 8 4 9 3 10 2 11 1 12 13 13
REMARK SMILES IDX 14 14 15 15 16 16 17 17 18 18 19 19 20 20 21 21 22 22 23 23
REMARK SMILES IDX 24 24
REMARK H PARENT
REMARK Flexibility Score: inf
ROOT
ATOM      1  C   UNL     1     -18.976  44.286 -11.112  1.00  0.00     0.000 C 
ENDROOT
BRANCH   1   2
ATOM      2  C   UNL     1     -19.235  45.152  -9.866  1.00  0.00     0.000 C 
BRANCH   2   3
ATOM      3  C   UNL     1     -20.087  44.433  -8.807  1.00  0.00     0.000 C 
BRANCH   3   4
ATOM      4  C   UNL     1     -20.243  45.257  -7.517  1.00  0.00    -0.000 C 
BRANCH   4   5
ATOM      5  C   UNL     1     -19.217  44.868  -6.440  1.00  0.00    -0.000 C 
BRANCH   5   6
ATOM      6  C   UNL     1     -18.357  43.660  -6.851  1.00  0.00    -0.000 C 
BRANCH   6   7
ATOM      7  C   UNL     1     -16.850  43.958  -6.751  1.00  0.00    -0.000 C 
BRANCH   7   8
ATOM      8  C   UNL     1     -16.107  43.035  -5.759  1.00  0.00    -0.000 C 
BRANCH   8   9
ATOM      9  C   UNL     1     -17.019  42.434  -4.672  1.00  0.00    -0.000 C 
BRANCH   9  10
ATOM     10  C   UNL     1     -17.357  43.393  -3.517  1.00  0.00    -0.000 C 
BRANCH  10  11
ATOM     11  C   UNL     1     -18.870  43.544  -3.296  1.00  0.00    -0.003 C 
ATOM     12  C   UNL     1     -19.565  42.186  -3.318  1.00  0.00     0.004 C 
ENDBRANCH  10  11
ENDBRANCH   9  10
ENDBRANCH   8   9
ENDBRANCH   7   8
ENDBRANCH   6   7
ENDBRANCH   5   6
ENDBRANCH   4   5
ENDBRANCH   3   4
ENDBRANCH   2   3
ENDBRANCH   1   2
BRANCH   1  13
ATOM     13  C   UNL     1     -17.548  43.700 -11.123  1.00  0.00     0.000 C 
BRANCH  13  14
ATOM     14  C   UNL     1     -16.644  44.254 -10.008  1.00  0.00     0.000 C 
BRANCH  14  15
ATOM     15  C   UNL     1     -15.832  45.482 -10.452  1.00  0.00     0.000 C 
BRANCH  15  16
ATOM     16  C   UNL     1     -14.330  45.328 -10.163  1.00  0.00     0.000 C 
BRANCH  16  17
ATOM     17  C   UNL     1     -13.934  45.885  -8.784  1.00  0.00     0.000 C 
BRANCH  17  18
ATOM     18  C   UNL     1     -15.019  46.794  -8.183  1.00  0.00     0.000 C 
BRANCH  18  19
ATOM     19  C   UNL     1     -14.484  47.673  -7.039  1.00  0.00     0.000 C 
BRANCH  19  20
ATOM     20  C   UNL     1     -13.875  48.998  -7.531  1.00  0.00     0.006 C 
BRANCH  20  21
ATOM     21  C   UNL     1     -14.919  50.038  -7.975  1.00  0.00     0.053 C 
BRANCH  21  22
ATOM     22  C   UNL     1     -14.392  50.984  -9.008  1.00  0.00     0.041 C 
ATOM     23  O   UNL     1     -13.935  52.108  -8.668  1.00  0.00    -0.550 OA
ATOM     24  O   UNL     1     -14.384  50.615 -10.348  1.00  0.00    -0.550 OA
ENDBRANCH  21  22
ENDBRANCH  20  21
ENDBRANCH  19  20
ENDBRANCH  18  19
ENDBRANCH  17  18
ENDBRANCH  16  17
ENDBRANCH  15  16
ENDBRANCH  14  15
ENDBRANCH  13  14
ENDBRANCH   1  13
TORSDOF 20
ENDMDL
MODEL 2
REMARK VINA RESULT:    -2.610      3.531      6.758
REMARK INTER + INTRA:          -7.459
REMARK INTER:                  -4.322
REMARK INTRA:                  -3.137
REMARK UNBOUND:                -1.797
REMARK SMILES CCCCCCCCCCCCCCCCCCCCCC(=O)[O-]
REMARK SMILES IDX 12 1 11 2 10 3 9 4 8 5 7 6 6 7 5 8 4 9 3 10 2 11 1 12 13 13
REMARK SMILES IDX 14 14 15 15 16 16 17 17 18 18 19 19 20 20 21 21 22 22 23 23
REMARK SMILES IDX 24 24
REMARK H PARENT
REMARK Flexibility Score: inf
ROOT
ATOM      1  C   UNL     1     -20.669  44.305  -9.773  1.00  0.00     0.000 C 
ENDROOT
BRANCH   1   2
ATOM      2  C   UNL     1     -20.124  44.813 -11.121  1.00  0.00     0.000 C 
BRANCH   2   3
ATOM      3  C   UNL     1     -18.595  44.971 -11.125  1.00  0.00     0.000 C 
BRANCH   3   4
ATOM      4  C   UNL     1     -18.154  46.444 -11.074  1.00  0.00    -0.000 C 
BRANCH   4   5
ATOM      5  C   UNL     1     -16.663  46.602 -10.731  1.00  0.00    -0.000 C 
BRANCH   5   6
ATOM      6  C   UNL     1     -15.858  45.316 -10.986  1.00  0.00    -0.000 C 
BRANCH   6   7
ATOM      7  C   UNL     1     -14.412  45.425 -10.466  1.00  0.00    -0.000 C 
BRANCH   7   8
ATOM      8  C   UNL     1     -14.099  46.787  -9.806  1.00  0.00    -0.000 C 
BRANCH   8   9
ATOM      9  C   UNL     1     -14.179  46.761  -8.268  1.00  0.00    -0.000 C 
BRANCH   9  10
ATOM     10  C   UNL     1     -14.773  48.032  -7.635  1.00  0.00    -0.000 C 
BRANCH  10  11
ATOM     11  C   UNL     1     -14.406  49.308  -8.409  1.00  0.00    -0.003 C 
ATOM     12  C   UNL     1     -15.051  50.537  -7.777  1.00  0.00     0.004 C 
ENDBRANCH  10  11
ENDBRANCH   9  10
ENDBRANCH   8   9
ENDBRANCH   7   8
ENDBRANCH   6   7
ENDBRANCH   5   6
ENDBRANCH   4   5
ENDBRANCH   3   4
ENDBRANCH   2   3
ENDBRANCH   1   2
BRANCH   1  13
ATOM     13  C   UNL     1     -19.535  43.925  -8.797  1.00  0.00     0.000 C 
BRANCH  13  14
ATOM     14  C   UNL     1     -19.431  44.857  -7.578  1.00  0.00     0.000 C 
BRANCH  14  15
ATOM     15  C   UNL     1     -17.979  45.095  -7.130  1.00  0.00     0.000 C 
BRANCH  15  16
ATOM     16  C   UNL     1     -16.982  44.182  -7.862  1.00  0.00     0.000 C 
BRANCH  16  17
ATOM     17  C   UNL     1     -15.926  43.583  -6.916  1.00  0.00     0.000 C 
BRANCH  17  18
ATOM     18  C   UNL     1     -16.249  43.839  -5.435  1.00  0.00     0.000 C 
BRANCH  18  19
ATOM     19  C   UNL     1     -16.447  42.536  -4.641  1.00  0.00     0.000 C 
BRANCH  19  20
ATOM     20  C   UNL     1     -17.706  41.758  -5.065  1.00  0.00     0.006 C 
BRANCH  20  21
ATOM     21  C   UNL     1     -19.025  42.480  -4.740  1.00  0.00     0.053 C 
BRANCH  21  22
ATOM     22  C   UNL     1     -19.095  42.948  -3.320  1.00  0.00     0.041 C 
ATOM     23  O   UNL     1     -19.458  42.159  -2.407  1.00  0.00    -0.550 OA
ATOM     24  O   UNL     1     -18.735  44.251  -2.999  1.00  0.00    -0.550 OA
ENDBRANCH  21  22
ENDBRANCH  20  21
ENDBRANCH  19  20
ENDBRANCH  18  19
ENDBRANCH  17  18
ENDBRANCH  16  17
ENDBRANCH  15  16
ENDBRANCH  14  15
ENDBRANCH  13  14
ENDBRANCH   1  13
TORSDOF 20
ENDMDL
MODEL 3
REMARK VINA RESULT:    -2.608      3.414      7.167
REMARK INTER + INTRA:          -7.453
REMARK INTER:                  -6.343
REMARK INTRA:                  -1.110
REMARK UNBOUND:                -1.797
REMARK SMILES CCCCCCCCCCCCCCCCCCCCCC(=O)[O-]
REMARK SMILES IDX 12 1 11 2 10 3 9 4 8 5 7 6 6 7 5 8 4 9 3 10 2 11 1 12 13 13
REMARK SMILES IDX 14 14 15 15 16 16 17 17 18 18 19 19 20 20 21 21 22 22 23 23
REMARK SMILES IDX 24 24
REMARK H PARENT
REMARK Flexibility Score: inf
ROOT
ATOM      1  C   UNL     1     -18.253  45.766 -10.301  1.00  0.00     0.000 C 
ENDROOT
BRANCH   1   2
ATOM      2  C   UNL     1     -16.957  45.636 -11.120  1.00  0.00     0.000 C 
BRANCH   2   3
ATOM      3  C   UNL     1     -16.140  44.387 -10.750  1.00  0.00     0.000 C 
BRANCH   3   4
ATOM      4  C   UNL     1     -14.878  44.727  -9.938  1.00  0.00    -0.000 C 
BRANCH   4   5
ATOM      5  C   UNL     1     -13.964  45.731 -10.660  1.00  0.00    -0.000 C 
BRANCH   5   6
ATOM      6  C   UNL     1     -13.904  47.094  -9.947  1.00  0.00    -0.000 C 
BRANCH   6   7
ATOM      7  C   UNL     1     -15.059  47.276  -8.945  1.00  0.00    -0.000 C 
BRANCH   7   8
ATOM      8  C   UNL     1     -14.603  47.849  -7.583  1.00  0.00    -0.000 C 
BRANCH   8   9
ATOM      9  C   UNL     1     -14.523  49.387  -7.556  1.00  0.00    -0.000 C 
BRANCH   9  10
ATOM     10  C   UNL     1     -14.463  50.052  -8.943  1.00  0.00    -0.000 C 
BRANCH  10  11
ATOM     11  C   UNL     1     -14.402  51.585  -8.864  1.00  0.00    -0.003 C 
ATOM     12  C   UNL     1     -14.882  52.083  -7.505  1.00  0.00     0.004 C 
ENDBRANCH  10  11
ENDBRANCH   9  10
ENDBRANCH   8   9
ENDBRANCH   7   8
ENDBRANCH   6   7
ENDBRANCH   5   6
ENDBRANCH   4   5
ENDBRANCH   3   4
ENDBRANCH   2   3
ENDBRANCH   1   2
BRANCH   1  13
ATOM     13  C   UNL     1     -19.500  45.380 -11.125  1.00  0.00     0.000 C 
BRANCH  13  14
ATOM     14  C   UNL     1     -20.115  44.029 -10.720  1.00  0.00     0.000 C 
BRANCH  14  15
ATOM     15  C   UNL     1     -19.180  43.189  -9.835  1.00  0.00     0.000 C 
BRANCH  15  16
ATOM     16  C   UNL     1     -19.639  43.149  -8.368  1.00  0.00     0.000 C 
BRANCH  16  17
ATOM     17  C   UNL     1     -19.497  44.512  -7.667  1.00  0.00     0.000 C 
BRANCH  17  18
ATOM     18  C   UNL     1     -18.104  44.712  -7.048  1.00  0.00     0.000 C 
BRANCH  18  19
ATOM     19  C   UNL     1     -17.424  43.381  -6.685  1.00  0.00     0.000 C 
BRANCH  19  20
ATOM     20  C   UNL     1     -16.659  43.438  -5.351  1.00  0.00     0.006 C 
BRANCH  20  21
ATOM     21  C   UNL     1     -17.249  42.534  -4.255  1.00  0.00     0.053 C 
BRANCH  21  22
ATOM     22  C   UNL     1     -18.594  42.994  -3.785  1.00  0.00     0.041 C 
ATOM     23  O   UNL     1     -18.839  44.224  -3.662  1.00  0.00    -0.550 OA
ATOM     24  O   UNL     1     -19.588  42.064  -3.505  1.00  0.00    -0.550 OA
ENDBRANCH  21  22
ENDBRANCH  20  21
ENDBRANCH  19  20
ENDBRANCH  18  19
ENDBRANCH  17  18
ENDBRANCH  16  17
ENDBRANCH  15  16
ENDBRANCH  14  15
ENDBRANCH  13  14
ENDBRANCH   1  13
TORSDOF 20
ENDMDL
MODEL 4
REMARK VINA RESULT:    -2.498      3.643      7.446
REMARK INTER + INTRA:          -7.216
REMARK INTER:                  -5.347
REMARK INTRA:                  -1.868
REMARK UNBOUND:                -1.797
REMARK SMILES CCCCCCCCCCCCCCCCCCCCCC(=O)[O-]
REMARK SMILES IDX 12 1 11 2 10 3 9 4 8 5 7 6 6 7 5 8 4 9 3 10 2 11 1 12 13 13
REMARK SMILES IDX 14 14 15 15 16 16 17 17 18 18 19 19 20 20 21 21 22 22 23 23
REMARK SMILES IDX 24 24
REMARK H PARENT
REMARK Flexibility Score: inf
ROOT
ATOM      1  C   UNL     1     -18.785  44.199 -11.089  1.00  0.00     0.000 C 
ENDROOT
BRANCH   1   2
ATOM      2  C   UNL     1     -17.944  42.924 -10.896  1.00  0.00     0.000 C 
BRANCH   2   3
ATOM      3  C   UNL     1     -16.442  43.161 -11.123  1.00  0.00     0.000 C 
BRANCH   3   4
ATOM      4  C   UNL     1     -16.057  44.647 -11.026  1.00  0.00    -0.000 C 
BRANCH   4   5
ATOM      5  C   UNL     1     -15.449  45.013  -9.662  1.00  0.00    -0.000 C 
BRANCH   5   6
ATOM      6  C   UNL     1     -14.429  46.161  -9.758  1.00  0.00    -0.000 C 
BRANCH   6   7
ATOM      7  C   UNL     1     -15.081  47.537  -9.528  1.00  0.00    -0.000 C 
BRANCH   7   8
ATOM      8  C   UNL     1     -15.097  48.425 -10.793  1.00  0.00    -0.000 C 
BRANCH   8   9
ATOM      9  C   UNL     1     -14.688  49.887 -10.528  1.00  0.00    -0.000 C 
BRANCH   9  10
ATOM     10  C   UNL     1     -14.484  50.236  -9.043  1.00  0.00    -0.000 C 
BRANCH  10  11
ATOM     11  C   UNL     1     -14.190  51.728  -8.820  1.00  0.00    -0.003 C 
ATOM     12  C   UNL     1     -14.992  52.274  -7.643  1.00  0.00     0.004 C 
ENDBRANCH  10  11
ENDBRANCH   9  10
ENDBRANCH   8   9
ENDBRANCH   7   8
ENDBRANCH   6   7
ENDBRANCH   5   6
ENDBRANCH   4   5
ENDBRANCH   3   4
ENDBRANCH   2   3
ENDBRANCH   1   2
BRANCH   1  13
ATOM     13  C   UNL     1     -19.705  44.474  -9.881  1.00  0.00     0.000 C 
BRANCH  13  14
ATOM     14  C   UNL     1     -19.030  45.286  -8.762  1.00  0.00     0.000 C 
BRANCH  14  15
ATOM     15  C   UNL     1     -19.679  45.062  -7.386  1.00  0.00     0.000 C 
BRANCH  15  16
ATOM     16  C   UNL     1     -18.793  44.225  -6.449  1.00  0.00     0.000 C 
BRANCH  16  17
ATOM     17  C   UNL     1     -17.488  43.765  -7.123  1.00  0.00     0.000 C 
BRANCH  17  18
ATOM     18  C   UNL     1     -16.700  42.767  -6.258  1.00  0.00     0.000 C 
BRANCH  18  19
ATOM     19  C   UNL     1     -15.916  43.456  -5.128  1.00  0.00     0.000 C 
BRANCH  19  20
ATOM     20  C   UNL     1     -16.693  43.507  -3.800  1.00  0.00     0.006 C 
BRANCH  20  21
ATOM     21  C   UNL     1     -17.723  42.375  -3.636  1.00  0.00     0.053 C 
BRANCH  21  22
ATOM     22  C   UNL     1     -18.992  42.836  -2.988  1.00  0.00     0.041 C 
ATOM     23  O   UNL     1     -19.773  42.002  -2.456  1.00  0.00    -0.550 OA
ATOM     24  O   UNL     1     -19.301  44.190  -2.949  1.00  0.00    -0.550 OA
ENDBRANCH  21  22
ENDBRANCH  20  21
ENDBRANCH  19  20
ENDBRANCH  18  19
ENDBRANCH  17  18
ENDBRANCH  16  17
ENDBRANCH  15  16
ENDBRANCH  14  15
ENDBRANCH  13  14
ENDBRANCH   1  13
TORSDOF 20
ENDMDL
MODEL 5
REMARK VINA RESULT:    -2.481      2.797      3.805
REMARK INTER + INTRA:          -7.178
REMARK INTER:                  -5.363
REMARK INTRA:                  -1.815
REMARK UNBOUND:                -1.797
REMARK SMILES CCCCCCCCCCCCCCCCCCCCCC(=O)[O-]
REMARK SMILES IDX 12 1 11 2 10 3 9 4 8 5 7 6 6 7 5 8 4 9 3 10 2 11 1 12 13 13
REMARK SMILES IDX 14 14 15 15 16 16 17 17 18 18 19 19 20 20 21 21 22 22 23 23
REMARK SMILES IDX 24 24
REMARK H PARENT
REMARK Flexibility Score: inf
ROOT
ATOM      1  C   UNL     1     -19.990  44.371  -8.234  1.00  0.00     0.000 C 
ENDROOT
BRANCH   1   2
ATOM      2  C   UNL     1     -19.211  45.055  -7.097  1.00  0.00     0.000 C 
BRANCH   2   3
ATOM      3  C   UNL     1     -18.478  44.054  -6.189  1.00  0.00     0.000 C 
BRANCH   3   4
ATOM      4  C   UNL     1     -19.029  44.048  -4.752  1.00  0.00    -0.000 C 
BRANCH   4   5
ATOM      5  C   UNL     1     -18.343  42.997  -3.862  1.00  0.00    -0.000 C 
BRANCH   5   6
ATOM      6  C   UNL     1     -17.536  41.970  -4.674  1.00  0.00    -0.000 C 
BRANCH   6   7
ATOM      7  C   UNL     1     -18.394  40.764  -5.101  1.00  0.00    -0.000 C 
BRANCH   7   8
ATOM      8  C   UNL     1     -17.596  39.688  -5.873  1.00  0.00    -0.000 C 
BRANCH   8   9
ATOM      9  C   UNL     1     -18.442  38.468  -6.283  1.00  0.00    -0.000 C 
BRANCH   9  10
ATOM     10  C   UNL     1     -17.669  37.137  -6.327  1.00  0.00    -0.000 C 
BRANCH  10  11
ATOM     11  C   UNL     1     -18.592  35.922  -6.509  1.00  0.00    -0.003 C 
ATOM     12  C   UNL     1     -19.766  36.258  -7.423  1.00  0.00     0.004 C 
ENDBRANCH  10  11
ENDBRANCH   9  10
ENDBRANCH   8   9
ENDBRANCH   7   8
ENDBRANCH   6   7
ENDBRANCH   5   6
ENDBRANCH   4   5
ENDBRANCH   3   4
ENDBRANCH   2   3
ENDBRANCH   1   2
BRANCH   1  13
ATOM     13  C   UNL     1     -19.127  43.336  -8.987  1.00  0.00     0.000 C 
BRANCH  13  14
ATOM     14  C   UNL     1     -19.162  43.498 -10.516  1.00  0.00     0.000 C 
BRANCH  14  15
ATOM     15  C   UNL     1     -18.000  44.349 -11.054  1.00  0.00     0.000 C 
BRANCH  15  16
ATOM     16  C   UNL     1     -16.643  43.639 -10.924  1.00  0.00     0.000 C 
BRANCH  16  17
ATOM     17  C   UNL     1     -15.602  44.486 -10.171  1.00  0.00     0.000 C 
BRANCH  17  18
ATOM     18  C   UNL     1     -16.236  45.677  -9.434  1.00  0.00     0.000 C 
BRANCH  18  19
ATOM     19  C   UNL     1     -15.620  45.906  -8.043  1.00  0.00     0.000 C 
BRANCH  19  20
ATOM     20  C   UNL     1     -14.442  46.897  -8.061  1.00  0.00     0.006 C 
BRANCH  20  21
ATOM     21  C   UNL     1     -14.732  48.222  -7.335  1.00  0.00     0.053 C 
BRANCH  21  22
ATOM     22  C   UNL     1     -14.797  49.392  -8.268  1.00  0.00     0.041 C 
ATOM     23  O   UNL     1     -14.548  49.242  -9.494  1.00  0.00    -0.550 OA
ATOM     24  O   UNL     1     -15.156  50.645  -7.787  1.00  0.00    -0.550 OA
ENDBRANCH  21  22
ENDBRANCH  20  21
ENDBRANCH  19  20
ENDBRANCH  18  19
ENDBRANCH  17  18
ENDBRANCH  16  17
ENDBRANCH  15  16
ENDBRANCH  14  15
ENDBRANCH  13  14
ENDBRANCH   1  13
TORSDOF 20
ENDMDL
MODEL 6
REMARK VINA RESULT:    -2.366      3.326      4.691
REMARK INTER + INTRA:          -6.930
REMARK INTER:                  -5.432
REMARK INTRA:                  -1.497
REMARK UNBOUND:                -1.797
REMARK SMILES CCCCCCCCCCCCCCCCCCCCCC(=O)[O-]
REMARK SMILES IDX 12 1 11 2 10 3 9 4 8 5 7 6 6 7 5 8 4 9 3 10 2 11 1 12 13 13
REMARK SMILES IDX 14 14 15 15 16 16 17 17 18 18 19 19 20 20 21 21 22 22 23 23
REMARK SMILES IDX 24 24
REMARK H PARENT
REMARK Flexibility Score: inf
ROOT
ATOM      1  C   UNL     1     -19.647  45.015  -6.925  1.00  0.00     0.000 C 
ENDROOT
BRANCH   1   2
ATOM      2  C   UNL     1     -18.581  44.387  -6.010  1.00  0.00     0.000 C 
BRANCH   2   3
ATOM      3  C   UNL     1     -19.105  44.100  -4.594  1.00  0.00     0.000 C 
BRANCH   3   4
ATOM      4  C   UNL     1     -18.068  43.380  -3.715  1.00  0.00    -0.000 C 
BRANCH   4   5
ATOM      5  C   UNL     1     -17.313  42.277  -4.476  1.00  0.00    -0.000 C 
BRANCH   5   6
ATOM      6  C   UNL     1     -18.259  41.262  -5.140  1.00  0.00    -0.000 C 
BRANCH   6   7
ATOM      7  C   UNL     1     -17.533  39.964  -5.537  1.00  0.00    -0.000 C 
BRANCH   7   8
ATOM      8  C   UNL     1     -18.495  38.810  -5.898  1.00  0.00    -0.000 C 
BRANCH   8   9
ATOM      9  C   UNL     1     -17.846  37.711  -6.760  1.00  0.00    -0.000 C 
BRANCH   9  10
ATOM     10  C   UNL     1     -17.936  36.293  -6.167  1.00  0.00    -0.000 C 
BRANCH  10  11
ATOM     11  C   UNL     1     -19.222  35.559  -6.580  1.00  0.00    -0.003 C 
ATOM     12  C   UNL     1     -19.840  36.194  -7.822  1.00  0.00     0.004 C 
ENDBRANCH  10  11
ENDBRANCH   9  10
ENDBRANCH   8   9
ENDBRANCH   7   8
ENDBRANCH   6   7
ENDBRANCH   5   6
ENDBRANCH   4   5
ENDBRANCH   3   4
ENDBRANCH   2   3
ENDBRANCH   1   2
BRANCH   1  13
ATOM     13  C   UNL     1     -19.560  44.476  -8.369  1.00  0.00     0.000 C 
BRANCH  13  14
ATOM     14  C   UNL     1     -18.721  43.194  -8.501  1.00  0.00     0.000 C 
BRANCH  14  15
ATOM     15  C   UNL     1     -18.643  42.676  -9.947  1.00  0.00     0.000 C 
BRANCH  15  16
ATOM     16  C   UNL     1     -17.921  43.658 -10.884  1.00  0.00     0.000 C 
BRANCH  16  17
ATOM     17  C   UNL     1     -16.389  43.537 -10.799  1.00  0.00     0.000 C 
BRANCH  17  18
ATOM     18  C   UNL     1     -15.780  44.498  -9.765  1.00  0.00     0.000 C 
BRANCH  18  19
ATOM     19  C   UNL     1     -16.437  45.889  -9.795  1.00  0.00     0.000 C 
BRANCH  19  20
ATOM     20  C   UNL     1     -15.494  46.990 -10.313  1.00  0.00     0.006 C 
BRANCH  20  21
ATOM     21  C   UNL     1     -14.233  47.187  -9.453  1.00  0.00     0.053 C 
BRANCH  21  22
ATOM     22  C   UNL     1     -14.549  47.466  -8.017  1.00  0.00     0.041 C 
ATOM     23  O   UNL     1     -15.039  48.576  -7.677  1.00  0.00    -0.550 OA
ATOM     24  O   UNL     1     -14.324  46.490  -7.053  1.00  0.00    -0.550 OA
ENDBRANCH  21  22
ENDBRANCH  20  21
ENDBRANCH  19  20
ENDBRANCH  18  19
ENDBRANCH  17  18
ENDBRANCH  16  17
ENDBRANCH  15  16
ENDBRANCH  14  15
ENDBRANCH  13  14
ENDBRANCH   1  13
TORSDOF 20
ENDMDL
MODEL 7
REMARK VINA RESULT:    -2.283      1.297      2.133
REMARK INTER + INTRA:          -6.750
REMARK INTER:                  -5.297
REMARK INTRA:                  -1.453
REMARK UNBOUND:                -1.797
REMARK SMILES CCCCCCCCCCCCCCCCCCCCCC(=O)[O-]
REMARK SMILES IDX 12 1 11 2 10 3 9 4 8 5 7 6 6 7 5 8 4 9 3 10 2 11 1 12 13 13
REMARK SMILES IDX 14 14 15 15 16 16 17 17 18 18 19 19 20 20 21 21 22 22 23 23
REMARK SMILES IDX 24 24
REMARK H PARENT
REMARK Flexibility Score: inf
ROOT
ATOM      1  C   UNL     1     -19.600  43.330  -9.164  1.00  0.00     0.000 C 
ENDROOT
BRANCH   1   2
ATOM      2  C   UNL     1     -19.650  44.852  -8.937  1.00  0.00     0.000 C 
BRANCH   2   3
ATOM      3  C   UNL     1     -19.063  45.272  -7.580  1.00  0.00     0.000 C 
BRANCH   3   4
ATOM      4  C   UNL     1     -18.137  44.200  -6.980  1.00  0.00    -0.000 C 
BRANCH   4   5
ATOM      5  C   UNL     1     -16.795  44.095  -7.723  1.00  0.00    -0.000 C 
BRANCH   5   6
ATOM      6  C   UNL     1     -15.596  43.989  -6.765  1.00  0.00    -0.000 C 
BRANCH   6   7
ATOM      7  C   UNL     1     -15.849  42.983  -5.626  1.00  0.00    -0.000 C 
BRANCH   7   8
ATOM      8  C   UNL     1     -16.334  43.649  -4.318  1.00  0.00    -0.000 C 
BRANCH   8   9
ATOM      9  C   UNL     1     -17.079  42.686  -3.374  1.00  0.00    -0.000 C 
BRANCH   9  10
ATOM     10  C   UNL     1     -18.342  42.045  -3.976  1.00  0.00    -0.000 C 
BRANCH  10  11
ATOM     11  C   UNL     1     -19.604  42.891  -3.747  1.00  0.00    -0.003 C 
ATOM     12  C   UNL     1     -19.245  44.277  -3.220  1.00  0.00     0.004 C 
ENDBRANCH  10  11
ENDBRANCH   9  10
ENDBRANCH   8   9
ENDBRANCH   7   8
ENDBRANCH   6   7
ENDBRANCH   5   6
ENDBRANCH   4   5
ENDBRANCH   3   4
ENDBRANCH   2   3
ENDBRANCH   1   2
BRANCH   1  13
ATOM     13  C   UNL     1     -19.185  42.973 -10.607  1.00  0.00     0.000 C 
BRANCH  13  14
ATOM     14  C   UNL     1     -17.987  43.788 -11.125  1.00  0.00     0.000 C 
BRANCH  14  15
ATOM     15  C   UNL     1     -16.638  43.099 -10.862  1.00  0.00     0.000 C 
BRANCH  15  16
ATOM     16  C   UNL     1     -15.443  44.031 -11.125  1.00  0.00     0.000 C 
BRANCH  16  17
ATOM     17  C   UNL     1     -15.786  45.513 -10.893  1.00  0.00     0.000 C 
BRANCH  17  18
ATOM     18  C   UNL     1     -14.830  46.189  -9.898  1.00  0.00     0.000 C 
BRANCH  18  19
ATOM     19  C   UNL     1     -14.748  47.713 -10.101  1.00  0.00     0.000 C 
BRANCH  19  20
ATOM     20  C   UNL     1     -14.632  48.492  -8.778  1.00  0.00     0.006 C 
BRANCH  20  21
ATOM     21  C   UNL     1     -14.728  50.018  -8.943  1.00  0.00     0.053 C 
BRANCH  21  22
ATOM     22  C   UNL     1     -14.709  50.745  -7.634  1.00  0.00     0.041 C 
ATOM     23  O   UNL     1     -14.333  50.157  -6.585  1.00  0.00    -0.550 OA
ATOM     24  O   UNL     1     -15.083  52.082  -7.576  1.00  0.00    -0.550 OA
ENDBRANCH  21  22
ENDBRANCH  20  21
ENDBRANCH  19  20
ENDBRANCH  18  19
ENDBRANCH  17  18
ENDBRANCH  16  17
ENDBRANCH  15  16
ENDBRANCH  14  15
ENDBRANCH  13  14
ENDBRANCH   1  13
TORSDOF 20
ENDMDL
MODEL 8
REMARK VINA RESULT:    -2.176      2.761      7.356
REMARK INTER + INTRA:          -6.517
REMARK INTER:                  -4.898
REMARK INTRA:                  -1.619
REMARK UNBOUND:                -1.797
REMARK SMILES CCCCCCCCCCCCCCCCCCCCCC(=O)[O-]
REMARK SMILES IDX 12 1 11 2 10 3 9 4 8 5 7 6 6 7 5 8 4 9 3 10 2 11 1 12 13 13
REMARK SMILES IDX 14 14 15 15 16 16 17 17 18 18 19 19 20 20 21 21 22 22 23 23
REMARK SMILES IDX 24 24
REMARK H PARENT
REMARK Flexibility Score: inf
ROOT
ATOM      1  C   UNL     1     -16.043  44.439  -7.224  1.00  0.00     0.000 C 
ENDROOT
BRANCH   1   2
ATOM      2  C   UNL     1     -15.195  44.010  -8.435  1.00  0.00     0.000 C 
BRANCH   2   3
ATOM      3  C   UNL     1     -13.992  44.935  -8.678  1.00  0.00     0.000 C 
BRANCH   3   4
ATOM      4  C   UNL     1     -14.130  45.756  -9.972  1.00  0.00    -0.000 C 
BRANCH   4   5
ATOM      5  C   UNL     1     -15.479  46.489 -10.065  1.00  0.00    -0.000 C 
BRANCH   5   6
ATOM      6  C   UNL     1     -15.318  47.986 -10.379  1.00  0.00    -0.000 C 
BRANCH   6   7
ATOM      7  C   UNL     1     -14.452  48.709  -9.332  1.00  0.00    -0.000 C 
BRANCH   7   8
ATOM      8  C   UNL     1     -14.762  48.280  -7.879  1.00  0.00    -0.000 C 
BRANCH   8   9
ATOM      9  C   UNL     1     -14.403  49.348  -6.829  1.00  0.00    -0.000 C 
BRANCH   9  10
ATOM     10  C   UNL     1     -13.899  50.679  -7.414  1.00  0.00    -0.000 C 
BRANCH  10  11
ATOM     11  C   UNL     1     -15.044  51.632  -7.791  1.00  0.00    -0.003 C 
ATOM     12  C   UNL     1     -14.577  53.085  -7.769  1.00  0.00     0.004 C 
ENDBRANCH  10  11
ENDBRANCH   9  10
ENDBRANCH   8   9
ENDBRANCH   7   8
ENDBRANCH   6   7
ENDBRANCH   5   6
ENDBRANCH   4   5
ENDBRANCH   3   4
ENDBRANCH   2   3
ENDBRANCH   1   2
BRANCH   1  13
ATOM     13  C   UNL     1     -16.065  43.358  -6.121  1.00  0.00     0.000 C 
BRANCH  13  14
ATOM     14  C   UNL     1     -15.587  43.865  -4.749  1.00  0.00     0.000 C 
BRANCH  14  15
ATOM     15  C   UNL     1     -16.485  43.397  -3.593  1.00  0.00     0.000 C 
BRANCH  15  16
ATOM     16  C   UNL     1     -17.791  42.754  -4.087  1.00  0.00     0.000 C 
BRANCH  16  17
ATOM     17  C   UNL     1     -18.936  43.773  -4.228  1.00  0.00     0.000 C 
BRANCH  17  18
ATOM     18  C   UNL     1     -19.547  43.779  -5.639  1.00  0.00     0.000 C 
BRANCH  18  19
ATOM     19  C   UNL     1     -19.476  45.164  -6.306  1.00  0.00     0.000 C 
BRANCH  19  20
ATOM     20  C   UNL     1     -19.920  45.146  -7.780  1.00  0.00     0.006 C 
BRANCH  20  21
ATOM     21  C   UNL     1     -19.199  44.090  -8.636  1.00  0.00     0.053 C 
BRANCH  21  22
ATOM     22  C   UNL     1     -19.558  44.176 -10.087  1.00  0.00     0.041 C 
ATOM     23  O   UNL     1     -19.359  45.241 -10.730  1.00  0.00    -0.550 OA
ATOM     24  O   UNL     1     -20.092  43.070 -10.737  1.00  0.00    -0.550 OA
ENDBRANCH  21  22
ENDBRANCH  20  21
ENDBRANCH  19  20
ENDBRANCH  18  19
ENDBRANCH  17  18
ENDBRANCH  16  17
ENDBRANCH  15  16
ENDBRANCH  14  15
ENDBRANCH  13  14
ENDBRANCH   1  13
TORSDOF 20
ENDMDL
MODEL 9
REMARK VINA RESULT:    -1.995      2.774      5.466
REMARK INTER + INTRA:          -6.123
REMARK INTER:                  -4.396
REMARK INTRA:                  -1.728
REMARK UNBOUND:                -1.797
REMARK SMILES CCCCCCCCCCCCCCCCCCCCCC(=O)[O-]
REMARK SMILES IDX 12 1 11 2 10 3 9 4 8 5 7 6 6 7 5 8 4 9 3 10 2 11 1 12 13 13
REMARK SMILES IDX 14 14 15 15 16 16 17 17 18 18 19 19 20 20 21 21 22 22 23 23
REMARK SMILES IDX 24 24
REMARK H PARENT
REMARK Flexibility Score: inf
ROOT
ATOM      1  C   UNL     1     -14.327  48.255  -6.108  1.00  0.00     0.000 C 
ENDROOT
BRANCH   1   2
ATOM      2  C   UNL     1     -15.164  47.486  -7.146  1.00  0.00     0.000 C 
BRANCH   2   3
ATOM      3  C   UNL     1     -14.303  46.827  -8.236  1.00  0.00     0.000 C 
BRANCH   3   4
ATOM      4  C   UNL     1     -14.248  45.296  -8.099  1.00  0.00    -0.000 C 
BRANCH   4   5
ATOM      5  C   UNL     1     -15.606  44.689  -7.708  1.00  0.00    -0.000 C 
BRANCH   5   6
ATOM      6  C   UNL     1     -15.494  43.694  -6.539  1.00  0.00    -0.000 C 
BRANCH   6   7
ATOM      7  C   UNL     1     -16.776  43.651  -5.688  1.00  0.00    -0.000 C 
BRANCH   7   8
ATOM      8  C   UNL     1     -16.517  43.281  -4.210  1.00  0.00    -0.000 C 
BRANCH   8   9
ATOM      9  C   UNL     1     -17.779  43.342  -3.327  1.00  0.00    -0.000 C 
BRANCH   9  10
ATOM     10  C   UNL     1     -19.105  43.384  -4.106  1.00  0.00    -0.000 C 
BRANCH  10  11
ATOM     11  C   UNL     1     -20.129  42.360  -3.590  1.00  0.00    -0.003 C 
ATOM     12  C   UNL     1     -19.787  41.912  -2.173  1.00  0.00     0.004 C 
ENDBRANCH  10  11
ENDBRANCH   9  10
ENDBRANCH   8   9
ENDBRANCH   7   8
ENDBRANCH   6   7
ENDBRANCH   5   6
ENDBRANCH   4   5
ENDBRANCH   3   4
ENDBRANCH   2   3
ENDBRANCH   1   2
BRANCH   1  13
ATOM     13  C   UNL     1     -13.875  49.633  -6.634  1.00  0.00     0.000 C 
BRANCH  13  14
ATOM     14  C   UNL     1     -14.782  50.201  -7.740  1.00  0.00     0.000 C 
BRANCH  14  15
ATOM     15  C   UNL     1     -13.991  50.811  -8.908  1.00  0.00     0.000 C 
BRANCH  15  16
ATOM     16  C   UNL     1     -14.388  50.207 -10.265  1.00  0.00     0.000 C 
BRANCH  16  17
ATOM     17  C   UNL     1     -15.682  49.378 -10.187  1.00  0.00     0.000 C 
BRANCH  17  18
ATOM     18  C   UNL     1     -15.523  47.980 -10.807  1.00  0.00     0.000 C 
BRANCH  18  19
ATOM     19  C   UNL     1     -16.875  47.319 -11.125  1.00  0.00     0.000 C 
BRANCH  19  20
ATOM     20  C   UNL     1     -17.001  45.896 -10.549  1.00  0.00     0.006 C 
BRANCH  20  21
ATOM     21  C   UNL     1     -18.445  45.367 -10.506  1.00  0.00     0.053 C 
BRANCH  21  22
ATOM     22  C   UNL     1     -18.673  44.398  -9.387  1.00  0.00     0.041 C 
ATOM     23  O   UNL     1     -18.437  43.171  -9.549  1.00  0.00    -0.550 OA
ATOM     24  O   UNL     1     -19.126  44.854  -8.155  1.00  0.00    -0.550 OA
ENDBRANCH  21  22
ENDBRANCH  20  21
ENDBRANCH  19  20
ENDBRANCH  18  19
ENDBRANCH  17  18
ENDBRANCH  16  17
ENDBRANCH  15  16
ENDBRANCH  14  15
ENDBRANCH  13  14
ENDBRANCH   1  13
TORSDOF 20
ENDMDL
