MODEL 1
REMARK VINA RESULT:    -8.701      0.000      0.000
REMARK INTER + INTRA:         -10.520
REMARK INTER:                 -10.227
REMARK INTRA:                  -0.293
REMARK UNBOUND:                -0.293
REMARK SMILES O=c1c(O)c(-c2ccc(O)cc2)oc2cc(O)cc(O)c12
REMARK SMILES IDX 5 1 3 2 2 3 1 4 21 5 19 6 18 7 16 8 15 9 14 10 13 11 6 12
REMARK SMILES IDX 7 13 8 14 9 15 12 16 11 17 10 18 4 20 20 22 17 24
REMARK H PARENT 10 19 4 21 20 23 17 25
REMARK Flexibility Score: inf
ROOT
ATOM      1  C   UNL     1     126.312 135.206 110.232  1.00  0.00     0.180 A 
ATOM      2  C   UNL     1     126.600 136.415 109.571  1.00  0.00     0.208 A 
ATOM      3  C   UNL     1     127.332 136.376 108.374  1.00  0.00     0.238 A 
ATOM      4  O   UNL     1     127.606 137.454 107.778  1.00  0.00    -0.285 OA
ATOM      5  C   UNL     1     127.745 135.134 107.849  1.00  0.00     0.111 A 
ATOM      6  C   UNL     1     128.482 135.007 106.646  1.00  0.00     0.134 A 
ATOM      7  C   UNL     1     128.846 133.734 106.185  1.00  0.00     0.093 A 
ATOM      8  C   UNL     1     128.489 132.588 106.899  1.00  0.00     0.123 A 
ATOM      9  C   UNL     1     127.762 132.707 108.088  1.00  0.00     0.094 A 
ATOM     10  C   UNL     1     127.389 133.967 108.565  1.00  0.00     0.146 A 
ATOM     11  O   UNL     1     126.704 134.052 109.699  1.00  0.00    -0.452 OA
ENDROOT
BRANCH   1  12
ATOM     12  C   UNL     1     125.561 135.166 111.508  1.00  0.00     0.021 A 
ATOM     13  C   UNL     1     124.188 134.873 111.493  1.00  0.00     0.016 A 
ATOM     14  C   UNL     1     123.464 134.808 112.686  1.00  0.00     0.047 A 
ATOM     15  C   UNL     1     124.109 135.020 113.912  1.00  0.00     0.115 A 
ATOM     16  C   UNL     1     126.205 135.359 112.744  1.00  0.00     0.016 A 
ATOM     17  C   UNL     1     125.480 135.293 113.937  1.00  0.00     0.047 A 
BRANCH  15  18
ATOM     18  O   UNL     1     123.398 134.959 115.109  1.00  0.00    -0.508 OA
ATOM     19  H   UNL     1     123.436 134.142 115.707  1.00  0.00     0.293 HD
ENDBRANCH  15  18
ENDBRANCH   1  12
BRANCH   2  20
ATOM     20  O   UNL     1     126.138 137.629 110.085  1.00  0.00    -0.502 OA
ATOM     21  H   UNL     1     125.669 137.696 110.981  1.00  0.00     0.293 HD
ENDBRANCH   2  20
BRANCH   6  22
ATOM     22  O   UNL     1     128.852 136.133 105.909  1.00  0.00    -0.507 OA
ATOM     23  H   UNL     1     128.164 136.727 105.461  1.00  0.00     0.293 HD
ENDBRANCH   6  22
BRANCH   8  24
ATOM     24  O   UNL     1     128.863 131.335 106.419  1.00  0.00    -0.508 OA
ATOM     25  H   UNL     1     129.338 130.662 107.008  1.00  0.00     0.293 HD
ENDBRANCH   8  24
TORSDOF 5
ENDMDL
MODEL 2
REMARK VINA RESULT:    -8.422      4.389      4.826
REMARK INTER + INTRA:         -10.192
REMARK INTER:                  -9.912
REMARK INTRA:                  -0.281
REMARK UNBOUND:                -0.293
REMARK SMILES O=c1c(O)c(-c2ccc(O)cc2)oc2cc(O)cc(O)c12
REMARK SMILES IDX 5 1 3 2 2 3 1 4 21 5 19 6 18 7 16 8 15 9 14 10 13 11 6 12
REMARK SMILES IDX 7 13 8 14 9 15 12 16 11 17 10 18 4 20 20 22 17 24
REMARK H PARENT 10 19 4 21 20 23 17 25
REMARK Flexibility Score: inf
ROOT
ATOM      1  C   UNL     1     128.822 134.824 112.683  1.00  0.00     0.180 A 
ATOM      2  C   UNL     1     129.704 135.712 113.329  1.00  0.00     0.208 A 
ATOM      3  C   UNL     1     131.085 135.567 113.123  1.00  0.00     0.238 A 
ATOM      4  O   UNL     1     131.885 136.349 113.704  1.00  0.00    -0.285 OA
ATOM      5  C   UNL     1     131.558 134.554 112.262  1.00  0.00     0.111 A 
ATOM      6  C   UNL     1     132.933 134.343 111.997  1.00  0.00     0.134 A 
ATOM      7  C   UNL     1     133.324 133.320 111.121  1.00  0.00     0.093 A 
ATOM      8  C   UNL     1     132.370 132.507 110.506  1.00  0.00     0.123 A 
ATOM      9  C   UNL     1     131.010 132.709 110.764  1.00  0.00     0.094 A 
ATOM     10  C   UNL     1     130.601 133.724 111.635  1.00  0.00     0.146 A 
ATOM     11  O   UNL     1     129.304 133.891 111.867  1.00  0.00    -0.452 OA
ENDROOT
BRANCH   1  12
ATOM     12  C   UNL     1     127.355 134.902 112.866  1.00  0.00     0.021 A 
ATOM     13  C   UNL     1     126.764 134.287 113.983  1.00  0.00     0.016 A 
ATOM     14  C   UNL     1     125.384 134.366 114.187  1.00  0.00     0.047 A 
ATOM     15  C   UNL     1     124.579 135.076 113.286  1.00  0.00     0.115 A 
ATOM     16  C   UNL     1     126.542 135.628 111.976  1.00  0.00     0.016 A 
ATOM     17  C   UNL     1     125.162 135.707 112.184  1.00  0.00     0.047 A 
BRANCH  15  18
ATOM     18  O   UNL     1     123.202 135.161 113.479  1.00  0.00    -0.508 OA
ATOM     19  H   UNL     1     122.547 134.886 112.756  1.00  0.00     0.293 HD
ENDBRANCH  15  18
ENDBRANCH   1  12
BRANCH   2  20
ATOM     20  O   UNL     1     129.208 136.738 114.137  1.00  0.00    -0.502 OA
ATOM     21  H   UNL     1     129.703 137.612 114.272  1.00  0.00     0.293 HD
ENDBRANCH   2  20
BRANCH   6  22
ATOM     22  O   UNL     1     133.911 135.141 112.595  1.00  0.00    -0.507 OA
ATOM     23  H   UNL     1     134.680 134.738 113.118  1.00  0.00     0.293 HD
ENDBRANCH   6  22
BRANCH   8  24
ATOM     24  O   UNL     1     132.784 131.497 109.639  1.00  0.00    -0.508 OA
ATOM     25  H   UNL     1     132.173 131.134 108.918  1.00  0.00     0.293 HD
ENDBRANCH   8  24
TORSDOF 5
ENDMDL
MODEL 3
REMARK VINA RESULT:    -8.398     10.721     11.601
REMARK INTER + INTRA:         -10.164
REMARK INTER:                  -9.874
REMARK INTRA:                  -0.290
REMARK UNBOUND:                -0.293
REMARK SMILES O=c1c(O)c(-c2ccc(O)cc2)oc2cc(O)cc(O)c12
REMARK SMILES IDX 5 1 3 2 2 3 1 4 21 5 19 6 18 7 16 8 15 9 14 10 13 11 6 12
REMARK SMILES IDX 7 13 8 14 9 15 12 16 11 17 10 18 4 20 20 22 17 24
REMARK H PARENT 10 19 4 21 20 23 17 25
REMARK Flexibility Score: inf
ROOT
ATOM      1  C   UNL     1     135.321 134.371 114.585  1.00  0.00     0.180 A 
ATOM      2  C   UNL     1     136.304 134.609 113.604  1.00  0.00     0.208 A 
ATOM      3  C   UNL     1     137.649 134.688 113.997  1.00  0.00     0.238 A 
ATOM      4  O   UNL     1     138.537 134.911 113.130  1.00  0.00    -0.285 OA
ATOM      5  C   UNL     1     137.990 134.509 115.354  1.00  0.00     0.111 A 
ATOM      6  C   UNL     1     139.322 134.569 115.832  1.00  0.00     0.134 A 
ATOM      7  C   UNL     1     139.581 134.370 117.196  1.00  0.00     0.093 A 
ATOM      8  C   UNL     1     138.538 134.113 118.089  1.00  0.00     0.123 A 
ATOM      9  C   UNL     1     137.220 134.053 117.623  1.00  0.00     0.094 A 
ATOM     10  C   UNL     1     136.942 134.249 116.267  1.00  0.00     0.146 A 
ATOM     11  O   UNL     1     135.682 134.192 115.852  1.00  0.00    -0.452 OA
ENDROOT
BRANCH   1  12
ATOM     12  C   UNL     1     133.880 134.293 114.251  1.00  0.00     0.021 A 
ATOM     13  C   UNL     1     133.103 135.463 114.268  1.00  0.00     0.016 A 
ATOM     14  C   UNL     1     131.746 135.417 113.936  1.00  0.00     0.047 A 
ATOM     15  C   UNL     1     131.154 134.203 113.565  1.00  0.00     0.115 A 
ATOM     16  C   UNL     1     133.282 133.081 113.860  1.00  0.00     0.016 A 
ATOM     17  C   UNL     1     131.926 133.038 113.525  1.00  0.00     0.047 A 
BRANCH  15  18
ATOM     18  O   UNL     1     129.802 134.144 113.232  1.00  0.00    -0.508 OA
ATOM     19  H   UNL     1     129.489 134.220 112.271  1.00  0.00     0.293 HD
ENDBRANCH  15  18
ENDBRANCH   1  12
BRANCH   2  20
ATOM     20  O   UNL     1     135.945 134.733 112.260  1.00  0.00    -0.502 OA
ATOM     21  H   UNL     1     136.511 135.242 111.591  1.00  0.00     0.293 HD
ENDBRANCH   2  20
BRANCH   6  22
ATOM     22  O   UNL     1     140.386 134.822 114.965  1.00  0.00    -0.507 OA
ATOM     23  H   UNL     1     141.169 134.185 114.882  1.00  0.00     0.293 HD
ENDBRANCH   6  22
BRANCH   8  24
ATOM     24  O   UNL     1     138.822 133.919 119.440  1.00  0.00    -0.508 OA
ATOM     25  H   UNL     1     138.091 133.721 120.112  1.00  0.00     0.293 HD
ENDBRANCH   8  24
TORSDOF 5
ENDMDL
MODEL 4
REMARK VINA RESULT:    -8.185      5.087      6.988
REMARK INTER + INTRA:          -9.912
REMARK INTER:                  -9.615
REMARK INTRA:                  -0.298
REMARK UNBOUND:                -0.293
REMARK SMILES O=c1c(O)c(-c2ccc(O)cc2)oc2cc(O)cc(O)c12
REMARK SMILES IDX 5 1 3 2 2 3 1 4 21 5 19 6 18 7 16 8 15 9 14 10 13 11 6 12
REMARK SMILES IDX 7 13 8 14 9 15 12 16 11 17 10 18 4 20 20 22 17 24
REMARK H PARENT 10 19 4 21 20 23 17 25
REMARK Flexibility Score: inf
ROOT
ATOM      1  C   UNL     1     130.065 134.325 110.650  1.00  0.00     0.180 A 
ATOM      2  C   UNL     1     130.449 132.977 110.514  1.00  0.00     0.208 A 
ATOM      3  C   UNL     1     131.477 132.479 111.330  1.00  0.00     0.238 A 
ATOM      4  O   UNL     1     131.838 131.277 111.210  1.00  0.00    -0.285 OA
ATOM      5  C   UNL     1     132.086 133.327 112.279  1.00  0.00     0.111 A 
ATOM      6  C   UNL     1     133.124 132.903 113.144  1.00  0.00     0.134 A 
ATOM      7  C   UNL     1     133.672 133.804 114.068  1.00  0.00     0.093 A 
ATOM      8  C   UNL     1     133.204 135.117 114.146  1.00  0.00     0.123 A 
ATOM      9  C   UNL     1     132.178 135.543 113.294  1.00  0.00     0.094 A 
ATOM     10  C   UNL     1     131.620 134.659 112.366  1.00  0.00     0.146 A 
ATOM     11  O   UNL     1     130.651 135.090 111.566  1.00  0.00    -0.452 OA
ENDROOT
BRANCH   1  12
ATOM     12  C   UNL     1     129.003 134.928 109.812  1.00  0.00     0.021 A 
ATOM     13  C   UNL     1     127.680 134.953 110.284  1.00  0.00     0.016 A 
ATOM     14  C   UNL     1     126.666 135.537 109.520  1.00  0.00     0.047 A 
ATOM     15  C   UNL     1     126.965 136.119 108.281  1.00  0.00     0.115 A 
ATOM     16  C   UNL     1     129.299 135.531 108.575  1.00  0.00     0.016 A 
ATOM     17  C   UNL     1     128.283 136.116 107.814  1.00  0.00     0.047 A 
BRANCH  15  18
ATOM     18  O   UNL     1     125.962 136.703 107.510  1.00  0.00    -0.508 OA
ATOM     19  H   UNL     1     125.253 136.144 107.051  1.00  0.00     0.293 HD
ENDBRANCH  15  18
ENDBRANCH   1  12
BRANCH   2  20
ATOM     20  O   UNL     1     129.797 132.145 109.601  1.00  0.00    -0.502 OA
ATOM     21  H   UNL     1     130.011 132.152 108.610  1.00  0.00     0.293 HD
ENDBRANCH   2  20
BRANCH   6  22
ATOM     22  O   UNL     1     133.614 131.596 113.091  1.00  0.00    -0.507 OA
ATOM     23  H   UNL     1     133.561 130.975 113.890  1.00  0.00     0.293 HD
ENDBRANCH   6  22
BRANCH   8  24
ATOM     24  O   UNL     1     133.764 135.993 115.073  1.00  0.00    -0.508 OA
ATOM     25  H   UNL     1     133.646 135.858 116.069  1.00  0.00     0.293 HD
ENDBRANCH   8  24
TORSDOF 5
ENDMDL
MODEL 5
REMARK VINA RESULT:    -8.125      5.721      7.626
REMARK INTER + INTRA:          -9.842
REMARK INTER:                  -9.593
REMARK INTRA:                  -0.250
REMARK UNBOUND:                -0.293
REMARK SMILES O=c1c(O)c(-c2ccc(O)cc2)oc2cc(O)cc(O)c12
REMARK SMILES IDX 5 1 3 2 2 3 1 4 21 5 19 6 18 7 16 8 15 9 14 10 13 11 6 12
REMARK SMILES IDX 7 13 8 14 9 15 12 16 11 17 10 18 4 20 20 22 17 24
REMARK H PARENT 10 19 4 21 20 23 17 25
REMARK Flexibility Score: inf
ROOT
ATOM      1  C   UNL     1     130.873 134.555 111.067  1.00  0.00     0.180 A 
ATOM      2  C   UNL     1     130.165 135.190 112.106  1.00  0.00     0.208 A 
ATOM      3  C   UNL     1     130.858 135.562 113.270  1.00  0.00     0.238 A 
ATOM      4  O   UNL     1     130.233 136.122 114.212  1.00  0.00    -0.285 OA
ATOM      5  C   UNL     1     132.243 135.313 113.366  1.00  0.00     0.111 A 
ATOM      6  C   UNL     1     133.015 135.661 114.501  1.00  0.00     0.134 A 
ATOM      7  C   UNL     1     134.391 135.389 114.516  1.00  0.00     0.093 A 
ATOM      8  C   UNL     1     135.008 134.778 113.423  1.00  0.00     0.123 A 
ATOM      9  C   UNL     1     134.251 134.431 112.299  1.00  0.00     0.094 A 
ATOM     10  C   UNL     1     132.878 134.694 112.264  1.00  0.00     0.146 A 
ATOM     11  O   UNL     1     132.181 134.350 111.188  1.00  0.00    -0.452 OA
ENDROOT
BRANCH   1  12
ATOM     12  C   UNL     1     130.209 134.116 109.819  1.00  0.00     0.021 A 
ATOM     13  C   UNL     1     129.930 135.059 108.816  1.00  0.00     0.016 A 
ATOM     14  C   UNL     1     129.325 134.664 107.620  1.00  0.00     0.047 A 
ATOM     15  C   UNL     1     129.005 133.316 107.405  1.00  0.00     0.115 A 
ATOM     16  C   UNL     1     129.903 132.762 109.588  1.00  0.00     0.016 A 
ATOM     17  C   UNL     1     129.299 132.369 108.390  1.00  0.00     0.047 A 
BRANCH  15  18
ATOM     18  O   UNL     1     128.401 132.910 106.217  1.00  0.00    -0.508 OA
ATOM     19  H   UNL     1     127.624 133.423 105.816  1.00  0.00     0.293 HD
ENDBRANCH  15  18
ENDBRANCH   1  12
BRANCH   2  20
ATOM     20  O   UNL     1     128.804 135.470 111.966  1.00  0.00    -0.502 OA
ATOM     21  H   UNL     1     128.402 135.785 111.091  1.00  0.00     0.293 HD
ENDBRANCH   2  20
BRANCH   6  22
ATOM     22  O   UNL     1     132.428 136.274 115.609  1.00  0.00    -0.507 OA
ATOM     23  H   UNL     1     131.437 136.190 115.801  1.00  0.00     0.293 HD
ENDBRANCH   6  22
BRANCH   8  24
ATOM     24  O   UNL     1     136.377 134.518 113.462  1.00  0.00    -0.508 OA
ATOM     25  H   UNL     1     136.738 133.628 113.781  1.00  0.00     0.293 HD
ENDBRANCH   8  24
TORSDOF 5
ENDMDL
MODEL 6
REMARK VINA RESULT:    -8.019      7.142      8.260
REMARK INTER + INTRA:          -9.718
REMARK INTER:                  -9.820
REMARK INTRA:                   0.102
REMARK UNBOUND:                -0.293
REMARK SMILES O=c1c(O)c(-c2ccc(O)cc2)oc2cc(O)cc(O)c12
REMARK SMILES IDX 5 1 3 2 2 3 1 4 21 5 19 6 18 7 16 8 15 9 14 10 13 11 6 12
REMARK SMILES IDX 7 13 8 14 9 15 12 16 11 17 10 18 4 20 20 22 17 24
REMARK H PARENT 10 19 4 21 20 23 17 25
REMARK Flexibility Score: inf
ROOT
ATOM      1  C   UNL     1     133.063 134.744 113.012  1.00  0.00     0.180 A 
ATOM      2  C   UNL     1     132.129 135.636 113.573  1.00  0.00     0.208 A 
ATOM      3  C   UNL     1     130.814 135.638 113.082  1.00  0.00     0.238 A 
ATOM      4  O   UNL     1     129.971 136.440 113.569  1.00  0.00    -0.285 OA
ATOM      5  C   UNL     1     130.450 134.737 112.059  1.00  0.00     0.111 A 
ATOM      6  C   UNL     1     129.145 134.671 111.512  1.00  0.00     0.134 A 
ATOM      7  C   UNL     1     128.860 133.741 110.503  1.00  0.00     0.093 A 
ATOM      8  C   UNL     1     129.850 132.877 110.030  1.00  0.00     0.123 A 
ATOM      9  C   UNL     1     131.142 132.937 110.565  1.00  0.00     0.094 A 
ATOM     10  C   UNL     1     131.446 133.859 111.572  1.00  0.00     0.146 A 
ATOM     11  O   UNL     1     132.680 133.898 112.059  1.00  0.00    -0.452 OA
ENDROOT
BRANCH   1  12
ATOM     12  C   UNL     1     134.473 134.696 113.463  1.00  0.00     0.021 A 
ATOM     13  C   UNL     1     135.504 134.706 112.509  1.00  0.00     0.016 A 
ATOM     14  C   UNL     1     136.842 134.684 112.911  1.00  0.00     0.047 A 
ATOM     15  C   UNL     1     137.166 134.668 114.275  1.00  0.00     0.115 A 
ATOM     16  C   UNL     1     134.807 134.699 114.830  1.00  0.00     0.016 A 
ATOM     17  C   UNL     1     136.146 134.679 115.230  1.00  0.00     0.047 A 
BRANCH  15  18
ATOM     18  O   UNL     1     138.496 134.646 114.688  1.00  0.00    -0.508 OA
ATOM     19  H   UNL     1     139.234 134.303 114.083  1.00  0.00     0.293 HD
ENDBRANCH  15  18
ENDBRANCH   1  12
BRANCH   2  20
ATOM     20  O   UNL     1     132.501 136.483 114.619  1.00  0.00    -0.502 OA
ATOM     21  H   UNL     1     133.298 137.105 114.557  1.00  0.00     0.293 HD
ENDBRANCH   2  20
BRANCH   6  22
ATOM     22  O   UNL     1     128.134 135.520 111.964  1.00  0.00    -0.507 OA
ATOM     23  H   UNL     1     127.241 135.585 111.489  1.00  0.00     0.293 HD
ENDBRANCH   6  22
BRANCH   8  24
ATOM     24  O   UNL     1     129.541 131.961 109.027  1.00  0.00    -0.508 OA
ATOM     25  H   UNL     1     128.632 131.519 108.974  1.00  0.00     0.293 HD
ENDBRANCH   8  24
TORSDOF 5
ENDMDL
MODEL 7
REMARK VINA RESULT:    -8.001      4.858      5.367
REMARK INTER + INTRA:          -9.696
REMARK INTER:                  -9.399
REMARK INTRA:                  -0.297
REMARK UNBOUND:                -0.293
REMARK SMILES O=c1c(O)c(-c2ccc(O)cc2)oc2cc(O)cc(O)c12
REMARK SMILES IDX 5 1 3 2 2 3 1 4 21 5 19 6 18 7 16 8 15 9 14 10 13 11 6 12
REMARK SMILES IDX 7 13 8 14 9 15 12 16 11 17 10 18 4 20 20 22 17 24
REMARK H PARENT 10 19 4 21 20 23 17 25
REMARK Flexibility Score: inf
ROOT
ATOM      1  C   UNL     1     129.339 134.323 113.672  1.00  0.00     0.180 A 
ATOM      2  C   UNL     1     130.286 135.216 114.209  1.00  0.00     0.208 A 
ATOM      3  C   UNL     1     131.598 135.193 113.710  1.00  0.00     0.238 A 
ATOM      4  O   UNL     1     132.459 135.980 114.190  1.00  0.00    -0.285 OA
ATOM      5  C   UNL     1     131.934 134.296 112.674  1.00  0.00     0.111 A 
ATOM      6  C   UNL     1     133.232 134.213 112.112  1.00  0.00     0.134 A 
ATOM      7  C   UNL     1     133.484 133.301 111.077  1.00  0.00     0.093 A 
ATOM      8  C   UNL     1     132.469 132.474 110.593  1.00  0.00     0.123 A 
ATOM      9  C   UNL     1     131.185 132.551 111.144  1.00  0.00     0.094 A 
ATOM     10  C   UNL     1     130.914 133.453 112.177  1.00  0.00     0.146 A 
ATOM     11  O   UNL     1     129.688 133.502 112.686  1.00  0.00    -0.452 OA
ENDROOT
BRANCH   1  12
ATOM     12  C   UNL     1     127.941 134.275 114.159  1.00  0.00     0.021 A 
ATOM     13  C   UNL     1     126.943 134.980 113.466  1.00  0.00     0.016 A 
ATOM     14  C   UNL     1     125.613 134.930 113.894  1.00  0.00     0.047 A 
ATOM     15  C   UNL     1     125.262 134.161 115.012  1.00  0.00     0.115 A 
ATOM     16  C   UNL     1     127.577 133.490 115.269  1.00  0.00     0.016 A 
ATOM     17  C   UNL     1     126.247 133.440 115.694  1.00  0.00     0.047 A 
BRANCH  15  18
ATOM     18  O   UNL     1     123.941 134.104 115.448  1.00  0.00    -0.508 OA
ATOM     19  H   UNL     1     123.682 133.607 116.293  1.00  0.00     0.293 HD
ENDBRANCH  15  18
ENDBRANCH   1  12
BRANCH   2  20
ATOM     20  O   UNL     1     129.916 136.129 115.199  1.00  0.00    -0.502 OA
ATOM     21  H   UNL     1     130.569 136.793 115.598  1.00  0.00     0.293 HD
ENDBRANCH   2  20
BRANCH   6  22
ATOM     22  O   UNL     1     134.268 135.027 112.573  1.00  0.00    -0.507 OA
ATOM     23  H   UNL     1     134.585 135.834 112.049  1.00  0.00     0.293 HD
ENDBRANCH   6  22
BRANCH   8  24
ATOM     24  O   UNL     1     132.745 131.576 109.564  1.00  0.00    -0.508 OA
ATOM     25  H   UNL     1     132.897 131.890 108.613  1.00  0.00     0.293 HD
ENDBRANCH   8  24
TORSDOF 5
ENDMDL
MODEL 8
REMARK VINA RESULT:    -7.930      5.513      8.263
REMARK INTER + INTRA:          -9.613
REMARK INTER:                  -9.414
REMARK INTRA:                  -0.199
REMARK UNBOUND:                -0.293
REMARK SMILES O=c1c(O)c(-c2ccc(O)cc2)oc2cc(O)cc(O)c12
REMARK SMILES IDX 5 1 3 2 2 3 1 4 21 5 19 6 18 7 16 8 15 9 14 10 13 11 6 12
REMARK SMILES IDX 7 13 8 14 9 15 12 16 11 17 10 18 4 20 20 22 17 24
REMARK H PARENT 10 19 4 21 20 23 17 25
REMARK Flexibility Score: inf
ROOT
ATOM      1  C   UNL     1     131.129 133.829 111.599  1.00  0.00     0.180 A 
ATOM      2  C   UNL     1     132.403 133.270 111.819  1.00  0.00     0.208 A 
ATOM      3  C   UNL     1     132.973 133.363 113.098  1.00  0.00     0.238 A 
ATOM      4  O   UNL     1     134.118 132.876 113.305  1.00  0.00    -0.285 OA
ATOM      5  C   UNL     1     132.255 133.992 114.137  1.00  0.00     0.111 A 
ATOM      6  C   UNL     1     132.755 134.123 115.455  1.00  0.00     0.134 A 
ATOM      7  C   UNL     1     131.975 134.753 116.436  1.00  0.00     0.093 A 
ATOM      8  C   UNL     1     130.708 135.252 116.126  1.00  0.00     0.123 A 
ATOM      9  C   UNL     1     130.208 135.126 114.825  1.00  0.00     0.094 A 
ATOM     10  C   UNL     1     130.971 134.502 113.834  1.00  0.00     0.146 A 
ATOM     11  O   UNL     1     130.475 134.400 112.606  1.00  0.00    -0.452 OA
ENDROOT
BRANCH   1  12
ATOM     12  C   UNL     1     130.471 133.788 110.273  1.00  0.00     0.021 A 
ATOM     13  C   UNL     1     129.941 132.575 109.802  1.00  0.00     0.016 A 
ATOM     14  C   UNL     1     129.296 132.518 108.563  1.00  0.00     0.047 A 
ATOM     15  C   UNL     1     129.158 133.676 107.788  1.00  0.00     0.115 A 
ATOM     16  C   UNL     1     130.312 134.951 109.497  1.00  0.00     0.016 A 
ATOM     17  C   UNL     1     129.664 134.891 108.259  1.00  0.00     0.047 A 
BRANCH  15  18
ATOM     18  O   UNL     1     128.517 133.631 106.551  1.00  0.00    -0.508 OA
ATOM     19  H   UNL     1     129.003 133.869 105.694  1.00  0.00     0.293 HD
ENDBRANCH  15  18
ENDBRANCH   1  12
BRANCH   2  20
ATOM     20  O   UNL     1     133.073 132.610 110.786  1.00  0.00    -0.502 OA
ATOM     21  H   UNL     1     133.950 132.123 110.931  1.00  0.00     0.293 HD
ENDBRANCH   2  20
BRANCH   6  22
ATOM     22  O   UNL     1     134.017 133.633 115.797  1.00  0.00    -0.507 OA
ATOM     23  H   UNL     1     134.565 134.047 116.542  1.00  0.00     0.293 HD
ENDBRANCH   6  22
BRANCH   8  24
ATOM     24  O   UNL     1     129.953 135.874 117.118  1.00  0.00    -0.508 OA
ATOM     25  H   UNL     1     129.149 135.420 117.535  1.00  0.00     0.293 HD
ENDBRANCH   8  24
TORSDOF 5
ENDMDL
MODEL 9
REMARK VINA RESULT:    -7.879      4.680      7.808
REMARK INTER + INTRA:          -9.553
REMARK INTER:                  -9.299
REMARK INTRA:                  -0.254
REMARK UNBOUND:                -0.293
REMARK SMILES O=c1c(O)c(-c2ccc(O)cc2)oc2cc(O)cc(O)c12
REMARK SMILES IDX 5 1 3 2 2 3 1 4 21 5 19 6 18 7 16 8 15 9 14 10 13 11 6 12
REMARK SMILES IDX 7 13 8 14 9 15 12 16 11 17 10 18 4 20 20 22 17 24
REMARK H PARENT 10 19 4 21 20 23 17 25
REMARK Flexibility Score: inf
ROOT
ATOM      1  C   UNL     1     129.872 134.136 112.365  1.00  0.00     0.180 A 
ATOM      2  C   UNL     1     130.934 135.031 112.600  1.00  0.00     0.208 A 
ATOM      3  C   UNL     1     131.240 135.388 113.922  1.00  0.00     0.238 A 
ATOM      4  O   UNL     1     132.182 136.197 114.145  1.00  0.00    -0.285 OA
ATOM      5  C   UNL     1     130.496 134.833 114.984  1.00  0.00     0.111 A 
ATOM      6  C   UNL     1     130.743 135.137 116.345  1.00  0.00     0.134 A 
ATOM      7  C   UNL     1     129.964 134.536 117.345  1.00  0.00     0.093 A 
ATOM      8  C   UNL     1     128.948 133.638 117.012  1.00  0.00     0.123 A 
ATOM      9  C   UNL     1     128.699 133.334 115.669  1.00  0.00     0.094 A 
ATOM     10  C   UNL     1     129.463 133.924 114.658  1.00  0.00     0.146 A 
ATOM     11  O   UNL     1     129.203 133.621 113.392  1.00  0.00    -0.452 OA
ENDROOT
BRANCH   1  12
ATOM     12  C   UNL     1     129.477 133.727 110.998  1.00  0.00     0.021 A 
ATOM     13  C   UNL     1     130.215 132.733 110.334  1.00  0.00     0.016 A 
ATOM     14  C   UNL     1     129.848 132.314 109.052  1.00  0.00     0.047 A 
ATOM     15  C   UNL     1     128.726 132.873 108.425  1.00  0.00     0.115 A 
ATOM     16  C   UNL     1     128.342 134.269 110.369  1.00  0.00     0.016 A 
ATOM     17  C   UNL     1     127.974 133.847 109.087  1.00  0.00     0.047 A 
BRANCH  15  18
ATOM     18  O   UNL     1     128.350 132.464 107.147  1.00  0.00    -0.508 OA
ATOM     19  H   UNL     1     127.387 132.516 106.835  1.00  0.00     0.293 HD
ENDBRANCH  15  18
ENDBRANCH   1  12
BRANCH   2  20
ATOM     20  O   UNL     1     131.688 135.528 111.534  1.00  0.00    -0.502 OA
ATOM     21  H   UNL     1     132.276 134.935 110.961  1.00  0.00     0.293 HD
ENDBRANCH   2  20
BRANCH   6  22
ATOM     22  O   UNL     1     131.752 136.030 116.710  1.00  0.00    -0.507 OA
ATOM     23  H   UNL     1     131.581 137.025 116.788  1.00  0.00     0.293 HD
ENDBRANCH   6  22
BRANCH   8  24
ATOM     24  O   UNL     1     128.189 133.053 118.024  1.00  0.00    -0.508 OA
ATOM     25  H   UNL     1     127.422 133.547 118.464  1.00  0.00     0.293 HD
ENDBRANCH   8  24
TORSDOF 5
ENDMDL
