MODEL 1
REMARK VINA RESULT:    -3.290      0.000      0.000
REMARK INTER + INTRA:          -6.639
REMARK INTER:                  -5.214
REMARK INTRA:                  -1.425
REMARK UNBOUND:                -1.425
REMARK SMILES CCCCCCCCCCCC(=O)[O-]
REMARK SMILES IDX 7 1 8 2 9 3 10 4 11 5 12 6 13 7 14 8 6 9 5 10 4 11 3 12 2 13
REMARK SMILES IDX 1 14
REMARK H PARENT
REMARK Flexibility Score: inf
ROOT
ATOM      1  C   UNL     1       6.410 -31.153  14.732  1.00  0.00     0.000 C 
ENDROOT
BRANCH   1   2
ATOM      2  C   UNL     1       7.390 -32.071  15.482  1.00  0.00     0.000 C 
BRANCH   2   3
ATOM      3  C   UNL     1       8.289 -31.306  16.468  1.00  0.00     0.000 C 
BRANCH   3   4
ATOM      4  C   UNL     1       7.803 -29.871  16.718  1.00  0.00     0.006 C 
BRANCH   4   5
ATOM      5  C   UNL     1       7.801 -29.501  18.207  1.00  0.00     0.053 C 
BRANCH   5   6
ATOM      6  C   UNL     1       9.128 -28.939  18.608  1.00  0.00     0.041 C 
ATOM      7  O   UNL     1       9.520 -29.028  19.801  1.00  0.00    -0.550 OA
ATOM      8  O   UNL     1       9.955 -28.361  17.653  1.00  0.00    -0.550 OA
ENDBRANCH   5   6
ENDBRANCH   4   5
ENDBRANCH   3   4
ENDBRANCH   2   3
ENDBRANCH   1   2
BRANCH   1   9
ATOM      9  C   UNL     1       6.702 -31.045  13.220  1.00  0.00     0.000 C 
BRANCH   9  10
ATOM     10  C   UNL     1       7.047 -29.607  12.797  1.00  0.00    -0.000 C 
BRANCH  10  11
ATOM     11  C   UNL     1       8.492 -29.469  12.293  1.00  0.00    -0.000 C 
BRANCH  11  12
ATOM     12  C   UNL     1       9.285 -30.784  12.404  1.00  0.00    -0.000 C 
BRANCH  12  13
ATOM     13  C   UNL     1      10.484 -30.669  13.356  1.00  0.00    -0.003 C 
ATOM     14  C   UNL     1      10.499 -29.353  14.132  1.00  0.00     0.004 C 
ENDBRANCH  12  13
ENDBRANCH  11  12
ENDBRANCH  10  11
ENDBRANCH   9  10
ENDBRANCH   1   9
TORSDOF 10
ENDMDL
MODEL 2
REMARK VINA RESULT:    -3.250      2.132      4.876
REMARK INTER + INTRA:          -6.574
REMARK INTER:                  -5.743
REMARK INTRA:                  -0.831
REMARK UNBOUND:                -1.425
REMARK SMILES CCCCCCCCCCCC(=O)[O-]
REMARK SMILES IDX 7 1 8 2 9 3 10 4 11 5 12 6 13 7 14 8 6 9 5 10 4 11 3 12 2 13
REMARK SMILES IDX 1 14
REMARK H PARENT
REMARK Flexibility Score: inf
ROOT
ATOM      1  C   UNL     1       7.601 -31.262  15.405  1.00  0.00     0.000 C 
ENDROOT
BRANCH   1   2
ATOM      2  C   UNL     1       7.739 -29.878  14.747  1.00  0.00     0.000 C 
BRANCH   2   3
ATOM      3  C   UNL     1       7.339 -29.881  13.262  1.00  0.00     0.000 C 
BRANCH   3   4
ATOM      4  C   UNL     1       8.519 -30.198  12.332  1.00  0.00     0.006 C 
BRANCH   4   5
ATOM      5  C   UNL     1       9.631 -29.144  12.413  1.00  0.00     0.053 C 
BRANCH   5   6
ATOM      6  C   UNL     1      10.765 -29.644  13.252  1.00  0.00     0.041 C 
ATOM      7  O   UNL     1      11.172 -30.828  13.126  1.00  0.00    -0.550 OA
ATOM      8  O   UNL     1      11.403 -28.787  14.139  1.00  0.00    -0.550 OA
ENDBRANCH   5   6
ENDBRANCH   4   5
ENDBRANCH   3   4
ENDBRANCH   2   3
ENDBRANCH   1   2
BRANCH   1   9
ATOM      9  C   UNL     1       6.629 -31.280  16.603  1.00  0.00     0.000 C 
BRANCH   9  10
ATOM     10  C   UNL     1       6.071 -29.882  16.920  1.00  0.00    -0.000 C 
BRANCH  10  11
ATOM     11  C   UNL     1       6.591 -29.326  18.254  1.00  0.00    -0.000 C 
BRANCH  11  12
ATOM     12  C   UNL     1       7.976 -29.884  18.629  1.00  0.00    -0.000 C 
BRANCH  12  13
ATOM     13  C   UNL     1       9.024 -28.777  18.818  1.00  0.00    -0.003 C 
ATOM     14  C   UNL     1       9.794 -28.468  17.536  1.00  0.00     0.004 C 
ENDBRANCH  12  13
ENDBRANCH  11  12
ENDBRANCH  10  11
ENDBRANCH   9  10
ENDBRANCH   1   9
TORSDOF 10
ENDMDL
MODEL 3
REMARK VINA RESULT:    -3.236      1.450      2.512
REMARK INTER + INTRA:          -6.553
REMARK INTER:                  -5.106
REMARK INTRA:                  -1.447
REMARK UNBOUND:                -1.425
REMARK SMILES CCCCCCCCCCCC(=O)[O-]
REMARK SMILES IDX 7 1 8 2 9 3 10 4 11 5 12 6 13 7 14 8 6 9 5 10 4 11 3 12 2 13
REMARK SMILES IDX 1 14
REMARK H PARENT
REMARK Flexibility Score: inf
ROOT
ATOM      1  C   UNL     1       7.453 -29.514  12.548  1.00  0.00     0.000 C 
ENDROOT
BRANCH   1   2
ATOM      2  C   UNL     1       6.862 -30.669  13.372  1.00  0.00     0.000 C 
BRANCH   2   3
ATOM      3  C   UNL     1       6.714 -30.324  14.864  1.00  0.00     0.000 C 
BRANCH   3   4
ATOM      4  C   UNL     1       7.949 -30.718  15.686  1.00  0.00     0.006 C 
BRANCH   4   5
ATOM      5  C   UNL     1       8.668 -29.504  16.288  1.00  0.00     0.053 C 
BRANCH   5   6
ATOM      6  C   UNL     1       8.536 -29.505  17.779  1.00  0.00     0.041 C 
ATOM      7  O   UNL     1       9.491 -29.115  18.500  1.00  0.00    -0.550 OA
ATOM      8  O   UNL     1       7.339 -29.890  18.370  1.00  0.00    -0.550 OA
ENDBRANCH   5   6
ENDBRANCH   4   5
ENDBRANCH   3   4
ENDBRANCH   2   3
ENDBRANCH   1   2
BRANCH   1   9
ATOM      9  C   UNL     1       8.850 -29.822  11.969  1.00  0.00     0.000 C 
BRANCH   9  10
ATOM     10  C   UNL     1       9.974 -29.143  12.772  1.00  0.00    -0.000 C 
BRANCH  10  11
ATOM     11  C   UNL     1      10.964 -30.153  13.373  1.00  0.00    -0.000 C 
BRANCH  11  12
ATOM     12  C   UNL     1      11.110 -31.422  12.515  1.00  0.00    -0.000 C 
BRANCH  12  13
ATOM     13  C   UNL     1      11.111 -32.706  13.358  1.00  0.00    -0.003 C 
ATOM     14  C   UNL     1       9.702 -33.192  13.693  1.00  0.00     0.004 C 
ENDBRANCH  12  13
ENDBRANCH  11  12
ENDBRANCH  10  11
ENDBRANCH   9  10
ENDBRANCH   1   9
TORSDOF 10
ENDMDL
MODEL 4
REMARK VINA RESULT:    -3.226      1.162      1.842
REMARK INTER + INTRA:          -6.536
REMARK INTER:                  -5.230
REMARK INTRA:                  -1.306
REMARK UNBOUND:                -1.425
REMARK SMILES CCCCCCCCCCCC(=O)[O-]
REMARK SMILES IDX 7 1 8 2 9 3 10 4 11 5 12 6 13 7 14 8 6 9 5 10 4 11 3 12 2 13
REMARK SMILES IDX 1 14
REMARK H PARENT
REMARK Flexibility Score: inf
ROOT
ATOM      1  C   UNL     1       7.458 -32.425  15.462  1.00  0.00     0.000 C 
ENDROOT
BRANCH   1   2
ATOM      2  C   UNL     1       6.468 -31.249  15.420  1.00  0.00     0.000 C 
BRANCH   2   3
ATOM      3  C   UNL     1       7.148 -29.887  15.635  1.00  0.00     0.000 C 
BRANCH   3   4
ATOM      4  C   UNL     1       8.465 -30.001  16.416  1.00  0.00     0.006 C 
BRANCH   4   5
ATOM      5  C   UNL     1       8.266 -29.856  17.930  1.00  0.00     0.053 C 
BRANCH   5   6
ATOM      6  C   UNL     1       9.301 -28.941  18.508  1.00  0.00     0.041 C 
ATOM      7  O   UNL     1       9.484 -28.897  19.752  1.00  0.00    -0.550 OA
ATOM      8  O   UNL     1      10.097 -28.174  17.666  1.00  0.00    -0.550 OA
ENDBRANCH   5   6
ENDBRANCH   4   5
ENDBRANCH   3   4
ENDBRANCH   2   3
ENDBRANCH   1   2
BRANCH   1   9
ATOM      9  C   UNL     1       8.106 -32.735  14.096  1.00  0.00     0.000 C 
BRANCH   9  10
ATOM     10  C   UNL     1       9.637 -32.844  14.191  1.00  0.00    -0.000 C 
BRANCH  10  11
ATOM     11  C   UNL     1      10.359 -31.741  13.401  1.00  0.00    -0.000 C 
BRANCH  11  12
ATOM     12  C   UNL     1       9.383 -30.775  12.706  1.00  0.00    -0.000 C 
BRANCH  12  13
ATOM     13  C   UNL     1       9.838 -29.311  12.800  1.00  0.00    -0.003 C 
ATOM     14  C   UNL     1      10.940 -29.100  13.837  1.00  0.00     0.004 C 
ENDBRANCH  12  13
ENDBRANCH  11  12
ENDBRANCH  10  11
ENDBRANCH   9  10
ENDBRANCH   1   9
TORSDOF 10
ENDMDL
MODEL 5
REMARK VINA RESULT:    -3.099      2.052      3.161
REMARK INTER + INTRA:          -6.335
REMARK INTER:                  -5.280
REMARK INTRA:                  -1.055
REMARK UNBOUND:                -1.425
REMARK SMILES CCCCCCCCCCCC(=O)[O-]
REMARK SMILES IDX 7 1 8 2 9 3 10 4 11 5 12 6 13 7 14 8 6 9 5 10 4 11 3 12 2 13
REMARK SMILES IDX 1 14
REMARK H PARENT
REMARK Flexibility Score: inf
ROOT
ATOM      1  C   UNL     1       9.620 -29.497  14.803  1.00  0.00     0.000 C 
ENDROOT
BRANCH   1   2
ATOM      2  C   UNL     1       8.228 -29.816  14.232  1.00  0.00     0.000 C 
BRANCH   2   3
ATOM      3  C   UNL     1       7.517 -30.950  14.989  1.00  0.00     0.000 C 
BRANCH   3   4
ATOM      4  C   UNL     1       8.322 -31.448  16.198  1.00  0.00     0.006 C 
BRANCH   4   5
ATOM      5  C   UNL     1       7.521 -31.385  17.505  1.00  0.00     0.053 C 
BRANCH   5   6
ATOM      6  C   UNL     1       7.496 -29.986  18.035  1.00  0.00     0.041 C 
ATOM      7  O   UNL     1       8.572 -29.366  18.240  1.00  0.00    -0.550 OA
ATOM      8  O   UNL     1       6.281 -29.348  18.254  1.00  0.00    -0.550 OA
ENDBRANCH   5   6
ENDBRANCH   4   5
ENDBRANCH   3   4
ENDBRANCH   2   3
ENDBRANCH   1   2
BRANCH   1   9
ATOM      9  C   UNL     1      10.748 -29.562  13.752  1.00  0.00     0.000 C 
BRANCH   9  10
ATOM     10  C   UNL     1      10.295 -30.257  12.457  1.00  0.00    -0.000 C 
BRANCH  10  11
ATOM     11  C   UNL     1      10.927 -31.647  12.280  1.00  0.00    -0.000 C 
BRANCH  11  12
ATOM     12  C   UNL     1      10.589 -32.603  13.438  1.00  0.00    -0.000 C 
BRANCH  12  13
ATOM     13  C   UNL     1      11.682 -33.657  13.669  1.00  0.00    -0.003 C 
ATOM     14  C   UNL     1      12.240 -34.224  12.364  1.00  0.00     0.004 C 
ENDBRANCH  12  13
ENDBRANCH  11  12
ENDBRANCH  10  11
ENDBRANCH   9  10
ENDBRANCH   1   9
TORSDOF 10
ENDMDL
MODEL 6
REMARK VINA RESULT:    -3.086      2.236      4.619
REMARK INTER + INTRA:          -6.315
REMARK INTER:                  -5.026
REMARK INTRA:                  -1.289
REMARK UNBOUND:                -1.425
REMARK SMILES CCCCCCCCCCCC(=O)[O-]
REMARK SMILES IDX 7 1 8 2 9 3 10 4 11 5 12 6 13 7 14 8 6 9 5 10 4 11 3 12 2 13
REMARK SMILES IDX 1 14
REMARK H PARENT
REMARK Flexibility Score: inf
ROOT
ATOM      1  C   UNL     1       7.277 -32.545  13.792  1.00  0.00     0.000 C 
ENDROOT
BRANCH   1   2
ATOM      2  C   UNL     1       6.300 -31.373  13.980  1.00  0.00     0.000 C 
BRANCH   2   3
ATOM      3  C   UNL     1       6.917 -30.015  13.605  1.00  0.00     0.000 C 
BRANCH   3   4
ATOM      4  C   UNL     1       8.397 -30.127  13.210  1.00  0.00     0.006 C 
BRANCH   4   5
ATOM      5  C   UNL     1       9.334 -29.509  14.256  1.00  0.00     0.053 C 
BRANCH   5   6
ATOM      6  C   UNL     1      10.747 -29.525  13.764  1.00  0.00     0.041 C 
ATOM      7  O   UNL     1      11.129 -30.415  12.961  1.00  0.00    -0.550 OA
ATOM      8  O   UNL     1      11.630 -28.526  14.156  1.00  0.00    -0.550 OA
ENDBRANCH   5   6
ENDBRANCH   4   5
ENDBRANCH   3   4
ENDBRANCH   2   3
ENDBRANCH   1   2
BRANCH   1   9
ATOM      9  C   UNL     1       7.251 -33.561  14.954  1.00  0.00     0.000 C 
BRANCH   9  10
ATOM     10  C   UNL     1       6.614 -32.974  16.225  1.00  0.00    -0.000 C 
BRANCH  10  11
ATOM     11  C   UNL     1       7.656 -32.601  17.291  1.00  0.00    -0.000 C 
BRANCH  11  12
ATOM     12  C   UNL     1       8.074 -31.122  17.218  1.00  0.00    -0.000 C 
BRANCH  12  13
ATOM     13  C   UNL     1       7.180 -30.214  18.077  1.00  0.00    -0.003 C 
ATOM     14  C   UNL     1       6.072 -29.543  17.268  1.00  0.00     0.004 C 
ENDBRANCH  12  13
ENDBRANCH  11  12
ENDBRANCH  10  11
ENDBRANCH   9  10
ENDBRANCH   1   9
TORSDOF 10
ENDMDL
MODEL 7
REMARK VINA RESULT:    -3.038      1.426      2.385
REMARK INTER + INTRA:          -6.238
REMARK INTER:                  -4.993
REMARK INTRA:                  -1.246
REMARK UNBOUND:                -1.425
REMARK SMILES CCCCCCCCCCCC(=O)[O-]
REMARK SMILES IDX 7 1 8 2 9 3 10 4 11 5 12 6 13 7 14 8 6 9 5 10 4 11 3 12 2 13
REMARK SMILES IDX 1 14
REMARK H PARENT
REMARK Flexibility Score: inf
ROOT
ATOM      1  C   UNL     1       7.701 -32.750  15.833  1.00  0.00     0.000 C 
ENDROOT
BRANCH   1   2
ATOM      2  C   UNL     1       6.740 -32.160  16.880  1.00  0.00     0.000 C 
BRANCH   2   3
ATOM      3  C   UNL     1       6.124 -30.823  16.438  1.00  0.00     0.000 C 
BRANCH   3   4
ATOM      4  C   UNL     1       6.373 -29.694  17.449  1.00  0.00     0.006 C 
BRANCH   4   5
ATOM      5  C   UNL     1       7.405 -30.078  18.517  1.00  0.00     0.053 C 
BRANCH   5   6
ATOM      6  C   UNL     1       8.678 -29.320  18.310  1.00  0.00     0.041 C 
ATOM      7  O   UNL     1       9.323 -28.881  19.297  1.00  0.00    -0.550 OA
ATOM      8  O   UNL     1       9.179 -29.141  17.026  1.00  0.00    -0.550 OA
ENDBRANCH   5   6
ENDBRANCH   4   5
ENDBRANCH   3   4
ENDBRANCH   2   3
ENDBRANCH   1   2
BRANCH   1   9
ATOM      9  C   UNL     1       7.060 -33.845  14.956  1.00  0.00     0.000 C 
BRANCH   9  10
ATOM     10  C   UNL     1       6.385 -33.263  13.702  1.00  0.00    -0.000 C 
BRANCH  10  11
ATOM     11  C   UNL     1       7.331 -32.375  12.879  1.00  0.00    -0.000 C 
BRANCH  11  12
ATOM     12  C   UNL     1       6.619 -31.151  12.277  1.00  0.00    -0.000 C 
BRANCH  12  13
ATOM     13  C   UNL     1       6.953 -29.850  13.023  1.00  0.00    -0.003 C 
ATOM     14  C   UNL     1       8.369 -29.845  13.597  1.00  0.00     0.004 C 
ENDBRANCH  12  13
ENDBRANCH  11  12
ENDBRANCH  10  11
ENDBRANCH   9  10
ENDBRANCH   1   9
TORSDOF 10
ENDMDL
MODEL 8
REMARK VINA RESULT:    -3.022      1.705      2.587
REMARK INTER + INTRA:          -6.213
REMARK INTER:                  -4.848
REMARK INTRA:                  -1.366
REMARK UNBOUND:                -1.425
REMARK SMILES CCCCCCCCCCCC(=O)[O-]
REMARK SMILES IDX 7 1 8 2 9 3 10 4 11 5 12 6 13 7 14 8 6 9 5 10 4 11 3 12 2 13
REMARK SMILES IDX 1 14
REMARK H PARENT
REMARK Flexibility Score: inf
ROOT
ATOM      1  C   UNL     1       8.516 -33.101  14.483  1.00  0.00     0.000 C 
ENDROOT
BRANCH   1   2
ATOM      2  C   UNL     1       7.312 -32.172  14.254  1.00  0.00     0.000 C 
BRANCH   2   3
ATOM      3  C   UNL     1       7.468 -30.808  14.947  1.00  0.00     0.000 C 
BRANCH   3   4
ATOM      4  C   UNL     1       8.450 -30.855  16.127  1.00  0.00     0.006 C 
BRANCH   4   5
ATOM      5  C   UNL     1       7.747 -31.091  17.470  1.00  0.00     0.053 C 
BRANCH   5   6
ATOM      6  C   UNL     1       7.519 -29.790  18.175  1.00  0.00     0.041 C 
ATOM      7  O   UNL     1       8.491 -29.146  18.647  1.00  0.00    -0.550 OA
ATOM      8  O   UNL     1       6.236 -29.266  18.267  1.00  0.00    -0.550 OA
ENDBRANCH   5   6
ENDBRANCH   4   5
ENDBRANCH   3   4
ENDBRANCH   2   3
ENDBRANCH   1   2
BRANCH   1   9
ATOM      9  C   UNL     1       9.446 -33.217  13.257  1.00  0.00     0.000 C 
BRANCH   9  10
ATOM     10  C   UNL     1      10.899 -32.839  13.593  1.00  0.00    -0.000 C 
BRANCH  10  11
ATOM     11  C   UNL     1      11.382 -31.601  12.821  1.00  0.00    -0.000 C 
BRANCH  11  12
ATOM     12  C   UNL     1      10.238 -30.874  12.094  1.00  0.00    -0.000 C 
BRANCH  12  13
ATOM     13  C   UNL     1      10.011 -29.451  12.628  1.00  0.00    -0.003 C 
ATOM     14  C   UNL     1      10.894 -29.125  13.831  1.00  0.00     0.004 C 
ENDBRANCH  12  13
ENDBRANCH  11  12
ENDBRANCH  10  11
ENDBRANCH   9  10
ENDBRANCH   1   9
TORSDOF 10
ENDMDL
MODEL 9
REMARK VINA RESULT:    -2.956      1.651      3.585
REMARK INTER + INTRA:          -6.109
REMARK INTER:                  -4.702
REMARK INTRA:                  -1.407
REMARK UNBOUND:                -1.425
REMARK SMILES CCCCCCCCCCCC(=O)[O-]
REMARK SMILES IDX 7 1 8 2 9 3 10 4 11 5 12 6 13 7 14 8 6 9 5 10 4 11 3 12 2 13
REMARK SMILES IDX 1 14
REMARK H PARENT
REMARK Flexibility Score: inf
ROOT
ATOM      1  C   UNL     1      11.019 -30.554  13.314  1.00  0.00     0.000 C 
ENDROOT
BRANCH   1   2
ATOM      2  C   UNL     1       9.968 -29.473  13.009  1.00  0.00     0.000 C 
BRANCH   2   3
ATOM      3  C   UNL     1       8.775 -29.509  13.979  1.00  0.00     0.000 C 
BRANCH   3   4
ATOM      4  C   UNL     1       9.211 -29.501  15.451  1.00  0.00     0.006 C 
BRANCH   4   5
ATOM      5  C   UNL     1       8.217 -30.231  16.363  1.00  0.00     0.053 C 
BRANCH   5   6
ATOM      6  C   UNL     1       8.347 -29.745  17.773  1.00  0.00     0.041 C 
ATOM      7  O   UNL     1       7.535 -30.130  18.654  1.00  0.00    -0.550 OA
ATOM      8  O   UNL     1       9.396 -28.905  18.123  1.00  0.00    -0.550 OA
ENDBRANCH   5   6
ENDBRANCH   4   5
ENDBRANCH   3   4
ENDBRANCH   2   3
ENDBRANCH   1   2
BRANCH   1   9
ATOM      9  C   UNL     1      10.607 -31.964  12.843  1.00  0.00     0.000 C 
BRANCH   9  10
ATOM     10  C   UNL     1      10.314 -32.908  14.022  1.00  0.00    -0.000 C 
BRANCH  10  11
ATOM     11  C   UNL     1       8.820 -33.244  14.153  1.00  0.00    -0.000 C 
BRANCH  11  12
ATOM     12  C   UNL     1       8.021 -32.894  12.885  1.00  0.00    -0.000 C 
BRANCH  12  13
ATOM     13  C   UNL     1       6.518 -32.739  13.160  1.00  0.00    -0.003 C 
ATOM     14  C   UNL     1       5.973 -31.382  12.716  1.00  0.00     0.004 C 
ENDBRANCH  12  13
ENDBRANCH  11  12
ENDBRANCH  10  11
ENDBRANCH   9  10
ENDBRANCH   1   9
TORSDOF 10
ENDMDL
