MODEL 1
REMARK VINA RESULT:    -4.316      0.000      0.000
REMARK INTER + INTRA:         -13.027
REMARK INTER:                  -9.363
REMARK INTRA:                  -3.664
REMARK UNBOUND:                -3.664
REMARK SMILES CCCCCCCCCCCCCCCCCCCCCC(=O)[O-]
REMARK SMILES IDX 12 1 11 2 10 3 9 4 8 5 7 6 6 7 5 8 4 9 3 10 2 11 1 12 13 13
REMARK SMILES IDX 14 14 15 15 16 16 17 17 18 18 19 19 20 20 21 21 22 22 23 23
REMARK SMILES IDX 24 24
REMARK H PARENT
REMARK Flexibility Score: inf
ROOT
ATOM      1  C   UNL     1     -52.848  15.273 -28.160  1.00  0.00     0.000 C 
ENDROOT
BRANCH   1   2
ATOM      2  C   UNL     1     -53.492  16.465 -27.435  1.00  0.00     0.000 C 
BRANCH   2   3
ATOM      3  C   UNL     1     -52.940  17.818 -27.907  1.00  0.00     0.000 C 
BRANCH   3   4
ATOM      4  C   UNL     1     -53.879  18.460 -28.940  1.00  0.00    -0.000 C 
BRANCH   4   5
ATOM      5  C   UNL     1     -53.273  18.507 -30.353  1.00  0.00    -0.000 C 
BRANCH   5   6
ATOM      6  C   UNL     1     -51.803  18.048 -30.451  1.00  0.00    -0.000 C 
BRANCH   6   7
ATOM      7  C   UNL     1     -51.552  16.870 -31.409  1.00  0.00    -0.000 C 
BRANCH   7   8
ATOM      8  C   UNL     1     -50.464  15.909 -30.898  1.00  0.00    -0.000 C 
BRANCH   8   9
ATOM      9  C   UNL     1     -50.395  14.605 -31.708  1.00  0.00    -0.000 C 
BRANCH   9  10
ATOM     10  C   UNL     1     -49.547  13.524 -31.015  1.00  0.00    -0.000 C 
BRANCH  10  11
ATOM     11  C   UNL     1     -49.804  13.455 -29.502  1.00  0.00    -0.003 C 
ATOM     12  C   UNL     1     -49.366  12.125 -28.886  1.00  0.00     0.004 C 
ENDBRANCH  10  11
ENDBRANCH   9  10
ENDBRANCH   8   9
ENDBRANCH   7   8
ENDBRANCH   6   7
ENDBRANCH   5   6
ENDBRANCH   4   5
ENDBRANCH   3   4
ENDBRANCH   2   3
ENDBRANCH   1   2
BRANCH   1  13
ATOM     13  C   UNL     1     -53.890  14.301 -28.739  1.00  0.00     0.000 C 
BRANCH  13  14
ATOM     14  C   UNL     1     -53.824  14.209 -30.273  1.00  0.00     0.000 C 
BRANCH  14  15
ATOM     15  C   UNL     1     -53.470  12.793 -30.763  1.00  0.00     0.000 C 
BRANCH  15  16
ATOM     16  C   UNL     1     -53.083  11.850 -29.613  1.00  0.00     0.000 C 
BRANCH  16  17
ATOM     17  C   UNL     1     -52.572  10.489 -30.108  1.00  0.00     0.000 C 
BRANCH  17  18
ATOM     18  C   UNL     1     -51.786  10.640 -31.417  1.00  0.00     0.000 C 
BRANCH  18  19
ATOM     19  C   UNL     1     -51.599   9.284 -32.107  1.00  0.00     0.000 C 
BRANCH  19  20
ATOM     20  C   UNL     1     -50.165   9.130 -32.637  1.00  0.00     0.006 C 
BRANCH  20  21
ATOM     21  C   UNL     1     -49.156   9.956 -31.828  1.00  0.00     0.053 C 
BRANCH  21  22
ATOM     22  C   UNL     1     -48.072   9.101 -31.249  1.00  0.00     0.041 C 
ATOM     23  O   UNL     1     -47.847   9.113 -30.010  1.00  0.00    -0.550 OA
ATOM     24  O   UNL     1     -47.285   8.315 -32.081  1.00  0.00    -0.550 OA
ENDBRANCH  21  22
ENDBRANCH  20  21
ENDBRANCH  19  20
ENDBRANCH  18  19
ENDBRANCH  17  18
ENDBRANCH  16  17
ENDBRANCH  15  16
ENDBRANCH  14  15
ENDBRANCH  13  14
ENDBRANCH   1  13
TORSDOF 20
ENDMDL
MODEL 2
REMARK VINA RESULT:    -4.304      3.081      7.885
REMARK INTER + INTRA:         -13.000
REMARK INTER:                 -10.014
REMARK INTRA:                  -2.986
REMARK UNBOUND:                -3.664
REMARK SMILES CCCCCCCCCCCCCCCCCCCCCC(=O)[O-]
REMARK SMILES IDX 12 1 11 2 10 3 9 4 8 5 7 6 6 7 5 8 4 9 3 10 2 11 1 12 13 13
REMARK SMILES IDX 14 14 15 15 16 16 17 17 18 18 19 19 20 20 21 21 22 22 23 23
REMARK SMILES IDX 24 24
REMARK H PARENT
REMARK Flexibility Score: inf
ROOT
ATOM      1  C   UNL     1     -48.521  11.724 -28.880  1.00  0.00     0.000 C 
ENDROOT
BRANCH   1   2
ATOM      2  C   UNL     1     -48.487  10.193 -29.010  1.00  0.00     0.000 C 
BRANCH   2   3
ATOM      3  C   UNL     1     -47.188   9.679 -29.649  1.00  0.00     0.000 C 
BRANCH   3   4
ATOM      4  C   UNL     1     -47.429   8.351 -30.383  1.00  0.00    -0.000 C 
BRANCH   4   5
ATOM      5  C   UNL     1     -47.092   8.425 -31.882  1.00  0.00    -0.000 C 
BRANCH   5   6
ATOM      6  C   UNL     1     -47.951   7.523 -32.793  1.00  0.00    -0.000 C 
BRANCH   6   7
ATOM      7  C   UNL     1     -49.410   7.977 -32.968  1.00  0.00    -0.000 C 
BRANCH   7   8
ATOM      8  C   UNL     1     -49.578   9.502 -32.836  1.00  0.00    -0.000 C 
BRANCH   8   9
ATOM      9  C   UNL     1     -50.849   9.894 -32.067  1.00  0.00    -0.000 C 
BRANCH   9  10
ATOM     10  C   UNL     1     -51.199   8.890 -30.955  1.00  0.00    -0.000 C 
BRANCH  10  11
ATOM     11  C   UNL     1     -52.578   9.160 -30.332  1.00  0.00    -0.003 C 
ATOM     12  C   UNL     1     -52.965  10.639 -30.363  1.00  0.00     0.004 C 
ENDBRANCH  10  11
ENDBRANCH   9  10
ENDBRANCH   8   9
ENDBRANCH   7   8
ENDBRANCH   6   7
ENDBRANCH   5   6
ENDBRANCH   4   5
ENDBRANCH   3   4
ENDBRANCH   2   3
ENDBRANCH   1   2
BRANCH   1  13
ATOM     13  C   UNL     1     -49.827  12.332 -29.418  1.00  0.00     0.000 C 
BRANCH  13  14
ATOM     14  C   UNL     1     -49.618  13.125 -30.720  1.00  0.00     0.000 C 
BRANCH  14  15
ATOM     15  C   UNL     1     -50.838  13.988 -31.086  1.00  0.00     0.000 C 
BRANCH  15  16
ATOM     16  C   UNL     1     -51.699  14.342 -29.864  1.00  0.00     0.000 C 
BRANCH  16  17
ATOM     17  C   UNL     1     -53.205  14.292 -30.163  1.00  0.00     0.000 C 
BRANCH  17  18
ATOM     18  C   UNL     1     -54.017  14.847 -28.986  1.00  0.00     0.000 C 
BRANCH  18  19
ATOM     19  C   UNL     1     -53.109  15.564 -27.980  1.00  0.00     0.000 C 
BRANCH  19  20
ATOM     20  C   UNL     1     -53.419  17.068 -27.935  1.00  0.00     0.006 C 
BRANCH  20  21
ATOM     21  C   UNL     1     -52.257  17.916 -28.471  1.00  0.00     0.053 C 
BRANCH  21  22
ATOM     22  C   UNL     1     -52.208  17.912 -29.968  1.00  0.00     0.041 C 
ATOM     23  O   UNL     1     -53.268  18.013 -30.638  1.00  0.00    -0.550 OA
ATOM     24  O   UNL     1     -50.994  17.759 -30.624  1.00  0.00    -0.550 OA
ENDBRANCH  21  22
ENDBRANCH  20  21
ENDBRANCH  19  20
ENDBRANCH  18  19
ENDBRANCH  17  18
ENDBRANCH  16  17
ENDBRANCH  15  16
ENDBRANCH  14  15
ENDBRANCH  13  14
ENDBRANCH   1  13
TORSDOF 20
ENDMDL
MODEL 3
REMARK VINA RESULT:    -4.255      1.757      4.894
REMARK INTER + INTRA:         -12.895
REMARK INTER:                  -9.746
REMARK INTRA:                  -3.149
REMARK UNBOUND:                -3.664
REMARK SMILES CCCCCCCCCCCCCCCCCCCCCC(=O)[O-]
REMARK SMILES IDX 12 1 11 2 10 3 9 4 8 5 7 6 6 7 5 8 4 9 3 10 2 11 1 12 13 13
REMARK SMILES IDX 14 14 15 15 16 16 17 17 18 18 19 19 20 20 21 21 22 22 23 23
REMARK SMILES IDX 24 24
REMARK H PARENT
REMARK Flexibility Score: inf
ROOT
ATOM      1  C   UNL     1     -50.072  10.434 -31.553  1.00  0.00     0.000 C 
ENDROOT
BRANCH   1   2
ATOM      2  C   UNL     1     -49.962  10.365 -30.022  1.00  0.00     0.000 C 
BRANCH   2   3
ATOM      3  C   UNL     1     -49.778  11.746 -29.376  1.00  0.00     0.000 C 
BRANCH   3   4
ATOM      4  C   UNL     1     -49.333  12.782 -30.420  1.00  0.00    -0.000 C 
BRANCH   4   5
ATOM      5  C   UNL     1     -50.209  14.047 -30.419  1.00  0.00    -0.000 C 
BRANCH   5   6
ATOM      6  C   UNL     1     -51.456  13.982 -31.326  1.00  0.00    -0.000 C 
BRANCH   6   7
ATOM      7  C   UNL     1     -52.799  14.154 -30.597  1.00  0.00    -0.000 C 
BRANCH   7   8
ATOM      8  C   UNL     1     -52.668  14.026 -29.069  1.00  0.00    -0.000 C 
BRANCH   8   9
ATOM      9  C   UNL     1     -52.981  15.339 -28.334  1.00  0.00    -0.000 C 
BRANCH   9  10
ATOM     10  C   UNL     1     -53.186  16.520 -29.297  1.00  0.00    -0.000 C 
BRANCH  10  11
ATOM     11  C   UNL     1     -52.069  17.569 -29.188  1.00  0.00    -0.003 C 
ATOM     12  C   UNL     1     -51.366  17.829 -30.521  1.00  0.00     0.004 C 
ENDBRANCH  10  11
ENDBRANCH   9  10
ENDBRANCH   8   9
ENDBRANCH   7   8
ENDBRANCH   6   7
ENDBRANCH   5   6
ENDBRANCH   4   5
ENDBRANCH   3   4
ENDBRANCH   2   3
ENDBRANCH   1   2
BRANCH   1  13
ATOM     13  C   UNL     1     -51.512  10.221 -32.051  1.00  0.00     0.000 C 
BRANCH  13  14
ATOM     14  C   UNL     1     -52.292   9.213 -31.189  1.00  0.00     0.000 C 
BRANCH  14  15
ATOM     15  C   UNL     1     -53.136   8.244 -32.036  1.00  0.00     0.000 C 
BRANCH  15  16
ATOM     16  C   UNL     1     -52.820   8.342 -33.536  1.00  0.00     0.000 C 
BRANCH  16  17
ATOM     17  C   UNL     1     -52.557   6.971 -34.179  1.00  0.00     0.000 C 
BRANCH  17  18
ATOM     18  C   UNL     1     -51.470   6.207 -33.413  1.00  0.00     0.000 C 
BRANCH  18  19
ATOM     19  C   UNL     1     -50.122   6.933 -33.497  1.00  0.00     0.000 C 
BRANCH  19  20
ATOM     20  C   UNL     1     -49.397   6.904 -32.143  1.00  0.00     0.006 C 
BRANCH  20  21
ATOM     21  C   UNL     1     -47.885   7.126 -32.290  1.00  0.00     0.053 C 
BRANCH  21  22
ATOM     22  C   UNL     1     -47.285   7.714 -31.050  1.00  0.00     0.041 C 
ATOM     23  O   UNL     1     -47.238   7.042 -29.987  1.00  0.00    -0.550 OA
ATOM     24  O   UNL     1     -46.810   9.019 -31.057  1.00  0.00    -0.550 OA
ENDBRANCH  21  22
ENDBRANCH  20  21
ENDBRANCH  19  20
ENDBRANCH  18  19
ENDBRANCH  17  18
ENDBRANCH  16  17
ENDBRANCH  15  16
ENDBRANCH  14  15
ENDBRANCH  13  14
ENDBRANCH   1  13
TORSDOF 20
ENDMDL
MODEL 4
REMARK VINA RESULT:    -4.254      1.216      4.409
REMARK INTER + INTRA:         -12.892
REMARK INTER:                  -9.639
REMARK INTRA:                  -3.253
REMARK UNBOUND:                -3.664
REMARK SMILES CCCCCCCCCCCCCCCCCCCCCC(=O)[O-]
REMARK SMILES IDX 12 1 11 2 10 3 9 4 8 5 7 6 6 7 5 8 4 9 3 10 2 11 1 12 13 13
REMARK SMILES IDX 14 14 15 15 16 16 17 17 18 18 19 19 20 20 21 21 22 22 23 23
REMARK SMILES IDX 24 24
REMARK H PARENT
REMARK Flexibility Score: inf
ROOT
ATOM      1  C   UNL     1     -49.218  13.005 -29.607  1.00  0.00     0.000 C 
ENDROOT
BRANCH   1   2
ATOM      2  C   UNL     1     -49.664  13.396 -31.025  1.00  0.00     0.000 C 
BRANCH   2   3
ATOM      3  C   UNL     1     -50.904  14.301 -31.029  1.00  0.00     0.000 C 
BRANCH   3   4
ATOM      4  C   UNL     1     -52.147  13.521 -31.483  1.00  0.00    -0.000 C 
BRANCH   4   5
ATOM      5  C   UNL     1     -53.405  13.872 -30.669  1.00  0.00    -0.000 C 
BRANCH   5   6
ATOM      6  C   UNL     1     -53.432  13.313 -29.231  1.00  0.00    -0.000 C 
BRANCH   6   7
ATOM      7  C   UNL     1     -53.727  14.352 -28.135  1.00  0.00    -0.000 C 
BRANCH   7   8
ATOM      8  C   UNL     1     -52.707  15.505 -28.119  1.00  0.00    -0.000 C 
BRANCH   8   9
ATOM      9  C   UNL     1     -53.319  16.832 -27.644  1.00  0.00    -0.000 C 
BRANCH   9  10
ATOM     10  C   UNL     1     -52.977  18.007 -28.577  1.00  0.00    -0.000 C 
BRANCH  10  11
ATOM     11  C   UNL     1     -52.624  17.545 -29.999  1.00  0.00    -0.003 C 
ATOM     12  C   UNL     1     -51.256  18.044 -30.463  1.00  0.00     0.004 C 
ENDBRANCH  10  11
ENDBRANCH   9  10
ENDBRANCH   8   9
ENDBRANCH   7   8
ENDBRANCH   6   7
ENDBRANCH   5   6
ENDBRANCH   4   5
ENDBRANCH   3   4
ENDBRANCH   2   3
ENDBRANCH   1   2
BRANCH   1  13
ATOM     13  C   UNL     1     -50.068  11.868 -29.014  1.00  0.00     0.000 C 
BRANCH  13  14
ATOM     14  C   UNL     1     -50.021  10.588 -29.865  1.00  0.00     0.000 C 
BRANCH  14  15
ATOM     15  C   UNL     1     -51.424  10.066 -30.222  1.00  0.00     0.000 C 
BRANCH  15  16
ATOM     16  C   UNL     1     -51.620   9.887 -31.736  1.00  0.00     0.000 C 
BRANCH  16  17
ATOM     17  C   UNL     1     -50.312   9.552 -32.468  1.00  0.00     0.000 C 
BRANCH  17  18
ATOM     18  C   UNL     1     -50.296   8.086 -32.920  1.00  0.00     0.000 C 
BRANCH  18  19
ATOM     19  C   UNL     1     -50.284   7.138 -31.714  1.00  0.00     0.000 C 
BRANCH  19  20
ATOM     20  C   UNL     1     -48.865   6.617 -31.439  1.00  0.00     0.006 C 
BRANCH  20  21
ATOM     21  C   UNL     1     -48.178   7.379 -30.297  1.00  0.00     0.053 C 
BRANCH  21  22
ATOM     22  C   UNL     1     -47.162   8.354 -30.809  1.00  0.00     0.041 C 
ATOM     23  O   UNL     1     -46.867   8.379 -32.032  1.00  0.00    -0.550 OA
ATOM     24  O   UNL     1     -46.514   9.211 -29.929  1.00  0.00    -0.550 OA
ENDBRANCH  21  22
ENDBRANCH  20  21
ENDBRANCH  19  20
ENDBRANCH  18  19
ENDBRANCH  17  18
ENDBRANCH  16  17
ENDBRANCH  15  16
ENDBRANCH  14  15
ENDBRANCH  13  14
ENDBRANCH   1  13
TORSDOF 20
ENDMDL
MODEL 5
REMARK VINA RESULT:    -4.226      1.218      2.653
REMARK INTER + INTRA:         -12.830
REMARK INTER:                  -9.947
REMARK INTRA:                  -2.883
REMARK UNBOUND:                -3.664
REMARK SMILES CCCCCCCCCCCCCCCCCCCCCC(=O)[O-]
REMARK SMILES IDX 12 1 11 2 10 3 9 4 8 5 7 6 6 7 5 8 4 9 3 10 2 11 1 12 13 13
REMARK SMILES IDX 14 14 15 15 16 16 17 17 18 18 19 19 20 20 21 21 22 22 23 23
REMARK SMILES IDX 24 24
REMARK H PARENT
REMARK Flexibility Score: inf
ROOT
ATOM      1  C   UNL     1     -53.790  12.551 -29.174  1.00  0.00     0.000 C 
ENDROOT
BRANCH   1   2
ATOM      2  C   UNL     1     -53.866  13.678 -28.131  1.00  0.00     0.000 C 
BRANCH   2   3
ATOM      3  C   UNL     1     -53.734  15.075 -28.755  1.00  0.00     0.000 C 
BRANCH   3   4
ATOM      4  C   UNL     1     -52.961  16.019 -27.821  1.00  0.00    -0.000 C 
BRANCH   4   5
ATOM      5  C   UNL     1     -52.676  17.391 -28.458  1.00  0.00    -0.000 C 
BRANCH   5   6
ATOM      6  C   UNL     1     -53.085  17.523 -29.940  1.00  0.00    -0.000 C 
BRANCH   6   7
ATOM      7  C   UNL     1     -51.927  17.813 -30.910  1.00  0.00    -0.000 C 
BRANCH   7   8
ATOM      8  C   UNL     1     -50.876  16.689 -30.936  1.00  0.00    -0.000 C 
BRANCH   8   9
ATOM      9  C   UNL     1     -51.194  15.603 -31.975  1.00  0.00    -0.000 C 
BRANCH   9  10
ATOM     10  C   UNL     1     -51.148  14.185 -31.380  1.00  0.00    -0.000 C 
BRANCH  10  11
ATOM     11  C   UNL     1     -50.413  14.137 -30.031  1.00  0.00    -0.003 C 
ATOM     12  C   UNL     1     -49.236  13.162 -30.031  1.00  0.00     0.004 C 
ENDBRANCH  10  11
ENDBRANCH   9  10
ENDBRANCH   8   9
ENDBRANCH   7   8
ENDBRANCH   6   7
ENDBRANCH   5   6
ENDBRANCH   4   5
ENDBRANCH   3   4
ENDBRANCH   2   3
ENDBRANCH   1   2
BRANCH   1  13
ATOM     13  C   UNL     1     -52.607  11.600 -28.929  1.00  0.00     0.000 C 
BRANCH  13  14
ATOM     14  C   UNL     1     -52.591  10.412 -29.906  1.00  0.00     0.000 C 
BRANCH  14  15
ATOM     15  C   UNL     1     -51.181  10.111 -30.445  1.00  0.00     0.000 C 
BRANCH  15  16
ATOM     16  C   UNL     1     -51.047  10.408 -31.946  1.00  0.00     0.000 C 
BRANCH  16  17
ATOM     17  C   UNL     1     -50.811   9.142 -32.784  1.00  0.00     0.000 C 
BRANCH  17  18
ATOM     18  C   UNL     1     -49.313   8.832 -32.899  1.00  0.00     0.000 C 
BRANCH  18  19
ATOM     19  C   UNL     1     -49.019   7.380 -32.506  1.00  0.00     0.000 C 
BRANCH  19  20
ATOM     20  C   UNL     1     -47.638   7.258 -31.845  1.00  0.00     0.006 C 
BRANCH  20  21
ATOM     21  C   UNL     1     -47.002   8.628 -31.572  1.00  0.00     0.053 C 
BRANCH  21  22
ATOM     22  C   UNL     1     -46.873   8.901 -30.105  1.00  0.00     0.041 C 
ATOM     23  O   UNL     1     -46.209   8.123 -29.371  1.00  0.00    -0.550 OA
ATOM     24  O   UNL     1     -47.516   9.995 -29.541  1.00  0.00    -0.550 OA
ENDBRANCH  21  22
ENDBRANCH  20  21
ENDBRANCH  19  20
ENDBRANCH  18  19
ENDBRANCH  17  18
ENDBRANCH  16  17
ENDBRANCH  15  16
ENDBRANCH  14  15
ENDBRANCH  13  14
ENDBRANCH   1  13
TORSDOF 20
ENDMDL
MODEL 6
REMARK VINA RESULT:    -4.209      2.193      5.790
REMARK INTER + INTRA:         -12.794
REMARK INTER:                  -9.473
REMARK INTRA:                  -3.321
REMARK UNBOUND:                -3.664
REMARK SMILES CCCCCCCCCCCCCCCCCCCCCC(=O)[O-]
REMARK SMILES IDX 12 1 11 2 10 3 9 4 8 5 7 6 6 7 5 8 4 9 3 10 2 11 1 12 13 13
REMARK SMILES IDX 14 14 15 15 16 16 17 17 18 18 19 19 20 20 21 21 22 22 23 23
REMARK SMILES IDX 24 24
REMARK H PARENT
REMARK Flexibility Score: inf
ROOT
ATOM      1  C   UNL     1     -53.863  13.965 -30.375  1.00  0.00     0.000 C 
ENDROOT
BRANCH   1   2
ATOM      2  C   UNL     1     -54.091  12.601 -29.702  1.00  0.00     0.000 C 
BRANCH   2   3
ATOM      3  C   UNL     1     -52.883  12.136 -28.876  1.00  0.00     0.000 C 
BRANCH   3   4
ATOM      4  C   UNL     1     -52.348  10.795 -29.399  1.00  0.00    -0.000 C 
BRANCH   4   5
ATOM      5  C   UNL     1     -52.228  10.754 -30.932  1.00  0.00    -0.000 C 
BRANCH   5   6
ATOM      6  C   UNL     1     -52.255   9.343 -31.555  1.00  0.00    -0.000 C 
BRANCH   6   7
ATOM      7  C   UNL     1     -51.904   8.199 -30.587  1.00  0.00    -0.000 C 
BRANCH   7   8
ATOM      8  C   UNL     1     -50.873   7.218 -31.173  1.00  0.00    -0.000 C 
BRANCH   8   9
ATOM      9  C   UNL     1     -50.793   7.287 -32.706  1.00  0.00    -0.000 C 
BRANCH   9  10
ATOM     10  C   UNL     1     -51.449   6.072 -33.386  1.00  0.00    -0.000 C 
BRANCH  10  11
ATOM     11  C   UNL     1     -52.966   6.243 -33.559  1.00  0.00    -0.003 C 
ATOM     12  C   UNL     1     -53.331   7.401 -34.488  1.00  0.00     0.004 C 
ENDBRANCH  10  11
ENDBRANCH   9  10
ENDBRANCH   8   9
ENDBRANCH   7   8
ENDBRANCH   6   7
ENDBRANCH   5   6
ENDBRANCH   4   5
ENDBRANCH   3   4
ENDBRANCH   2   3
ENDBRANCH   1   2
BRANCH   1  13
ATOM     13  C   UNL     1     -52.488  14.565 -30.039  1.00  0.00     0.000 C 
BRANCH  13  14
ATOM     14  C   UNL     1     -51.538  14.579 -31.249  1.00  0.00     0.000 C 
BRANCH  14  15
ATOM     15  C   UNL     1     -50.056  14.524 -30.835  1.00  0.00     0.000 C 
BRANCH  15  16
ATOM     16  C   UNL     1     -49.532  13.086 -30.707  1.00  0.00     0.000 C 
BRANCH  16  17
ATOM     17  C   UNL     1     -49.258  12.681 -29.251  1.00  0.00     0.000 C 
BRANCH  17  18
ATOM     18  C   UNL     1     -48.290  11.493 -29.184  1.00  0.00     0.000 C 
BRANCH  18  19
ATOM     19  C   UNL     1     -48.694  10.396 -30.177  1.00  0.00     0.000 C 
BRANCH  19  20
ATOM     20  C   UNL     1     -47.949   9.086 -29.881  1.00  0.00     0.006 C 
BRANCH  20  21
ATOM     21  C   UNL     1     -47.316   8.481 -31.142  1.00  0.00     0.053 C 
BRANCH  21  22
ATOM     22  C   UNL     1     -47.201   6.991 -31.048  1.00  0.00     0.041 C 
ATOM     23  O   UNL     1     -46.906   6.444 -29.953  1.00  0.00    -0.550 OA
ATOM     24  O   UNL     1     -47.386   6.205 -32.178  1.00  0.00    -0.550 OA
ENDBRANCH  21  22
ENDBRANCH  20  21
ENDBRANCH  19  20
ENDBRANCH  18  19
ENDBRANCH  17  18
ENDBRANCH  16  17
ENDBRANCH  15  16
ENDBRANCH  14  15
ENDBRANCH  13  14
ENDBRANCH   1  13
TORSDOF 20
ENDMDL
MODEL 7
REMARK VINA RESULT:    -4.203      3.117      7.802
REMARK INTER + INTRA:         -12.781
REMARK INTER:                  -9.701
REMARK INTRA:                  -3.080
REMARK UNBOUND:                -3.664
REMARK SMILES CCCCCCCCCCCCCCCCCCCCCC(=O)[O-]
REMARK SMILES IDX 12 1 11 2 10 3 9 4 8 5 7 6 6 7 5 8 4 9 3 10 2 11 1 12 13 13
REMARK SMILES IDX 14 14 15 15 16 16 17 17 18 18 19 19 20 20 21 21 22 22 23 23
REMARK SMILES IDX 24 24
REMARK H PARENT
REMARK Flexibility Score: inf
ROOT
ATOM      1  C   UNL     1     -49.023   8.839 -32.777  1.00  0.00     0.000 C 
ENDROOT
BRANCH   1   2
ATOM      2  C   UNL     1     -48.116   7.654 -33.145  1.00  0.00     0.000 C 
BRANCH   2   3
ATOM      3  C   UNL     1     -47.370   7.077 -31.933  1.00  0.00     0.000 C 
BRANCH   3   4
ATOM      4  C   UNL     1     -47.823   7.763 -30.636  1.00  0.00    -0.000 C 
BRANCH   4   5
ATOM      5  C   UNL     1     -46.756   8.706 -30.053  1.00  0.00    -0.000 C 
BRANCH   5   6
ATOM      6  C   UNL     1     -47.272  10.095 -29.625  1.00  0.00    -0.000 C 
BRANCH   6   7
ATOM      7  C   UNL     1     -48.779  10.164 -29.322  1.00  0.00    -0.000 C 
BRANCH   7   8
ATOM      8  C   UNL     1     -49.183  11.461 -28.599  1.00  0.00    -0.000 C 
BRANCH   8   9
ATOM      9  C   UNL     1     -48.970  12.713 -29.463  1.00  0.00    -0.000 C 
BRANCH   9  10
ATOM     10  C   UNL     1     -49.647  12.602 -30.840  1.00  0.00    -0.000 C 
BRANCH  10  11
ATOM     11  C   UNL     1     -50.686  13.710 -31.076  1.00  0.00    -0.003 C 
ATOM     12  C   UNL     1     -50.058  15.019 -31.556  1.00  0.00     0.004 C 
ENDBRANCH  10  11
ENDBRANCH   9  10
ENDBRANCH   8   9
ENDBRANCH   7   8
ENDBRANCH   6   7
ENDBRANCH   5   6
ENDBRANCH   4   5
ENDBRANCH   3   4
ENDBRANCH   2   3
ENDBRANCH   1   2
BRANCH   1  13
ATOM     13  C   UNL     1     -50.518   8.500 -32.908  1.00  0.00     0.000 C 
BRANCH  13  14
ATOM     14  C   UNL     1     -51.263   8.581 -31.565  1.00  0.00     0.000 C 
BRANCH  14  15
ATOM     15  C   UNL     1     -52.121   9.853 -31.443  1.00  0.00     0.000 C 
BRANCH  15  16
ATOM     16  C   UNL     1     -52.411  10.231 -29.983  1.00  0.00     0.000 C 
BRANCH  16  17
ATOM     17  C   UNL     1     -53.233  11.523 -29.856  1.00  0.00     0.000 C 
BRANCH  17  18
ATOM     18  C   UNL     1     -52.968  12.212 -28.512  1.00  0.00     0.000 C 
BRANCH  18  19
ATOM     19  C   UNL     1     -53.991  13.324 -28.251  1.00  0.00     0.000 C 
BRANCH  19  20
ATOM     20  C   UNL     1     -53.646  14.588 -29.054  1.00  0.00     0.006 C 
BRANCH  20  21
ATOM     21  C   UNL     1     -52.558  15.429 -28.373  1.00  0.00     0.053 C 
BRANCH  21  22
ATOM     22  C   UNL     1     -52.643  16.872 -28.764  1.00  0.00     0.041 C 
ATOM     23  O   UNL     1     -51.982  17.304 -29.745  1.00  0.00    -0.550 OA
ATOM     24  O   UNL     1     -53.423  17.750 -28.023  1.00  0.00    -0.550 OA
ENDBRANCH  21  22
ENDBRANCH  20  21
ENDBRANCH  19  20
ENDBRANCH  18  19
ENDBRANCH  17  18
ENDBRANCH  16  17
ENDBRANCH  15  16
ENDBRANCH  14  15
ENDBRANCH  13  14
ENDBRANCH   1  13
TORSDOF 20
ENDMDL
MODEL 8
REMARK VINA RESULT:    -4.165      2.977      8.152
REMARK INTER + INTRA:         -12.700
REMARK INTER:                  -9.833
REMARK INTRA:                  -2.867
REMARK UNBOUND:                -3.664
REMARK SMILES CCCCCCCCCCCCCCCCCCCCCC(=O)[O-]
REMARK SMILES IDX 12 1 11 2 10 3 9 4 8 5 7 6 6 7 5 8 4 9 3 10 2 11 1 12 13 13
REMARK SMILES IDX 14 14 15 15 16 16 17 17 18 18 19 19 20 20 21 21 22 22 23 23
REMARK SMILES IDX 24 24
REMARK H PARENT
REMARK Flexibility Score: inf
ROOT
ATOM      1  C   UNL     1     -48.532   9.987 -29.681  1.00  0.00     0.000 C 
ENDROOT
BRANCH   1   2
ATOM      2  C   UNL     1     -47.031   9.728 -29.887  1.00  0.00     0.000 C 
BRANCH   2   3
ATOM      3  C   UNL     1     -46.739   8.321 -30.427  1.00  0.00     0.000 C 
BRANCH   3   4
ATOM      4  C   UNL     1     -47.799   7.320 -29.944  1.00  0.00    -0.000 C 
BRANCH   4   5
ATOM      5  C   UNL     1     -48.123   6.239 -30.991  1.00  0.00    -0.000 C 
BRANCH   5   6
ATOM      6  C   UNL     1     -47.824   6.632 -32.453  1.00  0.00    -0.000 C 
BRANCH   6   7
ATOM      7  C   UNL     1     -49.040   7.127 -33.255  1.00  0.00    -0.000 C 
BRANCH   7   8
ATOM      8  C   UNL     1     -49.316   8.627 -33.052  1.00  0.00    -0.000 C 
BRANCH   8   9
ATOM      9  C   UNL     1     -50.705   8.899 -32.454  1.00  0.00    -0.000 C 
BRANCH   9  10
ATOM     10  C   UNL     1     -51.556   7.623 -32.333  1.00  0.00    -0.000 C 
BRANCH  10  11
ATOM     11  C   UNL     1     -52.954   7.786 -32.949  1.00  0.00    -0.003 C 
ATOM     12  C   UNL     1     -53.032   7.271 -34.387  1.00  0.00     0.004 C 
ENDBRANCH  10  11
ENDBRANCH   9  10
ENDBRANCH   8   9
ENDBRANCH   7   8
ENDBRANCH   6   7
ENDBRANCH   5   6
ENDBRANCH   4   5
ENDBRANCH   3   4
ENDBRANCH   2   3
ENDBRANCH   1   2
BRANCH   1  13
ATOM     13  C   UNL     1     -48.802  11.155 -28.717  1.00  0.00     0.000 C 
BRANCH  13  14
ATOM     14  C   UNL     1     -49.952  12.060 -29.192  1.00  0.00     0.000 C 
BRANCH  14  15
ATOM     15  C   UNL     1     -49.988  12.210 -30.723  1.00  0.00     0.000 C 
BRANCH  15  16
ATOM     16  C   UNL     1     -51.417  12.361 -31.268  1.00  0.00     0.000 C 
BRANCH  16  17
ATOM     17  C   UNL     1     -52.488  12.201 -30.178  1.00  0.00     0.000 C 
BRANCH  17  18
ATOM     18  C   UNL     1     -53.322  13.480 -30.037  1.00  0.00     0.000 C 
BRANCH  18  19
ATOM     19  C   UNL     1     -52.902  14.277 -28.796  1.00  0.00     0.000 C 
BRANCH  19  20
ATOM     20  C   UNL     1     -52.746  15.769 -29.128  1.00  0.00     0.006 C 
BRANCH  20  21
ATOM     21  C   UNL     1     -52.581  16.015 -30.633  1.00  0.00     0.053 C 
BRANCH  21  22
ATOM     22  C   UNL     1     -51.244  16.608 -30.957  1.00  0.00     0.041 C 
ATOM     23  O   UNL     1     -50.328  15.888 -31.434  1.00  0.00    -0.550 OA
ATOM     24  O   UNL     1     -50.997  17.950 -30.700  1.00  0.00    -0.550 OA
ENDBRANCH  21  22
ENDBRANCH  20  21
ENDBRANCH  19  20
ENDBRANCH  18  19
ENDBRANCH  17  18
ENDBRANCH  16  17
ENDBRANCH  15  16
ENDBRANCH  14  15
ENDBRANCH  13  14
ENDBRANCH   1  13
TORSDOF 20
ENDMDL
MODEL 9
REMARK VINA RESULT:    -4.145      1.610      3.659
REMARK INTER + INTRA:         -12.656
REMARK INTER:                  -9.479
REMARK INTRA:                  -3.176
REMARK UNBOUND:                -3.664
REMARK SMILES CCCCCCCCCCCCCCCCCCCCCC(=O)[O-]
REMARK SMILES IDX 12 1 11 2 10 3 9 4 8 5 7 6 6 7 5 8 4 9 3 10 2 11 1 12 13 13
REMARK SMILES IDX 14 14 15 15 16 16 17 17 18 18 19 19 20 20 21 21 22 22 23 23
REMARK SMILES IDX 24 24
REMARK H PARENT
REMARK Flexibility Score: inf
ROOT
ATOM      1  C   UNL     1     -52.598  11.242 -30.981  1.00  0.00     0.000 C 
ENDROOT
BRANCH   1   2
ATOM      2  C   UNL     1     -53.689  11.694 -29.997  1.00  0.00     0.000 C 
BRANCH   2   3
ATOM      3  C   UNL     1     -53.115  12.272 -28.696  1.00  0.00     0.000 C 
BRANCH   3   4
ATOM      4  C   UNL     1     -54.029  13.373 -28.137  1.00  0.00    -0.000 C 
BRANCH   4   5
ATOM      5  C   UNL     1     -53.890  14.707 -28.892  1.00  0.00    -0.000 C 
BRANCH   5   6
ATOM      6  C   UNL     1     -52.440  15.166 -29.149  1.00  0.00    -0.000 C 
BRANCH   6   7
ATOM      7  C   UNL     1     -52.168  15.697 -30.568  1.00  0.00    -0.000 C 
BRANCH   7   8
ATOM      8  C   UNL     1     -51.473  14.661 -31.468  1.00  0.00    -0.000 C 
BRANCH   8   9
ATOM      9  C   UNL     1     -49.960  14.574 -31.214  1.00  0.00    -0.000 C 
BRANCH   9  10
ATOM     10  C   UNL     1     -49.509  13.158 -30.815  1.00  0.00    -0.000 C 
BRANCH  10  11
ATOM     11  C   UNL     1     -49.485  12.956 -29.292  1.00  0.00    -0.003 C 
ATOM     12  C   UNL     1     -49.556  11.483 -28.887  1.00  0.00     0.004 C 
ENDBRANCH  10  11
ENDBRANCH   9  10
ENDBRANCH   8   9
ENDBRANCH   7   8
ENDBRANCH   6   7
ENDBRANCH   5   6
ENDBRANCH   4   5
ENDBRANCH   3   4
ENDBRANCH   2   3
ENDBRANCH   1   2
BRANCH   1  13
ATOM     13  C   UNL     1     -52.336   9.728 -30.916  1.00  0.00     0.000 C 
BRANCH  13  14
ATOM     14  C   UNL     1     -53.630   8.910 -30.759  1.00  0.00     0.000 C 
BRANCH  14  15
ATOM     15  C   UNL     1     -53.734   7.770 -31.788  1.00  0.00     0.000 C 
BRANCH  15  16
ATOM     16  C   UNL     1     -52.800   7.973 -32.991  1.00  0.00     0.000 C 
BRANCH  16  17
ATOM     17  C   UNL     1     -52.319   6.647 -33.599  1.00  0.00     0.000 C 
BRANCH  17  18
ATOM     18  C   UNL     1     -50.797   6.651 -33.788  1.00  0.00     0.000 C 
BRANCH  18  19
ATOM     19  C   UNL     1     -50.101   7.395 -32.641  1.00  0.00     0.000 C 
BRANCH  19  20
ATOM     20  C   UNL     1     -49.341   8.623 -33.164  1.00  0.00     0.006 C 
BRANCH  20  21
ATOM     21  C   UNL     1     -48.913   9.566 -32.031  1.00  0.00     0.053 C 
BRANCH  21  22
ATOM     22  C   UNL     1     -47.959   8.904 -31.085  1.00  0.00     0.041 C 
ATOM     23  O   UNL     1     -46.732   8.848 -31.357  1.00  0.00    -0.550 OA
ATOM     24  O   UNL     1     -48.431   8.317 -29.918  1.00  0.00    -0.550 OA
ENDBRANCH  21  22
ENDBRANCH  20  21
ENDBRANCH  19  20
ENDBRANCH  18  19
ENDBRANCH  17  18
ENDBRANCH  16  17
ENDBRANCH  15  16
ENDBRANCH  14  15
ENDBRANCH  13  14
ENDBRANCH   1  13
TORSDOF 20
ENDMDL
