MODEL 1
REMARK VINA RESULT:    -6.392      0.000      0.000
REMARK INTER + INTRA:          -7.990
REMARK INTER:                  -7.700
REMARK INTRA:                  -0.290
REMARK UNBOUND:                -0.290
REMARK SMILES O=c1c(O)c(-c2ccc(O)c(O)c2)oc2cc(O)cc(O)c12
REMARK SMILES IDX 5 1 3 2 2 3 1 4 22 5 20 6 19 7 17 8 16 9 15 10 14 11 6 12
REMARK SMILES IDX 7 13 8 14 9 15 13 16 11 17 10 18 12 20 4 22 21 24 18 26
REMARK H PARENT 10 19 12 21 4 23 21 25 18 27
REMARK Flexibility Score: inf
ROOT
ATOM      1  C   UNL     1      -5.820 -22.072  34.941  1.00  0.00     0.180 A 
ATOM      2  C   UNL     1      -6.706 -21.141  35.511  1.00  0.00     0.208 A 
ATOM      3  C   UNL     1      -6.452 -19.770  35.347  1.00  0.00     0.238 A 
ATOM      4  O   UNL     1      -7.219 -18.942  35.904  1.00  0.00    -0.285 OA
ATOM      5  C   UNL     1      -5.325 -19.347  34.603  1.00  0.00     0.111 A 
ATOM      6  C   UNL     1      -4.992 -17.984  34.340  1.00  0.00     0.134 A 
ATOM      7  C   UNL     1      -3.783 -17.677  33.704  1.00  0.00     0.093 A 
ATOM      8  C   UNL     1      -2.926 -18.685  33.264  1.00  0.00     0.123 A 
ATOM      9  C   UNL     1      -3.268 -20.024  33.463  1.00  0.00     0.094 A 
ATOM     10  C   UNL     1      -4.451 -20.359  34.127  1.00  0.00     0.146 A 
ATOM     11  O   UNL     1      -4.735 -21.644  34.306  1.00  0.00    -0.452 OA
ENDROOT
BRANCH   1  12
ATOM     12  C   UNL     1      -6.034 -23.533  35.049  1.00  0.00     0.025 A 
ATOM     13  C   UNL     1      -5.661 -24.201  36.227  1.00  0.00     0.016 A 
ATOM     14  C   UNL     1      -5.835 -25.583  36.342  1.00  0.00     0.051 A 
ATOM     15  C   UNL     1      -6.372 -26.317  35.277  1.00  0.00     0.157 A 
ATOM     16  C   UNL     1      -6.554 -24.278  33.975  1.00  0.00     0.062 A 
ATOM     17  C   UNL     1      -6.728 -25.665  34.089  1.00  0.00     0.158 A 
BRANCH  15  18
ATOM     18  O   UNL     1      -6.550 -27.696  35.388  1.00  0.00    -0.504 OA
ATOM     19  H   UNL     1      -7.307 -28.173  34.914  1.00  0.00     0.293 HD
ENDBRANCH  15  18
BRANCH  17  20
ATOM     20  O   UNL     1      -7.248 -26.401  33.026  1.00  0.00    -0.504 OA
ATOM     21  H   UNL     1      -6.917 -26.268  32.078  1.00  0.00     0.293 HD
ENDBRANCH  17  20
ENDBRANCH   1  12
BRANCH   2  22
ATOM     22  O   UNL     1      -7.801 -21.581  36.259  1.00  0.00    -0.502 OA
ATOM     23  H   UNL     1      -8.652 -21.922  35.829  1.00  0.00     0.293 HD
ENDBRANCH   2  22
BRANCH   6  24
ATOM     24  O   UNL     1      -5.822 -16.903  34.654  1.00  0.00    -0.507 OA
ATOM     25  H   UNL     1      -5.515 -15.945  34.726  1.00  0.00     0.293 HD
ENDBRANCH   6  24
BRANCH   8  26
ATOM     26  O   UNL     1      -1.737 -18.345  32.621  1.00  0.00    -0.508 OA
ATOM     27  H   UNL     1      -0.935 -18.965  32.625  1.00  0.00     0.293 HD
ENDBRANCH   8  26
TORSDOF 6
ENDMDL
MODEL 2
REMARK VINA RESULT:    -5.987      1.540      6.609
REMARK INTER + INTRA:          -7.502
REMARK INTER:                  -7.186
REMARK INTRA:                  -0.316
REMARK UNBOUND:                -0.290
REMARK SMILES O=c1c(O)c(-c2ccc(O)c(O)c2)oc2cc(O)cc(O)c12
REMARK SMILES IDX 5 1 3 2 2 3 1 4 22 5 20 6 19 7 17 8 16 9 15 10 14 11 6 12
REMARK SMILES IDX 7 13 8 14 9 15 13 16 11 17 10 18 12 20 4 22 21 24 18 26
REMARK H PARENT 10 19 12 21 4 23 21 25 18 27
REMARK Flexibility Score: inf
ROOT
ATOM      1  C   UNL     1      -4.933 -21.089  35.002  1.00  0.00     0.180 A 
ATOM      2  C   UNL     1      -6.286 -20.717  34.925  1.00  0.00     0.208 A 
ATOM      3  C   UNL     1      -7.273 -21.707  35.062  1.00  0.00     0.238 A 
ATOM      4  O   UNL     1      -8.481 -21.377  34.938  1.00  0.00    -0.285 OA
ATOM      5  C   UNL     1      -6.895 -23.052  35.289  1.00  0.00     0.111 A 
ATOM      6  C   UNL     1      -7.811 -24.130  35.482  1.00  0.00     0.134 A 
ATOM      7  C   UNL     1      -7.328 -25.441  35.569  1.00  0.00     0.093 A 
ATOM      8  C   UNL     1      -5.959 -25.707  35.536  1.00  0.00     0.123 A 
ATOM      9  C   UNL     1      -5.051 -24.655  35.407  1.00  0.00     0.094 A 
ATOM     10  C   UNL     1      -5.505 -23.340  35.282  1.00  0.00     0.146 A 
ATOM     11  O   UNL     1      -4.609 -22.369  35.150  1.00  0.00    -0.452 OA
ENDROOT
BRANCH   1  12
ATOM     12  C   UNL     1      -3.836 -20.101  34.893  1.00  0.00     0.025 A 
ATOM     13  C   UNL     1      -3.318 -19.511  36.058  1.00  0.00     0.016 A 
ATOM     14  C   UNL     1      -2.297 -18.561  35.977  1.00  0.00     0.051 A 
ATOM     15  C   UNL     1      -1.790 -18.176  34.729  1.00  0.00     0.157 A 
ATOM     16  C   UNL     1      -3.337 -19.696  33.642  1.00  0.00     0.062 A 
ATOM     17  C   UNL     1      -2.314 -18.741  33.559  1.00  0.00     0.158 A 
BRANCH  15  18
ATOM     18  O   UNL     1      -0.770 -17.230  34.643  1.00  0.00    -0.504 OA
ATOM     19  H   UNL     1      -0.492 -16.675  35.444  1.00  0.00     0.293 HD
ENDBRANCH  15  18
BRANCH  17  20
ATOM     20  O   UNL     1      -1.816 -18.344  32.319  1.00  0.00    -0.504 OA
ATOM     21  H   UNL     1      -2.334 -17.715  31.717  1.00  0.00     0.293 HD
ENDBRANCH  17  20
ENDBRANCH   1  12
BRANCH   2  22
ATOM     22  O   UNL     1      -6.637 -19.387  34.679  1.00  0.00    -0.502 OA
ATOM     23  H   UNL     1      -6.410 -18.638  35.320  1.00  0.00     0.293 HD
ENDBRANCH   2  22
BRANCH   6  24
ATOM     24  O   UNL     1      -9.193 -23.964  35.622  1.00  0.00    -0.507 OA
ATOM     25  H   UNL     1      -9.886 -24.389  35.025  1.00  0.00     0.293 HD
ENDBRANCH   6  24
BRANCH   8  26
ATOM     26  O   UNL     1      -5.512 -27.023  35.641  1.00  0.00    -0.508 OA
ATOM     27  H   UNL     1      -5.901 -27.762  35.068  1.00  0.00     0.293 HD
ENDBRANCH   8  26
TORSDOF 6
ENDMDL
MODEL 3
REMARK VINA RESULT:    -5.929      2.423      3.781
REMARK INTER + INTRA:          -7.432
REMARK INTER:                  -7.378
REMARK INTRA:                  -0.054
REMARK UNBOUND:                -0.290
REMARK SMILES O=c1c(O)c(-c2ccc(O)c(O)c2)oc2cc(O)cc(O)c12
REMARK SMILES IDX 5 1 3 2 2 3 1 4 22 5 20 6 19 7 17 8 16 9 15 10 14 11 6 12
REMARK SMILES IDX 7 13 8 14 9 15 13 16 11 17 10 18 12 20 4 22 21 24 18 26
REMARK H PARENT 10 19 12 21 4 23 21 25 18 27
REMARK Flexibility Score: inf
ROOT
ATOM      1  C   UNL     1      -6.873 -23.801  35.950  1.00  0.00     0.180 A 
ATOM      2  C   UNL     1      -5.476 -23.821  36.109  1.00  0.00     0.208 A 
ATOM      3  C   UNL     1      -4.797 -22.611  36.325  1.00  0.00     0.238 A 
ATOM      4  O   UNL     1      -3.542 -22.629  36.412  1.00  0.00    -0.285 OA
ATOM      5  C   UNL     1      -5.525 -21.399  36.396  1.00  0.00     0.111 A 
ATOM      6  C   UNL     1      -4.945 -20.120  36.650  1.00  0.00     0.134 A 
ATOM      7  C   UNL     1      -5.741 -18.971  36.569  1.00  0.00     0.093 A 
ATOM      8  C   UNL     1      -7.108 -19.060  36.307  1.00  0.00     0.123 A 
ATOM      9  C   UNL     1      -7.698 -20.310  36.115  1.00  0.00     0.094 A 
ATOM     10  C   UNL     1      -6.922 -21.471  36.154  1.00  0.00     0.146 A 
ATOM     11  O   UNL     1      -7.519 -22.641  35.955  1.00  0.00    -0.452 OA
ENDROOT
BRANCH   1  12
ATOM     12  C   UNL     1      -7.661 -25.037  35.744  1.00  0.00     0.025 A 
ATOM     13  C   UNL     1      -8.685 -25.363  36.649  1.00  0.00     0.016 A 
ATOM     14  C   UNL     1      -9.428 -26.535  36.485  1.00  0.00     0.051 A 
ATOM     15  C   UNL     1      -9.148 -27.405  35.423  1.00  0.00     0.157 A 
ATOM     16  C   UNL     1      -7.371 -25.923  34.691  1.00  0.00     0.062 A 
ATOM     17  C   UNL     1      -8.115 -27.101  34.527  1.00  0.00     0.158 A 
BRANCH  15  18
ATOM     18  O   UNL     1      -9.888 -28.574  35.254  1.00  0.00    -0.504 OA
ATOM     19  H   UNL     1      -9.708 -29.209  34.485  1.00  0.00     0.293 HD
ENDBRANCH  15  18
BRANCH  17  20
ATOM     20  O   UNL     1      -7.830 -27.976  33.479  1.00  0.00    -0.504 OA
ATOM     21  H   UNL     1      -8.369 -28.822  33.335  1.00  0.00     0.293 HD
ENDBRANCH  17  20
ENDBRANCH   1  12
BRANCH   2  22
ATOM     22  O   UNL     1      -4.776 -25.027  36.014  1.00  0.00    -0.502 OA
ATOM     23  H   UNL     1      -4.351 -25.473  36.817  1.00  0.00     0.293 HD
ENDBRANCH   2  22
BRANCH   6  24
ATOM     24  O   UNL     1      -3.608 -19.927  37.012  1.00  0.00    -0.507 OA
ATOM     25  H   UNL     1      -3.102 -19.061  36.903  1.00  0.00     0.293 HD
ENDBRANCH   6  24
BRANCH   8  26
ATOM     26  O   UNL     1      -7.874 -17.897  36.248  1.00  0.00    -0.508 OA
ATOM     27  H   UNL     1      -7.781 -17.165  36.943  1.00  0.00     0.293 HD
ENDBRANCH   8  26
TORSDOF 6
ENDMDL
MODEL 4
REMARK VINA RESULT:    -5.903      1.771      7.072
REMARK INTER + INTRA:          -7.400
REMARK INTER:                  -7.066
REMARK INTRA:                  -0.334
REMARK UNBOUND:                -0.290
REMARK SMILES O=c1c(O)c(-c2ccc(O)c(O)c2)oc2cc(O)cc(O)c12
REMARK SMILES IDX 5 1 3 2 2 3 1 4 22 5 20 6 19 7 17 8 16 9 15 10 14 11 6 12
REMARK SMILES IDX 7 13 8 14 9 15 13 16 11 17 10 18 12 20 4 22 21 24 18 26
REMARK H PARENT 10 19 12 21 4 23 21 25 18 27
REMARK Flexibility Score: inf
ROOT
ATOM      1  C   UNL     1      -6.272 -22.281  34.570  1.00  0.00     0.180 A 
ATOM      2  C   UNL     1      -6.766 -22.658  33.310  1.00  0.00     0.208 A 
ATOM      3  C   UNL     1      -7.010 -24.018  33.053  1.00  0.00     0.238 A 
ATOM      4  O   UNL     1      -7.400 -24.355  31.906  1.00  0.00    -0.285 OA
ATOM      5  C   UNL     1      -6.772 -24.978  34.065  1.00  0.00     0.111 A 
ATOM      6  C   UNL     1      -7.022 -26.377  33.928  1.00  0.00     0.134 A 
ATOM      7  C   UNL     1      -6.627 -27.253  34.947  1.00  0.00     0.093 A 
ATOM      8  C   UNL     1      -6.052 -26.774  36.124  1.00  0.00     0.123 A 
ATOM      9  C   UNL     1      -5.858 -25.403  36.294  1.00  0.00     0.094 A 
ATOM     10  C   UNL     1      -6.208 -24.509  35.280  1.00  0.00     0.146 A 
ATOM     11  O   UNL     1      -5.996 -23.212  35.475  1.00  0.00    -0.452 OA
ENDROOT
BRANCH   1  12
ATOM     12  C   UNL     1      -6.014 -20.866  34.925  1.00  0.00     0.025 A 
ATOM     13  C   UNL     1      -4.724 -20.336  34.759  1.00  0.00     0.016 A 
ATOM     14  C   UNL     1      -4.454 -19.010  35.106  1.00  0.00     0.051 A 
ATOM     15  C   UNL     1      -5.466 -18.199  35.637  1.00  0.00     0.157 A 
ATOM     16  C   UNL     1      -7.022 -20.055  35.476  1.00  0.00     0.062 A 
ATOM     17  C   UNL     1      -6.751 -18.724  35.827  1.00  0.00     0.158 A 
BRANCH  15  18
ATOM     18  O   UNL     1      -5.201 -16.875  35.983  1.00  0.00    -0.504 OA
ATOM     19  H   UNL     1      -4.438 -16.360  35.562  1.00  0.00     0.293 HD
ENDBRANCH  15  18
BRANCH  17  20
ATOM     20  O   UNL     1      -7.752 -17.918  36.368  1.00  0.00    -0.504 OA
ATOM     21  H   UNL     1      -7.719 -16.908  36.290  1.00  0.00     0.293 HD
ENDBRANCH  17  20
ENDBRANCH   1  12
BRANCH   2  22
ATOM     22  O   UNL     1      -6.973 -21.695  32.319  1.00  0.00    -0.502 OA
ATOM     23  H   UNL     1      -7.693 -21.788  31.613  1.00  0.00     0.293 HD
ENDBRANCH   2  22
BRANCH   6  24
ATOM     24  O   UNL     1      -7.675 -26.950  32.832  1.00  0.00    -0.507 OA
ATOM     25  H   UNL     1      -7.304 -26.980  31.894  1.00  0.00     0.293 HD
ENDBRANCH   6  24
BRANCH   8  26
ATOM     26  O   UNL     1      -5.685 -27.673  37.125  1.00  0.00    -0.508 OA
ATOM     27  H   UNL     1      -6.098 -28.596  37.186  1.00  0.00     0.293 HD
ENDBRANCH   8  26
TORSDOF 6
ENDMDL
MODEL 5
REMARK VINA RESULT:    -5.709      2.176      3.107
REMARK INTER + INTRA:          -7.166
REMARK INTER:                  -6.848
REMARK INTRA:                  -0.318
REMARK UNBOUND:                -0.290
REMARK SMILES O=c1c(O)c(-c2ccc(O)c(O)c2)oc2cc(O)cc(O)c12
REMARK SMILES IDX 5 1 3 2 2 3 1 4 22 5 20 6 19 7 17 8 16 9 15 10 14 11 6 12
REMARK SMILES IDX 7 13 8 14 9 15 13 16 11 17 10 18 12 20 4 22 21 24 18 26
REMARK H PARENT 10 19 12 21 4 23 21 25 18 27
REMARK Flexibility Score: inf
ROOT
ATOM      1  C   UNL     1      -6.094 -23.845  35.481  1.00  0.00     0.180 A 
ATOM      2  C   UNL     1      -4.987 -23.900  36.345  1.00  0.00     0.208 A 
ATOM      3  C   UNL     1      -4.104 -22.808  36.390  1.00  0.00     0.238 A 
ATOM      4  O   UNL     1      -3.086 -22.885  37.125  1.00  0.00    -0.285 OA
ATOM      5  C   UNL     1      -4.349 -21.670  35.585  1.00  0.00     0.111 A 
ATOM      6  C   UNL     1      -3.544 -20.492  35.580  1.00  0.00     0.134 A 
ATOM      7  C   UNL     1      -3.804 -19.480  34.648  1.00  0.00     0.093 A 
ATOM      8  C   UNL     1      -4.880 -19.574  33.765  1.00  0.00     0.123 A 
ATOM      9  C   UNL     1      -5.710 -20.696  33.800  1.00  0.00     0.094 A 
ATOM     10  C   UNL     1      -5.453 -21.737  34.694  1.00  0.00     0.146 A 
ATOM     11  O   UNL     1      -6.260 -22.792  34.689  1.00  0.00    -0.452 OA
ENDROOT
BRANCH   1  12
ATOM     12  C   UNL     1      -7.082 -24.945  35.395  1.00  0.00     0.025 A 
ATOM     13  C   UNL     1      -8.139 -24.999  36.319  1.00  0.00     0.016 A 
ATOM     14  C   UNL     1      -9.070 -26.039  36.269  1.00  0.00     0.051 A 
ATOM     15  C   UNL     1      -8.951 -27.047  35.304  1.00  0.00     0.157 A 
ATOM     16  C   UNL     1      -6.955 -25.970  34.441  1.00  0.00     0.062 A 
ATOM     17  C   UNL     1      -7.888 -27.016  34.390  1.00  0.00     0.158 A 
BRANCH  15  18
ATOM     18  O   UNL     1      -9.879 -28.086  35.249  1.00  0.00    -0.504 OA
ATOM     19  H   UNL     1      -9.609 -29.047  35.419  1.00  0.00     0.293 HD
ENDBRANCH  15  18
BRANCH  17  20
ATOM     20  O   UNL     1      -7.765 -28.028  33.440  1.00  0.00    -0.504 OA
ATOM     21  H   UNL     1      -7.321 -27.862  32.544  1.00  0.00     0.293 HD
ENDBRANCH  17  20
ENDBRANCH   1  12
BRANCH   2  22
ATOM     22  O   UNL     1      -4.752 -25.041  37.115  1.00  0.00    -0.502 OA
ATOM     23  H   UNL     1      -4.620 -25.002  38.118  1.00  0.00     0.293 HD
ENDBRANCH   2  22
BRANCH   6  24
ATOM     24  O   UNL     1      -2.502 -20.255  36.483  1.00  0.00    -0.507 OA
ATOM     25  H   UNL     1      -2.069 -20.962  37.058  1.00  0.00     0.293 HD
ENDBRANCH   6  24
BRANCH   8  26
ATOM     26  O   UNL     1      -5.119 -18.541  32.861  1.00  0.00    -0.508 OA
ATOM     27  H   UNL     1      -6.052 -18.176  32.708  1.00  0.00     0.293 HD
ENDBRANCH   8  26
TORSDOF 6
ENDMDL
MODEL 6
REMARK VINA RESULT:    -5.539      1.908      3.562
REMARK INTER + INTRA:          -6.963
REMARK INTER:                  -7.446
REMARK INTRA:                   0.483
REMARK UNBOUND:                -0.290
REMARK SMILES O=c1c(O)c(-c2ccc(O)c(O)c2)oc2cc(O)cc(O)c12
REMARK SMILES IDX 5 1 3 2 2 3 1 4 22 5 20 6 19 7 17 8 16 9 15 10 14 11 6 12
REMARK SMILES IDX 7 13 8 14 9 15 13 16 11 17 10 18 12 20 4 22 21 24 18 26
REMARK H PARENT 10 19 12 21 4 23 21 25 18 27
REMARK Flexibility Score: inf
ROOT
ATOM      1  C   UNL     1      -6.675 -23.341  35.104  1.00  0.00     0.180 A 
ATOM      2  C   UNL     1      -5.429 -23.185  34.473  1.00  0.00     0.208 A 
ATOM      3  C   UNL     1      -4.863 -21.903  34.392  1.00  0.00     0.238 A 
ATOM      4  O   UNL     1      -3.773 -21.761  33.778  1.00  0.00    -0.285 OA
ATOM      5  C   UNL     1      -5.541 -20.797  34.956  1.00  0.00     0.111 A 
ATOM      6  C   UNL     1      -5.042 -19.459  34.967  1.00  0.00     0.134 A 
ATOM      7  C   UNL     1      -5.856 -18.421  35.437  1.00  0.00     0.093 A 
ATOM      8  C   UNL     1      -7.124 -18.680  35.956  1.00  0.00     0.123 A 
ATOM      9  C   UNL     1      -7.600 -19.991  36.005  1.00  0.00     0.094 A 
ATOM     10  C   UNL     1      -6.825 -21.043  35.510  1.00  0.00     0.146 A 
ATOM     11  O   UNL     1      -7.318 -22.275  35.565  1.00  0.00    -0.452 OA
ENDROOT
BRANCH   1  12
ATOM     12  C   UNL     1      -7.324 -24.664  35.251  1.00  0.00     0.025 A 
ATOM     13  C   UNL     1      -6.875 -25.745  34.475  1.00  0.00     0.016 A 
ATOM     14  C   UNL     1      -7.487 -26.996  34.582  1.00  0.00     0.051 A 
ATOM     15  C   UNL     1      -8.565 -27.182  35.457  1.00  0.00     0.157 A 
ATOM     16  C   UNL     1      -8.420 -24.850  36.112  1.00  0.00     0.062 A 
ATOM     17  C   UNL     1      -9.036 -26.105  36.220  1.00  0.00     0.158 A 
BRANCH  15  18
ATOM     18  O   UNL     1      -9.177 -28.429  35.569  1.00  0.00    -0.504 OA
ATOM     19  H   UNL     1      -8.647 -29.289  35.490  1.00  0.00     0.293 HD
ENDBRANCH  15  18
BRANCH  17  20
ATOM     20  O   UNL     1     -10.119 -26.290  37.079  1.00  0.00    -0.504 OA
ATOM     21  H   UNL     1     -10.843 -26.970  36.879  1.00  0.00     0.293 HD
ENDBRANCH  17  20
ENDBRANCH   1  12
BRANCH   2  22
ATOM     22  O   UNL     1      -4.786 -24.288  33.904  1.00  0.00    -0.502 OA
ATOM     23  H   UNL     1      -3.907 -24.646  34.256  1.00  0.00     0.293 HD
ENDBRANCH   2  22
BRANCH   6  24
ATOM     24  O   UNL     1      -3.753 -19.104  34.558  1.00  0.00    -0.507 OA
ATOM     25  H   UNL     1      -3.270 -18.266  34.845  1.00  0.00     0.293 HD
ENDBRANCH   6  24
BRANCH   8  26
ATOM     26  O   UNL     1      -7.902 -17.624  36.429  1.00  0.00    -0.508 OA
ATOM     27  H   UNL     1      -8.909 -17.704  36.512  1.00  0.00     0.293 HD
ENDBRANCH   8  26
TORSDOF 6
ENDMDL
MODEL 7
REMARK VINA RESULT:    -5.522      2.280      3.032
REMARK INTER + INTRA:          -6.941
REMARK INTER:                  -6.646
REMARK INTRA:                  -0.296
REMARK UNBOUND:                -0.290
REMARK SMILES O=c1c(O)c(-c2ccc(O)c(O)c2)oc2cc(O)cc(O)c12
REMARK SMILES IDX 5 1 3 2 2 3 1 4 22 5 20 6 19 7 17 8 16 9 15 10 14 11 6 12
REMARK SMILES IDX 7 13 8 14 9 15 13 16 11 17 10 18 12 20 4 22 21 24 18 26
REMARK H PARENT 10 19 12 21 4 23 21 25 18 27
REMARK Flexibility Score: inf
ROOT
ATOM      1  C   UNL     1      -5.537 -23.113  35.425  1.00  0.00     0.180 A 
ATOM      2  C   UNL     1      -4.415 -23.157  36.271  1.00  0.00     0.208 A 
ATOM      3  C   UNL     1      -3.480 -22.111  36.216  1.00  0.00     0.238 A 
ATOM      4  O   UNL     1      -2.451 -22.182  36.937  1.00  0.00    -0.285 OA
ATOM      5  C   UNL     1      -3.686 -21.028  35.329  1.00  0.00     0.111 A 
ATOM      6  C   UNL     1      -2.824 -19.895  35.218  1.00  0.00     0.134 A 
ATOM      7  C   UNL     1      -3.054 -18.947  34.215  1.00  0.00     0.093 A 
ATOM      8  C   UNL     1      -4.151 -19.054  33.360  1.00  0.00     0.123 A 
ATOM      9  C   UNL     1      -5.034 -20.126  33.497  1.00  0.00     0.094 A 
ATOM     10  C   UNL     1      -4.810 -21.108  34.465  1.00  0.00     0.146 A 
ATOM     11  O   UNL     1      -5.668 -22.118  34.556  1.00  0.00    -0.452 OA
ENDROOT
BRANCH   1  12
ATOM     12  C   UNL     1      -6.579 -24.165  35.442  1.00  0.00     0.025 A 
ATOM     13  C   UNL     1      -6.368 -25.359  34.734  1.00  0.00     0.016 A 
ATOM     14  C   UNL     1      -7.346 -26.357  34.720  1.00  0.00     0.051 A 
ATOM     15  C   UNL     1      -8.556 -26.168  35.402  1.00  0.00     0.157 A 
ATOM     16  C   UNL     1      -7.802 -23.972  36.108  1.00  0.00     0.062 A 
ATOM     17  C   UNL     1      -8.787 -24.972  36.093  1.00  0.00     0.158 A 
BRANCH  15  18
ATOM     18  O   UNL     1      -9.534 -27.161  35.392  1.00  0.00    -0.504 OA
ATOM     19  H   UNL     1      -9.292 -28.143  35.341  1.00  0.00     0.293 HD
ENDBRANCH  15  18
BRANCH  17  20
ATOM     20  O   UNL     1      -9.997 -24.782  36.759  1.00  0.00    -0.504 OA
ATOM     21  H   UNL     1     -10.652 -25.544  36.893  1.00  0.00     0.293 HD
ENDBRANCH  17  20
ENDBRANCH   1  12
BRANCH   2  22
ATOM     22  O   UNL     1      -4.221 -24.246  37.124  1.00  0.00    -0.502 OA
ATOM     23  H   UNL     1      -3.874 -25.139  36.796  1.00  0.00     0.293 HD
ENDBRANCH   2  22
BRANCH   6  24
ATOM     24  O   UNL     1      -1.753 -19.642  36.081  1.00  0.00    -0.507 OA
ATOM     25  H   UNL     1      -1.472 -18.725  36.394  1.00  0.00     0.293 HD
ENDBRANCH   6  24
BRANCH   8  26
ATOM     26  O   UNL     1      -4.359 -18.083  32.382  1.00  0.00    -0.508 OA
ATOM     27  H   UNL     1      -5.273 -17.675  32.226  1.00  0.00     0.293 HD
ENDBRANCH   8  26
TORSDOF 6
ENDMDL
MODEL 8
REMARK VINA RESULT:    -5.329      2.199      2.943
REMARK INTER + INTRA:          -6.709
REMARK INTER:                  -6.380
REMARK INTRA:                  -0.329
REMARK UNBOUND:                -0.290
REMARK SMILES O=c1c(O)c(-c2ccc(O)c(O)c2)oc2cc(O)cc(O)c12
REMARK SMILES IDX 5 1 3 2 2 3 1 4 22 5 20 6 19 7 17 8 16 9 15 10 14 11 6 12
REMARK SMILES IDX 7 13 8 14 9 15 13 16 11 17 10 18 12 20 4 22 21 24 18 26
REMARK H PARENT 10 19 12 21 4 23 21 25 18 27
REMARK Flexibility Score: inf
ROOT
ATOM      1  C   UNL     1      -4.763 -21.248  35.148  1.00  0.00     0.180 A 
ATOM      2  C   UNL     1      -5.023 -20.531  33.967  1.00  0.00     0.208 A 
ATOM      3  C   UNL     1      -4.153 -19.492  33.596  1.00  0.00     0.238 A 
ATOM      4  O   UNL     1      -4.420 -18.819  32.568  1.00  0.00    -0.285 OA
ATOM      5  C   UNL     1      -3.027 -19.196  34.401  1.00  0.00     0.111 A 
ATOM      6  C   UNL     1      -2.057 -18.192  34.100  1.00  0.00     0.134 A 
ATOM      7  C   UNL     1      -1.056 -17.896  35.033  1.00  0.00     0.093 A 
ATOM      8  C   UNL     1      -0.950 -18.611  36.225  1.00  0.00     0.123 A 
ATOM      9  C   UNL     1      -1.856 -19.635  36.504  1.00  0.00     0.094 A 
ATOM     10  C   UNL     1      -2.888 -19.928  35.609  1.00  0.00     0.146 A 
ATOM     11  O   UNL     1      -3.736 -20.902  35.916  1.00  0.00    -0.452 OA
ENDROOT
BRANCH   1  12
ATOM     12  C   UNL     1      -5.619 -22.372  35.592  1.00  0.00     0.025 A 
ATOM     13  C   UNL     1      -6.700 -22.120  36.453  1.00  0.00     0.016 A 
ATOM     14  C   UNL     1      -7.508 -23.167  36.900  1.00  0.00     0.051 A 
ATOM     15  C   UNL     1      -7.238 -24.484  36.505  1.00  0.00     0.157 A 
ATOM     16  C   UNL     1      -5.341 -23.698  35.215  1.00  0.00     0.062 A 
ATOM     17  C   UNL     1      -6.150 -24.751  35.665  1.00  0.00     0.158 A 
BRANCH  15  18
ATOM     18  O   UNL     1      -8.043 -25.533  36.948  1.00  0.00    -0.504 OA
ATOM     19  H   UNL     1      -7.731 -26.174  37.667  1.00  0.00     0.293 HD
ENDBRANCH  15  18
BRANCH  17  20
ATOM     20  O   UNL     1      -5.877 -26.064  35.285  1.00  0.00    -0.504 OA
ATOM     21  H   UNL     1      -5.662 -26.304  34.324  1.00  0.00     0.293 HD
ENDBRANCH  17  20
ENDBRANCH   1  12
BRANCH   2  22
ATOM     22  O   UNL     1      -6.152 -20.826  33.199  1.00  0.00    -0.502 OA
ATOM     23  H   UNL     1      -6.844 -20.128  32.959  1.00  0.00     0.293 HD
ENDBRANCH   2  22
BRANCH   6  24
ATOM     24  O   UNL     1      -2.017 -17.482  32.896  1.00  0.00    -0.507 OA
ATOM     25  H   UNL     1      -1.662 -16.543  32.794  1.00  0.00     0.293 HD
ENDBRANCH   6  24
BRANCH   8  26
ATOM     26  O   UNL     1       0.069 -18.300  37.125  1.00  0.00    -0.508 OA
ATOM     27  H   UNL     1       1.041 -18.286  36.841  1.00  0.00     0.293 HD
ENDBRANCH   8  26
TORSDOF 6
ENDMDL
