MODEL 1
REMARK VINA RESULT:    -3.145      0.000      0.000
REMARK INTER + INTRA:          -8.090
REMARK INTER:                  -5.719
REMARK INTRA:                  -2.371
REMARK UNBOUND:                -2.371
REMARK SMILES CCCCCCCCCCCCCCCC(=O)[O-]
REMARK SMILES IDX 9 1 10 2 11 3 12 4 13 5 14 6 15 7 16 8 17 9 18 10 8 11 7 12
REMARK SMILES IDX 6 13 5 14 4 15 3 16 2 17 1 18
REMARK H PARENT
REMARK Flexibility Score: inf
ROOT
ATOM      1  C   UNL     1     -92.756 147.104 241.317  1.00  0.00     0.000 C 
ENDROOT
BRANCH   1   2
ATOM      2  C   UNL     1     -94.124 147.553 241.862  1.00  0.00     0.000 C 
BRANCH   2   3
ATOM      3  C   UNL     1     -94.983 146.377 242.356  1.00  0.00     0.000 C 
BRANCH   3   4
ATOM      4  C   UNL     1     -96.457 146.491 241.926  1.00  0.00     0.000 C 
BRANCH   4   5
ATOM      5  C   UNL     1     -96.904 147.902 241.501  1.00  0.00     0.000 C 
BRANCH   5   6
ATOM      6  C   UNL     1     -97.804 148.586 242.544  1.00  0.00     0.006 C 
BRANCH   6   7
ATOM      7  C   UNL     1     -97.001 149.142 243.727  1.00  0.00     0.053 C 
BRANCH   7   8
ATOM      8  C   UNL     1     -97.463 148.569 245.032  1.00  0.00     0.041 C 
ATOM      9  O   UNL     1     -97.336 147.338 245.265  1.00  0.00    -0.550 OA
ATOM     10  O   UNL     1     -98.011 149.400 246.001  1.00  0.00    -0.550 OA
ENDBRANCH   7   8
ENDBRANCH   6   7
ENDBRANCH   5   6
ENDBRANCH   4   5
ENDBRANCH   3   4
ENDBRANCH   2   3
ENDBRANCH   1   2
BRANCH   1  11
ATOM     11  C   UNL     1     -92.640 145.597 241.009  1.00  0.00     0.000 C 
BRANCH  11  12
ATOM     12  C   UNL     1     -91.911 145.251 239.697  1.00  0.00    -0.000 C 
BRANCH  12  13
ATOM     13  C   UNL     1     -92.840 145.262 238.475  1.00  0.00    -0.000 C 
BRANCH  13  14
ATOM     14  C   UNL     1     -94.303 145.067 238.899  1.00  0.00    -0.000 C 
BRANCH  14  15
ATOM     15  C   UNL     1     -95.214 146.213 238.429  1.00  0.00    -0.000 C 
BRANCH  15  16
ATOM     16  C   UNL     1     -94.426 147.382 237.818  1.00  0.00    -0.000 C 
BRANCH  16  17
ATOM     17  C   UNL     1     -94.843 148.714 238.453  1.00  0.00    -0.003 C 
ATOM     18  C   UNL     1     -96.274 149.083 238.071  1.00  0.00     0.004 C 
ENDBRANCH  16  17
ENDBRANCH  15  16
ENDBRANCH  14  15
ENDBRANCH  13  14
ENDBRANCH  12  13
ENDBRANCH  11  12
ENDBRANCH   1  11
TORSDOF 14
ENDMDL
MODEL 2
REMARK VINA RESULT:    -3.138      3.577      5.844
REMARK INTER + INTRA:          -8.077
REMARK INTER:                  -6.512
REMARK INTRA:                  -1.565
REMARK UNBOUND:                -2.371
REMARK SMILES CCCCCCCCCCCCCCCC(=O)[O-]
REMARK SMILES IDX 9 1 10 2 11 3 12 4 13 5 14 6 15 7 16 8 17 9 18 10 8 11 7 12
REMARK SMILES IDX 6 13 5 14 4 15 3 16 2 17 1 18
REMARK H PARENT
REMARK Flexibility Score: inf
ROOT
ATOM      1  C   UNL     1     -94.070 146.908 238.765  1.00  0.00     0.000 C 
ENDROOT
BRANCH   1   2
ATOM      2  C   UNL     1     -94.691 148.266 239.138  1.00  0.00     0.000 C 
BRANCH   2   3
ATOM      3  C   UNL     1     -96.223 148.279 239.000  1.00  0.00     0.000 C 
BRANCH   3   4
ATOM      4  C   UNL     1     -96.727 149.370 238.039  1.00  0.00     0.000 C 
BRANCH   4   5
ATOM      5  C   UNL     1     -95.744 149.757 236.920  1.00  0.00     0.000 C 
BRANCH   5   6
ATOM      6  C   UNL     1     -95.345 151.243 236.959  1.00  0.00     0.006 C 
BRANCH   6   7
ATOM      7  C   UNL     1     -96.398 152.143 236.296  1.00  0.00     0.053 C 
BRANCH   7   8
ATOM      8  C   UNL     1     -96.956 153.145 237.259  1.00  0.00     0.041 C 
ATOM      9  O   UNL     1     -97.792 152.790 238.131  1.00  0.00    -0.550 OA
ATOM     10  O   UNL     1     -96.532 154.467 237.209  1.00  0.00    -0.550 OA
ENDBRANCH   7   8
ENDBRANCH   6   7
ENDBRANCH   5   6
ENDBRANCH   4   5
ENDBRANCH   3   4
ENDBRANCH   2   3
ENDBRANCH   1   2
BRANCH   1  11
ATOM     11  C   UNL     1     -93.695 146.011 239.962  1.00  0.00     0.000 C 
BRANCH  11  12
ATOM     12  C   UNL     1     -92.801 146.676 241.025  1.00  0.00    -0.000 C 
BRANCH  12  13
ATOM     13  C   UNL     1     -93.533 146.928 242.350  1.00  0.00    -0.000 C 
BRANCH  13  14
ATOM     14  C   UNL     1     -94.860 146.157 242.397  1.00  0.00    -0.000 C 
BRANCH  14  15
ATOM     15  C   UNL     1     -96.031 147.020 242.894  1.00  0.00    -0.000 C 
BRANCH  15  16
ATOM     16  C   UNL     1     -95.786 148.523 242.689  1.00  0.00    -0.000 C 
BRANCH  16  17
ATOM     17  C   UNL     1     -97.024 149.338 243.081  1.00  0.00    -0.003 C 
ATOM     18  C   UNL     1     -97.561 148.906 244.443  1.00  0.00     0.004 C 
ENDBRANCH  16  17
ENDBRANCH  15  16
ENDBRANCH  14  15
ENDBRANCH  13  14
ENDBRANCH  12  13
ENDBRANCH  11  12
ENDBRANCH   1  11
TORSDOF 14
ENDMDL
MODEL 3
REMARK VINA RESULT:    -3.122      3.571      5.161
REMARK INTER + INTRA:          -8.049
REMARK INTER:                  -6.555
REMARK INTRA:                  -1.494
REMARK UNBOUND:                -2.371
REMARK SMILES CCCCCCCCCCCCCCCC(=O)[O-]
REMARK SMILES IDX 9 1 10 2 11 3 12 4 13 5 14 6 15 7 16 8 17 9 18 10 8 11 7 12
REMARK SMILES IDX 6 13 5 14 4 15 3 16 2 17 1 18
REMARK H PARENT
REMARK Flexibility Score: inf
ROOT
ATOM      1  C   UNL     1     -93.712 147.399 242.226  1.00  0.00     0.000 C 
ENDROOT
BRANCH   1   2
ATOM      2  C   UNL     1     -95.020 148.119 241.854  1.00  0.00     0.000 C 
BRANCH   2   3
ATOM      3  C   UNL     1     -95.475 147.821 240.415  1.00  0.00     0.000 C 
BRANCH   3   4
ATOM      4  C   UNL     1     -94.613 148.533 239.356  1.00  0.00     0.000 C 
BRANCH   4   5
ATOM      5  C   UNL     1     -95.355 148.914 238.062  1.00  0.00     0.000 C 
BRANCH   5   6
ATOM      6  C   UNL     1     -94.675 150.062 237.296  1.00  0.00     0.006 C 
BRANCH   6   7
ATOM      7  C   UNL     1     -95.630 150.744 236.307  1.00  0.00     0.053 C 
BRANCH   7   8
ATOM      8  C   UNL     1     -96.465 151.793 236.975  1.00  0.00     0.041 C 
ATOM      9  O   UNL     1     -95.926 152.830 237.443  1.00  0.00    -0.550 OA
ATOM     10  O   UNL     1     -97.843 151.636 237.056  1.00  0.00    -0.550 OA
ENDBRANCH   7   8
ENDBRANCH   6   7
ENDBRANCH   5   6
ENDBRANCH   4   5
ENDBRANCH   3   4
ENDBRANCH   2   3
ENDBRANCH   1   2
BRANCH   1  11
ATOM     11  C   UNL     1     -93.829 145.868 242.372  1.00  0.00     0.000 C 
BRANCH  11  12
ATOM     12  C   UNL     1     -92.740 145.055 241.646  1.00  0.00    -0.000 C 
BRANCH  12  13
ATOM     13  C   UNL     1     -92.311 145.685 240.313  1.00  0.00    -0.000 C 
BRANCH  13  14
ATOM     14  C   UNL     1     -93.200 145.188 239.163  1.00  0.00    -0.000 C 
BRANCH  14  15
ATOM     15  C   UNL     1     -92.521 145.320 237.790  1.00  0.00    -0.000 C 
BRANCH  15  16
ATOM     16  C   UNL     1     -93.323 146.195 236.816  1.00  0.00    -0.000 C 
BRANCH  16  17
ATOM     17  C   UNL     1     -92.559 146.391 235.500  1.00  0.00    -0.003 C 
ATOM     18  C   UNL     1     -91.135 145.852 235.603  1.00  0.00     0.004 C 
ENDBRANCH  16  17
ENDBRANCH  15  16
ENDBRANCH  14  15
ENDBRANCH  13  14
ENDBRANCH  12  13
ENDBRANCH  11  12
ENDBRANCH   1  11
TORSDOF 14
ENDMDL
MODEL 4
REMARK VINA RESULT:    -3.111      3.601      5.785
REMARK INTER + INTRA:          -8.028
REMARK INTER:                  -6.066
REMARK INTRA:                  -1.962
REMARK UNBOUND:                -2.371
REMARK SMILES CCCCCCCCCCCCCCCC(=O)[O-]
REMARK SMILES IDX 9 1 10 2 11 3 12 4 13 5 14 6 15 7 16 8 17 9 18 10 8 11 7 12
REMARK SMILES IDX 6 13 5 14 4 15 3 16 2 17 1 18
REMARK H PARENT
REMARK Flexibility Score: inf
ROOT
ATOM      1  C   UNL     1     -93.148 147.192 240.956  1.00  0.00     0.000 C 
ENDROOT
BRANCH   1   2
ATOM      2  C   UNL     1     -93.375 146.266 239.747  1.00  0.00     0.000 C 
BRANCH   2   3
ATOM      3  C   UNL     1     -94.343 146.865 238.712  1.00  0.00     0.000 C 
BRANCH   3   4
ATOM      4  C   UNL     1     -94.709 148.330 239.013  1.00  0.00     0.000 C 
BRANCH   4   5
ATOM      5  C   UNL     1     -95.964 148.849 238.289  1.00  0.00     0.000 C 
BRANCH   5   6
ATOM      6  C   UNL     1     -95.654 149.453 236.909  1.00  0.00     0.006 C 
BRANCH   6   7
ATOM      7  C   UNL     1     -95.004 150.840 237.017  1.00  0.00     0.053 C 
BRANCH   7   8
ATOM      8  C   UNL     1     -95.977 151.935 236.705  1.00  0.00     0.041 C 
ATOM      9  O   UNL     1     -96.091 152.922 237.478  1.00  0.00    -0.550 OA
ATOM     10  O   UNL     1     -96.739 151.878 235.545  1.00  0.00    -0.550 OA
ENDBRANCH   7   8
ENDBRANCH   6   7
ENDBRANCH   5   6
ENDBRANCH   4   5
ENDBRANCH   3   4
ENDBRANCH   2   3
ENDBRANCH   1   2
BRANCH   1  11
ATOM     11  C   UNL     1     -93.239 146.501 242.332  1.00  0.00     0.000 C 
BRANCH  11  12
ATOM     12  C   UNL     1     -94.315 145.406 242.446  1.00  0.00    -0.000 C 
BRANCH  12  13
ATOM     13  C   UNL     1     -95.668 145.945 242.931  1.00  0.00    -0.000 C 
BRANCH  13  14
ATOM     14  C   UNL     1     -96.652 146.087 241.760  1.00  0.00    -0.000 C 
BRANCH  14  15
ATOM     15  C   UNL     1     -97.211 147.512 241.624  1.00  0.00    -0.000 C 
BRANCH  15  16
ATOM     16  C   UNL     1     -96.337 148.560 242.330  1.00  0.00    -0.000 C 
BRANCH  16  17
ATOM     17  C   UNL     1     -97.195 149.513 243.169  1.00  0.00    -0.003 C 
ATOM     18  C   UNL     1     -97.571 148.885 244.508  1.00  0.00     0.004 C 
ENDBRANCH  16  17
ENDBRANCH  15  16
ENDBRANCH  14  15
ENDBRANCH  13  14
ENDBRANCH  12  13
ENDBRANCH  11  12
ENDBRANCH   1  11
TORSDOF 14
ENDMDL
MODEL 5
REMARK VINA RESULT:    -3.103      3.344      6.163
REMARK INTER + INTRA:          -8.014
REMARK INTER:                  -6.017
REMARK INTRA:                  -1.997
REMARK UNBOUND:                -2.371
REMARK SMILES CCCCCCCCCCCCCCCC(=O)[O-]
REMARK SMILES IDX 9 1 10 2 11 3 12 4 13 5 14 6 15 7 16 8 17 9 18 10 8 11 7 12
REMARK SMILES IDX 6 13 5 14 4 15 3 16 2 17 1 18
REMARK H PARENT
REMARK Flexibility Score: inf
ROOT
ATOM      1  C   UNL     1     -92.870 147.119 241.255  1.00  0.00     0.000 C 
ENDROOT
BRANCH   1   2
ATOM      2  C   UNL     1     -92.603 145.752 240.600  1.00  0.00     0.000 C 
BRANCH   2   3
ATOM      3  C   UNL     1     -93.114 145.675 239.151  1.00  0.00     0.000 C 
BRANCH   3   4
ATOM      4  C   UNL     1     -94.633 145.438 239.065  1.00  0.00     0.000 C 
BRANCH   4   5
ATOM      5  C   UNL     1     -95.410 146.482 238.244  1.00  0.00     0.000 C 
BRANCH   5   6
ATOM      6  C   UNL     1     -94.652 147.813 238.095  1.00  0.00     0.006 C 
BRANCH   6   7
ATOM      7  C   UNL     1     -95.603 149.015 238.011  1.00  0.00     0.053 C 
BRANCH   7   8
ATOM      8  C   UNL     1     -95.183 149.983 236.947  1.00  0.00     0.041 C 
ATOM      9  O   UNL     1     -95.018 151.199 237.226  1.00  0.00    -0.550 OA
ATOM     10  O   UNL     1     -94.949 149.534 235.653  1.00  0.00    -0.550 OA
ENDBRANCH   7   8
ENDBRANCH   6   7
ENDBRANCH   5   6
ENDBRANCH   4   5
ENDBRANCH   3   4
ENDBRANCH   2   3
ENDBRANCH   1   2
BRANCH   1  11
ATOM     11  C   UNL     1     -94.029 147.139 242.272  1.00  0.00     0.000 C 
BRANCH  11  12
ATOM     12  C   UNL     1     -95.081 148.241 242.046  1.00  0.00    -0.000 C 
BRANCH  12  13
ATOM     13  C   UNL     1     -96.452 147.685 241.637  1.00  0.00    -0.000 C 
BRANCH  13  14
ATOM     14  C   UNL     1     -97.523 148.786 241.682  1.00  0.00    -0.000 C 
BRANCH  14  15
ATOM     15  C   UNL     1     -97.418 149.664 242.939  1.00  0.00    -0.000 C 
BRANCH  15  16
ATOM     16  C   UNL     1     -98.344 149.193 244.070  1.00  0.00    -0.000 C 
BRANCH  16  17
ATOM     17  C   UNL     1     -97.533 148.644 245.250  1.00  0.00    -0.003 C 
ATOM     18  C   UNL     1     -97.469 147.119 245.214  1.00  0.00     0.004 C 
ENDBRANCH  16  17
ENDBRANCH  15  16
ENDBRANCH  14  15
ENDBRANCH  13  14
ENDBRANCH  12  13
ENDBRANCH  11  12
ENDBRANCH   1  11
TORSDOF 14
ENDMDL
MODEL 6
REMARK VINA RESULT:    -3.082      1.826      2.839
REMARK INTER + INTRA:          -7.975
REMARK INTER:                  -6.435
REMARK INTRA:                  -1.540
REMARK UNBOUND:                -2.371
REMARK SMILES CCCCCCCCCCCCCCCC(=O)[O-]
REMARK SMILES IDX 9 1 10 2 11 3 12 4 13 5 14 6 15 7 16 8 17 9 18 10 8 11 7 12
REMARK SMILES IDX 6 13 5 14 4 15 3 16 2 17 1 18
REMARK H PARENT
REMARK Flexibility Score: inf
ROOT
ATOM      1  C   UNL     1     -95.146 146.803 242.437  1.00  0.00     0.000 C 
ENDROOT
BRANCH   1   2
ATOM      2  C   UNL     1     -95.243 148.337 242.358  1.00  0.00     0.000 C 
BRANCH   2   3
ATOM      3  C   UNL     1     -96.610 148.872 242.819  1.00  0.00     0.000 C 
BRANCH   3   4
ATOM      4  C   UNL     1     -97.021 148.346 244.206  1.00  0.00     0.000 C 
BRANCH   4   5
ATOM      5  C   UNL     1     -98.036 149.224 244.961  1.00  0.00     0.000 C 
BRANCH   5   6
ATOM      6  C   UNL     1     -98.022 148.986 246.481  1.00  0.00     0.006 C 
BRANCH   6   7
ATOM      7  C   UNL     1     -98.864 150.022 247.237  1.00  0.00     0.053 C 
BRANCH   7   8
ATOM      8  C   UNL     1     -98.010 150.948 248.048  1.00  0.00     0.041 C 
ATOM      9  O   UNL     1     -96.845 150.605 248.384  1.00  0.00    -0.550 OA
ATOM     10  O   UNL     1     -98.491 152.200 248.410  1.00  0.00    -0.550 OA
ENDBRANCH   7   8
ENDBRANCH   6   7
ENDBRANCH   5   6
ENDBRANCH   4   5
ENDBRANCH   3   4
ENDBRANCH   2   3
ENDBRANCH   1   2
BRANCH   1  11
ATOM     11  C   UNL     1     -93.718 146.233 242.319  1.00  0.00     0.000 C 
BRANCH  11  12
ATOM     12  C   UNL     1     -92.878 146.805 241.161  1.00  0.00    -0.000 C 
BRANCH  12  13
ATOM     13  C   UNL     1     -92.477 145.741 240.130  1.00  0.00    -0.000 C 
BRANCH  13  14
ATOM     14  C   UNL     1     -93.699 145.272 239.326  1.00  0.00    -0.000 C 
BRANCH  14  15
ATOM     15  C   UNL     1     -94.289 146.381 238.441  1.00  0.00    -0.000 C 
BRANCH  15  16
ATOM     16  C   UNL     1     -95.770 146.655 238.744  1.00  0.00    -0.000 C 
BRANCH  16  17
ATOM     17  C   UNL     1     -96.054 148.161 238.772  1.00  0.00    -0.003 C 
ATOM     18  C   UNL     1     -94.767 148.969 238.626  1.00  0.00     0.004 C 
ENDBRANCH  16  17
ENDBRANCH  15  16
ENDBRANCH  14  15
ENDBRANCH  13  14
ENDBRANCH  12  13
ENDBRANCH  11  12
ENDBRANCH   1  11
TORSDOF 14
ENDMDL
MODEL 7
REMARK VINA RESULT:    -3.070      3.147      5.652
REMARK INTER + INTRA:          -7.954
REMARK INTER:                  -5.997
REMARK INTRA:                  -1.957
REMARK UNBOUND:                -2.371
REMARK SMILES CCCCCCCCCCCCCCCC(=O)[O-]
REMARK SMILES IDX 9 1 10 2 11 3 12 4 13 5 14 6 15 7 16 8 17 9 18 10 8 11 7 12
REMARK SMILES IDX 6 13 5 14 4 15 3 16 2 17 1 18
REMARK H PARENT
REMARK Flexibility Score: inf
ROOT
ATOM      1  C   UNL     1     -93.635 146.035 242.557  1.00  0.00     0.000 C 
ENDROOT
BRANCH   1   2
ATOM      2  C   UNL     1     -92.887 145.040 241.653  1.00  0.00     0.000 C 
BRANCH   2   3
ATOM      3  C   UNL     1     -92.374 145.684 240.354  1.00  0.00     0.000 C 
BRANCH   3   4
ATOM      4  C   UNL     1     -93.218 145.305 239.124  1.00  0.00     0.000 C 
BRANCH   4   5
ATOM      5  C   UNL     1     -93.645 146.488 238.237  1.00  0.00     0.000 C 
BRANCH   5   6
ATOM      6  C   UNL     1     -94.982 147.113 238.673  1.00  0.00     0.006 C 
BRANCH   6   7
ATOM      7  C   UNL     1     -94.951 148.646 238.614  1.00  0.00     0.053 C 
BRANCH   7   8
ATOM      8  C   UNL     1     -95.711 149.173 237.436  1.00  0.00     0.041 C 
ATOM      9  O   UNL     1     -96.427 150.202 237.551  1.00  0.00    -0.550 OA
ATOM     10  O   UNL     1     -95.605 148.541 236.203  1.00  0.00    -0.550 OA
ENDBRANCH   7   8
ENDBRANCH   6   7
ENDBRANCH   5   6
ENDBRANCH   4   5
ENDBRANCH   3   4
ENDBRANCH   2   3
ENDBRANCH   1   2
BRANCH   1  11
ATOM     11  C   UNL     1     -93.624 147.497 242.066  1.00  0.00     0.000 C 
BRANCH  11  12
ATOM     12  C   UNL     1     -94.940 148.269 242.277  1.00  0.00    -0.000 C 
BRANCH  12  13
ATOM     13  C   UNL     1     -96.112 147.359 242.668  1.00  0.00    -0.000 C 
BRANCH  13  14
ATOM     14  C   UNL     1     -96.992 148.028 243.735  1.00  0.00    -0.000 C 
BRANCH  14  15
ATOM     15  C   UNL     1     -97.387 149.466 243.360  1.00  0.00    -0.000 C 
BRANCH  15  16
ATOM     16  C   UNL     1     -98.742 149.538 242.640  1.00  0.00    -0.000 C 
BRANCH  16  17
ATOM     17  C   UNL     1     -98.575 150.057 241.207  1.00  0.00    -0.003 C 
ATOM     18  C   UNL     1     -98.443 148.904 240.215  1.00  0.00     0.004 C 
ENDBRANCH  16  17
ENDBRANCH  15  16
ENDBRANCH  14  15
ENDBRANCH  13  14
ENDBRANCH  12  13
ENDBRANCH  11  12
ENDBRANCH   1  11
TORSDOF 14
ENDMDL
MODEL 8
REMARK VINA RESULT:    -3.057      3.571      5.559
REMARK INTER + INTRA:          -7.930
REMARK INTER:                  -6.269
REMARK INTRA:                  -1.662
REMARK UNBOUND:                -2.371
REMARK SMILES CCCCCCCCCCCCCCCC(=O)[O-]
REMARK SMILES IDX 9 1 10 2 11 3 12 4 13 5 14 6 15 7 16 8 17 9 18 10 8 11 7 12
REMARK SMILES IDX 6 13 5 14 4 15 3 16 2 17 1 18
REMARK H PARENT
REMARK Flexibility Score: inf
ROOT
ATOM      1  C   UNL     1     -91.822 145.151 238.926  1.00  0.00     0.000 C 
ENDROOT
BRANCH   1   2
ATOM      2  C   UNL     1     -93.299 145.066 238.504  1.00  0.00     0.000 C 
BRANCH   2   3
ATOM      3  C   UNL     1     -93.771 146.308 237.730  1.00  0.00     0.000 C 
BRANCH   3   4
ATOM      4  C   UNL     1     -94.988 146.991 238.380  1.00  0.00     0.000 C 
BRANCH   4   5
ATOM      5  C   UNL     1     -94.796 148.482 238.714  1.00  0.00     0.000 C 
BRANCH   5   6
ATOM      6  C   UNL     1     -95.667 149.408 237.847  1.00  0.00     0.006 C 
BRANCH   6   7
ATOM      7  C   UNL     1     -94.836 150.490 237.142  1.00  0.00     0.053 C 
BRANCH   7   8
ATOM      8  C   UNL     1     -95.700 151.585 236.596  1.00  0.00     0.041 C 
ATOM      9  O   UNL     1     -96.132 151.525 235.415  1.00  0.00    -0.550 OA
ATOM     10  O   UNL     1     -96.049 152.661 237.403  1.00  0.00    -0.550 OA
ENDBRANCH   7   8
ENDBRANCH   6   7
ENDBRANCH   5   6
ENDBRANCH   4   5
ENDBRANCH   3   4
ENDBRANCH   2   3
ENDBRANCH   1   2
BRANCH   1  11
ATOM     11  C   UNL     1     -91.580 145.189 240.449  1.00  0.00     0.000 C 
BRANCH  11  12
ATOM     12  C   UNL     1     -92.851 145.295 241.312  1.00  0.00    -0.000 C 
BRANCH  12  13
ATOM     13  C   UNL     1     -93.219 146.743 241.662  1.00  0.00    -0.000 C 
BRANCH  13  14
ATOM     14  C   UNL     1     -94.672 146.835 242.151  1.00  0.00    -0.000 C 
BRANCH  14  15
ATOM     15  C   UNL     1     -95.156 148.286 242.300  1.00  0.00    -0.000 C 
BRANCH  15  16
ATOM     16  C   UNL     1     -96.587 148.379 242.851  1.00  0.00    -0.000 C 
BRANCH  16  17
ATOM     17  C   UNL     1     -97.509 149.103 241.862  1.00  0.00    -0.003 C 
ATOM     18  C   UNL     1     -98.089 148.134 240.836  1.00  0.00     0.004 C 
ENDBRANCH  16  17
ENDBRANCH  15  16
ENDBRANCH  14  15
ENDBRANCH  13  14
ENDBRANCH  12  13
ENDBRANCH  11  12
ENDBRANCH   1  11
TORSDOF 14
ENDMDL
MODEL 9
REMARK VINA RESULT:    -3.056      3.730      5.656
REMARK INTER + INTRA:          -7.928
REMARK INTER:                  -5.847
REMARK INTRA:                  -2.081
REMARK UNBOUND:                -2.371
REMARK SMILES CCCCCCCCCCCCCCCC(=O)[O-]
REMARK SMILES IDX 9 1 10 2 11 3 12 4 13 5 14 6 15 7 16 8 17 9 18 10 8 11 7 12
REMARK SMILES IDX 6 13 5 14 4 15 3 16 2 17 1 18
REMARK H PARENT
REMARK Flexibility Score: inf
ROOT
ATOM      1  C   UNL     1     -94.556 146.188 238.233  1.00  0.00     0.000 C 
ENDROOT
BRANCH   1   2
ATOM      2  C   UNL     1     -94.615 147.644 237.739  1.00  0.00     0.000 C 
BRANCH   2   3
ATOM      3  C   UNL     1     -95.166 148.611 238.800  1.00  0.00     0.000 C 
BRANCH   3   4
ATOM      4  C   UNL     1     -96.591 148.249 239.257  1.00  0.00     0.000 C 
BRANCH   4   5
ATOM      5  C   UNL     1     -97.651 149.337 239.007  1.00  0.00     0.000 C 
BRANCH   5   6
ATOM      6  C   UNL     1     -97.641 149.863 237.562  1.00  0.00     0.006 C 
BRANCH   6   7
ATOM      7  C   UNL     1     -97.343 151.368 237.496  1.00  0.00     0.053 C 
BRANCH   7   8
ATOM      8  C   UNL     1     -96.367 151.693 236.406  1.00  0.00     0.041 C 
ATOM      9  O   UNL     1     -96.686 152.491 235.486  1.00  0.00    -0.550 OA
ATOM     10  O   UNL     1     -95.096 151.134 236.422  1.00  0.00    -0.550 OA
ENDBRANCH   7   8
ENDBRANCH   6   7
ENDBRANCH   5   6
ENDBRANCH   4   5
ENDBRANCH   3   4
ENDBRANCH   2   3
ENDBRANCH   1   2
BRANCH   1  11
ATOM     11  C   UNL     1     -93.249 145.794 238.950  1.00  0.00     0.000 C 
BRANCH  11  12
ATOM     12  C   UNL     1     -93.345 145.702 240.484  1.00  0.00    -0.000 C 
BRANCH  12  13
ATOM     13  C   UNL     1     -92.833 146.963 241.194  1.00  0.00    -0.000 C 
BRANCH  13  14
ATOM     14  C   UNL     1     -93.951 147.618 242.018  1.00  0.00    -0.000 C 
BRANCH  14  15
ATOM     15  C   UNL     1     -95.113 146.656 242.310  1.00  0.00    -0.000 C 
BRANCH  15  16
ATOM     16  C   UNL     1     -96.307 147.356 242.977  1.00  0.00    -0.000 C 
BRANCH  16  17
ATOM     17  C   UNL     1     -96.118 148.877 242.980  1.00  0.00    -0.003 C 
ATOM     18  C   UNL     1     -97.460 149.601 242.900  1.00  0.00     0.004 C 
ENDBRANCH  16  17
ENDBRANCH  15  16
ENDBRANCH  14  15
ENDBRANCH  13  14
ENDBRANCH  12  13
ENDBRANCH  11  12
ENDBRANCH   1  11
TORSDOF 14
ENDMDL
