MODEL 1
REMARK VINA RESULT:    65.915      0.000      0.000
REMARK INTER + INTRA:          72.214
REMARK INTER:                  71.695
REMARK INTRA:                   0.519
REMARK UNBOUND:                 0.519
REMARK SMILES C[C@@H]1[C@H](C)CC[C@]2(C(=O)[O-])CC[C@]3(C)C(=CC[C@@H]4[C@@]5(C)CC[C@@H](O)C(C)(C)[C@H]5CC[C@]43C)[C@@H]12
REMARK SMILES IDX 7 1 6 2 11 3 33 4 5 5 12 6 15 7 2 8 3 9 13 10 16 11 1 12
REMARK SMILES IDX 4 13 14 14 31 15 17 16 18 17 30 18 32 19 19 20 29 21 28 22
REMARK SMILES IDX 21 23 20 24 25 25 22 26 23 27 26 28 27 29 8 30 9 31 10 32
REMARK SMILES IDX 24 33
REMARK H PARENT 24 34
REMARK Flexibility Score: inf
ROOT
ATOM      1  C   UNL     1      20.324  39.941  30.093  1.00  0.00     0.017 C 
ATOM      2  C   UNL     1      19.562  39.060  31.140  1.00  0.00     0.014 C 
ATOM      3  C   UNL     1      20.550  41.353  30.722  1.00  0.00     0.014 C 
ATOM      4  C   UNL     1      19.507  40.153  28.773  1.00  0.00     0.030 C 
ATOM      5  C   UNL     1      18.224  38.515  30.638  1.00  0.00     0.004 C 
ATOM      6  C   UNL     1      21.287  42.326  29.778  1.00  0.00     0.013 C 
ATOM      7  C   UNL     1      20.277  41.097  27.814  1.00  0.00    -0.063 C 
ATOM      8  C   UNL     1      18.860  38.849  28.165  1.00  0.00    -0.003 C 
ATOM      9  C   UNL     1      18.420  37.826  29.277  1.00  0.00    -0.011 C 
ATOM     10  C   UNL     1      20.651  42.496  28.351  1.00  0.00    -0.006 C 
ATOM     11  C   UNL     1      20.549  40.737  26.537  1.00  0.00    -0.027 C 
ATOM     12  C   UNL     1      17.700  39.263  27.228  1.00  0.00     0.008 C 
ATOM     13  C   UNL     1      17.179  36.979  28.937  1.00  0.00     0.008 C 
ATOM     14  C   UNL     1      19.317  43.299  28.535  1.00  0.00     0.017 C 
ATOM     15  C   UNL     1      21.670  43.273  27.358  1.00  0.00    -0.020 C 
ATOM     16  C   UNL     1      21.199  41.612  25.510  1.00  0.00     0.032 C 
ATOM     17  C   UNL     1      21.201  43.111  25.887  1.00  0.00     0.006 C 
ATOM     18  C   UNL     1      21.672  44.785  27.652  1.00  0.00     0.008 C 
ATOM     19  C   UNL     1      23.125  42.699  27.496  1.00  0.00     0.012 C 
ATOM     20  C   UNL     1      21.850  44.076  24.756  1.00  0.00    -0.025 C 
ATOM     21  C   UNL     1      22.716  45.544  26.863  1.00  0.00     0.005 C 
ATOM     22  C   UNL     1      22.661  45.368  25.305  1.00  0.00     0.003 C 
ATOM     23  C   UNL     1      20.664  44.523  23.823  1.00  0.00     0.010 C 
ATOM     24  C   UNL     1      22.836  43.272  23.845  1.00  0.00     0.012 C 
ATOM     25  C   UNL     1      22.385  46.731  24.512  1.00  0.00    -0.006 C 
ATOM     26  C   UNL     1      19.937  45.760  24.350  1.00  0.00     0.033 C 
ATOM     27  C   UNL     1      20.835  47.020  24.391  1.00  0.00     0.120 C 
ATOM     28  C   UNL     1      23.021  46.657  23.088  1.00  0.00     0.014 C 
ATOM     29  C   UNL     1      23.125  47.962  25.153  1.00  0.00     0.014 C 
ENDROOT
BRANCH   1  30
ATOM     30  C   UNL     1      21.676  39.279  29.815  1.00  0.00     0.048 C 
ATOM     31  O   UNL     1      22.529  39.142  30.725  1.00  0.00    -0.550 OA
ATOM     32  O   UNL     1      22.024  38.923  28.517  1.00  0.00    -0.550 OA
ENDBRANCH   1  30
BRANCH  27  33
ATOM     33  O   UNL     1      20.363  47.887  25.401  1.00  0.00    -0.393 OA
ATOM     34  H   UNL     1      19.420  47.626  25.594  1.00  0.00     0.210 HD
ENDBRANCH  27  33
TORSDOF 2
ENDMDL
