MODEL 1
REMARK VINA RESULT:    -7.304      0.000      0.000
REMARK INTER + INTRA:          -7.830
REMARK INTER:                  -7.945
REMARK INTRA:                   0.115
REMARK UNBOUND:                 0.115
REMARK SMILES CC1(C)CC[C@]2(C(=O)[O-])CC[C@]3(C)C(=CC[C@@H]4[C@]5(C)CC[C@@H](O)C(C)(C)[C@H]5CC[C@@]43C)[C@H]2C1
REMARK SMILES IDX 6 1 5 2 10 3 32 4 4 5 11 6 14 7 33 8 2 9 12 10 15 11 1 12
REMARK SMILES IDX 3 13 13 14 30 15 16 16 17 17 29 18 31 19 18 20 28 21 27 22
REMARK SMILES IDX 20 23 19 24 24 25 21 26 22 27 25 28 26 29 7 30 8 31 9 32
REMARK SMILES IDX 23 33
REMARK H PARENT 23 34
REMARK Flexibility Score: inf
ROOT
ATOM      1  C   UNL     1       9.054   9.558 -15.791  1.00  0.00     0.017 C 
ATOM      2  C   UNL     1       9.640   8.180 -15.324  1.00  0.00     0.014 C 
ATOM      3  C   UNL     1       9.898  10.721 -15.175  1.00  0.00     0.014 C 
ATOM      4  C   UNL     1       7.577   9.737 -15.289  1.00  0.00     0.028 C 
ATOM      5  C   UNL     1       8.673   7.325 -14.484  1.00  0.00     0.007 C 
ATOM      6  C   UNL     1       9.325  12.141 -15.445  1.00  0.00     0.013 C 
ATOM      7  C   UNL     1       7.076  11.126 -15.693  1.00  0.00    -0.064 C 
ATOM      8  C   UNL     1       6.666   8.527 -15.615  1.00  0.00     0.015 C 
ATOM      9  C   UNL     1       7.270   7.156 -15.144  1.00  0.00    -0.035 C 
ATOM     10  C   UNL     1       7.814  12.325 -15.074  1.00  0.00    -0.006 C 
ATOM     11  C   UNL     1       6.450  11.272 -16.870  1.00  0.00    -0.027 C 
ATOM     12  C   UNL     1       7.382   6.190 -16.349  1.00  0.00     0.011 C 
ATOM     13  C   UNL     1       6.328   6.509 -14.106  1.00  0.00     0.011 C 
ATOM     14  C   UNL     1       7.702  12.223 -13.510  1.00  0.00     0.017 C 
ATOM     15  C   UNL     1       7.177  13.744 -15.578  1.00  0.00    -0.020 C 
ATOM     16  C   UNL     1       6.829  12.387 -17.781  1.00  0.00     0.032 C 
ATOM     17  C   UNL     1       6.706  13.769 -17.114  1.00  0.00     0.006 C 
ATOM     18  C   UNL     1       8.142  14.940 -15.260  1.00  0.00     0.008 C 
ATOM     19  C   UNL     1       5.875  14.020 -14.747  1.00  0.00     0.012 C 
ATOM     20  C   UNL     1       7.266  14.980 -18.000  1.00  0.00    -0.025 C 
ATOM     21  C   UNL     1       9.223  15.272 -16.309  1.00  0.00     0.005 C 
ATOM     22  C   UNL     1       8.816  15.079 -17.794  1.00  0.00     0.003 C 
ATOM     23  C   UNL     1       6.972  14.727 -19.522  1.00  0.00     0.010 C 
ATOM     24  C   UNL     1       6.534  16.304 -17.585  1.00  0.00     0.012 C 
ATOM     25  C   UNL     1       9.603  16.020 -18.806  1.00  0.00    -0.006 C 
ATOM     26  C   UNL     1       7.674  15.702 -20.473  1.00  0.00     0.033 C 
ATOM     27  C   UNL     1       9.197  15.654 -20.268  1.00  0.00     0.120 C 
ATOM     28  C   UNL     1      11.123  15.746 -18.659  1.00  0.00     0.014 C 
ATOM     29  C   UNL     1       9.387  17.544 -18.569  1.00  0.00     0.014 C 
ENDROOT
BRANCH   1  30
ATOM     30  C   UNL     1       9.182   9.623 -17.315  1.00  0.00     0.048 C 
ATOM     31  O   UNL     1       8.387   8.996 -18.064  1.00  0.00    -0.550 OA
ATOM     32  O   UNL     1      10.286  10.242 -17.896  1.00  0.00    -0.550 OA
ENDBRANCH   1  30
BRANCH  27  33
ATOM     33  O   UNL     1       9.827  16.510 -21.190  1.00  0.00    -0.393 OA
ATOM     34  H   UNL     1       9.112  17.016 -21.654  1.00  0.00     0.210 HD
ENDBRANCH  27  33
TORSDOF 2
ENDMDL
MODEL 2
REMARK VINA RESULT:    -7.214      2.176      7.574
REMARK INTER + INTRA:          -7.732
REMARK INTER:                  -7.776
REMARK INTRA:                   0.044
REMARK UNBOUND:                 0.115
REMARK SMILES CC1(C)CC[C@]2(C(=O)[O-])CC[C@]3(C)C(=CC[C@@H]4[C@]5(C)CC[C@@H](O)C(C)(C)[C@H]5CC[C@@]43C)[C@H]2C1
REMARK SMILES IDX 6 1 5 2 10 3 32 4 4 5 11 6 14 7 33 8 2 9 12 10 15 11 1 12
REMARK SMILES IDX 3 13 13 14 30 15 16 16 17 17 29 18 31 19 18 20 28 21 27 22
REMARK SMILES IDX 20 23 19 24 24 25 21 26 22 27 25 28 26 29 7 30 8 31 9 32
REMARK SMILES IDX 23 33
REMARK H PARENT 23 34
REMARK Flexibility Score: inf
ROOT
ATOM      1  C   UNL     1       9.441  14.696 -17.440  1.00  0.00     0.017 C 
ATOM      2  C   UNL     1      10.256  16.005 -17.733  1.00  0.00     0.014 C 
ATOM      3  C   UNL     1      10.238  13.457 -17.961  1.00  0.00     0.014 C 
ATOM      4  C   UNL     1       8.064  14.715 -18.192  1.00  0.00     0.028 C 
ATOM      5  C   UNL     1       9.554  16.996 -18.680  1.00  0.00     0.007 C 
ATOM      6  C   UNL     1       9.467  12.111 -17.863  1.00  0.00     0.013 C 
ATOM      7  C   UNL     1       7.342  13.387 -17.947  1.00  0.00    -0.064 C 
ATOM      8  C   UNL     1       7.256  16.018 -17.964  1.00  0.00     0.015 C 
ATOM      9  C   UNL     1       8.088  17.317 -18.259  1.00  0.00    -0.035 C 
ATOM     10  C   UNL     1       8.032  12.125 -18.492  1.00  0.00    -0.006 C 
ATOM     11  C   UNL     1       6.509  13.285 -16.902  1.00  0.00    -0.027 C 
ATOM     12  C   UNL     1       8.101  18.226 -17.006  1.00  0.00     0.011 C 
ATOM     13  C   UNL     1       7.421  18.105 -19.407  1.00  0.00     0.011 C 
ATOM     14  C   UNL     1       8.205  12.285 -20.046  1.00  0.00     0.017 C 
ATOM     15  C   UNL     1       7.157  10.781 -18.173  1.00  0.00    -0.020 C 
ATOM     16  C   UNL     1       6.592  12.106 -15.996  1.00  0.00     0.032 C 
ATOM     17  C   UNL     1       6.427  10.769 -16.742  1.00  0.00     0.006 C 
ATOM     18  C   UNL     1       8.017   9.485 -18.383  1.00  0.00     0.008 C 
ATOM     19  C   UNL     1       5.996  10.691 -19.224  1.00  0.00     0.012 C 
ATOM     20  C   UNL     1       6.681   9.473 -15.835  1.00  0.00    -0.025 C 
ATOM     21  C   UNL     1       8.854   8.992 -17.185  1.00  0.00     0.005 C 
ATOM     22  C   UNL     1       8.221   9.191 -15.782  1.00  0.00     0.003 C 
ATOM     23  C   UNL     1       6.158   9.717 -14.374  1.00  0.00     0.010 C 
ATOM     24  C   UNL     1       5.882   8.262 -16.433  1.00  0.00     0.012 C 
ATOM     25  C   UNL     1       8.706   8.131 -14.700  1.00  0.00    -0.006 C 
ATOM     26  C   UNL     1       6.568   8.636 -13.368  1.00  0.00     0.033 C 
ATOM     27  C   UNL     1       8.098   8.502 -13.311  1.00  0.00     0.120 C 
ATOM     28  C   UNL     1      10.250   8.221 -14.575  1.00  0.00     0.014 C 
ATOM     29  C   UNL     1       8.358   6.653 -15.045  1.00  0.00     0.014 C 
ENDROOT
BRANCH   1  30
ATOM     30  C   UNL     1       9.295  14.572 -15.921  1.00  0.00     0.048 C 
ATOM     31  O   UNL     1       8.681  15.443 -15.251  1.00  0.00    -0.550 OA
ATOM     32  O   UNL     1       9.986  13.578 -15.233  1.00  0.00    -0.550 OA
ENDBRANCH   1  30
BRANCH  27  33
ATOM     33  O   UNL     1       8.455   7.548 -12.339  1.00  0.00    -0.393 OA
ATOM     34  H   UNL     1       9.221   7.035 -12.703  1.00  0.00     0.210 HD
ENDBRANCH  27  33
TORSDOF 2
ENDMDL
MODEL 3
REMARK VINA RESULT:    -6.268      1.538      7.444
REMARK INTER + INTRA:          -6.703
REMARK INTER:                  -6.798
REMARK INTRA:                   0.095
REMARK UNBOUND:                 0.115
REMARK SMILES CC1(C)CC[C@]2(C(=O)[O-])CC[C@]3(C)C(=CC[C@@H]4[C@]5(C)CC[C@@H](O)C(C)(C)[C@H]5CC[C@@]43C)[C@H]2C1
REMARK SMILES IDX 6 1 5 2 10 3 32 4 4 5 11 6 14 7 33 8 2 9 12 10 15 11 1 12
REMARK SMILES IDX 3 13 13 14 30 15 16 16 17 17 29 18 31 19 18 20 28 21 27 22
REMARK SMILES IDX 20 23 19 24 24 25 21 26 22 27 25 28 26 29 7 30 8 31 9 32
REMARK SMILES IDX 23 33
REMARK H PARENT 23 34
REMARK Flexibility Score: inf
ROOT
ATOM      1  C   UNL     1       7.425  13.619 -18.520  1.00  0.00     0.017 C 
ATOM      2  C   UNL     1       7.136  14.568 -19.737  1.00  0.00     0.014 C 
ATOM      3  C   UNL     1       6.078  13.038 -17.980  1.00  0.00     0.014 C 
ATOM      4  C   UNL     1       8.097  14.410 -17.342  1.00  0.00     0.028 C 
ATOM      5  C   UNL     1       7.552  16.034 -19.517  1.00  0.00     0.007 C 
ATOM      6  C   UNL     1       6.218  12.198 -16.679  1.00  0.00     0.013 C 
ATOM      7  C   UNL     1       8.282  13.468 -16.149  1.00  0.00    -0.064 C 
ATOM      8  C   UNL     1       9.322  15.248 -17.785  1.00  0.00     0.015 C 
ATOM      9  C   UNL     1       9.017  16.189 -19.005  1.00  0.00    -0.035 C 
ATOM     10  C   UNL     1       6.997  12.906 -15.518  1.00  0.00    -0.006 C 
ATOM     11  C   UNL     1       9.428  12.781 -16.037  1.00  0.00    -0.027 C 
ATOM     12  C   UNL     1       9.999  15.883 -20.162  1.00  0.00     0.011 C 
ATOM     13  C   UNL     1       9.225  17.660 -18.586  1.00  0.00     0.011 C 
ATOM     14  C   UNL     1       6.115  14.112 -15.031  1.00  0.00     0.017 C 
ATOM     15  C   UNL     1       7.332  11.926 -14.253  1.00  0.00    -0.020 C 
ATOM     16  C   UNL     1       9.395  11.323 -15.735  1.00  0.00     0.032 C 
ATOM     17  C   UNL     1       8.633  11.001 -14.436  1.00  0.00     0.006 C 
ATOM     18  C   UNL     1       6.078  11.070 -13.855  1.00  0.00     0.008 C 
ATOM     19  C   UNL     1       7.642  12.825 -13.005  1.00  0.00     0.012 C 
ATOM     20  C   UNL     1       8.426   9.436 -14.164  1.00  0.00    -0.025 C 
ATOM     21  C   UNL     1       5.875   9.731 -14.593  1.00  0.00     0.005 C 
ATOM     22  C   UNL     1       7.167   8.950 -14.959  1.00  0.00     0.003 C 
ATOM     23  C   UNL     1       9.679   8.625 -14.654  1.00  0.00     0.010 C 
ATOM     24  C   UNL     1       8.275   9.197 -12.621  1.00  0.00     0.012 C 
ATOM     25  C   UNL     1       6.962   7.377 -15.061  1.00  0.00    -0.006 C 
ATOM     26  C   UNL     1       9.485   7.106 -14.662  1.00  0.00     0.033 C 
ATOM     27  C   UNL     1       8.290   6.718 -15.548  1.00  0.00     0.120 C 
ATOM     28  C   UNL     1       5.875   7.086 -16.131  1.00  0.00     0.014 C 
ATOM     29  C   UNL     1       6.496   6.700 -13.738  1.00  0.00     0.014 C 
ENDROOT
BRANCH   1  30
ATOM     30  C   UNL     1       8.282  12.458 -19.031  1.00  0.00     0.048 C 
ATOM     31  O   UNL     1       9.298  12.662 -19.745  1.00  0.00    -0.550 OA
ATOM     32  O   UNL     1       7.853  11.145 -18.854  1.00  0.00    -0.550 OA
ENDBRANCH   1  30
BRANCH  27  33
ATOM     33  O   UNL     1       8.166   5.316 -15.590  1.00  0.00    -0.393 OA
ATOM     34  H   UNL     1       7.374   5.078 -15.043  1.00  0.00     0.210 HD
ENDBRANCH  27  33
TORSDOF 2
ENDMDL
MODEL 4
REMARK VINA RESULT:    -5.904      1.940      3.607
REMARK INTER + INTRA:          -6.307
REMARK INTER:                  -6.383
REMARK INTRA:                   0.076
REMARK UNBOUND:                 0.115
REMARK SMILES CC1(C)CC[C@]2(C(=O)[O-])CC[C@]3(C)C(=CC[C@@H]4[C@]5(C)CC[C@@H](O)C(C)(C)[C@H]5CC[C@@]43C)[C@H]2C1
REMARK SMILES IDX 6 1 5 2 10 3 32 4 4 5 11 6 14 7 33 8 2 9 12 10 15 11 1 12
REMARK SMILES IDX 3 13 13 14 30 15 16 16 17 17 29 18 31 19 18 20 28 21 27 22
REMARK SMILES IDX 20 23 19 24 24 25 21 26 22 27 25 28 26 29 7 30 8 31 9 32
REMARK SMILES IDX 23 33
REMARK H PARENT 23 34
REMARK Flexibility Score: inf
ROOT
ATOM      1  C   UNL     1       7.091  10.603 -15.328  1.00  0.00     0.017 C 
ATOM      2  C   UNL     1       6.608   9.700 -14.139  1.00  0.00     0.014 C 
ATOM      3  C   UNL     1       5.875  11.390 -15.914  1.00  0.00     0.014 C 
ATOM      4  C   UNL     1       7.685   9.729 -16.488  1.00  0.00     0.028 C 
ATOM      5  C   UNL     1       6.802   8.189 -14.364  1.00  0.00     0.007 C 
ATOM      6  C   UNL     1       6.199  12.210 -17.195  1.00  0.00     0.013 C 
ATOM      7  C   UNL     1       8.065  10.642 -17.658  1.00  0.00    -0.064 C 
ATOM      8  C   UNL     1       8.746   8.708 -16.007  1.00  0.00     0.015 C 
ATOM      9  C   UNL     1       8.247   7.815 -14.816  1.00  0.00    -0.035 C 
ATOM     10  C   UNL     1       6.910  11.401 -18.333  1.00  0.00    -0.006 C 
ATOM     11  C   UNL     1       9.306  11.145 -17.711  1.00  0.00    -0.027 C 
ATOM     12  C   UNL     1       9.213   7.955 -13.615  1.00  0.00     0.011 C 
ATOM     13  C   UNL     1       8.244   6.333 -15.249  1.00  0.00     0.011 C 
ATOM     14  C   UNL     1       5.875  10.350 -18.876  1.00  0.00     0.017 C 
ATOM     15  C   UNL     1       7.446  12.328 -19.568  1.00  0.00    -0.020 C 
ATOM     16  C   UNL     1       9.511  12.593 -17.992  1.00  0.00     0.032 C 
ATOM     17  C   UNL     1       8.865  13.040 -19.317  1.00  0.00     0.006 C 
ATOM     18  C   UNL     1       6.358  13.372 -20.004  1.00  0.00     0.008 C 
ATOM     19  C   UNL     1       7.669  11.404 -20.816  1.00  0.00     0.012 C 
ATOM     20  C   UNL     1       8.913  14.620 -19.572  1.00  0.00    -0.025 C 
ATOM     21  C   UNL     1       6.331  14.719 -19.255  1.00  0.00     0.005 C 
ATOM     22  C   UNL     1       7.710  15.288 -18.824  1.00  0.00     0.003 C 
ATOM     23  C   UNL     1      10.254  15.224 -19.018  1.00  0.00     0.010 C 
ATOM     24  C   UNL     1       8.868  14.894 -21.117  1.00  0.00     0.012 C 
ATOM     25  C   UNL     1       7.745  16.873 -18.706  1.00  0.00    -0.006 C 
ATOM     26  C   UNL     1      10.295  16.755 -18.995  1.00  0.00     0.033 C 
ATOM     27  C   UNL     1       9.137  17.315 -18.154  1.00  0.00     0.120 C 
ATOM     28  C   UNL     1       6.671  17.318 -17.678  1.00  0.00     0.014 C 
ATOM     29  C   UNL     1       7.448  17.625 -20.036  1.00  0.00     0.014 C 
ENDROOT
BRANCH   1  30
ATOM     30  C   UNL     1       8.093  11.614 -14.763  1.00  0.00     0.048 C 
ATOM     31  O   UNL     1       9.251  11.260 -14.415  1.00  0.00    -0.550 OA
ATOM     32  O   UNL     1       7.683  12.911 -14.467  1.00  0.00    -0.550 OA
ENDBRANCH   1  30
BRANCH  27  33
ATOM     33  O   UNL     1       9.227  18.718 -18.095  1.00  0.00    -0.393 OA
ATOM     34  H   UNL     1       8.606  19.079 -18.778  1.00  0.00     0.210 HD
ENDBRANCH  27  33
TORSDOF 2
ENDMDL
MODEL 5
REMARK VINA RESULT:    -4.815      2.228      7.623
REMARK INTER + INTRA:          -5.122
REMARK INTER:                  -5.332
REMARK INTRA:                   0.209
REMARK UNBOUND:                 0.115
REMARK SMILES CC1(C)CC[C@]2(C(=O)[O-])CC[C@]3(C)C(=CC[C@@H]4[C@]5(C)CC[C@@H](O)C(C)(C)[C@H]5CC[C@@]43C)[C@H]2C1
REMARK SMILES IDX 6 1 5 2 10 3 32 4 4 5 11 6 14 7 33 8 2 9 12 10 15 11 1 12
REMARK SMILES IDX 3 13 13 14 30 15 16 16 17 17 29 18 31 19 18 20 28 21 27 22
REMARK SMILES IDX 20 23 19 24 24 25 21 26 22 27 25 28 26 29 7 30 8 31 9 32
REMARK SMILES IDX 23 33
REMARK H PARENT 23 34
REMARK Flexibility Score: inf
ROOT
ATOM      1  C   UNL     1       8.740  16.132 -17.490  1.00  0.00     0.017 C 
ATOM      2  C   UNL     1       9.354  17.573 -17.597  1.00  0.00     0.014 C 
ATOM      3  C   UNL     1       9.698  15.104 -18.174  1.00  0.00     0.014 C 
ATOM      4  C   UNL     1       7.362  16.055 -18.237  1.00  0.00     0.028 C 
ATOM      5  C   UNL     1       8.503  18.572 -18.401  1.00  0.00     0.007 C 
ATOM      6  C   UNL     1       9.129  13.660 -18.264  1.00  0.00     0.013 C 
ATOM      7  C   UNL     1       6.842  14.616 -18.180  1.00  0.00    -0.064 C 
ATOM      8  C   UNL     1       6.381  17.185 -17.836  1.00  0.00     0.015 C 
ATOM      9  C   UNL     1       7.012  18.618 -17.945  1.00  0.00    -0.035 C 
ATOM     10  C   UNL     1       7.697  13.553 -18.890  1.00  0.00    -0.006 C 
ATOM     11  C   UNL     1       6.049  14.253 -17.162  1.00  0.00    -0.027 C 
ATOM     12  C   UNL     1       6.915  19.340 -16.579  1.00  0.00     0.011 C 
ATOM     13  C   UNL     1       6.222  19.451 -18.977  1.00  0.00     0.011 C 
ATOM     14  C   UNL     1       7.820  13.947 -20.407  1.00  0.00     0.017 C 
ATOM     15  C   UNL     1       7.029  12.067 -18.763  1.00  0.00    -0.020 C 
ATOM     16  C   UNL     1       6.315  12.986 -16.426  1.00  0.00     0.032 C 
ATOM     17  C   UNL     1       6.331  11.754 -17.350  1.00  0.00     0.006 C 
ATOM     18  C   UNL     1       8.062  10.949 -19.146  1.00  0.00     0.008 C 
ATOM     19  C   UNL     1       5.875  11.955 -19.821  1.00  0.00     0.012 C 
ATOM     20  C   UNL     1       6.782  10.397 -16.629  1.00  0.00    -0.025 C 
ATOM     21  C   UNL     1       8.980  10.422 -18.024  1.00  0.00     0.005 C 
ATOM     22  C   UNL     1       8.347  10.334 -16.609  1.00  0.00     0.003 C 
ATOM     23  C   UNL     1       6.254  10.361 -15.150  1.00  0.00     0.010 C 
ATOM     24  C   UNL     1       6.156   9.176 -17.391  1.00  0.00     0.012 C 
ATOM     25  C   UNL     1       8.996   9.218 -15.681  1.00  0.00    -0.006 C 
ATOM     26  C   UNL     1       6.830   9.223 -14.301  1.00  0.00     0.033 C 
ATOM     27  C   UNL     1       8.364   9.304 -14.257  1.00  0.00     0.120 C 
ATOM     28  C   UNL     1      10.514   9.511 -15.539  1.00  0.00     0.014 C 
ATOM     29  C   UNL     1       8.858   7.766 -16.228  1.00  0.00     0.014 C 
ENDROOT
BRANCH   1  30
ATOM     30  C   UNL     1       8.638  15.782 -16.003  1.00  0.00     0.048 C 
ATOM     31  O   UNL     1       9.267  14.806 -15.517  1.00  0.00    -0.550 OA
ATOM     32  O   UNL     1       7.712  16.437 -15.195  1.00  0.00    -0.550 OA
ENDBRANCH   1  30
BRANCH  27  33
ATOM     33  O   UNL     1       8.870   8.288 -13.424  1.00  0.00    -0.393 OA
ATOM     34  H   UNL     1       9.614   7.854 -13.914  1.00  0.00     0.210 HD
ENDBRANCH  27  33
TORSDOF 2
ENDMDL
MODEL 6
REMARK VINA RESULT:    -4.422      2.017      3.719
REMARK INTER + INTRA:          -4.696
REMARK INTER:                  -4.923
REMARK INTRA:                   0.228
REMARK UNBOUND:                 0.115
REMARK SMILES CC1(C)CC[C@]2(C(=O)[O-])CC[C@]3(C)C(=CC[C@@H]4[C@]5(C)CC[C@@H](O)C(C)(C)[C@H]5CC[C@@]43C)[C@H]2C1
REMARK SMILES IDX 6 1 5 2 10 3 32 4 4 5 11 6 14 7 33 8 2 9 12 10 15 11 1 12
REMARK SMILES IDX 3 13 13 14 30 15 16 16 17 17 29 18 31 19 18 20 28 21 27 22
REMARK SMILES IDX 20 23 19 24 24 25 21 26 22 27 25 28 26 29 7 30 8 31 9 32
REMARK SMILES IDX 23 33
REMARK H PARENT 23 34
REMARK Flexibility Score: inf
ROOT
ATOM      1  C   UNL     1       7.127   8.952 -16.617  1.00  0.00     0.017 C 
ATOM      2  C   UNL     1       6.378   7.580 -16.762  1.00  0.00     0.014 C 
ATOM      3  C   UNL     1       7.375   9.563 -18.034  1.00  0.00     0.014 C 
ATOM      4  C   UNL     1       8.531   8.753 -15.943  1.00  0.00     0.028 C 
ATOM      5  C   UNL     1       7.164   6.364 -16.238  1.00  0.00     0.007 C 
ATOM      6  C   UNL     1       8.242  10.854 -18.031  1.00  0.00     0.013 C 
ATOM      7  C   UNL     1       9.259  10.100 -15.899  1.00  0.00    -0.064 C 
ATOM      8  C   UNL     1       8.471   7.931 -14.630  1.00  0.00     0.015 C 
ATOM      9  C   UNL     1       7.716   6.564 -14.793  1.00  0.00    -0.035 C 
ATOM     10  C   UNL     1       9.599  10.736 -17.257  1.00  0.00    -0.006 C 
ATOM     11  C   UNL     1       9.108  10.884 -14.822  1.00  0.00    -0.027 C 
ATOM     12  C   UNL     1       6.546   6.488 -13.781  1.00  0.00     0.011 C 
ATOM     13  C   UNL     1       8.683   5.402 -14.484  1.00  0.00     0.011 C 
ATOM     14  C   UNL     1      10.509   9.736 -18.059  1.00  0.00     0.017 C 
ATOM     15  C   UNL     1      10.381  12.159 -17.071  1.00  0.00    -0.020 C 
ATOM     16  C   UNL     1       8.811  12.333 -14.992  1.00  0.00     0.032 C 
ATOM     17  C   UNL     1       9.868  13.061 -15.844  1.00  0.00     0.006 C 
ATOM     18  C   UNL     1      10.391  12.977 -18.410  1.00  0.00     0.008 C 
ATOM     19  C   UNL     1      11.886  11.854 -16.751  1.00  0.00     0.012 C 
ATOM     20  C   UNL     1       9.498  14.579 -16.195  1.00  0.00    -0.025 C 
ATOM     21  C   UNL     1       9.183  13.895 -18.686  1.00  0.00     0.005 C 
ATOM     22  C   UNL     1       8.558  14.592 -17.448  1.00  0.00     0.003 C 
ATOM     23  C   UNL     1       8.747  15.252 -14.990  1.00  0.00     0.010 C 
ATOM     24  C   UNL     1      10.820  15.386 -16.445  1.00  0.00     0.012 C 
ATOM     25  C   UNL     1       7.841  15.972 -17.778  1.00  0.00    -0.006 C 
ATOM     26  C   UNL     1       8.138  16.621 -15.310  1.00  0.00     0.033 C 
ATOM     27  C   UNL     1       7.154  16.514 -16.486  1.00  0.00     0.120 C 
ATOM     28  C   UNL     1       6.728  15.715 -18.828  1.00  0.00     0.014 C 
ATOM     29  C   UNL     1       8.784  17.063 -18.366  1.00  0.00     0.014 C 
ENDROOT
BRANCH   1  30
ATOM     30  C   UNL     1       6.212   9.898 -15.835  1.00  0.00     0.048 C 
ATOM     31  O   UNL     1       5.875  11.016 -16.305  1.00  0.00    -0.550 OA
ATOM     32  O   UNL     1       5.875   9.608 -14.516  1.00  0.00    -0.550 OA
ENDBRANCH   1  30
BRANCH  27  33
ATOM     33  O   UNL     1       6.562  17.769 -16.725  1.00  0.00    -0.393 OA
ATOM     34  H   UNL     1       6.713  18.322 -15.916  1.00  0.00     0.210 HD
ENDBRANCH  27  33
TORSDOF 2
ENDMDL
