MODEL 1
REMARK VINA RESULT:    -5.522      0.000      0.000
REMARK INTER + INTRA:          -6.054
REMARK INTER:                  -6.006
REMARK INTRA:                  -0.048
REMARK UNBOUND:                -0.048
REMARK SMILES COc1cc2ccc(=O)oc2cc1O
REMARK SMILES IDX 3 1 13 2 12 3 11 4 5 5 4 6 6 7 7 8 8 9 9 10 10 11 2 12 1 13
REMARK SMILES IDX 14 14
REMARK H PARENT 14 15
REMARK Flexibility Score: inf
ROOT
ATOM      1  C   UNL     1      19.114  19.855  -6.973  1.00  0.00     0.161 A 
ATOM      2  C   UNL     1      19.076  19.128  -8.179  1.00  0.00     0.161 A 
ATOM      3  C   UNL     1      18.850  19.788  -9.393  1.00  0.00     0.098 A 
ATOM      4  C   UNL     1      18.659  21.171  -9.421  1.00  0.00     0.142 A 
ATOM      5  C   UNL     1      18.695  21.907  -8.219  1.00  0.00     0.022 A 
ATOM      6  C   UNL     1      18.921  21.251  -7.001  1.00  0.00     0.062 A 
ATOM      7  C   UNL     1      18.500  23.291  -8.279  1.00  0.00     0.019 A 
ATOM      8  C   UNL     1      18.278  23.898  -9.515  1.00  0.00     0.094 A 
ATOM      9  C   UNL     1      18.256  23.104 -10.666  1.00  0.00     0.336 A 
ATOM     10  O   UNL     1      18.057  23.633 -11.791  1.00  0.00    -0.246 OA
ATOM     11  O   UNL     1      18.444  21.789 -10.580  1.00  0.00    -0.423 OA
ENDROOT
BRANCH   1  12
ATOM     12  O   UNL     1      19.344  19.162  -5.773  1.00  0.00    -0.493 OA
ATOM     13  C   UNL     1      18.671  19.424  -4.547  1.00  0.00     0.278 C 
ENDBRANCH   1  12
BRANCH   2  14
ATOM     14  O   UNL     1      19.262  17.746  -8.192  1.00  0.00    -0.504 OA
ATOM     15  H   UNL     1      20.183  17.325  -8.227  1.00  0.00     0.293 HD
ENDBRANCH   2  14
TORSDOF 2
ENDMDL
MODEL 2
REMARK VINA RESULT:    -5.401      1.324      5.395
REMARK INTER + INTRA:          -5.923
REMARK INTER:                  -5.941
REMARK INTRA:                   0.018
REMARK UNBOUND:                -0.048
REMARK SMILES COc1cc2ccc(=O)oc2cc1O
REMARK SMILES IDX 3 1 13 2 12 3 11 4 5 5 4 6 6 7 7 8 8 9 9 10 10 11 2 12 1 13
REMARK SMILES IDX 14 14
REMARK H PARENT 14 15
REMARK Flexibility Score: inf
ROOT
ATOM      1  C   UNL     1      18.282  22.344 -10.068  1.00  0.00     0.161 A 
ATOM      2  C   UNL     1      18.388  23.198  -8.953  1.00  0.00     0.161 A 
ATOM      3  C   UNL     1      18.639  22.668  -7.682  1.00  0.00     0.098 A 
ATOM      4  C   UNL     1      18.786  21.291  -7.505  1.00  0.00     0.142 A 
ATOM      5  C   UNL     1      18.681  20.428  -8.615  1.00  0.00     0.022 A 
ATOM      6  C   UNL     1      18.431  20.953  -9.890  1.00  0.00     0.062 A 
ATOM      7  C   UNL     1      18.832  19.053  -8.407  1.00  0.00     0.019 A 
ATOM      8  C   UNL     1      19.080  18.579  -7.119  1.00  0.00     0.094 A 
ATOM      9  C   UNL     1      19.171  19.495  -6.065  1.00  0.00     0.336 A 
ATOM     10  O   UNL     1      19.395  19.086  -4.896  1.00  0.00    -0.246 OA
ATOM     11  O   UNL     1      19.023  20.797  -6.292  1.00  0.00    -0.423 OA
ENDROOT
BRANCH   1  12
ATOM     12  O   UNL     1      18.031  22.908 -11.330  1.00  0.00    -0.493 OA
ATOM     13  C   UNL     1      19.011  23.552 -12.136  1.00  0.00     0.278 C 
ENDBRANCH   1  12
BRANCH   2  14
ATOM     14  O   UNL     1      18.247  24.578  -9.088  1.00  0.00    -0.504 OA
ATOM     15  H   UNL     1      18.218  25.032  -9.994  1.00  0.00     0.293 HD
ENDBRANCH   2  14
TORSDOF 2
ENDMDL
MODEL 3
REMARK VINA RESULT:    -5.272      2.368      4.975
REMARK INTER + INTRA:          -5.783
REMARK INTER:                  -5.723
REMARK INTRA:                  -0.059
REMARK UNBOUND:                -0.048
REMARK SMILES COc1cc2ccc(=O)oc2cc1O
REMARK SMILES IDX 3 1 13 2 12 3 11 4 5 5 4 6 6 7 7 8 8 9 9 10 10 11 2 12 1 13
REMARK SMILES IDX 14 14
REMARK H PARENT 14 15
REMARK Flexibility Score: inf
ROOT
ATOM      1  C   UNL     1      16.490  21.444 -10.763  1.00  0.00     0.161 A 
ATOM      2  C   UNL     1      16.771  22.824 -10.799  1.00  0.00     0.161 A 
ATOM      3  C   UNL     1      17.623  23.394  -9.845  1.00  0.00     0.098 A 
ATOM      4  C   UNL     1      18.201  22.603  -8.851  1.00  0.00     0.142 A 
ATOM      5  C   UNL     1      17.926  21.221  -8.807  1.00  0.00     0.022 A 
ATOM      6  C   UNL     1      17.074  20.645  -9.759  1.00  0.00     0.062 A 
ATOM      7  C   UNL     1      18.520  20.455  -7.798  1.00  0.00     0.019 A 
ATOM      8  C   UNL     1      19.360  21.074  -6.873  1.00  0.00     0.094 A 
ATOM      9  C   UNL     1      19.587  22.451  -6.979  1.00  0.00     0.336 A 
ATOM     10  O   UNL     1      20.343  23.028  -6.154  1.00  0.00    -0.246 OA
ATOM     11  O   UNL     1      19.009  23.155  -7.948  1.00  0.00    -0.423 OA
ENDROOT
BRANCH   1  12
ATOM     12  O   UNL     1      15.632  20.904 -11.735  1.00  0.00    -0.493 OA
ATOM     13  C   UNL     1      14.227  20.742 -11.573  1.00  0.00     0.278 C 
ENDBRANCH   1  12
BRANCH   2  14
ATOM     14  O   UNL     1      16.212  23.647 -11.776  1.00  0.00    -0.504 OA
ATOM     15  H   UNL     1      16.564  23.673 -12.726  1.00  0.00     0.293 HD
ENDBRANCH   2  14
TORSDOF 2
ENDMDL
MODEL 4
REMARK VINA RESULT:    -5.100      2.052      5.398
REMARK INTER + INTRA:          -5.596
REMARK INTER:                  -5.551
REMARK INTRA:                  -0.046
REMARK UNBOUND:                -0.048
REMARK SMILES COc1cc2ccc(=O)oc2cc1O
REMARK SMILES IDX 3 1 13 2 12 3 11 4 5 5 4 6 6 7 7 8 8 9 9 10 10 11 2 12 1 13
REMARK SMILES IDX 14 14
REMARK H PARENT 14 15
REMARK Flexibility Score: inf
ROOT
ATOM      1  C   UNL     1      17.481  22.071 -10.883  1.00  0.00     0.161 A 
ATOM      2  C   UNL     1      16.228  21.439 -11.008  1.00  0.00     0.161 A 
ATOM      3  C   UNL     1      15.961  20.260 -10.304  1.00  0.00     0.098 A 
ATOM      4  C   UNL     1      16.930  19.698  -9.471  1.00  0.00     0.142 A 
ATOM      5  C   UNL     1      18.187  20.322  -9.339  1.00  0.00     0.022 A 
ATOM      6  C   UNL     1      18.460  21.504 -10.042  1.00  0.00     0.062 A 
ATOM      7  C   UNL     1      19.138  19.735  -8.498  1.00  0.00     0.019 A 
ATOM      8  C   UNL     1      18.819  18.559  -7.820  1.00  0.00     0.094 A 
ATOM      9  C   UNL     1      17.551  17.995  -8.000  1.00  0.00     0.336 A 
ATOM     10  O   UNL     1      17.244  16.934  -7.396  1.00  0.00    -0.246 OA
ATOM     11  O   UNL     1      16.666  18.575  -8.806  1.00  0.00    -0.423 OA
ENDROOT
BRANCH   1  12
ATOM     12  O   UNL     1      17.717  23.254 -11.603  1.00  0.00    -0.493 OA
ATOM     13  C   UNL     1      18.992  23.668 -12.081  1.00  0.00     0.278 C 
ENDBRANCH   1  12
BRANCH   2  14
ATOM     14  O   UNL     1      15.235  21.970 -11.830  1.00  0.00    -0.504 OA
ATOM     15  H   UNL     1      15.130  22.967 -11.977  1.00  0.00     0.293 HD
ENDBRANCH   2  14
TORSDOF 2
ENDMDL
MODEL 5
REMARK VINA RESULT:    -5.018      2.123      4.676
REMARK INTER + INTRA:          -5.506
REMARK INTER:                  -5.461
REMARK INTRA:                  -0.045
REMARK UNBOUND:                -0.048
REMARK SMILES COc1cc2ccc(=O)oc2cc1O
REMARK SMILES IDX 3 1 13 2 12 3 11 4 5 5 4 6 6 7 7 8 8 9 9 10 10 11 2 12 1 13
REMARK SMILES IDX 14 14
REMARK H PARENT 14 15
REMARK Flexibility Score: inf
ROOT
ATOM      1  C   UNL     1      18.340  21.812 -10.014  1.00  0.00     0.161 A 
ATOM      2  C   UNL     1      18.912  20.644  -9.473  1.00  0.00     0.161 A 
ATOM      3  C   UNL     1      18.610  20.253  -8.163  1.00  0.00     0.098 A 
ATOM      4  C   UNL     1      17.741  21.016  -7.380  1.00  0.00     0.142 A 
ATOM      5  C   UNL     1      17.164  22.187  -7.912  1.00  0.00     0.022 A 
ATOM      6  C   UNL     1      17.462  22.582  -9.224  1.00  0.00     0.062 A 
ATOM      7  C   UNL     1      16.297  22.929  -7.104  1.00  0.00     0.019 A 
ATOM      8  C   UNL     1      16.031  22.495  -5.806  1.00  0.00     0.094 A 
ATOM      9  C   UNL     1      16.641  21.323  -5.344  1.00  0.00     0.336 A 
ATOM     10  O   UNL     1      16.413  20.915  -4.176  1.00  0.00    -0.246 OA
ATOM     11  O   UNL     1      17.461  20.636  -6.135  1.00  0.00    -0.423 OA
ENDROOT
BRANCH   1  12
ATOM     12  O   UNL     1      18.663  22.175 -11.332  1.00  0.00    -0.493 OA
ATOM     13  C   UNL     1      18.681  23.512 -11.820  1.00  0.00     0.278 C 
ENDBRANCH   1  12
BRANCH   2  14
ATOM     14  O   UNL     1      19.784  19.856 -10.223  1.00  0.00    -0.504 OA
ATOM     15  H   UNL     1      19.792  18.846 -10.158  1.00  0.00     0.293 HD
ENDBRANCH   2  14
TORSDOF 2
ENDMDL
MODEL 6
REMARK VINA RESULT:    -4.907      2.350      3.292
REMARK INTER + INTRA:          -5.386
REMARK INTER:                  -5.332
REMARK INTRA:                  -0.053
REMARK UNBOUND:                -0.048
REMARK SMILES COc1cc2ccc(=O)oc2cc1O
REMARK SMILES IDX 3 1 13 2 12 3 11 4 5 5 4 6 6 7 7 8 8 9 9 10 10 11 2 12 1 13
REMARK SMILES IDX 14 14
REMARK H PARENT 14 15
REMARK Flexibility Score: inf
ROOT
ATOM      1  C   UNL     1      18.771  21.421  -7.700  1.00  0.00     0.161 A 
ATOM      2  C   UNL     1      18.623  22.822  -7.710  1.00  0.00     0.161 A 
ATOM      3  C   UNL     1      17.733  23.429  -8.604  1.00  0.00     0.098 A 
ATOM      4  C   UNL     1      16.984  22.656  -9.492  1.00  0.00     0.142 A 
ATOM      5  C   UNL     1      17.125  21.253  -9.489  1.00  0.00     0.022 A 
ATOM      6  C   UNL     1      18.014  20.640  -8.596  1.00  0.00     0.062 A 
ATOM      7  C   UNL     1      16.361  20.505 -10.391  1.00  0.00     0.019 A 
ATOM      8  C   UNL     1      15.490  21.161 -11.260  1.00  0.00     0.094 A 
ATOM      9  C   UNL     1      15.403  22.556 -11.206  1.00  0.00     0.336 A 
ATOM     10  O   UNL     1      14.622  23.167 -11.982  1.00  0.00    -0.246 OA
ATOM     11  O   UNL     1      16.141  23.243 -10.339  1.00  0.00    -0.423 OA
ENDROOT
BRANCH   1  12
ATOM     12  O   UNL     1      19.672  20.844  -6.790  1.00  0.00    -0.493 OA
ATOM     13  C   UNL     1      19.348  19.788  -5.892  1.00  0.00     0.278 C 
ENDBRANCH   1  12
BRANCH   2  14
ATOM     14  O   UNL     1      19.354  23.629  -6.839  1.00  0.00    -0.504 OA
ATOM     15  H   UNL     1      20.261  24.007  -7.084  1.00  0.00     0.293 HD
ENDBRANCH   2  14
TORSDOF 2
ENDMDL
MODEL 7
REMARK VINA RESULT:    -4.851      1.400      2.486
REMARK INTER + INTRA:          -5.325
REMARK INTER:                  -5.281
REMARK INTRA:                  -0.044
REMARK UNBOUND:                -0.048
REMARK SMILES COc1cc2ccc(=O)oc2cc1O
REMARK SMILES IDX 3 1 13 2 12 3 11 4 5 5 4 6 6 7 7 8 8 9 9 10 10 11 2 12 1 13
REMARK SMILES IDX 14 14
REMARK H PARENT 14 15
REMARK Flexibility Score: inf
ROOT
ATOM      1  C   UNL     1      19.091  20.264  -6.573  1.00  0.00     0.161 A 
ATOM      2  C   UNL     1      18.862  21.532  -6.004  1.00  0.00     0.161 A 
ATOM      3  C   UNL     1      18.544  22.624  -6.821  1.00  0.00     0.098 A 
ATOM      4  C   UNL     1      18.452  22.468  -8.205  1.00  0.00     0.142 A 
ATOM      5  C   UNL     1      18.680  21.203  -8.784  1.00  0.00     0.022 A 
ATOM      6  C   UNL     1      18.997  20.107  -7.971  1.00  0.00     0.062 A 
ATOM      7  C   UNL     1      18.581  21.079 -10.174  1.00  0.00     0.019 A 
ATOM      8  C   UNL     1      18.263  22.199 -10.941  1.00  0.00     0.094 A 
ATOM      9  C   UNL     1      18.050  23.423 -10.297  1.00  0.00     0.336 A 
ATOM     10  O   UNL     1      17.762  24.446 -10.972  1.00  0.00    -0.246 OA
ATOM     11  O   UNL     1      18.151  23.513  -8.973  1.00  0.00    -0.423 OA
ENDROOT
BRANCH   1  12
ATOM     12  O   UNL     1      19.406  19.190  -5.725  1.00  0.00    -0.493 OA
ATOM     13  C   UNL     1      19.226  17.818  -6.058  1.00  0.00     0.278 C 
ENDBRANCH   1  12
BRANCH   2  14
ATOM     14  O   UNL     1      18.945  21.728  -4.626  1.00  0.00    -0.504 OA
ATOM     15  H   UNL     1      19.697  22.255  -4.199  1.00  0.00     0.293 HD
ENDBRANCH   2  14
TORSDOF 2
ENDMDL
MODEL 8
REMARK VINA RESULT:    -4.790      2.750      5.394
REMARK INTER + INTRA:          -5.259
REMARK INTER:                  -5.198
REMARK INTRA:                  -0.061
REMARK UNBOUND:                -0.048
REMARK SMILES COc1cc2ccc(=O)oc2cc1O
REMARK SMILES IDX 3 1 13 2 12 3 11 4 5 5 4 6 6 7 7 8 8 9 9 10 10 11 2 12 1 13
REMARK SMILES IDX 14 14
REMARK H PARENT 14 15
REMARK Flexibility Score: inf
ROOT
ATOM      1  C   UNL     1      17.688  23.364 -10.272  1.00  0.00     0.161 A 
ATOM      2  C   UNL     1      16.348  23.025 -10.542  1.00  0.00     0.161 A 
ATOM      3  C   UNL     1      15.565  22.410  -9.557  1.00  0.00     0.098 A 
ATOM      4  C   UNL     1      16.103  22.127  -8.300  1.00  0.00     0.142 A 
ATOM      5  C   UNL     1      17.443  22.463  -8.021  1.00  0.00     0.022 A 
ATOM      6  C   UNL     1      18.231  23.080  -9.003  1.00  0.00     0.062 A 
ATOM      7  C   UNL     1      17.954  22.167  -6.752  1.00  0.00     0.019 A 
ATOM      8  C   UNL     1      17.130  21.554  -5.809  1.00  0.00     0.094 A 
ATOM      9  C   UNL     1      15.810  21.249  -6.158  1.00  0.00     0.336 A 
ATOM     10  O   UNL     1      15.051  20.695  -5.320  1.00  0.00    -0.246 OA
ATOM     11  O   UNL     1      15.350  21.541  -7.371  1.00  0.00    -0.423 OA
ENDROOT
BRANCH   1  12
ATOM     12  O   UNL     1      18.446  23.981 -11.281  1.00  0.00    -0.493 OA
ATOM     13  C   UNL     1      19.282  23.288 -12.201  1.00  0.00     0.278 C 
ENDBRANCH   1  12
BRANCH   2  14
ATOM     14  O   UNL     1      15.775  23.290 -11.785  1.00  0.00    -0.504 OA
ATOM     15  H   UNL     1      15.250  24.137 -11.968  1.00  0.00     0.293 HD
ENDBRANCH   2  14
TORSDOF 2
ENDMDL
MODEL 9
REMARK VINA RESULT:    -4.785      2.447      2.966
REMARK INTER + INTRA:          -5.254
REMARK INTER:                  -5.189
REMARK INTRA:                  -0.064
REMARK UNBOUND:                -0.048
REMARK SMILES COc1cc2ccc(=O)oc2cc1O
REMARK SMILES IDX 3 1 13 2 12 3 11 4 5 5 4 6 6 7 7 8 8 9 9 10 10 11 2 12 1 13
REMARK SMILES IDX 14 14
REMARK H PARENT 14 15
REMARK Flexibility Score: inf
ROOT
ATOM      1  C   UNL     1      16.622  21.713  -6.723  1.00  0.00     0.161 A 
ATOM      2  C   UNL     1      17.981  22.073  -6.625  1.00  0.00     0.161 A 
ATOM      3  C   UNL     1      18.647  22.615  -7.731  1.00  0.00     0.098 A 
ATOM      4  C   UNL     1      17.974  22.803  -8.939  1.00  0.00     0.142 A 
ATOM      5  C   UNL     1      16.614  22.446  -9.047  1.00  0.00     0.022 A 
ATOM      6  C   UNL     1      15.943  21.903  -7.943  1.00  0.00     0.062 A 
ATOM      7  C   UNL     1      15.968  22.646 -10.271  1.00  0.00     0.019 A 
ATOM      8  C   UNL     1      16.679  23.189 -11.341  1.00  0.00     0.094 A 
ATOM      9  C   UNL     1      18.026  23.520 -11.160  1.00  0.00     0.336 A 
ATOM     10  O   UNL     1      18.686  24.012 -12.114  1.00  0.00    -0.246 OA
ATOM     11  O   UNL     1      18.617  23.319  -9.985  1.00  0.00    -0.423 OA
ENDROOT
BRANCH   1  12
ATOM     12  O   UNL     1      15.984  21.172  -5.595  1.00  0.00    -0.493 OA
ATOM     13  C   UNL     1      15.673  19.794  -5.424  1.00  0.00     0.278 C 
ENDBRANCH   1  12
BRANCH   2  14
ATOM     14  O   UNL     1      18.687  21.900  -5.435  1.00  0.00    -0.504 OA
ATOM     15  H   UNL     1      18.939  20.983  -5.085  1.00  0.00     0.293 HD
ENDBRANCH   2  14
TORSDOF 2
ENDMDL
