MODEL 1
REMARK VINA RESULT:    -3.584      0.000      0.000
REMARK INTER + INTRA:          -4.765
REMARK INTER:                  -4.422
REMARK INTRA:                  -0.343
REMARK UNBOUND:                -0.343
REMARK SMILES Oc1cc(O)c2cc(O)c(-c3cc(O)c(O)c(O)c3)[o+]c2c1
REMARK SMILES IDX 10 1 20 2 21 3 22 4 2 5 3 6 4 7 6 8 7 9 8 10 11 11 12 12
REMARK SMILES IDX 13 13 19 14 15 15 17 16 14 17 16 19 18 21 9 23 1 25 5 27
REMARK H PARENT 14 18 16 20 18 22 9 24 1 26 5 28
REMARK Flexibility Score: inf
ROOT
ATOM      1  C   UNL     1      38.257  36.516  19.233  1.00  0.00     0.402 A 
ATOM      2  O   UNL     1      38.265  35.771  18.131  1.00  0.00    -0.202 OA
ATOM      3  C   UNL     1      37.991  36.251  16.923  1.00  0.00     0.368 A 
ATOM      4  C   UNL     1      38.022  35.388  15.825  1.00  0.00     0.162 A 
ATOM      5  C   UNL     1      37.734  35.864  14.545  1.00  0.00     0.128 A 
ATOM      6  C   UNL     1      37.410  37.213  14.360  1.00  0.00     0.093 A 
ATOM      7  C   UNL     1      37.372  38.098  15.444  1.00  0.00     0.136 A 
ATOM      8  C   UNL     1      37.666  37.618  16.747  1.00  0.00     0.125 A 
ATOM      9  C   UNL     1      37.665  38.434  17.890  1.00  0.00     0.078 A 
ATOM     10  C   UNL     1      37.970  37.891  19.141  1.00  0.00     0.223 A 
ENDROOT
BRANCH   1  11
ATOM     11  C   UNL     1      38.571  35.861  20.524  1.00  0.00     0.091 A 
ATOM     12  C   UNL     1      39.892  35.474  20.797  1.00  0.00     0.068 A 
ATOM     13  C   UNL     1      40.213  34.835  22.002  1.00  0.00     0.162 A 
ATOM     14  C   UNL     1      37.565  35.568  21.460  1.00  0.00     0.068 A 
ATOM     15  C   UNL     1      39.209  34.565  22.941  1.00  0.00     0.200 A 
ATOM     16  C   UNL     1      37.880  34.927  22.666  1.00  0.00     0.162 A 
BRANCH  13  17
ATOM     17  O   UNL     1      41.529  34.466  22.274  1.00  0.00    -0.504 OA
ATOM     18  H   UNL     1      41.751  33.585  22.723  1.00  0.00     0.293 HD
ENDBRANCH  13  17
BRANCH  15  19
ATOM     19  O   UNL     1      39.548  33.930  24.137  1.00  0.00    -0.502 OA
ATOM     20  H   UNL     1      40.428  34.104  24.608  1.00  0.00     0.293 HD
ENDBRANCH  15  19
BRANCH  16  21
ATOM     21  O   UNL     1      36.875  34.646  23.592  1.00  0.00    -0.504 OA
ATOM     22  H   UNL     1      36.035  35.211  23.653  1.00  0.00     0.293 HD
ENDBRANCH  16  21
ENDBRANCH   1  11
BRANCH  10  23
ATOM     23  O   UNL     1      38.017  38.710  20.267  1.00  0.00    -0.500 OA
ATOM     24  H   UNL     1      37.193  38.895  20.827  1.00  0.00     0.294 HD
ENDBRANCH  10  23
BRANCH   5  25
ATOM     25  O   UNL     1      37.772  34.988  13.463  1.00  0.00    -0.507 OA
ATOM     26  H   UNL     1      38.049  34.020  13.573  1.00  0.00     0.293 HD
ENDBRANCH   5  25
BRANCH   7  27
ATOM     27  O   UNL     1      37.036  39.429  15.178  1.00  0.00    -0.507 OA
ATOM     28  H   UNL     1      37.316  39.932  14.349  1.00  0.00     0.293 HD
ENDBRANCH   7  27
TORSDOF 7
ENDMDL
MODEL 2
REMARK VINA RESULT:    -3.562      1.262      7.296
REMARK INTER + INTRA:          -4.738
REMARK INTER:                  -4.440
REMARK INTRA:                  -0.298
REMARK UNBOUND:                -0.343
REMARK SMILES Oc1cc(O)c2cc(O)c(-c3cc(O)c(O)c(O)c3)[o+]c2c1
REMARK SMILES IDX 10 1 20 2 21 3 22 4 2 5 3 6 4 7 6 8 7 9 8 10 11 11 12 12
REMARK SMILES IDX 13 13 19 14 15 15 17 16 14 17 16 19 18 21 9 23 1 25 5 27
REMARK H PARENT 14 18 16 20 18 22 9 24 1 26 5 28
REMARK Flexibility Score: inf
ROOT
ATOM      1  C   UNL     1      38.980  35.725  18.999  1.00  0.00     0.402 A 
ATOM      2  O   UNL     1      38.125  35.570  20.006  1.00  0.00    -0.202 OA
ATOM      3  C   UNL     1      38.484  35.136  21.209  1.00  0.00     0.368 A 
ATOM      4  C   UNL     1      37.511  35.002  22.203  1.00  0.00     0.162 A 
ATOM      5  C   UNL     1      37.859  34.546  23.474  1.00  0.00     0.128 A 
ATOM      6  C   UNL     1      39.190  34.218  23.757  1.00  0.00     0.093 A 
ATOM      7  C   UNL     1      40.184  34.343  22.778  1.00  0.00     0.136 A 
ATOM      8  C   UNL     1      39.834  34.809  21.484  1.00  0.00     0.125 A 
ATOM      9  C   UNL     1      40.765  34.978  20.446  1.00  0.00     0.078 A 
ATOM     10  C   UNL     1      40.346  35.447  19.198  1.00  0.00     0.223 A 
ENDROOT
BRANCH   1  11
ATOM     11  C   UNL     1      38.455  36.206  17.701  1.00  0.00     0.091 A 
ATOM     12  C   UNL     1      37.940  37.509  17.606  1.00  0.00     0.068 A 
ATOM     13  C   UNL     1      37.419  37.982  16.394  1.00  0.00     0.162 A 
ATOM     14  C   UNL     1      38.409  35.369  16.573  1.00  0.00     0.068 A 
ATOM     15  C   UNL     1      37.395  37.149  15.268  1.00  0.00     0.200 A 
ATOM     16  C   UNL     1      37.888  35.837  15.359  1.00  0.00     0.162 A 
BRANCH  13  17
ATOM     17  O   UNL     1      36.922  39.281  16.302  1.00  0.00    -0.504 OA
ATOM     18  H   UNL     1      36.832  39.753  15.410  1.00  0.00     0.293 HD
ENDBRANCH  13  17
BRANCH  15  19
ATOM     19  O   UNL     1      36.875  37.640  14.069  1.00  0.00    -0.502 OA
ATOM     20  H   UNL     1      37.309  37.444  13.174  1.00  0.00     0.293 HD
ENDBRANCH  15  19
BRANCH  16  21
ATOM     21  O   UNL     1      37.853  35.000  14.245  1.00  0.00    -0.504 OA
ATOM     22  H   UNL     1      38.546  34.275  14.102  1.00  0.00     0.293 HD
ENDBRANCH  16  21
ENDBRANCH   1  11
BRANCH  10  23
ATOM     23  O   UNL     1      41.277  35.662  18.182  1.00  0.00    -0.500 OA
ATOM     24  H   UNL     1      41.070  35.443  17.215  1.00  0.00     0.294 HD
ENDBRANCH  10  23
BRANCH   5  25
ATOM     25  O   UNL     1      36.875  34.421  24.452  1.00  0.00    -0.507 OA
ATOM     26  H   UNL     1      35.889  34.457  24.219  1.00  0.00     0.293 HD
ENDBRANCH   5  25
BRANCH   7  27
ATOM     27  O   UNL     1      41.489  33.992  23.137  1.00  0.00    -0.507 OA
ATOM     28  H   UNL     1      42.317  34.477  22.824  1.00  0.00     0.293 HD
ENDBRANCH   7  27
TORSDOF 7
ENDMDL
MODEL 3
REMARK VINA RESULT:    -3.560      2.266      3.790
REMARK INTER + INTRA:          -4.736
REMARK INTER:                  -4.357
REMARK INTRA:                  -0.379
REMARK UNBOUND:                -0.343
REMARK SMILES Oc1cc(O)c2cc(O)c(-c3cc(O)c(O)c(O)c3)[o+]c2c1
REMARK SMILES IDX 10 1 20 2 21 3 22 4 2 5 3 6 4 7 6 8 7 9 8 10 11 11 12 12
REMARK SMILES IDX 13 13 19 14 15 15 17 16 14 17 16 19 18 21 9 23 1 25 5 27
REMARK H PARENT 14 18 16 20 18 22 9 24 1 26 5 28
REMARK Flexibility Score: inf
ROOT
ATOM      1  C   UNL     1      39.330  35.283  20.893  1.00  0.00     0.402 A 
ATOM      2  O   UNL     1      38.606  35.357  19.779  1.00  0.00    -0.202 OA
ATOM      3  C   UNL     1      39.098  35.109  18.570  1.00  0.00     0.368 A 
ATOM      4  C   UNL     1      38.259  35.218  17.459  1.00  0.00     0.162 A 
ATOM      5  C   UNL     1      38.749  34.966  16.177  1.00  0.00     0.128 A 
ATOM      6  C   UNL     1      40.090  34.606  16.003  1.00  0.00     0.093 A 
ATOM      7  C   UNL     1      40.952  34.490  17.100  1.00  0.00     0.136 A 
ATOM      8  C   UNL     1      40.456  34.743  18.406  1.00  0.00     0.125 A 
ATOM      9  C   UNL     1      41.243  34.640  19.564  1.00  0.00     0.078 A 
ATOM     10  C   UNL     1      40.682  34.899  20.819  1.00  0.00     0.223 A 
ENDROOT
BRANCH   1  11
ATOM     11  C   UNL     1      38.669  35.593  22.181  1.00  0.00     0.091 A 
ATOM     12  C   UNL     1      38.685  36.910  22.665  1.00  0.00     0.068 A 
ATOM     13  C   UNL     1      38.083  37.226  23.891  1.00  0.00     0.162 A 
ATOM     14  C   UNL     1      38.072  34.586  22.958  1.00  0.00     0.068 A 
ATOM     15  C   UNL     1      37.472  36.222  24.651  1.00  0.00     0.200 A 
ATOM     16  C   UNL     1      37.470  34.896  24.186  1.00  0.00     0.162 A 
BRANCH  13  17
ATOM     17  O   UNL     1      38.090  38.539  24.359  1.00  0.00    -0.504 OA
ATOM     18  H   UNL     1      37.319  39.171  24.179  1.00  0.00     0.293 HD
ENDBRANCH  13  17
BRANCH  15  19
ATOM     19  O   UNL     1      36.875  36.557  25.867  1.00  0.00    -0.502 OA
ATOM     20  H   UNL     1      35.923  36.291  26.092  1.00  0.00     0.293 HD
ENDBRANCH  15  19
BRANCH  16  21
ATOM     21  O   UNL     1      36.875  33.891  24.947  1.00  0.00    -0.504 OA
ATOM     22  H   UNL     1      36.962  32.913  24.697  1.00  0.00     0.293 HD
ENDBRANCH  16  21
ENDBRANCH   1  11
BRANCH  10  23
ATOM     23  O   UNL     1      41.450  34.748  21.973  1.00  0.00    -0.500 OA
ATOM     24  H   UNL     1      42.310  35.266  22.112  1.00  0.00     0.294 HD
ENDBRANCH  10  23
BRANCH   5  25
ATOM     25  O   UNL     1      37.896  35.079  15.082  1.00  0.00    -0.507 OA
ATOM     26  H   UNL     1      38.151  35.622  14.265  1.00  0.00     0.293 HD
ENDBRANCH   5  25
BRANCH   7  27
ATOM     27  O   UNL     1      42.278  34.129  16.843  1.00  0.00    -0.507 OA
ATOM     28  H   UNL     1      42.885  33.675  17.509  1.00  0.00     0.293 HD
ENDBRANCH   7  27
TORSDOF 7
ENDMDL
MODEL 4
REMARK VINA RESULT:    -3.506      2.326      3.107
REMARK INTER + INTRA:          -4.669
REMARK INTER:                  -4.394
REMARK INTRA:                  -0.275
REMARK UNBOUND:                -0.343
REMARK SMILES Oc1cc(O)c2cc(O)c(-c3cc(O)c(O)c(O)c3)[o+]c2c1
REMARK SMILES IDX 10 1 20 2 21 3 22 4 2 5 3 6 4 7 6 8 7 9 8 10 11 11 12 12
REMARK SMILES IDX 13 13 19 14 15 15 17 16 14 17 16 19 18 21 9 23 1 25 5 27
REMARK H PARENT 14 18 16 20 18 22 9 24 1 26 5 28
REMARK Flexibility Score: inf
ROOT
ATOM      1  C   UNL     1      39.361  35.595  19.770  1.00  0.00     0.402 A 
ATOM      2  O   UNL     1      40.225  35.909  18.808  1.00  0.00    -0.202 OA
ATOM      3  C   UNL     1      39.925  35.868  17.514  1.00  0.00     0.368 A 
ATOM      4  C   UNL     1      40.903  36.212  16.578  1.00  0.00     0.162 A 
ATOM      5  C   UNL     1      40.618  36.175  15.213  1.00  0.00     0.128 A 
ATOM      6  C   UNL     1      39.345  35.787  14.778  1.00  0.00     0.093 A 
ATOM      7  C   UNL     1      38.348  35.437  15.696  1.00  0.00     0.136 A 
ATOM      8  C   UNL     1      38.634  35.476  17.085  1.00  0.00     0.125 A 
ATOM      9  C   UNL     1      37.693  35.155  18.078  1.00  0.00     0.078 A 
ATOM     10  C   UNL     1      38.047  35.222  19.428  1.00  0.00     0.223 A 
ENDROOT
BRANCH   1  11
ATOM     11  C   UNL     1      39.818  35.671  21.176  1.00  0.00     0.091 A 
ATOM     12  C   UNL     1      39.353  36.710  21.998  1.00  0.00     0.068 A 
ATOM     13  C   UNL     1      39.785  36.815  23.326  1.00  0.00     0.162 A 
ATOM     14  C   UNL     1      40.753  34.758  21.692  1.00  0.00     0.068 A 
ATOM     15  C   UNL     1      40.701  35.889  23.841  1.00  0.00     0.200 A 
ATOM     16  C   UNL     1      41.191  34.860  23.019  1.00  0.00     0.162 A 
BRANCH  13  17
ATOM     17  O   UNL     1      39.308  37.840  24.141  1.00  0.00    -0.504 OA
ATOM     18  H   UNL     1      39.056  38.745  23.764  1.00  0.00     0.293 HD
ENDBRANCH  13  17
BRANCH  15  19
ATOM     19  O   UNL     1      41.118  36.009  25.167  1.00  0.00    -0.502 OA
ATOM     20  H   UNL     1      41.929  36.558  25.429  1.00  0.00     0.293 HD
ENDBRANCH  15  19
BRANCH  16  21
ATOM     21  O   UNL     1      42.114  33.945  23.524  1.00  0.00    -0.504 OA
ATOM     22  H   UNL     1      42.119  33.679  24.502  1.00  0.00     0.293 HD
ENDBRANCH  16  21
ENDBRANCH   1  11
BRANCH  10  23
ATOM     23  O   UNL     1      37.099  34.950  20.414  1.00  0.00    -0.500 OA
ATOM     24  H   UNL     1      36.381  35.620  20.662  1.00  0.00     0.294 HD
ENDBRANCH  10  23
BRANCH   5  25
ATOM     25  O   UNL     1      41.606  36.523  14.296  1.00  0.00    -0.507 OA
ATOM     26  H   UNL     1      41.478  37.288  13.642  1.00  0.00     0.293 HD
ENDBRANCH   5  25
BRANCH   7  27
ATOM     27  O   UNL     1      37.104  35.058  15.182  1.00  0.00    -0.507 OA
ATOM     28  H   UNL     1      36.558  35.615  14.541  1.00  0.00     0.293 HD
ENDBRANCH   7  27
TORSDOF 7
ENDMDL
MODEL 5
REMARK VINA RESULT:    -3.502      2.237      2.669
REMARK INTER + INTRA:          -4.663
REMARK INTER:                  -4.373
REMARK INTRA:                  -0.290
REMARK UNBOUND:                -0.343
REMARK SMILES Oc1cc(O)c2cc(O)c(-c3cc(O)c(O)c(O)c3)[o+]c2c1
REMARK SMILES IDX 10 1 20 2 21 3 22 4 2 5 3 6 4 7 6 8 7 9 8 10 11 11 12 12
REMARK SMILES IDX 13 13 19 14 15 15 17 16 14 17 16 19 18 21 9 23 1 25 5 27
REMARK H PARENT 14 18 16 20 18 22 9 24 1 26 5 28
REMARK Flexibility Score: inf
ROOT
ATOM      1  C   UNL     1      39.200  35.713  19.713  1.00  0.00     0.402 A 
ATOM      2  O   UNL     1      40.053  36.092  18.764  1.00  0.00    -0.202 OA
ATOM      3  C   UNL     1      39.773  36.039  17.467  1.00  0.00     0.368 A 
ATOM      4  C   UNL     1      40.737  36.456  16.545  1.00  0.00     0.162 A 
ATOM      5  C   UNL     1      40.472  36.409  15.177  1.00  0.00     0.128 A 
ATOM      6  C   UNL     1      39.234  35.939  14.723  1.00  0.00     0.093 A 
ATOM      7  C   UNL     1      38.251  35.516  15.626  1.00  0.00     0.136 A 
ATOM      8  C   UNL     1      38.517  35.564  17.018  1.00  0.00     0.125 A 
ATOM      9  C   UNL     1      37.587  35.173  17.996  1.00  0.00     0.078 A 
ATOM     10  C   UNL     1      37.919  35.254  19.352  1.00  0.00     0.223 A 
ENDROOT
BRANCH   1  11
ATOM     11  C   UNL     1      39.633  35.810  21.125  1.00  0.00     0.091 A 
ATOM     12  C   UNL     1      40.548  34.874  21.632  1.00  0.00     0.068 A 
ATOM     13  C   UNL     1      40.959  34.932  22.970  1.00  0.00     0.162 A 
ATOM     14  C   UNL     1      39.107  36.787  21.987  1.00  0.00     0.068 A 
ATOM     15  C   UNL     1      40.446  35.921  23.819  1.00  0.00     0.200 A 
ATOM     16  C   UNL     1      39.513  36.849  23.327  1.00  0.00     0.162 A 
BRANCH  13  17
ATOM     17  O   UNL     1      41.878  34.008  23.464  1.00  0.00    -0.504 OA
ATOM     18  H   UNL     1      42.369  33.368  22.851  1.00  0.00     0.293 HD
ENDBRANCH  13  17
BRANCH  15  19
ATOM     19  O   UNL     1      40.870  35.964  25.148  1.00  0.00    -0.502 OA
ATOM     20  H   UNL     1      40.217  35.950  25.922  1.00  0.00     0.293 HD
ENDBRANCH  15  19
BRANCH  16  21
ATOM     21  O   UNL     1      38.990  37.826  24.173  1.00  0.00    -0.504 OA
ATOM     22  H   UNL     1      39.523  38.650  24.427  1.00  0.00     0.293 HD
ENDBRANCH  16  21
ENDBRANCH   1  11
BRANCH  10  23
ATOM     23  O   UNL     1      36.980  34.912  20.324  1.00  0.00    -0.500 OA
ATOM     24  H   UNL     1      37.031  34.036  20.830  1.00  0.00     0.294 HD
ENDBRANCH  10  23
BRANCH   5  25
ATOM     25  O   UNL     1      41.445  36.830  14.274  1.00  0.00    -0.507 OA
ATOM     26  H   UNL     1      42.227  37.405  14.567  1.00  0.00     0.293 HD
ENDBRANCH   5  25
BRANCH   7  27
ATOM     27  O   UNL     1      37.043  35.057  15.093  1.00  0.00    -0.507 OA
ATOM     28  H   UNL     1      36.342  35.650  14.673  1.00  0.00     0.293 HD
ENDBRANCH   7  27
TORSDOF 7
ENDMDL
MODEL 6
REMARK VINA RESULT:    -3.467      2.782      3.901
REMARK INTER + INTRA:          -4.621
REMARK INTER:                  -4.284
REMARK INTRA:                  -0.337
REMARK UNBOUND:                -0.343
REMARK SMILES Oc1cc(O)c2cc(O)c(-c3cc(O)c(O)c(O)c3)[o+]c2c1
REMARK SMILES IDX 10 1 20 2 21 3 22 4 2 5 3 6 4 7 6 8 7 9 8 10 11 11 12 12
REMARK SMILES IDX 13 13 19 14 15 15 17 16 14 17 16 19 18 21 9 23 1 25 5 27
REMARK H PARENT 14 18 16 20 18 22 9 24 1 26 5 28
REMARK Flexibility Score: inf
ROOT
ATOM      1  C   UNL     1      39.267  35.350  20.656  1.00  0.00     0.402 A 
ATOM      2  O   UNL     1      40.464  35.052  20.158  1.00  0.00    -0.202 OA
ATOM      3  C   UNL     1      40.677  34.793  18.872  1.00  0.00     0.368 A 
ATOM      4  C   UNL     1      41.971  34.487  18.444  1.00  0.00     0.162 A 
ATOM      5  C   UNL     1      42.222  34.207  17.101  1.00  0.00     0.128 A 
ATOM      6  C   UNL     1      41.172  34.231  16.176  1.00  0.00     0.093 A 
ATOM      7  C   UNL     1      39.866  34.534  16.579  1.00  0.00     0.136 A 
ATOM      8  C   UNL     1      39.607  34.821  17.944  1.00  0.00     0.125 A 
ATOM      9  C   UNL     1      38.333  35.148  18.437  1.00  0.00     0.078 A 
ATOM     10  C   UNL     1      38.155  35.425  19.796  1.00  0.00     0.223 A 
ENDROOT
BRANCH   1  11
ATOM     11  C   UNL     1      39.157  35.609  22.109  1.00  0.00     0.091 A 
ATOM     12  C   UNL     1      38.600  34.629  22.945  1.00  0.00     0.068 A 
ATOM     13  C   UNL     1      38.467  34.858  24.321  1.00  0.00     0.162 A 
ATOM     14  C   UNL     1      39.549  36.839  22.665  1.00  0.00     0.068 A 
ATOM     15  C   UNL     1      38.878  36.078  24.872  1.00  0.00     0.200 A 
ATOM     16  C   UNL     1      39.416  37.074  24.040  1.00  0.00     0.162 A 
BRANCH  13  17
ATOM     17  O   UNL     1      37.926  33.875  25.148  1.00  0.00    -0.504 OA
ATOM     18  H   UNL     1      38.097  32.890  24.985  1.00  0.00     0.293 HD
ENDBRANCH  13  17
BRANCH  15  19
ATOM     19  O   UNL     1      38.741  36.286  26.245  1.00  0.00    -0.502 OA
ATOM     20  H   UNL     1      38.865  35.538  26.918  1.00  0.00     0.293 HD
ENDBRANCH  15  19
BRANCH  16  21
ATOM     21  O   UNL     1      39.813  38.296  24.583  1.00  0.00    -0.504 OA
ATOM     22  H   UNL     1      40.486  38.348  25.339  1.00  0.00     0.293 HD
ENDBRANCH  16  21
ENDBRANCH   1  11
BRANCH  10  23
ATOM     23  O   UNL     1      36.901  35.797  20.276  1.00  0.00    -0.500 OA
ATOM     24  H   UNL     1      36.796  36.395  21.087  1.00  0.00     0.294 HD
ENDBRANCH  10  23
BRANCH   5  25
ATOM     25  O   UNL     1      43.520  33.906  16.694  1.00  0.00    -0.507 OA
ATOM     26  H   UNL     1      43.750  33.013  16.273  1.00  0.00     0.293 HD
ENDBRANCH   5  25
BRANCH   7  27
ATOM     27  O   UNL     1      38.872  34.533  15.596  1.00  0.00    -0.507 OA
ATOM     28  H   UNL     1      38.268  33.750  15.397  1.00  0.00     0.293 HD
ENDBRANCH   7  27
TORSDOF 7
ENDMDL
MODEL 7
REMARK VINA RESULT:    -3.385      2.158      6.664
REMARK INTER + INTRA:          -4.519
REMARK INTER:                  -4.181
REMARK INTRA:                  -0.338
REMARK UNBOUND:                -0.343
REMARK SMILES Oc1cc(O)c2cc(O)c(-c3cc(O)c(O)c(O)c3)[o+]c2c1
REMARK SMILES IDX 10 1 20 2 21 3 22 4 2 5 3 6 4 7 6 8 7 9 8 10 11 11 12 12
REMARK SMILES IDX 13 13 19 14 15 15 17 16 14 17 16 19 18 21 9 23 1 25 5 27
REMARK H PARENT 14 18 16 20 18 22 9 24 1 26 5 28
REMARK Flexibility Score: inf
ROOT
ATOM      1  C   UNL     1      38.363  36.281  19.962  1.00  0.00     0.402 A 
ATOM      2  O   UNL     1      38.290  35.372  20.931  1.00  0.00    -0.202 OA
ATOM      3  C   UNL     1      37.945  35.663  22.180  1.00  0.00     0.368 A 
ATOM      4  C   UNL     1      37.900  34.639  23.130  1.00  0.00     0.162 A 
ATOM      5  C   UNL     1      37.544  34.916  24.450  1.00  0.00     0.128 A 
ATOM      6  C   UNL     1      37.231  36.227  24.827  1.00  0.00     0.093 A 
ATOM      7  C   UNL     1      37.268  37.271  23.894  1.00  0.00     0.136 A 
ATOM      8  C   UNL     1      37.628  36.993  22.550  1.00  0.00     0.125 A 
ATOM      9  C   UNL     1      37.680  37.973  21.545  1.00  0.00     0.078 A 
ATOM     10  C   UNL     1      38.038  37.622  20.241  1.00  0.00     0.223 A 
ENDROOT
BRANCH   1  11
ATOM     11  C   UNL     1      38.770  35.833  18.611  1.00  0.00     0.091 A 
ATOM     12  C   UNL     1      40.133  35.646  18.327  1.00  0.00     0.068 A 
ATOM     13  C   UNL     1      40.546  35.242  17.051  1.00  0.00     0.162 A 
ATOM     14  C   UNL     1      37.827  35.644  17.587  1.00  0.00     0.068 A 
ATOM     15  C   UNL     1      39.598  35.035  16.040  1.00  0.00     0.200 A 
ATOM     16  C   UNL     1      38.235  35.241  16.307  1.00  0.00     0.162 A 
BRANCH  13  17
ATOM     17  O   UNL     1      41.899  35.044  16.779  1.00  0.00    -0.504 OA
ATOM     18  H   UNL     1      42.621  35.436  17.371  1.00  0.00     0.293 HD
ENDBRANCH  13  17
BRANCH  15  19
ATOM     19  O   UNL     1      40.029  34.629  14.776  1.00  0.00    -0.502 OA
ATOM     20  H   UNL     1      40.137  33.651  14.532  1.00  0.00     0.293 HD
ENDBRANCH  15  19
BRANCH  16  21
ATOM     21  O   UNL     1      37.290  35.050  15.300  1.00  0.00    -0.504 OA
ATOM     22  H   UNL     1      36.311  34.899  15.511  1.00  0.00     0.293 HD
ENDBRANCH  16  21
ENDBRANCH   1  11
BRANCH  10  23
ATOM     23  O   UNL     1      38.041  38.585  19.233  1.00  0.00    -0.500 OA
ATOM     24  H   UNL     1      37.195  38.844  18.740  1.00  0.00     0.294 HD
ENDBRANCH  10  23
BRANCH   5  25
ATOM     25  O   UNL     1      37.504  33.881  25.381  1.00  0.00    -0.507 OA
ATOM     26  H   UNL     1      38.336  33.581  25.876  1.00  0.00     0.293 HD
ENDBRANCH   5  25
BRANCH   7  27
ATOM     27  O   UNL     1      36.946  38.553  24.350  1.00  0.00    -0.507 OA
ATOM     28  H   UNL     1      37.381  39.003  25.142  1.00  0.00     0.293 HD
ENDBRANCH   7  27
TORSDOF 7
ENDMDL
MODEL 8
REMARK VINA RESULT:    -3.258     22.613     23.656
REMARK INTER + INTRA:          -4.363
REMARK INTER:                  -4.014
REMARK INTRA:                  -0.348
REMARK UNBOUND:                -0.343
REMARK SMILES Oc1cc(O)c2cc(O)c(-c3cc(O)c(O)c(O)c3)[o+]c2c1
REMARK SMILES IDX 10 1 20 2 21 3 22 4 2 5 3 6 4 7 6 8 7 9 8 10 11 11 12 12
REMARK SMILES IDX 13 13 19 14 15 15 17 16 14 17 16 19 18 21 9 23 1 25 5 27
REMARK H PARENT 14 18 16 20 18 22 9 24 1 26 5 28
REMARK Flexibility Score: inf
ROOT
ATOM      1  C   UNL     1      54.973  52.247  17.255  1.00  0.00     0.402 A 
ATOM      2  O   UNL     1      55.808  52.666  16.308  1.00  0.00    -0.202 OA
ATOM      3  C   UNL     1      55.433  52.899  15.055  1.00  0.00     0.368 A 
ATOM      4  C   UNL     1      56.385  53.335  14.130  1.00  0.00     0.162 A 
ATOM      5  C   UNL     1      56.021  53.584  12.807  1.00  0.00     0.128 A 
ATOM      6  C   UNL     1      54.695  53.394  12.402  1.00  0.00     0.093 A 
ATOM      7  C   UNL     1      53.722  52.958  13.309  1.00  0.00     0.136 A 
ATOM      8  C   UNL     1      54.088  52.706  14.656  1.00  0.00     0.125 A 
ATOM      9  C   UNL     1      53.178  52.279  15.638  1.00  0.00     0.078 A 
ATOM     10  C   UNL     1      53.612  52.056  16.948  1.00  0.00     0.223 A 
ENDROOT
BRANCH   1  11
ATOM     11  C   UNL     1      55.514  52.013  18.614  1.00  0.00     0.091 A 
ATOM     12  C   UNL     1      55.849  53.112  19.421  1.00  0.00     0.068 A 
ATOM     13  C   UNL     1      56.381  52.918  20.703  1.00  0.00     0.162 A 
ATOM     14  C   UNL     1      55.752  50.714  19.093  1.00  0.00     0.068 A 
ATOM     15  C   UNL     1      56.596  51.620  21.183  1.00  0.00     0.200 A 
ATOM     16  C   UNL     1      56.286  50.515  20.374  1.00  0.00     0.162 A 
BRANCH  13  17
ATOM     17  O   UNL     1      56.698  54.012  21.505  1.00  0.00    -0.504 OA
ATOM     18  H   UNL     1      57.405  54.684  21.232  1.00  0.00     0.293 HD
ENDBRANCH  13  17
BRANCH  15  19
ATOM     19  O   UNL     1      57.124  51.447  22.464  1.00  0.00    -0.502 OA
ATOM     20  H   UNL     1      56.597  51.007  23.209  1.00  0.00     0.293 HD
ENDBRANCH  15  19
BRANCH  16  21
ATOM     21  O   UNL     1      56.513  49.221  20.843  1.00  0.00    -0.504 OA
ATOM     22  H   UNL     1      56.973  49.051  21.730  1.00  0.00     0.293 HD
ENDBRANCH  16  21
ENDBRANCH   1  11
BRANCH  10  23
ATOM     23  O   UNL     1      52.700  51.680  17.932  1.00  0.00    -0.500 OA
ATOM     24  H   UNL     1      52.988  51.510  18.889  1.00  0.00     0.294 HD
ENDBRANCH  10  23
BRANCH   5  25
ATOM     25  O   UNL     1      56.985  54.019  11.900  1.00  0.00    -0.507 OA
ATOM     26  H   UNL     1      57.628  54.768  12.128  1.00  0.00     0.293 HD
ENDBRANCH   5  25
BRANCH   7  27
ATOM     27  O   UNL     1      52.421  52.789  12.826  1.00  0.00    -0.507 OA
ATOM     28  H   UNL     1      52.162  52.848  11.852  1.00  0.00     0.293 HD
ENDBRANCH   7  27
TORSDOF 7
ENDMDL
MODEL 9
REMARK VINA RESULT:    -3.177     14.701     16.066
REMARK INTER + INTRA:          -4.263
REMARK INTER:                  -4.033
REMARK INTRA:                  -0.230
REMARK UNBOUND:                -0.343
REMARK SMILES Oc1cc(O)c2cc(O)c(-c3cc(O)c(O)c(O)c3)[o+]c2c1
REMARK SMILES IDX 10 1 20 2 21 3 22 4 2 5 3 6 4 7 6 8 7 9 8 10 11 11 12 12
REMARK SMILES IDX 13 13 19 14 15 15 17 16 14 17 16 19 18 21 9 23 1 25 5 27
REMARK H PARENT 14 18 16 20 18 22 9 24 1 26 5 28
REMARK Flexibility Score: inf
ROOT
ATOM      1  C   UNL     1      39.998  52.337  18.837  1.00  0.00     0.402 A 
ATOM      2  O   UNL     1      39.206  51.484  18.193  1.00  0.00    -0.202 OA
ATOM      3  C   UNL     1      39.234  51.312  16.876  1.00  0.00     0.368 A 
ATOM      4  C   UNL     1      38.360  50.394  16.290  1.00  0.00     0.162 A 
ATOM      5  C   UNL     1      38.365  50.196  14.909  1.00  0.00     0.128 A 
ATOM      6  C   UNL     1      39.250  50.923  14.105  1.00  0.00     0.093 A 
ATOM      7  C   UNL     1      40.137  51.849  14.668  1.00  0.00     0.136 A 
ATOM      8  C   UNL     1      40.135  52.052  16.072  1.00  0.00     0.125 A 
ATOM      9  C   UNL     1      40.997  52.949  16.724  1.00  0.00     0.078 A 
ATOM     10  C   UNL     1      40.941  53.091  18.114  1.00  0.00     0.223 A 
ENDROOT
BRANCH   1  11
ATOM     11  C   UNL     1      39.864  52.444  20.308  1.00  0.00     0.091 A 
ATOM     12  C   UNL     1      40.910  51.998  21.131  1.00  0.00     0.068 A 
ATOM     13  C   UNL     1      40.800  52.071  22.525  1.00  0.00     0.162 A 
ATOM     14  C   UNL     1      38.688  52.932  20.902  1.00  0.00     0.068 A 
ATOM     15  C   UNL     1      39.633  52.578  23.111  1.00  0.00     0.200 A 
ATOM     16  C   UNL     1      38.572  53.005  22.297  1.00  0.00     0.162 A 
BRANCH  13  17
ATOM     17  O   UNL     1      41.848  51.640  23.337  1.00  0.00    -0.504 OA
ATOM     18  H   UNL     1      42.729  52.139  23.377  1.00  0.00     0.293 HD
ENDBRANCH  13  17
BRANCH  15  19
ATOM     19  O   UNL     1      39.544  52.645  24.502  1.00  0.00    -0.502 OA
ATOM     20  H   UNL     1      39.308  53.504  24.986  1.00  0.00     0.293 HD
ENDBRANCH  15  19
BRANCH  16  21
ATOM     21  O   UNL     1      37.403  53.497  22.877  1.00  0.00    -0.504 OA
ATOM     22  H   UNL     1      37.402  54.338  23.442  1.00  0.00     0.293 HD
ENDBRANCH  16  21
ENDBRANCH   1  11
BRANCH  10  23
ATOM     23  O   UNL     1      41.829  53.945  18.766  1.00  0.00    -0.500 OA
ATOM     24  H   UNL     1      42.289  54.707  18.282  1.00  0.00     0.294 HD
ENDBRANCH  10  23
BRANCH   5  25
ATOM     25  O   UNL     1      37.486  49.275  14.344  1.00  0.00    -0.507 OA
ATOM     26  H   UNL     1      36.509  49.242  14.611  1.00  0.00     0.293 HD
ENDBRANCH   5  25
BRANCH   7  27
ATOM     27  O   UNL     1      40.987  52.538  13.797  1.00  0.00    -0.507 OA
ATOM     28  H   UNL     1      41.075  53.543  13.763  1.00  0.00     0.293 HD
ENDBRANCH   7  27
TORSDOF 7
ENDMDL
