MODEL 1
REMARK VINA RESULT:    -4.933      0.000      0.000
REMARK INTER + INTRA:         -16.178
REMARK INTER:                 -12.432
REMARK INTRA:                  -3.746
REMARK UNBOUND:                -3.746
REMARK SMILES CCCCCCCCCCCCCCCCCCCCCCCCCCCC(=O)[O-]
REMARK SMILES IDX 15 1 16 2 17 3 18 4 19 5 20 6 21 7 22 8 23 9 24 10 25 11
REMARK SMILES IDX 26 12 27 13 28 14 29 15 30 16 14 17 13 18 12 19 11 20 10 21
REMARK SMILES IDX 9 22 8 23 7 24 6 25 5 26 4 27 3 28 2 29 1 30
REMARK H PARENT
REMARK Flexibility Score: inf
ROOT
ATOM      1  C   UNL     1      41.112 117.137  11.875  1.00  0.00     0.000 C 
ENDROOT
BRANCH   1   2
ATOM      2  C   UNL     1      39.580 117.197  12.053  1.00  0.00     0.000 C 
BRANCH   2   3
ATOM      3  C   UNL     1      39.088 117.257  13.511  1.00  0.00     0.000 C 
BRANCH   3   4
ATOM      4  C   UNL     1      39.258 118.648  14.143  1.00  0.00     0.000 C 
BRANCH   4   5
ATOM      5  C   UNL     1      38.691 119.775  13.260  1.00  0.00     0.000 C 
BRANCH   5   6
ATOM      6  C   UNL     1      37.317 120.323  13.698  1.00  0.00     0.000 C 
BRANCH   6   7
ATOM      7  C   UNL     1      36.103 119.589  13.101  1.00  0.00     0.000 C 
BRANCH   7   8
ATOM      8  C   UNL     1      35.461 118.602  14.087  1.00  0.00     0.000 C 
BRANCH   8   9
ATOM      9  C   UNL     1      35.714 119.031  15.541  1.00  0.00     0.000 C 
BRANCH   9  10
ATOM     10  C   UNL     1      36.065 117.845  16.454  1.00  0.00     0.000 C 
BRANCH  10  11
ATOM     11  C   UNL     1      36.571 116.625  15.671  1.00  0.00     0.000 C 
BRANCH  11  12
ATOM     12  C   UNL     1      36.695 115.398  16.586  1.00  0.00     0.006 C 
BRANCH  12  13
ATOM     13  C   UNL     1      37.691 114.365  16.041  1.00  0.00     0.053 C 
BRANCH  13  14
ATOM     14  C   UNL     1      37.029 113.052  15.751  1.00  0.00     0.041 C 
ATOM     15  O   UNL     1      37.467 111.993  16.273  1.00  0.00    -0.550 OA
ATOM     16  O   UNL     1      35.945 112.994  14.884  1.00  0.00    -0.550 OA
ENDBRANCH  13  14
ENDBRANCH  12  13
ENDBRANCH  11  12
ENDBRANCH  10  11
ENDBRANCH   9  10
ENDBRANCH   8   9
ENDBRANCH   7   8
ENDBRANCH   6   7
ENDBRANCH   5   6
ENDBRANCH   4   5
ENDBRANCH   3   4
ENDBRANCH   2   3
ENDBRANCH   1   2
BRANCH   1  17
ATOM     17  C   UNL     1      41.644 117.668  10.530  1.00  0.00     0.000 C 
BRANCH  17  18
ATOM     18  C   UNL     1      43.031 117.108  10.172  1.00  0.00     0.000 C 
BRANCH  18  19
ATOM     19  C   UNL     1      43.138 116.678   8.697  1.00  0.00     0.000 C 
BRANCH  19  20
ATOM     20  C   UNL     1      44.436 115.937   8.328  1.00  0.00     0.000 C 
BRANCH  20  21
ATOM     21  C   UNL     1      45.269 115.543   9.557  1.00  0.00     0.000 C 
BRANCH  21  22
ATOM     22  C   UNL     1      45.313 114.021   9.787  1.00  0.00    -0.000 C 
BRANCH  22  23
ATOM     23  C   UNL     1      45.085 113.612  11.259  1.00  0.00    -0.000 C 
BRANCH  23  24
ATOM     24  C   UNL     1      43.600 113.356  11.568  1.00  0.00    -0.000 C 
BRANCH  24  25
ATOM     25  C   UNL     1      43.089 114.200  12.747  1.00  0.00    -0.000 C 
BRANCH  25  26
ATOM     26  C   UNL     1      43.827 113.891  14.060  1.00  0.00    -0.000 C 
BRANCH  26  27
ATOM     27  C   UNL     1      44.359 115.177  14.704  1.00  0.00    -0.000 C 
BRANCH  27  28
ATOM     28  C   UNL     1      44.236 116.367  13.740  1.00  0.00    -0.000 C 
BRANCH  28  29
ATOM     29  C   UNL     1      45.585 116.764  13.119  1.00  0.00    -0.003 C 
ATOM     30  C   UNL     1      46.741 116.680  14.117  1.00  0.00     0.004 C 
ENDBRANCH  28  29
ENDBRANCH  27  28
ENDBRANCH  26  27
ENDBRANCH  25  26
ENDBRANCH  24  25
ENDBRANCH  23  24
ENDBRANCH  22  23
ENDBRANCH  21  22
ENDBRANCH  20  21
ENDBRANCH  19  20
ENDBRANCH  18  19
ENDBRANCH  17  18
ENDBRANCH   1  17
TORSDOF 26
ENDMDL
MODEL 2
REMARK VINA RESULT:    -4.800      3.046      8.420
REMARK INTER + INTRA:         -15.842
REMARK INTER:                 -12.027
REMARK INTRA:                  -3.815
REMARK UNBOUND:                -3.746
REMARK SMILES CCCCCCCCCCCCCCCCCCCCCCCCCCCC(=O)[O-]
REMARK SMILES IDX 15 1 16 2 17 3 18 4 19 5 20 6 21 7 22 8 23 9 24 10 25 11
REMARK SMILES IDX 26 12 27 13 28 14 29 15 30 16 14 17 13 18 12 19 11 20 10 21
REMARK SMILES IDX 9 22 8 23 7 24 6 25 5 26 4 27 3 28 2 29 1 30
REMARK H PARENT
REMARK Flexibility Score: inf
ROOT
ATOM      1  C   UNL     1      41.935 117.445  10.692  1.00  0.00     0.000 C 
ENDROOT
BRANCH   1   2
ATOM      2  C   UNL     1      41.939 117.733   9.175  1.00  0.00     0.000 C 
BRANCH   2   3
ATOM      3  C   UNL     1      42.703 116.713   8.312  1.00  0.00     0.000 C 
BRANCH   3   4
ATOM      4  C   UNL     1      43.388 115.618   9.145  1.00  0.00     0.000 C 
BRANCH   4   5
ATOM      5  C   UNL     1      44.924 115.668   9.044  1.00  0.00     0.000 C 
BRANCH   5   6
ATOM      6  C   UNL     1      45.665 115.830  10.387  1.00  0.00     0.000 C 
BRANCH   6   7
ATOM      7  C   UNL     1      45.208 117.025  11.243  1.00  0.00     0.000 C 
BRANCH   7   8
ATOM      8  C   UNL     1      45.429 116.799  12.746  1.00  0.00     0.000 C 
BRANCH   8   9
ATOM      9  C   UNL     1      44.103 116.496  13.460  1.00  0.00     0.000 C 
BRANCH   9  10
ATOM     10  C   UNL     1      43.906 114.994  13.728  1.00  0.00     0.000 C 
BRANCH  10  11
ATOM     11  C   UNL     1      42.929 114.340  12.740  1.00  0.00     0.000 C 
BRANCH  11  12
ATOM     12  C   UNL     1      43.632 113.256  11.910  1.00  0.00     0.006 C 
BRANCH  12  13
ATOM     13  C   UNL     1      44.671 112.479  12.730  1.00  0.00     0.053 C 
BRANCH  13  14
ATOM     14  C   UNL     1      45.849 112.074  11.895  1.00  0.00     0.041 C 
ATOM     15  O   UNL     1      46.848 111.527  12.432  1.00  0.00    -0.550 OA
ATOM     16  O   UNL     1      45.855 112.327  10.529  1.00  0.00    -0.550 OA
ENDBRANCH  13  14
ENDBRANCH  12  13
ENDBRANCH  11  12
ENDBRANCH  10  11
ENDBRANCH   9  10
ENDBRANCH   8   9
ENDBRANCH   7   8
ENDBRANCH   6   7
ENDBRANCH   5   6
ENDBRANCH   4   5
ENDBRANCH   3   4
ENDBRANCH   2   3
ENDBRANCH   1   2
BRANCH   1  17
ATOM     17  C   UNL     1      40.876 118.208  11.509  1.00  0.00     0.000 C 
BRANCH  17  18
ATOM     18  C   UNL     1      39.875 117.275  12.211  1.00  0.00     0.000 C 
BRANCH  18  19
ATOM     19  C   UNL     1      40.357 116.820  13.601  1.00  0.00     0.000 C 
BRANCH  19  20
ATOM     20  C   UNL     1      40.238 117.880  14.711  1.00  0.00     0.000 C 
BRANCH  20  21
ATOM     21  C   UNL     1      38.984 117.695  15.580  1.00  0.00     0.000 C 
BRANCH  21  22
ATOM     22  C   UNL     1      38.303 116.332  15.366  1.00  0.00    -0.000 C 
BRANCH  22  23
ATOM     23  C   UNL     1      36.899 116.434  14.730  1.00  0.00    -0.000 C 
BRANCH  23  24
ATOM     24  C   UNL     1      36.902 117.288  13.451  1.00  0.00    -0.000 C 
BRANCH  24  25
ATOM     25  C   UNL     1      35.596 118.076  13.265  1.00  0.00    -0.000 C 
BRANCH  25  26
ATOM     26  C   UNL     1      35.694 119.517  13.792  1.00  0.00    -0.000 C 
BRANCH  26  27
ATOM     27  C   UNL     1      36.988 120.187  13.313  1.00  0.00    -0.000 C 
BRANCH  27  28
ATOM     28  C   UNL     1      37.730 120.850  14.483  1.00  0.00    -0.000 C 
BRANCH  28  29
ATOM     29  C   UNL     1      36.953 122.035  15.079  1.00  0.00    -0.003 C 
ATOM     30  C   UNL     1      36.539 121.798  16.532  1.00  0.00     0.004 C 
ENDBRANCH  28  29
ENDBRANCH  27  28
ENDBRANCH  26  27
ENDBRANCH  25  26
ENDBRANCH  24  25
ENDBRANCH  23  24
ENDBRANCH  22  23
ENDBRANCH  21  22
ENDBRANCH  20  21
ENDBRANCH  19  20
ENDBRANCH  18  19
ENDBRANCH  17  18
ENDBRANCH   1  17
TORSDOF 26
ENDMDL
MODEL 3
REMARK VINA RESULT:    -4.792      2.924      7.505
REMARK INTER + INTRA:         -15.822
REMARK INTER:                 -11.900
REMARK INTRA:                  -3.921
REMARK UNBOUND:                -3.746
REMARK SMILES CCCCCCCCCCCCCCCCCCCCCCCCCCCC(=O)[O-]
REMARK SMILES IDX 15 1 16 2 17 3 18 4 19 5 20 6 21 7 22 8 23 9 24 10 25 11
REMARK SMILES IDX 26 12 27 13 28 14 29 15 30 16 14 17 13 18 12 19 11 20 10 21
REMARK SMILES IDX 9 22 8 23 7 24 6 25 5 26 4 27 3 28 2 29 1 30
REMARK H PARENT
REMARK Flexibility Score: inf
ROOT
ATOM      1  C   UNL     1      45.602 116.606  10.403  1.00  0.00     0.000 C 
ENDROOT
BRANCH   1   2
ATOM      2  C   UNL     1      45.418 117.098  11.854  1.00  0.00     0.000 C 
BRANCH   2   3
ATOM      3  C   UNL     1      45.241 115.990  12.909  1.00  0.00     0.000 C 
BRANCH   3   4
ATOM      4  C   UNL     1      43.910 116.096  13.672  1.00  0.00     0.000 C 
BRANCH   4   5
ATOM      5  C   UNL     1      42.800 115.228  13.053  1.00  0.00     0.000 C 
BRANCH   5   6
ATOM      6  C   UNL     1      41.616 114.910  13.990  1.00  0.00     0.000 C 
BRANCH   6   7
ATOM      7  C   UNL     1      41.977 114.803  15.482  1.00  0.00     0.000 C 
BRANCH   7   8
ATOM      8  C   UNL     1      41.427 113.527  16.136  1.00  0.00     0.000 C 
BRANCH   8   9
ATOM      9  C   UNL     1      42.528 112.466  16.287  1.00  0.00     0.000 C 
BRANCH   9  10
ATOM     10  C   UNL     1      43.932 113.027  16.007  1.00  0.00     0.000 C 
BRANCH  10  11
ATOM     11  C   UNL     1      44.863 111.995  15.356  1.00  0.00     0.000 C 
BRANCH  11  12
ATOM     12  C   UNL     1      45.780 112.660  14.319  1.00  0.00     0.006 C 
BRANCH  12  13
ATOM     13  C   UNL     1      46.281 111.664  13.264  1.00  0.00     0.053 C 
BRANCH  13  14
ATOM     14  C   UNL     1      45.607 111.869  11.940  1.00  0.00     0.041 C 
ATOM     15  O   UNL     1      46.217 111.603  10.871  1.00  0.00    -0.550 OA
ATOM     16  O   UNL     1      44.316 112.380  11.887  1.00  0.00    -0.550 OA
ENDBRANCH  13  14
ENDBRANCH  12  13
ENDBRANCH  11  12
ENDBRANCH  10  11
ENDBRANCH   9  10
ENDBRANCH   8   9
ENDBRANCH   7   8
ENDBRANCH   6   7
ENDBRANCH   5   6
ENDBRANCH   4   5
ENDBRANCH   3   4
ENDBRANCH   2   3
ENDBRANCH   1   2
BRANCH   1  17
ATOM     17  C   UNL     1      45.116 115.172  10.122  1.00  0.00     0.000 C 
BRANCH  17  18
ATOM     18  C   UNL     1      43.753 115.131   9.410  1.00  0.00     0.000 C 
BRANCH  18  19
ATOM     19  C   UNL     1      43.482 116.390   8.566  1.00  0.00     0.000 C 
BRANCH  19  20
ATOM     20  C   UNL     1      42.178 117.134   8.908  1.00  0.00     0.000 C 
BRANCH  20  21
ATOM     21  C   UNL     1      42.109 117.575  10.378  1.00  0.00     0.000 C 
BRANCH  21  22
ATOM     22  C   UNL     1      40.684 117.513  10.955  1.00  0.00    -0.000 C 
BRANCH  22  23
ATOM     23  C   UNL     1      40.461 118.459  12.155  1.00  0.00    -0.000 C 
BRANCH  23  24
ATOM     24  C   UNL     1      39.491 117.865  13.191  1.00  0.00    -0.000 C 
BRANCH  24  25
ATOM     25  C   UNL     1      38.188 117.353  12.555  1.00  0.00    -0.000 C 
BRANCH  25  26
ATOM     26  C   UNL     1      37.008 117.355  13.540  1.00  0.00    -0.000 C 
BRANCH  26  27
ATOM     27  C   UNL     1      35.885 118.275  13.045  1.00  0.00    -0.000 C 
BRANCH  27  28
ATOM     28  C   UNL     1      36.279 119.752  13.191  1.00  0.00    -0.000 C 
BRANCH  28  29
ATOM     29  C   UNL     1      36.861 120.073  14.577  1.00  0.00    -0.003 C 
ATOM     30  C   UNL     1      36.999 121.576  14.825  1.00  0.00     0.004 C 
ENDBRANCH  28  29
ENDBRANCH  27  28
ENDBRANCH  26  27
ENDBRANCH  25  26
ENDBRANCH  24  25
ENDBRANCH  23  24
ENDBRANCH  22  23
ENDBRANCH  21  22
ENDBRANCH  20  21
ENDBRANCH  19  20
ENDBRANCH  18  19
ENDBRANCH  17  18
ENDBRANCH   1  17
TORSDOF 26
ENDMDL
MODEL 4
REMARK VINA RESULT:    -4.775      2.357      4.065
REMARK INTER + INTRA:         -15.778
REMARK INTER:                 -11.357
REMARK INTRA:                  -4.421
REMARK UNBOUND:                -3.746
REMARK SMILES CCCCCCCCCCCCCCCCCCCCCCCCCCCC(=O)[O-]
REMARK SMILES IDX 15 1 16 2 17 3 18 4 19 5 20 6 21 7 22 8 23 9 24 10 25 11
REMARK SMILES IDX 26 12 27 13 28 14 29 15 30 16 14 17 13 18 12 19 11 20 10 21
REMARK SMILES IDX 9 22 8 23 7 24 6 25 5 26 4 27 3 28 2 29 1 30
REMARK H PARENT
REMARK Flexibility Score: inf
ROOT
ATOM      1  C   UNL     1      42.061 117.154  10.676  1.00  0.00     0.000 C 
ENDROOT
BRANCH   1   2
ATOM      2  C   UNL     1      40.826 117.765  11.371  1.00  0.00     0.000 C 
BRANCH   2   3
ATOM      3  C   UNL     1      40.444 117.127  12.719  1.00  0.00     0.000 C 
BRANCH   3   4
ATOM      4  C   UNL     1      41.503 116.137  13.234  1.00  0.00     0.000 C 
BRANCH   4   5
ATOM      5  C   UNL     1      41.210 115.645  14.662  1.00  0.00     0.000 C 
BRANCH   5   6
ATOM      6  C   UNL     1      41.373 114.126  14.879  1.00  0.00     0.000 C 
BRANCH   6   7
ATOM      7  C   UNL     1      40.250 113.461  15.695  1.00  0.00     0.000 C 
BRANCH   7   8
ATOM      8  C   UNL     1      39.228 114.472  16.236  1.00  0.00     0.000 C 
BRANCH   8   9
ATOM      9  C   UNL     1      37.794 113.941  16.087  1.00  0.00     0.000 C 
BRANCH   9  10
ATOM     10  C   UNL     1      36.792 115.045  15.709  1.00  0.00     0.000 C 
BRANCH  10  11
ATOM     11  C   UNL     1      37.452 116.214  14.964  1.00  0.00     0.000 C 
BRANCH  11  12
ATOM     12  C   UNL     1      37.084 117.556  15.613  1.00  0.00     0.006 C 
BRANCH  12  13
ATOM     13  C   UNL     1      37.754 118.745  14.911  1.00  0.00     0.053 C 
BRANCH  13  14
ATOM     14  C   UNL     1      36.746 119.677  14.310  1.00  0.00     0.041 C 
ATOM     15  O   UNL     1      35.559 119.297  14.132  1.00  0.00    -0.550 OA
ATOM     16  O   UNL     1      37.124 120.957  13.921  1.00  0.00    -0.550 OA
ENDBRANCH  13  14
ENDBRANCH  12  13
ENDBRANCH  11  12
ENDBRANCH  10  11
ENDBRANCH   9  10
ENDBRANCH   8   9
ENDBRANCH   7   8
ENDBRANCH   6   7
ENDBRANCH   5   6
ENDBRANCH   4   5
ENDBRANCH   3   4
ENDBRANCH   2   3
ENDBRANCH   1   2
BRANCH   1  17
ATOM     17  C   UNL     1      42.214 117.488   9.180  1.00  0.00     0.000 C 
BRANCH  17  18
ATOM     18  C   UNL     1      43.374 116.730   8.513  1.00  0.00     0.000 C 
BRANCH  18  19
ATOM     19  C   UNL     1      43.400 115.235   8.880  1.00  0.00     0.000 C 
BRANCH  19  20
ATOM     20  C   UNL     1      44.802 114.604   8.943  1.00  0.00     0.000 C 
BRANCH  20  21
ATOM     21  C   UNL     1      44.985 113.672  10.151  1.00  0.00     0.000 C 
BRANCH  21  22
ATOM     22  C   UNL     1      43.869 113.827  11.199  1.00  0.00    -0.000 C 
BRANCH  22  23
ATOM     23  C   UNL     1      44.193 113.154  12.551  1.00  0.00    -0.000 C 
BRANCH  23  24
ATOM     24  C   UNL     1      45.707 112.993  12.773  1.00  0.00    -0.000 C 
BRANCH  24  25
ATOM     25  C   UNL     1      46.177 113.604  14.103  1.00  0.00    -0.000 C 
BRANCH  25  26
ATOM     26  C   UNL     1      45.193 114.650  14.653  1.00  0.00    -0.000 C 
BRANCH  26  27
ATOM     27  C   UNL     1      45.939 115.901  15.134  1.00  0.00    -0.000 C 
BRANCH  27  28
ATOM     28  C   UNL     1      46.252 116.841  13.960  1.00  0.00    -0.000 C 
BRANCH  28  29
ATOM     29  C   UNL     1      45.145 116.841  12.894  1.00  0.00    -0.003 C 
ATOM     30  C   UNL     1      45.671 117.176  11.498  1.00  0.00     0.004 C 
ENDBRANCH  28  29
ENDBRANCH  27  28
ENDBRANCH  26  27
ENDBRANCH  25  26
ENDBRANCH  24  25
ENDBRANCH  23  24
ENDBRANCH  22  23
ENDBRANCH  21  22
ENDBRANCH  20  21
ENDBRANCH  19  20
ENDBRANCH  18  19
ENDBRANCH  17  18
ENDBRANCH   1  17
TORSDOF 26
ENDMDL
MODEL 5
REMARK VINA RESULT:    -4.767      1.918      3.218
REMARK INTER + INTRA:         -15.759
REMARK INTER:                 -11.552
REMARK INTRA:                  -4.207
REMARK UNBOUND:                -3.746
REMARK SMILES CCCCCCCCCCCCCCCCCCCCCCCCCCCC(=O)[O-]
REMARK SMILES IDX 15 1 16 2 17 3 18 4 19 5 20 6 21 7 22 8 23 9 24 10 25 11
REMARK SMILES IDX 26 12 27 13 28 14 29 15 30 16 14 17 13 18 12 19 11 20 10 21
REMARK SMILES IDX 9 22 8 23 7 24 6 25 5 26 4 27 3 28 2 29 1 30
REMARK H PARENT
REMARK Flexibility Score: inf
ROOT
ATOM      1  C   UNL     1      41.120 117.883  10.679  1.00  0.00     0.000 C 
ENDROOT
BRANCH   1   2
ATOM      2  C   UNL     1      40.321 117.845  11.999  1.00  0.00     0.000 C 
BRANCH   2   3
ATOM      3  C   UNL     1      40.748 116.753  12.997  1.00  0.00     0.000 C 
BRANCH   3   4
ATOM      4  C   UNL     1      41.020 117.305  14.407  1.00  0.00     0.000 C 
BRANCH   4   5
ATOM      5  C   UNL     1      39.764 117.306  15.297  1.00  0.00     0.000 C 
BRANCH   5   6
ATOM      6  C   UNL     1      38.919 116.017  15.242  1.00  0.00     0.000 C 
BRANCH   6   7
ATOM      7  C   UNL     1      37.584 116.080  16.004  1.00  0.00     0.000 C 
BRANCH   7   8
ATOM      8  C   UNL     1      37.332 117.450  16.651  1.00  0.00     0.000 C 
BRANCH   8   9
ATOM      9  C   UNL     1      35.839 117.812  16.615  1.00  0.00     0.000 C 
BRANCH   9  10
ATOM     10  C   UNL     1      35.601 119.316  16.406  1.00  0.00     0.000 C 
BRANCH  10  11
ATOM     11  C   UNL     1      36.828 120.034  15.825  1.00  0.00     0.000 C 
BRANCH  11  12
ATOM     12  C   UNL     1      36.604 120.399  14.350  1.00  0.00     0.006 C 
BRANCH  12  13
ATOM     13  C   UNL     1      37.303 119.421  13.397  1.00  0.00     0.053 C 
BRANCH  13  14
ATOM     14  C   UNL     1      36.386 118.320  12.957  1.00  0.00     0.041 C 
ATOM     15  O   UNL     1      36.847 117.178  12.695  1.00  0.00    -0.550 OA
ATOM     16  O   UNL     1      35.025 118.564  12.809  1.00  0.00    -0.550 OA
ENDBRANCH  13  14
ENDBRANCH  12  13
ENDBRANCH  11  12
ENDBRANCH  10  11
ENDBRANCH   9  10
ENDBRANCH   8   9
ENDBRANCH   7   8
ENDBRANCH   6   7
ENDBRANCH   5   6
ENDBRANCH   4   5
ENDBRANCH   3   4
ENDBRANCH   2   3
ENDBRANCH   1   2
BRANCH   1  17
ATOM     17  C   UNL     1      42.425 117.065  10.670  1.00  0.00     0.000 C 
BRANCH  17  18
ATOM     18  C   UNL     1      43.011 116.889   9.259  1.00  0.00     0.000 C 
BRANCH  18  19
ATOM     19  C   UNL     1      44.325 116.087   9.254  1.00  0.00     0.000 C 
BRANCH  19  20
ATOM     20  C   UNL     1      44.155 114.558   9.208  1.00  0.00     0.000 C 
BRANCH  20  21
ATOM     21  C   UNL     1      44.132 113.917  10.604  1.00  0.00     0.000 C 
BRANCH  21  22
ATOM     22  C   UNL     1      45.333 112.988  10.856  1.00  0.00    -0.000 C 
BRANCH  22  23
ATOM     23  C   UNL     1      45.161 112.075  12.090  1.00  0.00    -0.000 C 
BRANCH  23  24
ATOM     24  C   UNL     1      45.533 112.791  13.399  1.00  0.00    -0.000 C 
BRANCH  24  25
ATOM     25  C   UNL     1      44.399 112.751  14.437  1.00  0.00    -0.000 C 
BRANCH  25  26
ATOM     26  C   UNL     1      43.468 113.971  14.343  1.00  0.00    -0.000 C 
BRANCH  26  27
ATOM     27  C   UNL     1      43.801 114.998  15.432  1.00  0.00    -0.000 C 
BRANCH  27  28
ATOM     28  C   UNL     1      44.626 116.160  14.859  1.00  0.00    -0.000 C 
BRANCH  28  29
ATOM     29  C   UNL     1      44.455 116.312  13.339  1.00  0.00    -0.003 C 
ATOM     30  C   UNL     1      45.664 116.968  12.672  1.00  0.00     0.004 C 
ENDBRANCH  28  29
ENDBRANCH  27  28
ENDBRANCH  26  27
ENDBRANCH  25  26
ENDBRANCH  24  25
ENDBRANCH  23  24
ENDBRANCH  22  23
ENDBRANCH  21  22
ENDBRANCH  20  21
ENDBRANCH  19  20
ENDBRANCH  18  19
ENDBRANCH  17  18
ENDBRANCH   1  17
TORSDOF 26
ENDMDL
MODEL 6
REMARK VINA RESULT:    -4.752      4.124      9.431
REMARK INTER + INTRA:         -15.720
REMARK INTER:                 -12.262
REMARK INTRA:                  -3.458
REMARK UNBOUND:                -3.746
REMARK SMILES CCCCCCCCCCCCCCCCCCCCCCCCCCCC(=O)[O-]
REMARK SMILES IDX 15 1 16 2 17 3 18 4 19 5 20 6 21 7 22 8 23 9 24 10 25 11
REMARK SMILES IDX 26 12 27 13 28 14 29 15 30 16 14 17 13 18 12 19 11 20 10 21
REMARK SMILES IDX 9 22 8 23 7 24 6 25 5 26 4 27 3 28 2 29 1 30
REMARK H PARENT
REMARK Flexibility Score: inf
ROOT
ATOM      1  C   UNL     1      43.550 115.962   9.761  1.00  0.00     0.000 C 
ENDROOT
BRANCH   1   2
ATOM      2  C   UNL     1      44.982 116.401  10.130  1.00  0.00     0.000 C 
BRANCH   2   3
ATOM      3  C   UNL     1      45.153 116.968  11.551  1.00  0.00     0.000 C 
BRANCH   3   4
ATOM      4  C   UNL     1      45.325 115.872  12.616  1.00  0.00     0.000 C 
BRANCH   4   5
ATOM      5  C   UNL     1      44.082 115.714  13.511  1.00  0.00     0.000 C 
BRANCH   5   6
ATOM      6  C   UNL     1      43.329 114.376  13.358  1.00  0.00     0.000 C 
BRANCH   6   7
ATOM      7  C   UNL     1      43.801 113.493  12.190  1.00  0.00     0.000 C 
BRANCH   7   8
ATOM      8  C   UNL     1      44.834 112.440  12.619  1.00  0.00     0.000 C 
BRANCH   8   9
ATOM      9  C   UNL     1      45.653 111.947  11.416  1.00  0.00     0.000 C 
BRANCH   9  10
ATOM     10  C   UNL     1      45.751 112.999  10.298  1.00  0.00     0.000 C 
BRANCH  10  11
ATOM     11  C   UNL     1      46.052 112.377   8.927  1.00  0.00     0.000 C 
BRANCH  11  12
ATOM     12  C   UNL     1      45.428 113.211   7.798  1.00  0.00     0.006 C 
BRANCH  12  13
ATOM     13  C   UNL     1      45.838 112.705   6.408  1.00  0.00     0.053 C 
BRANCH  13  14
ATOM     14  C   UNL     1      46.970 113.505   5.836  1.00  0.00     0.041 C 
ATOM     15  O   UNL     1      46.735 114.531   5.144  1.00  0.00    -0.550 OA
ATOM     16  O   UNL     1      48.283 113.102   6.045  1.00  0.00    -0.550 OA
ENDBRANCH  13  14
ENDBRANCH  12  13
ENDBRANCH  11  12
ENDBRANCH  10  11
ENDBRANCH   9  10
ENDBRANCH   8   9
ENDBRANCH   7   8
ENDBRANCH   6   7
ENDBRANCH   5   6
ENDBRANCH   4   5
ENDBRANCH   3   4
ENDBRANCH   2   3
ENDBRANCH   1   2
BRANCH   1  17
ATOM     17  C   UNL     1      42.635 117.074   9.213  1.00  0.00     0.000 C 
BRANCH  17  18
ATOM     18  C   UNL     1      42.018 117.942  10.322  1.00  0.00     0.000 C 
BRANCH  18  19
ATOM     19  C   UNL     1      41.287 117.112  11.393  1.00  0.00     0.000 C 
BRANCH  19  20
ATOM     20  C   UNL     1      39.974 117.727  11.910  1.00  0.00     0.000 C 
BRANCH  20  21
ATOM     21  C   UNL     1      39.947 117.879  13.439  1.00  0.00     0.000 C 
BRANCH  21  22
ATOM     22  C   UNL     1      40.454 116.625  14.174  1.00  0.00    -0.000 C 
BRANCH  22  23
ATOM     23  C   UNL     1      39.712 116.342  15.498  1.00  0.00    -0.000 C 
BRANCH  23  24
ATOM     24  C   UNL     1      38.684 117.437  15.834  1.00  0.00    -0.000 C 
BRANCH  24  25
ATOM     25  C   UNL     1      37.236 116.984  15.581  1.00  0.00    -0.000 C 
BRANCH  25  26
ATOM     26  C   UNL     1      36.203 117.906  16.249  1.00  0.00    -0.000 C 
BRANCH  26  27
ATOM     27  C   UNL     1      35.439 118.721  15.198  1.00  0.00    -0.000 C 
BRANCH  27  28
ATOM     28  C   UNL     1      35.983 118.450  13.788  1.00  0.00    -0.000 C 
BRANCH  28  29
ATOM     29  C   UNL     1      36.556 119.713  13.124  1.00  0.00    -0.003 C 
ATOM     30  C   UNL     1      37.214 120.660  14.128  1.00  0.00     0.004 C 
ENDBRANCH  28  29
ENDBRANCH  27  28
ENDBRANCH  26  27
ENDBRANCH  25  26
ENDBRANCH  24  25
ENDBRANCH  23  24
ENDBRANCH  22  23
ENDBRANCH  21  22
ENDBRANCH  20  21
ENDBRANCH  19  20
ENDBRANCH  18  19
ENDBRANCH  17  18
ENDBRANCH   1  17
TORSDOF 26
ENDMDL
MODEL 7
REMARK VINA RESULT:    -4.700      3.194      8.604
REMARK INTER + INTRA:         -15.590
REMARK INTER:                 -11.291
REMARK INTRA:                  -4.300
REMARK UNBOUND:                -3.746
REMARK SMILES CCCCCCCCCCCCCCCCCCCCCCCCCCCC(=O)[O-]
REMARK SMILES IDX 15 1 16 2 17 3 18 4 19 5 20 6 21 7 22 8 23 9 24 10 25 11
REMARK SMILES IDX 26 12 27 13 28 14 29 15 30 16 14 17 13 18 12 19 11 20 10 21
REMARK SMILES IDX 9 22 8 23 7 24 6 25 5 26 4 27 3 28 2 29 1 30
REMARK H PARENT
REMARK Flexibility Score: inf
ROOT
ATOM      1  C   UNL     1      41.195 116.349  12.717  1.00  0.00     0.000 C 
ENDROOT
BRANCH   1   2
ATOM      2  C   UNL     1      40.567 117.524  11.939  1.00  0.00     0.000 C 
BRANCH   2   3
ATOM      3  C   UNL     1      41.274 117.897  10.623  1.00  0.00     0.000 C 
BRANCH   3   4
ATOM      4  C   UNL     1      42.590 117.129  10.413  1.00  0.00     0.000 C 
BRANCH   4   5
ATOM      5  C   UNL     1      42.855 116.798   8.933  1.00  0.00     0.000 C 
BRANCH   5   6
ATOM      6  C   UNL     1      44.260 116.239   8.626  1.00  0.00     0.000 C 
BRANCH   6   7
ATOM      7  C   UNL     1      44.977 115.587   9.822  1.00  0.00     0.000 C 
BRANCH   7   8
ATOM      8  C   UNL     1      45.029 114.055   9.720  1.00  0.00     0.000 C 
BRANCH   8   9
ATOM      9  C   UNL     1      44.961 113.407  11.112  1.00  0.00     0.000 C 
BRANCH   9  10
ATOM     10  C   UNL     1      43.916 114.073  12.022  1.00  0.00     0.000 C 
BRANCH  10  11
ATOM     11  C   UNL     1      44.449 114.343  13.437  1.00  0.00     0.000 C 
BRANCH  11  12
ATOM     12  C   UNL     1      44.607 115.850  13.685  1.00  0.00     0.006 C 
BRANCH  12  13
ATOM     13  C   UNL     1      46.000 116.361  13.291  1.00  0.00     0.053 C 
BRANCH  13  14
ATOM     14  C   UNL     1      46.985 116.213  14.411  1.00  0.00     0.041 C 
ATOM     15  O   UNL     1      47.081 117.106  15.293  1.00  0.00    -0.550 OA
ATOM     16  O   UNL     1      47.816 115.100  14.465  1.00  0.00    -0.550 OA
ENDBRANCH  13  14
ENDBRANCH  12  13
ENDBRANCH  11  12
ENDBRANCH  10  11
ENDBRANCH   9  10
ENDBRANCH   8   9
ENDBRANCH   7   8
ENDBRANCH   6   7
ENDBRANCH   5   6
ENDBRANCH   4   5
ENDBRANCH   3   4
ENDBRANCH   2   3
ENDBRANCH   1   2
BRANCH   1  17
ATOM     17  C   UNL     1      40.969 116.367  14.241  1.00  0.00     0.000 C 
BRANCH  17  18
ATOM     18  C   UNL     1      40.998 114.962  14.867  1.00  0.00     0.000 C 
BRANCH  18  19
ATOM     19  C   UNL     1      40.794 114.984  16.393  1.00  0.00     0.000 C 
BRANCH  19  20
ATOM     20  C   UNL     1      40.154 113.714  16.983  1.00  0.00     0.000 C 
BRANCH  20  21
ATOM     21  C   UNL     1      39.736 112.700  15.906  1.00  0.00     0.000 C 
BRANCH  21  22
ATOM     22  C   UNL     1      38.209 112.584  15.756  1.00  0.00    -0.000 C 
BRANCH  22  23
ATOM     23  C   UNL     1      37.422 113.271  16.893  1.00  0.00    -0.000 C 
BRANCH  23  24
ATOM     24  C   UNL     1      36.375 114.263  16.358  1.00  0.00    -0.000 C 
BRANCH  24  25
ATOM     25  C   UNL     1      36.955 115.220  15.303  1.00  0.00    -0.000 C 
BRANCH  25  26
ATOM     26  C   UNL     1      37.428 116.551  15.909  1.00  0.00    -0.000 C 
BRANCH  26  27
ATOM     27  C   UNL     1      37.537 117.635  14.829  1.00  0.00    -0.000 C 
BRANCH  27  28
ATOM     28  C   UNL     1      37.128 117.086  13.454  1.00  0.00    -0.000 C 
BRANCH  28  29
ATOM     29  C   UNL     1      36.098 117.979  12.745  1.00  0.00    -0.003 C 
ATOM     30  C   UNL     1      35.359 118.907  13.710  1.00  0.00     0.004 C 
ENDBRANCH  28  29
ENDBRANCH  27  28
ENDBRANCH  26  27
ENDBRANCH  25  26
ENDBRANCH  24  25
ENDBRANCH  23  24
ENDBRANCH  22  23
ENDBRANCH  21  22
ENDBRANCH  20  21
ENDBRANCH  19  20
ENDBRANCH  18  19
ENDBRANCH  17  18
ENDBRANCH   1  17
TORSDOF 26
ENDMDL
MODEL 8
REMARK VINA RESULT:    -4.674      2.314      4.304
REMARK INTER + INTRA:         -15.525
REMARK INTER:                 -11.016
REMARK INTRA:                  -4.509
REMARK UNBOUND:                -3.746
REMARK SMILES CCCCCCCCCCCCCCCCCCCCCCCCCCCC(=O)[O-]
REMARK SMILES IDX 15 1 16 2 17 3 18 4 19 5 20 6 21 7 22 8 23 9 24 10 25 11
REMARK SMILES IDX 26 12 27 13 28 14 29 15 30 16 14 17 13 18 12 19 11 20 10 21
REMARK SMILES IDX 9 22 8 23 7 24 6 25 5 26 4 27 3 28 2 29 1 30
REMARK H PARENT
REMARK Flexibility Score: inf
ROOT
ATOM      1  C   UNL     1      43.404 115.770   8.513  1.00  0.00     0.000 C 
ENDROOT
BRANCH   1   2
ATOM      2  C   UNL     1      42.617 117.071   8.774  1.00  0.00     0.000 C 
BRANCH   2   3
ATOM      3  C   UNL     1      42.532 117.507  10.248  1.00  0.00     0.000 C 
BRANCH   3   4
ATOM      4  C   UNL     1      41.098 117.845  10.690  1.00  0.00     0.000 C 
BRANCH   4   5
ATOM      5  C   UNL     1      40.719 117.186  12.028  1.00  0.00     0.000 C 
BRANCH   5   6
ATOM      6  C   UNL     1      41.777 116.226  12.611  1.00  0.00     0.000 C 
BRANCH   6   7
ATOM      7  C   UNL     1      41.441 115.651  13.999  1.00  0.00     0.000 C 
BRANCH   7   8
ATOM      8  C   UNL     1      41.529 116.702  15.115  1.00  0.00     0.000 C 
BRANCH   8   9
ATOM      9  C   UNL     1      40.636 116.319  16.305  1.00  0.00     0.000 C 
BRANCH   9  10
ATOM     10  C   UNL     1      39.503 117.331  16.543  1.00  0.00     0.000 C 
BRANCH  10  11
ATOM     11  C   UNL     1      38.892 117.854  15.235  1.00  0.00     0.000 C 
BRANCH  11  12
ATOM     12  C   UNL     1      37.470 118.388  15.468  1.00  0.00     0.006 C 
BRANCH  12  13
ATOM     13  C   UNL     1      36.405 117.524  14.778  1.00  0.00     0.053 C 
BRANCH  13  14
ATOM     14  C   UNL     1      36.201 117.929  13.349  1.00  0.00     0.041 C 
ATOM     15  O   UNL     1      35.389 118.848  13.061  1.00  0.00    -0.550 OA
ATOM     16  O   UNL     1      36.887 117.274  12.334  1.00  0.00    -0.550 OA
ENDBRANCH  13  14
ENDBRANCH  12  13
ENDBRANCH  11  12
ENDBRANCH  10  11
ENDBRANCH   9  10
ENDBRANCH   8   9
ENDBRANCH   7   8
ENDBRANCH   6   7
ENDBRANCH   5   6
ENDBRANCH   4   5
ENDBRANCH   3   4
ENDBRANCH   2   3
ENDBRANCH   1   2
BRANCH   1  17
ATOM     17  C   UNL     1      44.870 115.774   8.986  1.00  0.00     0.000 C 
BRANCH  17  18
ATOM     18  C   UNL     1      45.165 114.684  10.030  1.00  0.00     0.000 C 
BRANCH  18  19
ATOM     19  C   UNL     1      43.893 113.976  10.530  1.00  0.00     0.000 C 
BRANCH  19  20
ATOM     20  C   UNL     1      44.031 113.276  11.895  1.00  0.00     0.000 C 
BRANCH  20  21
ATOM     21  C   UNL     1      44.974 112.063  11.852  1.00  0.00     0.000 C 
BRANCH  21  22
ATOM     22  C   UNL     1      46.119 112.159  12.876  1.00  0.00    -0.000 C 
BRANCH  22  23
ATOM     23  C   UNL     1      45.939 111.225  14.093  1.00  0.00    -0.000 C 
BRANCH  23  24
ATOM     24  C   UNL     1      45.686 112.007  15.393  1.00  0.00    -0.000 C 
BRANCH  24  25
ATOM     25  C   UNL     1      44.205 112.370  15.585  1.00  0.00    -0.000 C 
BRANCH  25  26
ATOM     26  C   UNL     1      43.997 113.861  15.899  1.00  0.00    -0.000 C 
BRANCH  26  27
ATOM     27  C   UNL     1      45.291 114.652  15.675  1.00  0.00    -0.000 C 
BRANCH  27  28
ATOM     28  C   UNL     1      45.033 115.899  14.817  1.00  0.00    -0.000 C 
BRANCH  28  29
ATOM     29  C   UNL     1      45.827 115.885  13.501  1.00  0.00    -0.003 C 
ATOM     30  C   UNL     1      45.541 117.107  12.627  1.00  0.00     0.004 C 
ENDBRANCH  28  29
ENDBRANCH  27  28
ENDBRANCH  26  27
ENDBRANCH  25  26
ENDBRANCH  24  25
ENDBRANCH  23  24
ENDBRANCH  22  23
ENDBRANCH  21  22
ENDBRANCH  20  21
ENDBRANCH  19  20
ENDBRANCH  18  19
ENDBRANCH  17  18
ENDBRANCH   1  17
TORSDOF 26
ENDMDL
MODEL 9
REMARK VINA RESULT:    -4.614      2.961      5.274
REMARK INTER + INTRA:         -15.373
REMARK INTER:                 -11.612
REMARK INTRA:                  -3.761
REMARK UNBOUND:                -3.746
REMARK SMILES CCCCCCCCCCCCCCCCCCCCCCCCCCCC(=O)[O-]
REMARK SMILES IDX 15 1 16 2 17 3 18 4 19 5 20 6 21 7 22 8 23 9 24 10 25 11
REMARK SMILES IDX 26 12 27 13 28 14 29 15 30 16 14 17 13 18 12 19 11 20 10 21
REMARK SMILES IDX 9 22 8 23 7 24 6 25 5 26 4 27 3 28 2 29 1 30
REMARK H PARENT
REMARK Flexibility Score: inf
ROOT
ATOM      1  C   UNL     1      43.809 114.166  10.372  1.00  0.00     0.000 C 
ENDROOT
BRANCH   1   2
ATOM      2  C   UNL     1      43.790 114.951   9.044  1.00  0.00     0.000 C 
BRANCH   2   3
ATOM      3  C   UNL     1      43.487 116.455   9.171  1.00  0.00     0.000 C 
BRANCH   3   4
ATOM      4  C   UNL     1      42.811 116.819  10.504  1.00  0.00     0.000 C 
BRANCH   4   5
ATOM      5  C   UNL     1      41.664 117.830  10.332  1.00  0.00     0.000 C 
BRANCH   5   6
ATOM      6  C   UNL     1      40.395 117.531  11.157  1.00  0.00     0.000 C 
BRANCH   6   7
ATOM      7  C   UNL     1      40.652 116.939  12.554  1.00  0.00     0.000 C 
BRANCH   7   8
ATOM      8  C   UNL     1      40.216 117.879  13.687  1.00  0.00     0.000 C 
BRANCH   8   9
ATOM      9  C   UNL     1      38.816 117.510  14.202  1.00  0.00     0.000 C 
BRANCH   9  10
ATOM     10  C   UNL     1      37.693 118.165  13.381  1.00  0.00     0.000 C 
BRANCH  10  11
ATOM     11  C   UNL     1      36.294 117.823  13.913  1.00  0.00     0.000 C 
BRANCH  11  12
ATOM     12  C   UNL     1      35.589 119.077  14.451  1.00  0.00     0.006 C 
BRANCH  12  13
ATOM     13  C   UNL     1      36.272 119.633  15.708  1.00  0.00     0.053 C 
BRANCH  13  14
ATOM     14  C   UNL     1      36.617 121.085  15.558  1.00  0.00     0.041 C 
ATOM     15  O   UNL     1      37.220 121.490  14.529  1.00  0.00    -0.550 OA
ATOM     16  O   UNL     1      36.297 121.985  16.567  1.00  0.00    -0.550 OA
ENDBRANCH  13  14
ENDBRANCH  12  13
ENDBRANCH  11  12
ENDBRANCH  10  11
ENDBRANCH   9  10
ENDBRANCH   8   9
ENDBRANCH   7   8
ENDBRANCH   6   7
ENDBRANCH   5   6
ENDBRANCH   4   5
ENDBRANCH   3   4
ENDBRANCH   2   3
ENDBRANCH   1   2
BRANCH   1  17
ATOM     17  C   UNL     1      45.208 113.850  10.936  1.00  0.00     0.000 C 
BRANCH  17  18
ATOM     18  C   UNL     1      45.447 112.344  11.138  1.00  0.00     0.000 C 
BRANCH  18  19
ATOM     19  C   UNL     1      45.305 111.909  12.608  1.00  0.00     0.000 C 
BRANCH  19  20
ATOM     20  C   UNL     1      45.228 113.063  13.624  1.00  0.00     0.000 C 
BRANCH  20  21
ATOM     21  C   UNL     1      44.623 112.634  14.970  1.00  0.00     0.000 C 
BRANCH  21  22
ATOM     22  C   UNL     1      43.304 113.361  15.290  1.00  0.00    -0.000 C 
BRANCH  22  23
ATOM     23  C   UNL     1      43.124 114.685  14.517  1.00  0.00    -0.000 C 
BRANCH  23  24
ATOM     24  C   UNL     1      42.680 115.838  15.433  1.00  0.00    -0.000 C 
BRANCH  24  25
ATOM     25  C   UNL     1      43.828 116.376  16.303  1.00  0.00    -0.000 C 
BRANCH  25  26
ATOM     26  C   UNL     1      44.771 117.309  15.527  1.00  0.00    -0.000 C 
BRANCH  26  27
ATOM     27  C   UNL     1      46.176 116.703  15.425  1.00  0.00    -0.000 C 
BRANCH  27  28
ATOM     28  C   UNL     1      46.556 116.437  13.960  1.00  0.00    -0.000 C 
BRANCH  28  29
ATOM     29  C   UNL     1      45.514 116.985  12.972  1.00  0.00    -0.003 C 
ATOM     30  C   UNL     1      46.117 117.328  11.610  1.00  0.00     0.004 C 
ENDBRANCH  28  29
ENDBRANCH  27  28
ENDBRANCH  26  27
ENDBRANCH  25  26
ENDBRANCH  24  25
ENDBRANCH  23  24
ENDBRANCH  22  23
ENDBRANCH  21  22
ENDBRANCH  20  21
ENDBRANCH  19  20
ENDBRANCH  18  19
ENDBRANCH  17  18
ENDBRANCH   1  17
TORSDOF 26
ENDMDL
