MODEL 1
REMARK VINA RESULT:    -6.710      0.000      0.000
REMARK INTER + INTRA:          -8.060
REMARK INTER:                  -7.886
REMARK INTRA:                  -0.174
REMARK UNBOUND:                -0.174
REMARK SMILES O=c1c(O)c(-c2ccc(O)cc2)oc2cc(O)cc(O)c12
REMARK SMILES IDX 5 1 3 2 2 3 1 4 21 5 19 6 18 7 16 8 15 9 14 10 13 11 6 12
REMARK SMILES IDX 7 13 8 14 9 15 12 16 11 17 10 18 4 20 20 22 17 24
REMARK H PARENT 10 19 4 21 20 23 17 25
REMARK Flexibility Score: inf
ROOT
ATOM      1  C   UNL     1      31.145 -92.198  37.243  1.00  0.00     0.180 A 
ATOM      2  C   UNL     1      29.921 -92.807  36.921  1.00  0.00     0.208 A 
ATOM      3  C   UNL     1      29.783 -94.194  37.100  1.00  0.00     0.238 A 
ATOM      4  O   UNL     1      28.701 -94.742  36.760  1.00  0.00    -0.285 OA
ATOM      5  C   UNL     1      30.864 -94.949  37.613  1.00  0.00     0.111 A 
ATOM      6  C   UNL     1      30.822 -96.351  37.873  1.00  0.00     0.134 A 
ATOM      7  C   UNL     1      31.992 -97.018  38.256  1.00  0.00     0.093 A 
ATOM      8  C   UNL     1      33.185 -96.324  38.454  1.00  0.00     0.123 A 
ATOM      9  C   UNL     1      33.222 -94.943  38.261  1.00  0.00     0.094 A 
ATOM     10  C   UNL     1      32.081 -94.256  37.842  1.00  0.00     0.146 A 
ATOM     11  O   UNL     1      32.161 -92.943  37.659  1.00  0.00    -0.452 OA
ENDROOT
BRANCH   1  12
ATOM     12  C   UNL     1      31.359 -90.738  37.103  1.00  0.00     0.021 A 
ATOM     13  C   UNL     1      32.323 -90.263  36.199  1.00  0.00     0.016 A 
ATOM     14  C   UNL     1      32.558 -88.891  36.069  1.00  0.00     0.047 A 
ATOM     15  C   UNL     1      31.842 -87.978  36.853  1.00  0.00     0.115 A 
ATOM     16  C   UNL     1      30.658 -89.816  37.902  1.00  0.00     0.016 A 
ATOM     17  C   UNL     1      30.895 -88.444  37.770  1.00  0.00     0.047 A 
BRANCH  15  18
ATOM     18  O   UNL     1      32.066 -86.608  36.732  1.00  0.00    -0.508 OA
ATOM     19  H   UNL     1      31.721 -86.085  35.935  1.00  0.00     0.293 HD
ENDBRANCH  15  18
ENDBRANCH   1  12
BRANCH   2  20
ATOM     20  O   UNL     1      28.873 -92.047  36.395  1.00  0.00    -0.502 OA
ATOM     21  H   UNL     1      28.755 -91.898  35.400  1.00  0.00     0.293 HD
ENDBRANCH   2  20
BRANCH   6  22
ATOM     22  O   UNL     1      29.659 -97.125  37.795  1.00  0.00    -0.507 OA
ATOM     23  H   UNL     1      28.812 -96.843  37.326  1.00  0.00     0.293 HD
ENDBRANCH   6  22
BRANCH   8  24
ATOM     24  O   UNL     1      34.326 -97.017  38.852  1.00  0.00    -0.508 OA
ATOM     25  H   UNL     1      34.488 -97.977  38.569  1.00  0.00     0.293 HD
ENDBRANCH   8  24
TORSDOF 5
ENDMDL
MODEL 2
REMARK VINA RESULT:    -5.761      9.544     10.896
REMARK INTER + INTRA:          -6.945
REMARK INTER:                  -6.659
REMARK INTRA:                  -0.286
REMARK UNBOUND:                -0.174
REMARK SMILES O=c1c(O)c(-c2ccc(O)cc2)oc2cc(O)cc(O)c12
REMARK SMILES IDX 5 1 3 2 2 3 1 4 21 5 19 6 18 7 16 8 15 9 14 10 13 11 6 12
REMARK SMILES IDX 7 13 8 14 9 15 12 16 11 17 10 18 4 20 20 22 17 24
REMARK H PARENT 10 19 4 21 20 23 17 25
REMARK Flexibility Score: inf
ROOT
ATOM      1  C   UNL     1      36.574 -95.424  29.544  1.00  0.00     0.180 A 
ATOM      2  C   UNL     1      37.670 -95.735  28.722  1.00  0.00     0.208 A 
ATOM      3  C   UNL     1      38.958 -95.753  29.282  1.00  0.00     0.238 A 
ATOM      4  O   UNL     1      39.942 -95.980  28.529  1.00  0.00    -0.285 OA
ATOM      5  C   UNL     1      39.132 -95.476  30.660  1.00  0.00     0.111 A 
ATOM      6  C   UNL     1      40.385 -95.506  31.341  1.00  0.00     0.134 A 
ATOM      7  C   UNL     1      40.456 -95.086  32.675  1.00  0.00     0.093 A 
ATOM      8  C   UNL     1      39.311 -94.702  33.371  1.00  0.00     0.123 A 
ATOM      9  C   UNL     1      38.071 -94.726  32.732  1.00  0.00     0.094 A 
ATOM     10  C   UNL     1      37.973 -95.104  31.391  1.00  0.00     0.146 A 
ATOM     11  O   UNL     1      36.776 -95.104  30.817  1.00  0.00    -0.452 OA
ENDROOT
BRANCH   1  12
ATOM     12  C   UNL     1      35.184 -95.408  29.032  1.00  0.00     0.021 A 
ATOM     13  C   UNL     1      34.412 -96.580  29.091  1.00  0.00     0.016 A 
ATOM     14  C   UNL     1      33.106 -96.594  28.591  1.00  0.00     0.047 A 
ATOM     15  C   UNL     1      32.563 -95.441  28.012  1.00  0.00     0.115 A 
ATOM     16  C   UNL     1      34.638 -94.259  28.430  1.00  0.00     0.016 A 
ATOM     17  C   UNL     1      33.332 -94.276  27.931  1.00  0.00     0.047 A 
BRANCH  15  18
ATOM     18  O   UNL     1      31.262 -95.442  27.512  1.00  0.00    -0.508 OA
ATOM     19  H   UNL     1      30.556 -96.072  27.876  1.00  0.00     0.293 HD
ENDBRANCH  15  18
ENDBRANCH   1  12
BRANCH   2  20
ATOM     20  O   UNL     1      37.480 -95.984  27.360  1.00  0.00    -0.502 OA
ATOM     21  H   UNL     1      37.357 -96.919  26.990  1.00  0.00     0.293 HD
ENDBRANCH   2  20
BRANCH   6  22
ATOM     22  O   UNL     1      41.576 -95.960  30.765  1.00  0.00    -0.507 OA
ATOM     23  H   UNL     1      41.930 -95.664  29.869  1.00  0.00     0.293 HD
ENDBRANCH   6  22
BRANCH   8  24
ATOM     24  O   UNL     1      39.416 -94.306  34.703  1.00  0.00    -0.508 OA
ATOM     25  H   UNL     1      40.088 -94.732  35.331  1.00  0.00     0.293 HD
ENDBRANCH   8  24
TORSDOF 5
ENDMDL
MODEL 3
REMARK VINA RESULT:    -5.718      9.581     10.935
REMARK INTER + INTRA:          -6.895
REMARK INTER:                  -6.598
REMARK INTRA:                  -0.297
REMARK UNBOUND:                -0.174
REMARK SMILES O=c1c(O)c(-c2ccc(O)cc2)oc2cc(O)cc(O)c12
REMARK SMILES IDX 5 1 3 2 2 3 1 4 21 5 19 6 18 7 16 8 15 9 14 10 13 11 6 12
REMARK SMILES IDX 7 13 8 14 9 15 12 16 11 17 10 18 4 20 20 22 17 24
REMARK H PARENT 10 19 4 21 20 23 17 25
REMARK Flexibility Score: inf
ROOT
ATOM      1  C   UNL     1      36.626 -95.489  29.485  1.00  0.00     0.180 A 
ATOM      2  C   UNL     1      37.737 -95.826  28.694  1.00  0.00     0.208 A 
ATOM      3  C   UNL     1      39.014 -95.835  29.281  1.00  0.00     0.238 A 
ATOM      4  O   UNL     1      40.011 -96.086  28.555  1.00  0.00    -0.285 OA
ATOM      5  C   UNL     1      39.160 -95.523  30.654  1.00  0.00     0.111 A 
ATOM      6  C   UNL     1      40.398 -95.540  31.362  1.00  0.00     0.134 A 
ATOM      7  C   UNL     1      40.444 -95.086  32.686  1.00  0.00     0.093 A 
ATOM      8  C   UNL     1      39.287 -94.679  33.348  1.00  0.00     0.123 A 
ATOM      9  C   UNL     1      38.061 -94.715  32.684  1.00  0.00     0.094 A 
ATOM     10  C   UNL     1      37.989 -95.127  31.352  1.00  0.00     0.146 A 
ATOM     11  O   UNL     1      36.804 -95.137  30.753  1.00  0.00    -0.452 OA
ENDROOT
BRANCH   1  12
ATOM     12  C   UNL     1      35.247 -95.481  28.944  1.00  0.00     0.021 A 
ATOM     13  C   UNL     1      34.710 -94.287  28.436  1.00  0.00     0.016 A 
ATOM     14  C   UNL     1      33.402 -94.251  27.943  1.00  0.00     0.047 A 
ATOM     15  C   UNL     1      32.611 -95.406  27.964  1.00  0.00     0.115 A 
ATOM     16  C   UNL     1      34.439 -96.632  28.981  1.00  0.00     0.016 A 
ATOM     17  C   UNL     1      33.131 -96.594  28.487  1.00  0.00     0.047 A 
BRANCH  15  18
ATOM     18  O   UNL     1      31.307 -95.384  27.474  1.00  0.00    -0.508 OA
ATOM     19  H   UNL     1      30.629 -96.088  27.742  1.00  0.00     0.293 HD
ENDBRANCH  15  18
ENDBRANCH   1  12
BRANCH   2  20
ATOM     20  O   UNL     1      37.574 -96.110  27.336  1.00  0.00    -0.502 OA
ATOM     21  H   UNL     1      37.897 -95.486  26.606  1.00  0.00     0.293 HD
ENDBRANCH   2  20
BRANCH   6  22
ATOM     22  O   UNL     1      41.599 -96.015  30.823  1.00  0.00    -0.507 OA
ATOM     23  H   UNL     1      41.683 -96.488  29.936  1.00  0.00     0.293 HD
ENDBRANCH   6  22
BRANCH   8  24
ATOM     24  O   UNL     1      39.367 -94.249  34.670  1.00  0.00    -0.508 OA
ATOM     25  H   UNL     1      39.070 -94.840  35.438  1.00  0.00     0.293 HD
ENDBRANCH   8  24
TORSDOF 5
ENDMDL
MODEL 4
REMARK VINA RESULT:    -5.347      9.449     10.992
REMARK INTER + INTRA:          -6.459
REMARK INTER:                  -6.291
REMARK INTRA:                  -0.167
REMARK UNBOUND:                -0.174
REMARK SMILES O=c1c(O)c(-c2ccc(O)cc2)oc2cc(O)cc(O)c12
REMARK SMILES IDX 5 1 3 2 2 3 1 4 21 5 19 6 18 7 16 8 15 9 14 10 13 11 6 12
REMARK SMILES IDX 7 13 8 14 9 15 12 16 11 17 10 18 4 20 20 22 17 24
REMARK H PARENT 10 19 4 21 20 23 17 25
REMARK Flexibility Score: inf
ROOT
ATOM      1  C   UNL     1      37.653 -95.578  30.673  1.00  0.00     0.180 A 
ATOM      2  C   UNL     1      38.258 -96.280  29.618  1.00  0.00     0.208 A 
ATOM      3  C   UNL     1      37.548 -96.450  28.417  1.00  0.00     0.238 A 
ATOM      4  O   UNL     1      38.075 -97.125  27.494  1.00  0.00    -0.285 OA
ATOM      5  C   UNL     1      36.250 -95.901  28.283  1.00  0.00     0.111 A 
ATOM      6  C   UNL     1      35.458 -95.977  27.099  1.00  0.00     0.134 A 
ATOM      7  C   UNL     1      34.136 -95.514  27.122  1.00  0.00     0.093 A 
ATOM      8  C   UNL     1      33.602 -94.918  28.264  1.00  0.00     0.123 A 
ATOM      9  C   UNL     1      34.388 -94.785  29.408  1.00  0.00     0.094 A 
ATOM     10  C   UNL     1      35.697 -95.271  29.428  1.00  0.00     0.146 A 
ATOM     11  O   UNL     1      36.409 -95.133  30.540  1.00  0.00    -0.452 OA
ENDROOT
BRANCH   1  12
ATOM     12  C   UNL     1      38.347 -95.338  31.960  1.00  0.00     0.021 A 
ATOM     13  C   UNL     1      37.816 -95.877  33.144  1.00  0.00     0.016 A 
ATOM     14  C   UNL     1      38.442 -95.643  34.372  1.00  0.00     0.047 A 
ATOM     15  C   UNL     1      39.597 -94.855  34.433  1.00  0.00     0.115 A 
ATOM     16  C   UNL     1      39.497 -94.530  32.033  1.00  0.00     0.016 A 
ATOM     17  C   UNL     1      40.120 -94.298  33.262  1.00  0.00     0.047 A 
BRANCH  15  18
ATOM     18  O   UNL     1      40.231 -94.615  35.651  1.00  0.00    -0.508 OA
ATOM     19  H   UNL     1      40.054 -95.197  36.463  1.00  0.00     0.293 HD
ENDBRANCH  15  18
ENDBRANCH   1  12
BRANCH   2  20
ATOM     20  O   UNL     1      39.532 -96.832  29.778  1.00  0.00    -0.502 OA
ATOM     21  H   UNL     1      39.965 -96.947  30.687  1.00  0.00     0.293 HD
ENDBRANCH   2  20
BRANCH   6  22
ATOM     22  O   UNL     1      35.925 -96.471  25.877  1.00  0.00    -0.507 OA
ATOM     23  H   UNL     1      36.156 -95.900  25.078  1.00  0.00     0.293 HD
ENDBRANCH   6  22
BRANCH   8  24
ATOM     24  O   UNL     1      32.288 -94.454  28.246  1.00  0.00    -0.508 OA
ATOM     25  H   UNL     1      31.756 -94.402  27.385  1.00  0.00     0.293 HD
ENDBRANCH   8  24
TORSDOF 5
ENDMDL
MODEL 5
REMARK VINA RESULT:    -5.253      7.708     10.228
REMARK INTER + INTRA:          -6.348
REMARK INTER:                  -6.134
REMARK INTRA:                  -0.214
REMARK UNBOUND:                -0.174
REMARK SMILES O=c1c(O)c(-c2ccc(O)cc2)oc2cc(O)cc(O)c12
REMARK SMILES IDX 5 1 3 2 2 3 1 4 21 5 19 6 18 7 16 8 15 9 14 10 13 11 6 12
REMARK SMILES IDX 7 13 8 14 9 15 12 16 11 17 10 18 4 20 20 22 17 24
REMARK H PARENT 10 19 4 21 20 23 17 25
REMARK Flexibility Score: inf
ROOT
ATOM      1  C   UNL     1      40.064 -95.510  35.187  1.00  0.00     0.180 A 
ATOM      2  C   UNL     1      41.096 -95.123  36.059  1.00  0.00     0.208 A 
ATOM      3  C   UNL     1      40.904 -95.262  37.444  1.00  0.00     0.238 A 
ATOM      4  O   UNL     1      41.810 -94.864  38.222  1.00  0.00    -0.285 OA
ATOM      5  C   UNL     1      39.691 -95.799  37.937  1.00  0.00     0.111 A 
ATOM      6  C   UNL     1      39.405 -96.022  39.317  1.00  0.00     0.134 A 
ATOM      7  C   UNL     1      38.122 -96.435  39.698  1.00  0.00     0.093 A 
ATOM      8  C   UNL     1      37.138 -96.699  38.747  1.00  0.00     0.123 A 
ATOM      9  C   UNL     1      37.426 -96.542  37.391  1.00  0.00     0.094 A 
ATOM     10  C   UNL     1      38.683 -96.095  36.982  1.00  0.00     0.146 A 
ATOM     11  O   UNL     1      38.914 -95.949  35.682  1.00  0.00    -0.452 OA
ENDROOT
BRANCH   1  12
ATOM     12  C   UNL     1      40.202 -95.417  33.715  1.00  0.00     0.021 A 
ATOM     13  C   UNL     1      39.419 -94.493  33.004  1.00  0.00     0.016 A 
ATOM     14  C   UNL     1      39.515 -94.405  31.611  1.00  0.00     0.047 A 
ATOM     15  C   UNL     1      40.384 -95.250  30.912  1.00  0.00     0.115 A 
ATOM     16  C   UNL     1      41.058 -96.277  33.003  1.00  0.00     0.016 A 
ATOM     17  C   UNL     1      41.152 -96.187  31.610  1.00  0.00     0.047 A 
BRANCH  15  18
ATOM     18  O   UNL     1      40.490 -95.171  29.525  1.00  0.00    -0.508 OA
ATOM     19  H   UNL     1      41.263 -94.688  29.081  1.00  0.00     0.293 HD
ENDBRANCH  15  18
ENDBRANCH   1  12
BRANCH   2  20
ATOM     20  O   UNL     1      42.277 -94.575  35.553  1.00  0.00    -0.502 OA
ATOM     21  H   UNL     1      43.191 -94.828  35.908  1.00  0.00     0.293 HD
ENDBRANCH   2  20
BRANCH   6  22
ATOM     22  O   UNL     1      40.345 -95.877  40.342  1.00  0.00    -0.507 OA
ATOM     23  H   UNL     1      40.707 -96.635  40.901  1.00  0.00     0.293 HD
ENDBRANCH   6  22
BRANCH   8  24
ATOM     24  O   UNL     1      35.878 -97.125  39.162  1.00  0.00    -0.508 OA
ATOM     25  H   UNL     1      35.089 -97.141  38.527  1.00  0.00     0.293 HD
ENDBRANCH   8  24
TORSDOF 5
ENDMDL
MODEL 6
REMARK VINA RESULT:    -5.103     15.654     17.197
REMARK INTER + INTRA:          -6.172
REMARK INTER:                  -6.039
REMARK INTRA:                  -0.133
REMARK UNBOUND:                -0.174
REMARK SMILES O=c1c(O)c(-c2ccc(O)cc2)oc2cc(O)cc(O)c12
REMARK SMILES IDX 5 1 3 2 2 3 1 4 21 5 19 6 18 7 16 8 15 9 14 10 13 11 6 12
REMARK SMILES IDX 7 13 8 14 9 15 12 16 11 17 10 18 4 20 20 22 17 24
REMARK H PARENT 10 19 4 21 20 23 17 25
REMARK Flexibility Score: inf
ROOT
ATOM      1  C   UNL     1      38.768 -78.408  37.848  1.00  0.00     0.180 A 
ATOM      2  C   UNL     1      39.135 -79.209  38.941  1.00  0.00     0.208 A 
ATOM      3  C   UNL     1      40.493 -79.515  39.135  1.00  0.00     0.238 A 
ATOM      4  O   UNL     1      40.810 -80.277  40.086  1.00  0.00    -0.285 OA
ATOM      5  C   UNL     1      41.465 -79.002  38.244  1.00  0.00     0.111 A 
ATOM      6  C   UNL     1      42.870 -79.215  38.368  1.00  0.00     0.134 A 
ATOM      7  C   UNL     1      43.728 -78.770  37.354  1.00  0.00     0.093 A 
ATOM      8  C   UNL     1      43.240 -78.064  36.256  1.00  0.00     0.123 A 
ATOM      9  C   UNL     1      41.874 -77.799  36.155  1.00  0.00     0.094 A 
ATOM     10  C   UNL     1      40.989 -78.261  37.131  1.00  0.00     0.146 A 
ATOM     11  O   UNL     1      39.695 -77.997  36.992  1.00  0.00    -0.452 OA
ENDROOT
BRANCH   1  12
ATOM     12  C   UNL     1      37.360 -78.023  37.591  1.00  0.00     0.021 A 
ATOM     13  C   UNL     1      36.755 -78.383  36.375  1.00  0.00     0.016 A 
ATOM     14  C   UNL     1      35.435 -78.009  36.103  1.00  0.00     0.047 A 
ATOM     15  C   UNL     1      34.710 -77.258  37.036  1.00  0.00     0.115 A 
ATOM     16  C   UNL     1      36.632 -77.251  38.515  1.00  0.00     0.016 A 
ATOM     17  C   UNL     1      35.312 -76.878  38.239  1.00  0.00     0.047 A 
BRANCH  15  18
ATOM     18  O   UNL     1      33.394 -76.881  36.776  1.00  0.00    -0.508 OA
ATOM     19  H   UNL     1      32.721 -76.761  37.525  1.00  0.00     0.293 HD
ENDBRANCH  15  18
ENDBRANCH   1  12
BRANCH   2  20
ATOM     20  O   UNL     1      38.158 -79.723  39.797  1.00  0.00    -0.502 OA
ATOM     21  H   UNL     1      37.168 -79.564  39.651  1.00  0.00     0.293 HD
ENDBRANCH   2  20
BRANCH   6  22
ATOM     22  O   UNL     1      43.472 -79.829  39.471  1.00  0.00    -0.507 OA
ATOM     23  H   UNL     1      43.368 -80.802  39.715  1.00  0.00     0.293 HD
ENDBRANCH   6  22
BRANCH   8  24
ATOM     24  O   UNL     1      44.125 -77.622  35.275  1.00  0.00    -0.508 OA
ATOM     25  H   UNL     1      44.578 -78.269  34.640  1.00  0.00     0.293 HD
ENDBRANCH   8  24
TORSDOF 5
ENDMDL
MODEL 7
REMARK VINA RESULT:    -5.059     15.262     16.882
REMARK INTER + INTRA:          -6.120
REMARK INTER:                  -5.837
REMARK INTRA:                  -0.284
REMARK UNBOUND:                -0.174
REMARK SMILES O=c1c(O)c(-c2ccc(O)cc2)oc2cc(O)cc(O)c12
REMARK SMILES IDX 5 1 3 2 2 3 1 4 21 5 19 6 18 7 16 8 15 9 14 10 13 11 6 12
REMARK SMILES IDX 7 13 8 14 9 15 12 16 11 17 10 18 4 20 20 22 17 24
REMARK H PARENT 10 19 4 21 20 23 17 25
REMARK Flexibility Score: inf
ROOT
ATOM      1  C   UNL     1      37.566 -77.972  37.297  1.00  0.00     0.180 A 
ATOM      2  C   UNL     1      38.181 -77.826  36.042  1.00  0.00     0.208 A 
ATOM      3  C   UNL     1      37.375 -77.729  34.896  1.00  0.00     0.238 A 
ATOM      4  O   UNL     1      37.933 -77.652  33.770  1.00  0.00    -0.285 OA
ATOM      5  C   UNL     1      35.965 -77.763  35.020  1.00  0.00     0.111 A 
ATOM      6  C   UNL     1      35.053 -77.633  33.932  1.00  0.00     0.134 A 
ATOM      7  C   UNL     1      33.682 -77.814  34.155  1.00  0.00     0.093 A 
ATOM      8  C   UNL     1      33.186 -78.053  35.436  1.00  0.00     0.123 A 
ATOM      9  C   UNL     1      34.065 -78.122  36.517  1.00  0.00     0.094 A 
ATOM     10  C   UNL     1      35.440 -77.984  36.320  1.00  0.00     0.146 A 
ATOM     11  O   UNL     1      36.244 -78.067  37.374  1.00  0.00    -0.452 OA
ENDROOT
BRANCH   1  12
ATOM     12  C   UNL     1      38.348 -78.056  38.552  1.00  0.00     0.021 A 
ATOM     13  C   UNL     1      38.766 -76.875  39.188  1.00  0.00     0.016 A 
ATOM     14  C   UNL     1      39.526 -76.932  40.360  1.00  0.00     0.047 A 
ATOM     15  C   UNL     1      39.888 -78.171  40.904  1.00  0.00     0.115 A 
ATOM     16  C   UNL     1      38.733 -79.297  39.093  1.00  0.00     0.016 A 
ATOM     17  C   UNL     1      39.492 -79.351  40.266  1.00  0.00     0.047 A 
BRANCH  15  18
ATOM     18  O   UNL     1      40.642 -78.241  42.073  1.00  0.00    -0.508 OA
ATOM     19  H   UNL     1      40.525 -79.001  42.733  1.00  0.00     0.293 HD
ENDBRANCH  15  18
ENDBRANCH   1  12
BRANCH   2  20
ATOM     20  O   UNL     1      39.575 -77.816  35.939  1.00  0.00    -0.502 OA
ATOM     21  H   UNL     1      40.151 -78.577  36.277  1.00  0.00     0.293 HD
ENDBRANCH   2  20
BRANCH   6  22
ATOM     22  O   UNL     1      35.435 -77.304  32.627  1.00  0.00    -0.507 OA
ATOM     23  H   UNL     1      34.886 -76.744  31.992  1.00  0.00     0.293 HD
ENDBRANCH   6  22
BRANCH   8  24
ATOM     24  O   UNL     1      31.815 -78.211  35.623  1.00  0.00    -0.508 OA
ATOM     25  H   UNL     1      31.198 -77.413  35.721  1.00  0.00     0.293 HD
ENDBRANCH   8  24
TORSDOF 5
ENDMDL
MODEL 8
REMARK VINA RESULT:    -4.905     16.363     18.016
REMARK INTER + INTRA:          -5.939
REMARK INTER:                  -5.758
REMARK INTRA:                  -0.180
REMARK UNBOUND:                -0.174
REMARK SMILES O=c1c(O)c(-c2ccc(O)cc2)oc2cc(O)cc(O)c12
REMARK SMILES IDX 5 1 3 2 2 3 1 4 21 5 19 6 18 7 16 8 15 9 14 10 13 11 6 12
REMARK SMILES IDX 7 13 8 14 9 15 12 16 11 17 10 18 4 20 20 22 17 24
REMARK H PARENT 10 19 4 21 20 23 17 25
REMARK Flexibility Score: inf
ROOT
ATOM      1  C   UNL     1      38.980 -77.631  35.987  1.00  0.00     0.180 A 
ATOM      2  C   UNL     1      37.660 -77.428  35.549  1.00  0.00     0.208 A 
ATOM      3  C   UNL     1      37.415 -77.280  34.174  1.00  0.00     0.238 A 
ATOM      4  O   UNL     1      36.239 -77.045  33.792  1.00  0.00    -0.285 OA
ATOM      5  C   UNL     1      38.489 -77.354  33.254  1.00  0.00     0.111 A 
ATOM      6  C   UNL     1      38.351 -77.259  31.838  1.00  0.00     0.134 A 
ATOM      7  C   UNL     1      39.497 -77.214  31.034  1.00  0.00     0.093 A 
ATOM      8  C   UNL     1      40.771 -77.328  31.588  1.00  0.00     0.123 A 
ATOM      9  C   UNL     1      40.914 -77.481  32.967  1.00  0.00     0.094 A 
ATOM     10  C   UNL     1      39.793 -77.492  33.799  1.00  0.00     0.146 A 
ATOM     11  O   UNL     1      39.973 -77.630  35.107  1.00  0.00    -0.452 OA
ENDROOT
BRANCH   1  12
ATOM     12  C   UNL     1      39.314 -77.819  37.418  1.00  0.00     0.021 A 
ATOM     13  C   UNL     1      40.125 -76.875  38.069  1.00  0.00     0.016 A 
ATOM     14  C   UNL     1      40.473 -77.045  39.413  1.00  0.00     0.047 A 
ATOM     15  C   UNL     1      40.025 -78.170  40.118  1.00  0.00     0.115 A 
ATOM     16  C   UNL     1      38.885 -78.956  38.128  1.00  0.00     0.016 A 
ATOM     17  C   UNL     1      39.234 -79.124  39.471  1.00  0.00     0.047 A 
BRANCH  15  18
ATOM     18  O   UNL     1      40.363 -78.350  41.457  1.00  0.00    -0.508 OA
ATOM     19  H   UNL     1      41.330 -78.364  41.762  1.00  0.00     0.293 HD
ENDBRANCH  15  18
ENDBRANCH   1  12
BRANCH   2  20
ATOM     20  O   UNL     1      36.617 -77.336  36.474  1.00  0.00    -0.502 OA
ATOM     21  H   UNL     1      36.692 -77.700  37.417  1.00  0.00     0.293 HD
ENDBRANCH   2  20
BRANCH   6  22
ATOM     22  O   UNL     1      37.120 -77.233  31.173  1.00  0.00    -0.507 OA
ATOM     23  H   UNL     1      36.890 -77.796  30.369  1.00  0.00     0.293 HD
ENDBRANCH   6  22
BRANCH   8  24
ATOM     24  O   UNL     1      41.887 -77.296  30.756  1.00  0.00    -0.508 OA
ATOM     25  H   UNL     1      42.280 -78.143  30.363  1.00  0.00     0.293 HD
ENDBRANCH   8  24
TORSDOF 5
ENDMDL
MODEL 9
REMARK VINA RESULT:    -4.850      9.096     11.043
REMARK INTER + INTRA:          -5.875
REMARK INTER:                  -5.810
REMARK INTRA:                  -0.064
REMARK UNBOUND:                -0.174
REMARK SMILES O=c1c(O)c(-c2ccc(O)cc2)oc2cc(O)cc(O)c12
REMARK SMILES IDX 5 1 3 2 2 3 1 4 21 5 19 6 18 7 16 8 15 9 14 10 13 11 6 12
REMARK SMILES IDX 7 13 8 14 9 15 12 16 11 17 10 18 4 20 20 22 17 24
REMARK H PARENT 10 19 4 21 20 23 17 25
REMARK Flexibility Score: inf
ROOT
ATOM      1  C   UNL     1      39.682 -95.362  33.918  1.00  0.00     0.180 A 
ATOM      2  C   UNL     1      38.626 -95.090  33.032  1.00  0.00     0.208 A 
ATOM      3  C   UNL     1      38.859 -95.171  31.649  1.00  0.00     0.238 A 
ATOM      4  O   UNL     1      37.923 -94.875  30.861  1.00  0.00    -0.285 OA
ATOM      5  C   UNL     1      40.139 -95.539  31.171  1.00  0.00     0.111 A 
ATOM      6  C   UNL     1      40.476 -95.692  29.794  1.00  0.00     0.134 A 
ATOM      7  C   UNL     1      41.808 -95.931  29.431  1.00  0.00     0.093 A 
ATOM      8  C   UNL     1      42.800 -96.088  30.397  1.00  0.00     0.123 A 
ATOM      9  C   UNL     1      42.470 -96.000  31.749  1.00  0.00     0.094 A 
ATOM     10  C   UNL     1      41.159 -95.726  32.141  1.00  0.00     0.146 A 
ATOM     11  O   UNL     1      40.888 -95.640  33.438  1.00  0.00    -0.452 OA
ENDROOT
BRANCH   1  12
ATOM     12  C   UNL     1      39.507 -95.320  35.389  1.00  0.00     0.021 A 
ATOM     13  C   UNL     1      40.375 -94.535  36.167  1.00  0.00     0.016 A 
ATOM     14  C   UNL     1      40.243 -94.500  37.558  1.00  0.00     0.047 A 
ATOM     15  C   UNL     1      39.251 -95.260  38.190  1.00  0.00     0.115 A 
ATOM     16  C   UNL     1      38.526 -96.097  36.033  1.00  0.00     0.016 A 
ATOM     17  C   UNL     1      38.397 -96.060  37.424  1.00  0.00     0.047 A 
BRANCH  15  18
ATOM     18  O   UNL     1      39.108 -95.232  39.576  1.00  0.00    -0.508 OA
ATOM     19  H   UNL     1      38.202 -95.102  40.011  1.00  0.00     0.293 HD
ENDBRANCH  15  18
ENDBRANCH   1  12
BRANCH   2  20
ATOM     20  O   UNL     1      37.375 -94.707  33.525  1.00  0.00    -0.502 OA
ATOM     21  H   UNL     1      37.230 -93.841  34.029  1.00  0.00     0.293 HD
ENDBRANCH   2  20
BRANCH   6  22
ATOM     22  O   UNL     1      39.544 -95.646  28.752  1.00  0.00    -0.507 OA
ATOM     23  H   UNL     1      39.779 -95.644  27.771  1.00  0.00     0.293 HD
ENDBRANCH   6  22
BRANCH   8  24
ATOM     24  O   UNL     1      44.112 -96.341  30.000  1.00  0.00    -0.508 OA
ATOM     25  H   UNL     1      44.675 -97.051  30.454  1.00  0.00     0.293 HD
ENDBRANCH   8  24
TORSDOF 5
ENDMDL
