MODEL 1
REMARK VINA RESULT:    -3.830      0.000      0.000
REMARK INTER + INTRA:          -8.679
REMARK INTER:                  -6.965
REMARK INTRA:                  -1.715
REMARK UNBOUND:                -1.715
REMARK SMILES CCCCCCCCCCCCCCCC(=O)[O-]
REMARK SMILES IDX 9 1 10 2 11 3 12 4 13 5 14 6 15 7 16 8 17 9 18 10 8 11 7 12
REMARK SMILES IDX 6 13 5 14 4 15 3 16 2 17 1 18
REMARK H PARENT
REMARK Flexibility Score: inf
ROOT
ATOM      1  C   UNL     1      35.816 -50.714   3.461  1.00  0.00     0.000 C 
ENDROOT
BRANCH   1   2
ATOM      2  C   UNL     1      35.128 -50.147   2.208  1.00  0.00     0.000 C 
BRANCH   2   3
ATOM      3  C   UNL     1      33.667 -50.630   2.071  1.00  0.00     0.000 C 
BRANCH   3   4
ATOM      4  C   UNL     1      32.879 -49.912   0.959  1.00  0.00     0.000 C 
BRANCH   4   5
ATOM      5  C   UNL     1      33.080 -48.386   0.900  1.00  0.00     0.000 C 
BRANCH   5   6
ATOM      6  C   UNL     1      33.845 -47.880  -0.337  1.00  0.00     0.006 C 
BRANCH   6   7
ATOM      7  C   UNL     1      33.500 -48.661  -1.612  1.00  0.00     0.053 C 
BRANCH   7   8
ATOM      8  C   UNL     1      33.201 -47.720  -2.736  1.00  0.00     0.041 C 
ATOM      9  O   UNL     1      33.590 -47.982  -3.904  1.00  0.00    -0.550 OA
ATOM     10  O   UNL     1      32.447 -46.576  -2.503  1.00  0.00    -0.550 OA
ENDBRANCH   7   8
ENDBRANCH   6   7
ENDBRANCH   5   6
ENDBRANCH   4   5
ENDBRANCH   3   4
ENDBRANCH   2   3
ENDBRANCH   1   2
BRANCH   1  11
ATOM     11  C   UNL     1      36.396 -49.616   4.365  1.00  0.00     0.000 C 
BRANCH  11  12
ATOM     12  C   UNL     1      35.848 -48.219   4.026  1.00  0.00    -0.000 C 
BRANCH  12  13
ATOM     13  C   UNL     1      36.834 -47.388   3.189  1.00  0.00    -0.000 C 
BRANCH  13  14
ATOM     14  C   UNL     1      36.146 -46.232   2.442  1.00  0.00    -0.000 C 
BRANCH  14  15
ATOM     15  C   UNL     1      34.769 -45.876   3.032  1.00  0.00    -0.000 C 
BRANCH  15  16
ATOM     16  C   UNL     1      34.171 -44.550   2.527  1.00  0.00    -0.000 C 
BRANCH  16  17
ATOM     17  C   UNL     1      32.862 -44.743   1.748  1.00  0.00    -0.003 C 
ATOM     18  C   UNL     1      32.996 -44.231   0.316  1.00  0.00     0.004 C 
ENDBRANCH  16  17
ENDBRANCH  15  16
ENDBRANCH  14  15
ENDBRANCH  13  14
ENDBRANCH  12  13
ENDBRANCH  11  12
ENDBRANCH   1  11
TORSDOF 14
ENDMDL
MODEL 2
REMARK VINA RESULT:    -3.755      2.932      5.347
REMARK INTER + INTRA:          -8.543
REMARK INTER:                  -6.806
REMARK INTRA:                  -1.737
REMARK UNBOUND:                -1.715
REMARK SMILES CCCCCCCCCCCCCCCC(=O)[O-]
REMARK SMILES IDX 9 1 10 2 11 3 12 4 13 5 14 6 15 7 16 8 17 9 18 10 8 11 7 12
REMARK SMILES IDX 6 13 5 14 4 15 3 16 2 17 1 18
REMARK H PARENT
REMARK Flexibility Score: inf
ROOT
ATOM      1  C   UNL     1      33.061 -44.884   1.986  1.00  0.00     0.000 C 
ENDROOT
BRANCH   1   2
ATOM      2  C   UNL     1      34.328 -44.963   2.855  1.00  0.00     0.000 C 
BRANCH   2   3
ATOM      3  C   UNL     1      35.571 -45.384   2.041  1.00  0.00     0.000 C 
BRANCH   3   4
ATOM      4  C   UNL     1      36.239 -46.674   2.553  1.00  0.00     0.000 C 
BRANCH   4   5
ATOM      5  C   UNL     1      35.386 -47.505   3.531  1.00  0.00     0.000 C 
BRANCH   5   6
ATOM      6  C   UNL     1      35.036 -48.923   3.043  1.00  0.00     0.006 C 
BRANCH   6   7
ATOM      7  C   UNL     1      34.299 -48.925   1.697  1.00  0.00     0.053 C 
BRANCH   7   8
ATOM      8  C   UNL     1      33.380 -50.102   1.608  1.00  0.00     0.041 C 
ATOM      9  O   UNL     1      32.411 -50.091   0.804  1.00  0.00    -0.550 OA
ATOM     10  O   UNL     1      33.621 -51.233   2.378  1.00  0.00    -0.550 OA
ENDBRANCH   7   8
ENDBRANCH   6   7
ENDBRANCH   5   6
ENDBRANCH   4   5
ENDBRANCH   3   4
ENDBRANCH   2   3
ENDBRANCH   1   2
BRANCH   1  11
ATOM     11  C   UNL     1      33.351 -45.111   0.495  1.00  0.00     0.000 C 
BRANCH  11  12
ATOM     12  C   UNL     1      32.935 -43.914  -0.379  1.00  0.00    -0.000 C 
BRANCH  12  13
ATOM     13  C   UNL     1      33.925 -43.650  -1.524  1.00  0.00    -0.000 C 
BRANCH  13  14
ATOM     14  C   UNL     1      35.351 -43.368  -1.019  1.00  0.00    -0.000 C 
BRANCH  14  15
ATOM     15  C   UNL     1      35.394 -42.284   0.073  1.00  0.00    -0.000 C 
BRANCH  15  16
ATOM     16  C   UNL     1      36.796 -41.726   0.377  1.00  0.00    -0.000 C 
BRANCH  16  17
ATOM     17  C   UNL     1      36.856 -40.949   1.701  1.00  0.00    -0.003 C 
ATOM     18  C   UNL     1      35.728 -41.373   2.638  1.00  0.00     0.004 C 
ENDBRANCH  16  17
ENDBRANCH  15  16
ENDBRANCH  14  15
ENDBRANCH  13  14
ENDBRANCH  12  13
ENDBRANCH  11  12
ENDBRANCH   1  11
TORSDOF 14
ENDMDL
MODEL 3
REMARK VINA RESULT:    -3.721      2.753      6.554
REMARK INTER + INTRA:          -8.481
REMARK INTER:                  -6.525
REMARK INTRA:                  -1.956
REMARK UNBOUND:                -1.715
REMARK SMILES CCCCCCCCCCCCCCCC(=O)[O-]
REMARK SMILES IDX 9 1 10 2 11 3 12 4 13 5 14 6 15 7 16 8 17 9 18 10 8 11 7 12
REMARK SMILES IDX 6 13 5 14 4 15 3 16 2 17 1 18
REMARK H PARENT
REMARK Flexibility Score: inf
ROOT
ATOM      1  C   UNL     1      33.529 -43.780  -1.172  1.00  0.00     0.000 C 
ENDROOT
BRANCH   1   2
ATOM      2  C   UNL     1      32.245 -43.761  -0.326  1.00  0.00     0.000 C 
BRANCH   2   3
ATOM      3  C   UNL     1      32.461 -44.355   1.082  1.00  0.00     0.000 C 
BRANCH   3   4
ATOM      4  C   UNL     1      33.932 -44.691   1.393  1.00  0.00     0.000 C 
BRANCH   4   5
ATOM      5  C   UNL     1      34.196 -46.158   1.786  1.00  0.00     0.000 C 
BRANCH   5   6
ATOM      6  C   UNL     1      34.250 -47.146   0.606  1.00  0.00     0.006 C 
BRANCH   6   7
ATOM      7  C   UNL     1      32.980 -47.999   0.485  1.00  0.00     0.053 C 
BRANCH   7   8
ATOM      8  C   UNL     1      33.248 -49.399   0.938  1.00  0.00     0.041 C 
ATOM      9  O   UNL     1      32.329 -50.260   0.914  1.00  0.00    -0.550 OA
ATOM     10  O   UNL     1      34.525 -49.768   1.341  1.00  0.00    -0.550 OA
ENDBRANCH   7   8
ENDBRANCH   6   7
ENDBRANCH   5   6
ENDBRANCH   4   5
ENDBRANCH   3   4
ENDBRANCH   2   3
ENDBRANCH   1   2
BRANCH   1  11
ATOM     11  C   UNL     1      33.382 -44.619  -2.451  1.00  0.00     0.000 C 
BRANCH  11  12
ATOM     12  C   UNL     1      32.009 -45.305  -2.554  1.00  0.00    -0.000 C 
BRANCH  12  13
ATOM     13  C   UNL     1      32.117 -46.772  -3.002  1.00  0.00    -0.000 C 
BRANCH  13  14
ATOM     14  C   UNL     1      33.574 -47.217  -3.218  1.00  0.00    -0.000 C 
BRANCH  14  15
ATOM     15  C   UNL     1      33.807 -48.695  -2.854  1.00  0.00    -0.000 C 
BRANCH  15  16
ATOM     16  C   UNL     1      33.996 -49.636  -4.057  1.00  0.00    -0.000 C 
BRANCH  16  17
ATOM     17  C   UNL     1      32.738 -50.457  -4.377  1.00  0.00    -0.003 C 
ATOM     18  C   UNL     1      31.766 -50.453  -3.199  1.00  0.00     0.004 C 
ENDBRANCH  16  17
ENDBRANCH  15  16
ENDBRANCH  14  15
ENDBRANCH  13  14
ENDBRANCH  12  13
ENDBRANCH  11  12
ENDBRANCH   1  11
TORSDOF 14
ENDMDL
MODEL 4
REMARK VINA RESULT:    -3.679      3.242      6.310
REMARK INTER + INTRA:          -8.404
REMARK INTER:                  -5.867
REMARK INTRA:                  -2.536
REMARK UNBOUND:                -1.715
REMARK SMILES CCCCCCCCCCCCCCCC(=O)[O-]
REMARK SMILES IDX 9 1 10 2 11 3 12 4 13 5 14 6 15 7 16 8 17 9 18 10 8 11 7 12
REMARK SMILES IDX 6 13 5 14 4 15 3 16 2 17 1 18
REMARK H PARENT
REMARK Flexibility Score: inf
ROOT
ATOM      1  C   UNL     1      35.866 -43.949  -1.218  1.00  0.00     0.000 C 
ENDROOT
BRANCH   1   2
ATOM      2  C   UNL     1      34.974 -43.256  -0.174  1.00  0.00     0.000 C 
BRANCH   2   3
ATOM      3  C   UNL     1      33.490 -43.224  -0.600  1.00  0.00     0.000 C 
BRANCH   3   4
ATOM      4  C   UNL     1      32.556 -43.993   0.354  1.00  0.00     0.000 C 
BRANCH   4   5
ATOM      5  C   UNL     1      33.260 -44.690   1.533  1.00  0.00     0.000 C 
BRANCH   5   6
ATOM      6  C   UNL     1      33.385 -46.219   1.403  1.00  0.00     0.006 C 
BRANCH   6   7
ATOM      7  C   UNL     1      34.825 -46.718   1.582  1.00  0.00     0.053 C 
BRANCH   7   8
ATOM      8  C   UNL     1      34.919 -47.626   2.767  1.00  0.00     0.041 C 
ATOM      9  O   UNL     1      35.335 -47.187   3.871  1.00  0.00    -0.550 OA
ATOM     10  O   UNL     1      34.500 -48.947   2.666  1.00  0.00    -0.550 OA
ENDBRANCH   7   8
ENDBRANCH   6   7
ENDBRANCH   5   6
ENDBRANCH   4   5
ENDBRANCH   3   4
ENDBRANCH   2   3
ENDBRANCH   1   2
BRANCH   1  11
ATOM     11  C   UNL     1      35.058 -44.769  -2.235  1.00  0.00     0.000 C 
BRANCH  11  12
ATOM     12  C   UNL     1      35.247 -46.286  -2.057  1.00  0.00    -0.000 C 
BRANCH  12  13
ATOM     13  C   UNL     1      34.149 -47.102  -2.759  1.00  0.00    -0.000 C 
BRANCH  13  14
ATOM     14  C   UNL     1      32.758 -46.875  -2.141  1.00  0.00    -0.000 C 
BRANCH  14  15
ATOM     15  C   UNL     1      31.734 -46.340  -3.158  1.00  0.00    -0.000 C 
BRANCH  15  16
ATOM     16  C   UNL     1      31.002 -45.056  -2.726  1.00  0.00    -0.000 C 
BRANCH  16  17
ATOM     17  C   UNL     1      30.938 -44.001  -3.840  1.00  0.00    -0.003 C 
ATOM     18  C   UNL     1      32.338 -43.593  -4.290  1.00  0.00     0.004 C 
ENDBRANCH  16  17
ENDBRANCH  15  16
ENDBRANCH  14  15
ENDBRANCH  13  14
ENDBRANCH  12  13
ENDBRANCH  11  12
ENDBRANCH   1  11
TORSDOF 14
ENDMDL
MODEL 5
REMARK VINA RESULT:    -3.675      3.134      4.730
REMARK INTER + INTRA:          -8.397
REMARK INTER:                  -5.870
REMARK INTRA:                  -2.527
REMARK UNBOUND:                -1.715
REMARK SMILES CCCCCCCCCCCCCCCC(=O)[O-]
REMARK SMILES IDX 9 1 10 2 11 3 12 4 13 5 14 6 15 7 16 8 17 9 18 10 8 11 7 12
REMARK SMILES IDX 6 13 5 14 4 15 3 16 2 17 1 18
REMARK H PARENT
REMARK Flexibility Score: inf
ROOT
ATOM      1  C   UNL     1      35.611 -47.141  -1.569  1.00  0.00     0.000 C 
ENDROOT
BRANCH   1   2
ATOM      2  C   UNL     1      34.174 -47.214  -2.113  1.00  0.00     0.000 C 
BRANCH   2   3
ATOM      3  C   UNL     1      33.344 -48.321  -1.428  1.00  0.00     0.000 C 
BRANCH   3   4
ATOM      4  C   UNL     1      34.094 -49.047  -0.294  1.00  0.00     0.000 C 
BRANCH   4   5
ATOM      5  C   UNL     1      33.205 -49.534   0.866  1.00  0.00     0.000 C 
BRANCH   5   6
ATOM      6  C   UNL     1      33.952 -50.284   1.984  1.00  0.00     0.006 C 
BRANCH   6   7
ATOM      7  C   UNL     1      35.369 -49.745   2.222  1.00  0.00     0.053 C 
BRANCH   7   8
ATOM      8  C   UNL     1      35.793 -49.996   3.634  1.00  0.00     0.041 C 
ATOM      9  O   UNL     1      35.880 -51.174   4.070  1.00  0.00    -0.550 OA
ATOM     10  O   UNL     1      36.141 -48.931   4.456  1.00  0.00    -0.550 OA
ENDBRANCH   7   8
ENDBRANCH   6   7
ENDBRANCH   5   6
ENDBRANCH   4   5
ENDBRANCH   3   4
ENDBRANCH   2   3
ENDBRANCH   1   2
BRANCH   1  11
ATOM     11  C   UNL     1      36.125 -45.698  -1.449  1.00  0.00     0.000 C 
BRANCH  11  12
ATOM     12  C   UNL     1      36.613 -45.358  -0.030  1.00  0.00    -0.000 C 
BRANCH  12  13
ATOM     13  C   UNL     1      36.362 -46.501   0.967  1.00  0.00    -0.000 C 
BRANCH  13  14
ATOM     14  C   UNL     1      36.198 -45.998   2.412  1.00  0.00    -0.000 C 
BRANCH  14  15
ATOM     15  C   UNL     1      34.733 -46.006   2.885  1.00  0.00    -0.000 C 
BRANCH  15  16
ATOM     16  C   UNL     1      33.688 -46.047   1.756  1.00  0.00    -0.000 C 
BRANCH  16  17
ATOM     17  C   UNL     1      33.050 -44.678   1.481  1.00  0.00    -0.003 C 
ATOM     18  C   UNL     1      32.775 -44.491  -0.009  1.00  0.00     0.004 C 
ENDBRANCH  16  17
ENDBRANCH  15  16
ENDBRANCH  14  15
ENDBRANCH  13  14
ENDBRANCH  12  13
ENDBRANCH  11  12
ENDBRANCH   1  11
TORSDOF 14
ENDMDL
MODEL 6
REMARK VINA RESULT:    -3.623      5.687      9.556
REMARK INTER + INTRA:          -8.303
REMARK INTER:                  -6.008
REMARK INTRA:                  -2.295
REMARK UNBOUND:                -1.715
REMARK SMILES CCCCCCCCCCCCCCCC(=O)[O-]
REMARK SMILES IDX 9 1 10 2 11 3 12 4 13 5 14 6 15 7 16 8 17 9 18 10 8 11 7 12
REMARK SMILES IDX 6 13 5 14 4 15 3 16 2 17 1 18
REMARK H PARENT
REMARK Flexibility Score: inf
ROOT
ATOM      1  C   UNL     1      33.456 -42.402  -6.956  1.00  0.00     0.000 C 
ENDROOT
BRANCH   1   2
ATOM      2  C   UNL     1      33.187 -41.898  -5.527  1.00  0.00     0.000 C 
BRANCH   2   3
ATOM      3  C   UNL     1      33.349 -43.013  -4.472  1.00  0.00     0.000 C 
BRANCH   3   4
ATOM      4  C   UNL     1      34.269 -44.164  -4.923  1.00  0.00     0.000 C 
BRANCH   4   5
ATOM      5  C   UNL     1      33.609 -45.556  -4.940  1.00  0.00     0.000 C 
BRANCH   5   6
ATOM      6  C   UNL     1      32.070 -45.545  -4.892  1.00  0.00     0.006 C 
BRANCH   6   7
ATOM      7  C   UNL     1      31.502 -46.434  -3.777  1.00  0.00     0.053 C 
BRANCH   7   8
ATOM      8  C   UNL     1      32.084 -46.046  -2.454  1.00  0.00     0.041 C 
ATOM      9  O   UNL     1      32.867 -46.827  -1.853  1.00  0.00    -0.550 OA
ATOM     10  O   UNL     1      31.801 -44.800  -1.908  1.00  0.00    -0.550 OA
ENDBRANCH   7   8
ENDBRANCH   6   7
ENDBRANCH   5   6
ENDBRANCH   4   5
ENDBRANCH   3   4
ENDBRANCH   2   3
ENDBRANCH   1   2
BRANCH   1  11
ATOM     11  C   UNL     1      32.167 -42.781  -7.701  1.00  0.00     0.000 C 
BRANCH  11  12
ATOM     12  C   UNL     1      31.152 -41.626  -7.755  1.00  0.00    -0.000 C 
BRANCH  12  13
ATOM     13  C   UNL     1      29.719 -42.114  -8.017  1.00  0.00    -0.000 C 
BRANCH  13  14
ATOM     14  C   UNL     1      28.851 -42.106  -6.746  1.00  0.00    -0.000 C 
BRANCH  14  15
ATOM     15  C   UNL     1      29.327 -41.077  -5.704  1.00  0.00    -0.000 C 
BRANCH  15  16
ATOM     16  C   UNL     1      29.494 -41.630  -4.278  1.00  0.00    -0.000 C 
BRANCH  16  17
ATOM     17  C   UNL     1      29.593 -43.162  -4.238  1.00  0.00    -0.003 C 
ATOM     18  C   UNL     1      28.688 -43.742  -3.154  1.00  0.00     0.004 C 
ENDBRANCH  16  17
ENDBRANCH  15  16
ENDBRANCH  14  15
ENDBRANCH  13  14
ENDBRANCH  12  13
ENDBRANCH  11  12
ENDBRANCH   1  11
TORSDOF 14
ENDMDL
MODEL 7
REMARK VINA RESULT:    -3.609      2.476      5.035
REMARK INTER + INTRA:          -8.278
REMARK INTER:                  -5.915
REMARK INTRA:                  -2.363
REMARK UNBOUND:                -1.715
REMARK SMILES CCCCCCCCCCCCCCCC(=O)[O-]
REMARK SMILES IDX 9 1 10 2 11 3 12 4 13 5 14 6 15 7 16 8 17 9 18 10 8 11 7 12
REMARK SMILES IDX 6 13 5 14 4 15 3 16 2 17 1 18
REMARK H PARENT
REMARK Flexibility Score: inf
ROOT
ATOM      1  C   UNL     1      34.662 -45.975   2.823  1.00  0.00     0.000 C 
ENDROOT
BRANCH   1   2
ATOM      2  C   UNL     1      36.157 -46.092   2.480  1.00  0.00     0.000 C 
BRANCH   2   3
ATOM      3  C   UNL     1      36.492 -45.477   1.103  1.00  0.00     0.000 C 
BRANCH   3   4
ATOM      4  C   UNL     1      36.860 -46.520   0.032  1.00  0.00     0.000 C 
BRANCH   4   5
ATOM      5  C   UNL     1      35.660 -47.190  -0.664  1.00  0.00     0.000 C 
BRANCH   5   6
ATOM      6  C   UNL     1      35.212 -48.526  -0.043  1.00  0.00     0.006 C 
BRANCH   6   7
ATOM      7  C   UNL     1      33.707 -48.570   0.255  1.00  0.00     0.053 C 
BRANCH   7   8
ATOM      8  C   UNL     1      33.388 -49.724   1.153  1.00  0.00     0.041 C 
ATOM      9  O   UNL     1      34.215 -50.095   2.026  1.00  0.00    -0.550 OA
ATOM     10  O   UNL     1      32.155 -50.357   1.060  1.00  0.00    -0.550 OA
ENDBRANCH   7   8
ENDBRANCH   6   7
ENDBRANCH   5   6
ENDBRANCH   4   5
ENDBRANCH   3   4
ENDBRANCH   2   3
ENDBRANCH   1   2
BRANCH   1  11
ATOM     11  C   UNL     1      34.051 -44.644   2.358  1.00  0.00     0.000 C 
BRANCH  11  12
ATOM     12  C   UNL     1      32.931 -44.836   1.322  1.00  0.00    -0.000 C 
BRANCH  12  13
ATOM     13  C   UNL     1      32.970 -43.775   0.210  1.00  0.00    -0.000 C 
BRANCH  13  14
ATOM     14  C   UNL     1      33.334 -44.369  -1.161  1.00  0.00    -0.000 C 
BRANCH  14  15
ATOM     15  C   UNL     1      32.473 -45.591  -1.530  1.00  0.00    -0.000 C 
BRANCH  15  16
ATOM     16  C   UNL     1      32.616 -46.068  -2.986  1.00  0.00    -0.000 C 
BRANCH  16  17
ATOM     17  C   UNL     1      32.381 -47.578  -3.147  1.00  0.00    -0.003 C 
ATOM     18  C   UNL     1      33.666 -48.292  -3.556  1.00  0.00     0.004 C 
ENDBRANCH  16  17
ENDBRANCH  15  16
ENDBRANCH  14  15
ENDBRANCH  13  14
ENDBRANCH  12  13
ENDBRANCH  11  12
ENDBRANCH   1  11
TORSDOF 14
ENDMDL
MODEL 8
REMARK VINA RESULT:    -3.607      1.870      5.039
REMARK INTER + INTRA:          -8.274
REMARK INTER:                  -5.918
REMARK INTRA:                  -2.356
REMARK UNBOUND:                -1.715
REMARK SMILES CCCCCCCCCCCCCCCC(=O)[O-]
REMARK SMILES IDX 9 1 10 2 11 3 12 4 13 5 14 6 15 7 16 8 17 9 18 10 8 11 7 12
REMARK SMILES IDX 6 13 5 14 4 15 3 16 2 17 1 18
REMARK H PARENT
REMARK Flexibility Score: inf
ROOT
ATOM      1  C   UNL     1      33.993 -46.030   2.100  1.00  0.00     0.000 C 
ENDROOT
BRANCH   1   2
ATOM      2  C   UNL     1      33.191 -44.741   1.854  1.00  0.00     0.000 C 
BRANCH   2   3
ATOM      3  C   UNL     1      34.001 -43.688   1.067  1.00  0.00     0.000 C 
BRANCH   3   4
ATOM      4  C   UNL     1      33.364 -43.297  -0.281  1.00  0.00     0.000 C 
BRANCH   4   5
ATOM      5  C   UNL     1      34.184 -43.688  -1.525  1.00  0.00     0.000 C 
BRANCH   5   6
ATOM      6  C   UNL     1      33.548 -44.781  -2.404  1.00  0.00     0.006 C 
BRANCH   6   7
ATOM      7  C   UNL     1      32.222 -45.305  -1.838  1.00  0.00     0.053 C 
BRANCH   7   8
ATOM      8  C   UNL     1      31.078 -44.859  -2.693  1.00  0.00     0.041 C 
ATOM      9  O   UNL     1      30.851 -43.632  -2.859  1.00  0.00    -0.550 OA
ATOM     10  O   UNL     1      30.292 -45.799  -3.348  1.00  0.00    -0.550 OA
ENDBRANCH   7   8
ENDBRANCH   6   7
ENDBRANCH   5   6
ENDBRANCH   4   5
ENDBRANCH   3   4
ENDBRANCH   2   3
ENDBRANCH   1   2
BRANCH   1  11
ATOM     11  C   UNL     1      35.168 -46.190   1.123  1.00  0.00     0.000 C 
BRANCH  11  12
ATOM     12  C   UNL     1      34.913 -47.275   0.062  1.00  0.00    -0.000 C 
BRANCH  12  13
ATOM     13  C   UNL     1      33.626 -48.071   0.333  1.00  0.00    -0.000 C 
BRANCH  13  14
ATOM     14  C   UNL     1      33.899 -49.560   0.607  1.00  0.00    -0.000 C 
BRANCH  14  15
ATOM     15  C   UNL     1      34.023 -49.878   2.108  1.00  0.00    -0.000 C 
BRANCH  15  16
ATOM     16  C   UNL     1      35.466 -49.941   2.640  1.00  0.00    -0.000 C 
BRANCH  16  17
ATOM     17  C   UNL     1      35.752 -48.888   3.721  1.00  0.00    -0.003 C 
ATOM     18  C   UNL     1      37.093 -48.202   3.477  1.00  0.00     0.004 C 
ENDBRANCH  16  17
ENDBRANCH  15  16
ENDBRANCH  14  15
ENDBRANCH  13  14
ENDBRANCH  12  13
ENDBRANCH  11  12
ENDBRANCH   1  11
TORSDOF 14
ENDMDL
MODEL 9
REMARK VINA RESULT:    -3.584      1.932      3.744
REMARK INTER + INTRA:          -8.231
REMARK INTER:                  -6.006
REMARK INTRA:                  -2.225
REMARK UNBOUND:                -1.715
REMARK SMILES CCCCCCCCCCCCCCCC(=O)[O-]
REMARK SMILES IDX 9 1 10 2 11 3 12 4 13 5 14 6 15 7 16 8 17 9 18 10 8 11 7 12
REMARK SMILES IDX 6 13 5 14 4 15 3 16 2 17 1 18
REMARK H PARENT
REMARK Flexibility Score: inf
ROOT
ATOM      1  C   UNL     1      35.593 -45.977   2.382  1.00  0.00     0.000 C 
ENDROOT
BRANCH   1   2
ATOM      2  C   UNL     1      35.114 -47.098   3.320  1.00  0.00     0.000 C 
BRANCH   2   3
ATOM      3  C   UNL     1      34.704 -48.372   2.549  1.00  0.00     0.000 C 
BRANCH   3   4
ATOM      4  C   UNL     1      34.662 -48.184   1.020  1.00  0.00     0.000 C 
BRANCH   4   5
ATOM      5  C   UNL     1      33.248 -48.132   0.410  1.00  0.00     0.000 C 
BRANCH   5   6
ATOM      6  C   UNL     1      33.166 -47.480  -0.982  1.00  0.00     0.006 C 
BRANCH   6   7
ATOM      7  C   UNL     1      33.999 -48.219  -2.038  1.00  0.00     0.053 C 
BRANCH   7   8
ATOM      8  C   UNL     1      33.114 -48.763  -3.114  1.00  0.00     0.041 C 
ATOM      9  O   UNL     1      32.009 -48.213  -3.365  1.00  0.00    -0.550 OA
ATOM     10  O   UNL     1      33.531 -49.847  -3.876  1.00  0.00    -0.550 OA
ENDBRANCH   7   8
ENDBRANCH   6   7
ENDBRANCH   5   6
ENDBRANCH   4   5
ENDBRANCH   3   4
ENDBRANCH   2   3
ENDBRANCH   1   2
BRANCH   1  11
ATOM     11  C   UNL     1      34.756 -44.695   2.517  1.00  0.00     0.000 C 
BRANCH  11  12
ATOM     12  C   UNL     1      33.283 -44.906   2.125  1.00  0.00    -0.000 C 
BRANCH  12  13
ATOM     13  C   UNL     1      32.931 -44.243   0.784  1.00  0.00    -0.000 C 
BRANCH  13  14
ATOM     14  C   UNL     1      34.028 -43.282   0.294  1.00  0.00    -0.000 C 
BRANCH  14  15
ATOM     15  C   UNL     1      34.157 -43.254  -1.240  1.00  0.00    -0.000 C 
BRANCH  15  16
ATOM     16  C   UNL     1      34.896 -44.457  -1.850  1.00  0.00    -0.000 C 
BRANCH  16  17
ATOM     17  C   UNL     1      36.154 -44.849  -1.062  1.00  0.00    -0.003 C 
ATOM     18  C   UNL     1      37.309 -43.899  -1.365  1.00  0.00     0.004 C 
ENDBRANCH  16  17
ENDBRANCH  15  16
ENDBRANCH  14  15
ENDBRANCH  13  14
ENDBRANCH  12  13
ENDBRANCH  11  12
ENDBRANCH   1  11
TORSDOF 14
ENDMDL
