MODEL 1
REMARK VINA RESULT:    -2.800      0.000      0.000
REMARK INTER + INTRA:         -10.431
REMARK INTER:                  -6.402
REMARK INTRA:                  -4.030
REMARK UNBOUND:                -4.030
REMARK SMILES CCCCCCCCCCCCCCCCCCCCCCCC(=O)[O-]
REMARK SMILES IDX 13 1 14 2 15 3 16 4 17 5 18 6 19 7 20 8 21 9 22 10 23 11
REMARK SMILES IDX 24 12 25 13 26 14 12 15 11 16 10 17 9 18 8 19 7 20 6 21 5 22
REMARK SMILES IDX 4 23 3 24 2 25 1 26
REMARK H PARENT
REMARK Flexibility Score: inf
ROOT
ATOM      1  C   UNL     1       2.512  21.775   9.473  1.00  0.00     0.000 C 
ENDROOT
BRANCH   1   2
ATOM      2  C   UNL     1       1.733  20.463   9.679  1.00  0.00     0.000 C 
BRANCH   2   3
ATOM      3  C   UNL     1       0.942  20.439  10.998  1.00  0.00     0.000 C 
BRANCH   3   4
ATOM      4  C   UNL     1       1.564  19.503  12.051  1.00  0.00     0.000 C 
BRANCH   4   5
ATOM      5  C   UNL     1       2.615  18.510  11.512  1.00  0.00     0.000 C 
BRANCH   5   6
ATOM      6  C   UNL     1       4.032  18.670  12.100  1.00  0.00     0.000 C 
BRANCH   6   7
ATOM      7  C   UNL     1       5.035  17.585  11.670  1.00  0.00     0.000 C 
BRANCH   7   8
ATOM      8  C   UNL     1       4.352  16.277  11.245  1.00  0.00     0.000 C 
BRANCH   8   9
ATOM      9  C   UNL     1       5.281  15.430  10.368  1.00  0.00     0.000 C 
BRANCH   9  10
ATOM     10  C   UNL     1       4.558  14.963   9.095  1.00  0.00     0.006 C 
BRANCH  10  11
ATOM     11  C   UNL     1       5.488  14.934   7.875  1.00  0.00     0.053 C 
BRANCH  11  12
ATOM     12  C   UNL     1       4.764  14.507   6.635  1.00  0.00     0.041 C 
ATOM     13  O   UNL     1       3.698  13.841   6.720  1.00  0.00    -0.550 OA
ATOM     14  O   UNL     1       5.276  14.830   5.384  1.00  0.00    -0.550 OA
ENDBRANCH  11  12
ENDBRANCH  10  11
ENDBRANCH   9  10
ENDBRANCH   8   9
ENDBRANCH   7   8
ENDBRANCH   6   7
ENDBRANCH   5   6
ENDBRANCH   4   5
ENDBRANCH   3   4
ENDBRANCH   2   3
ENDBRANCH   1   2
BRANCH   1  15
ATOM     15  C   UNL     1       3.854  21.632   8.734  1.00  0.00     0.000 C 
BRANCH  15  16
ATOM     16  C   UNL     1       4.808  20.635   9.415  1.00  0.00     0.000 C 
BRANCH  16  17
ATOM     17  C   UNL     1       5.315  19.555   8.444  1.00  0.00     0.000 C 
BRANCH  17  18
ATOM     18  C   UNL     1       4.255  18.475   8.166  1.00  0.00    -0.000 C 
BRANCH  18  19
ATOM     19  C   UNL     1       4.108  18.148   6.668  1.00  0.00    -0.000 C 
BRANCH  19  20
ATOM     20  C   UNL     1       3.582  19.301   5.792  1.00  0.00    -0.000 C 
BRANCH  20  21
ATOM     21  C   UNL     1       2.160  19.745   6.174  1.00  0.00    -0.000 C 
BRANCH  21  22
ATOM     22  C   UNL     1       1.747  21.073   5.513  1.00  0.00    -0.000 C 
BRANCH  22  23
ATOM     23  C   UNL     1       0.231  21.337   5.449  1.00  0.00    -0.000 C 
BRANCH  23  24
ATOM     24  C   UNL     1      -0.567  20.515   6.475  1.00  0.00    -0.000 C 
BRANCH  24  25
ATOM     25  C   UNL     1      -1.583  21.367   7.251  1.00  0.00    -0.003 C 
ATOM     26  C   UNL     1      -0.924  22.441   8.114  1.00  0.00     0.004 C 
ENDBRANCH  24  25
ENDBRANCH  23  24
ENDBRANCH  22  23
ENDBRANCH  21  22
ENDBRANCH  20  21
ENDBRANCH  19  20
ENDBRANCH  18  19
ENDBRANCH  17  18
ENDBRANCH  16  17
ENDBRANCH  15  16
ENDBRANCH   1  15
TORSDOF 22
ENDMDL
MODEL 2
REMARK VINA RESULT:    -2.713      1.530      3.656
REMARK INTER + INTRA:         -10.233
REMARK INTER:                  -5.717
REMARK INTRA:                  -4.516
REMARK UNBOUND:                -4.030
REMARK SMILES CCCCCCCCCCCCCCCCCCCCCCCC(=O)[O-]
REMARK SMILES IDX 13 1 14 2 15 3 16 4 17 5 18 6 19 7 20 8 21 9 22 10 23 11
REMARK SMILES IDX 24 12 25 13 26 14 12 15 11 16 10 17 9 18 8 19 7 20 6 21 5 22
REMARK SMILES IDX 4 23 3 24 2 25 1 26
REMARK H PARENT
REMARK Flexibility Score: inf
ROOT
ATOM      1  C   UNL     1       4.351  22.261  11.386  1.00  0.00     0.000 C 
ENDROOT
BRANCH   1   2
ATOM      2  C   UNL     1       4.766  21.434  12.616  1.00  0.00     0.000 C 
BRANCH   2   3
ATOM      3  C   UNL     1       3.590  20.671  13.248  1.00  0.00     0.000 C 
BRANCH   3   4
ATOM      4  C   UNL     1       2.236  21.016  12.600  1.00  0.00     0.000 C 
BRANCH   4   5
ATOM      5  C   UNL     1       1.612  19.898  11.740  1.00  0.00     0.000 C 
BRANCH   5   6
ATOM      6  C   UNL     1       2.509  18.664  11.515  1.00  0.00     0.000 C 
BRANCH   6   7
ATOM      7  C   UNL     1       3.175  18.592  10.129  1.00  0.00     0.000 C 
BRANCH   7   8
ATOM      8  C   UNL     1       4.536  17.882  10.159  1.00  0.00     0.000 C 
BRANCH   8   9
ATOM      9  C   UNL     1       4.365  16.375  10.386  1.00  0.00     0.000 C 
BRANCH   9  10
ATOM     10  C   UNL     1       4.907  15.576   9.191  1.00  0.00     0.006 C 
BRANCH  10  11
ATOM     11  C   UNL     1       3.890  15.479   8.046  1.00  0.00     0.053 C 
BRANCH  11  12
ATOM     12  C   UNL     1       4.401  14.637   6.917  1.00  0.00     0.041 C 
ATOM     13  O   UNL     1       5.465  14.955   6.321  1.00  0.00    -0.550 OA
ATOM     14  O   UNL     1       3.694  13.512   6.512  1.00  0.00    -0.550 OA
ENDBRANCH  11  12
ENDBRANCH  10  11
ENDBRANCH   9  10
ENDBRANCH   8   9
ENDBRANCH   7   8
ENDBRANCH   6   7
ENDBRANCH   5   6
ENDBRANCH   4   5
ENDBRANCH   3   4
ENDBRANCH   2   3
ENDBRANCH   1   2
BRANCH   1  15
ATOM     15  C   UNL     1       4.954  21.796  10.048  1.00  0.00     0.000 C 
BRANCH  15  16
ATOM     16  C   UNL     1       4.015  22.038   8.853  1.00  0.00     0.000 C 
BRANCH  16  17
ATOM     17  C   UNL     1       2.601  22.452   9.294  1.00  0.00     0.000 C 
BRANCH  17  18
ATOM     18  C   UNL     1       1.554  22.222   8.191  1.00  0.00    -0.000 C 
BRANCH  18  19
ATOM     19  C   UNL     1       1.253  20.731   7.948  1.00  0.00    -0.000 C 
BRANCH  19  20
ATOM     20  C   UNL     1       1.103  20.323   6.471  1.00  0.00    -0.000 C 
BRANCH  20  21
ATOM     21  C   UNL     1       2.449  20.017   5.793  1.00  0.00    -0.000 C 
BRANCH  21  22
ATOM     22  C   UNL     1       3.277  18.959   6.548  1.00  0.00    -0.000 C 
BRANCH  22  23
ATOM     23  C   UNL     1       4.523  18.442   5.807  1.00  0.00    -0.000 C 
BRANCH  23  24
ATOM     24  C   UNL     1       5.781  18.416   6.692  1.00  0.00    -0.000 C 
BRANCH  24  25
ATOM     25  C   UNL     1       6.286  19.825   7.039  1.00  0.00    -0.003 C 
ATOM     26  C   UNL     1       6.450  20.718   5.810  1.00  0.00     0.004 C 
ENDBRANCH  24  25
ENDBRANCH  23  24
ENDBRANCH  22  23
ENDBRANCH  21  22
ENDBRANCH  20  21
ENDBRANCH  19  20
ENDBRANCH  18  19
ENDBRANCH  17  18
ENDBRANCH  16  17
ENDBRANCH  15  16
ENDBRANCH   1  15
TORSDOF 22
ENDMDL
MODEL 3
REMARK VINA RESULT:    -2.661      3.266      7.187
REMARK INTER + INTRA:         -10.114
REMARK INTER:                  -6.676
REMARK INTRA:                  -3.438
REMARK UNBOUND:                -4.030
REMARK SMILES CCCCCCCCCCCCCCCCCCCCCCCC(=O)[O-]
REMARK SMILES IDX 13 1 14 2 15 3 16 4 17 5 18 6 19 7 20 8 21 9 22 10 23 11
REMARK SMILES IDX 24 12 25 13 26 14 12 15 11 16 10 17 9 18 8 19 7 20 6 21 5 22
REMARK SMILES IDX 4 23 3 24 2 25 1 26
REMARK H PARENT
REMARK Flexibility Score: inf
ROOT
ATOM      1  C   UNL     1       2.400  19.335   6.481  1.00  0.00     0.000 C 
ENDROOT
BRANCH   1   2
ATOM      2  C   UNL     1       2.268  20.470   5.449  1.00  0.00     0.000 C 
BRANCH   2   3
ATOM      3  C   UNL     1       0.865  21.101   5.432  1.00  0.00     0.000 C 
BRANCH   3   4
ATOM      4  C   UNL     1      -0.041  20.575   6.560  1.00  0.00     0.000 C 
BRANCH   4   5
ATOM      5  C   UNL     1      -1.546  20.520   6.225  1.00  0.00     0.000 C 
BRANCH   5   6
ATOM      6  C   UNL     1      -1.961  21.262   4.938  1.00  0.00     0.000 C 
BRANCH   6   7
ATOM      7  C   UNL     1      -3.139  20.627   4.177  1.00  0.00     0.000 C 
BRANCH   7   8
ATOM      8  C   UNL     1      -3.771  19.450   4.934  1.00  0.00     0.000 C 
BRANCH   8   9
ATOM      9  C   UNL     1      -4.001  18.256   4.001  1.00  0.00     0.000 C 
BRANCH   9  10
ATOM     10  C   UNL     1      -3.484  16.957   4.638  1.00  0.00     0.006 C 
BRANCH  10  11
ATOM     11  C   UNL     1      -3.003  17.167   6.080  1.00  0.00     0.053 C 
BRANCH  11  12
ATOM     12  C   UNL     1      -3.853  16.424   7.065  1.00  0.00     0.041 C 
ATOM     13  O   UNL     1      -3.327  15.614   7.874  1.00  0.00    -0.550 OA
ATOM     14  O   UNL     1      -5.230  16.614   7.077  1.00  0.00    -0.550 OA
ENDBRANCH  11  12
ENDBRANCH  10  11
ENDBRANCH   9  10
ENDBRANCH   8   9
ENDBRANCH   7   8
ENDBRANCH   6   7
ENDBRANCH   5   6
ENDBRANCH   4   5
ENDBRANCH   3   4
ENDBRANCH   2   3
ENDBRANCH   1   2
BRANCH   1  15
ATOM     15  C   UNL     1       3.757  18.610   6.489  1.00  0.00     0.000 C 
BRANCH  15  16
ATOM     16  C   UNL     1       4.674  19.069   7.636  1.00  0.00     0.000 C 
BRANCH  16  17
ATOM     17  C   UNL     1       5.542  20.277   7.244  1.00  0.00     0.000 C 
BRANCH  17  18
ATOM     18  C   UNL     1       5.272  21.504   8.133  1.00  0.00    -0.000 C 
BRANCH  18  19
ATOM     19  C   UNL     1       4.169  21.258   9.179  1.00  0.00    -0.000 C 
BRANCH  19  20
ATOM     20  C   UNL     1       2.918  22.145   9.036  1.00  0.00    -0.000 C 
BRANCH  20  21
ATOM     21  C   UNL     1       1.647  21.486   9.599  1.00  0.00    -0.000 C 
BRANCH  21  22
ATOM     22  C   UNL     1       1.863  20.019  10.014  1.00  0.00    -0.000 C 
BRANCH  22  23
ATOM     23  C   UNL     1       1.573  19.699  11.491  1.00  0.00    -0.000 C 
BRANCH  23  24
ATOM     24  C   UNL     1       2.461  18.573  12.049  1.00  0.00    -0.000 C 
BRANCH  24  25
ATOM     25  C   UNL     1       3.418  18.000  10.992  1.00  0.00    -0.003 C 
ATOM     26  C   UNL     1       4.890  18.181  11.362  1.00  0.00     0.004 C 
ENDBRANCH  24  25
ENDBRANCH  23  24
ENDBRANCH  22  23
ENDBRANCH  21  22
ENDBRANCH  20  21
ENDBRANCH  19  20
ENDBRANCH  18  19
ENDBRANCH  17  18
ENDBRANCH  16  17
ENDBRANCH  15  16
ENDBRANCH   1  15
TORSDOF 22
ENDMDL
MODEL 4
REMARK VINA RESULT:    -2.637      1.968      3.073
REMARK INTER + INTRA:         -10.059
REMARK INTER:                  -6.614
REMARK INTRA:                  -3.445
REMARK UNBOUND:                -4.030
REMARK SMILES CCCCCCCCCCCCCCCCCCCCCCCC(=O)[O-]
REMARK SMILES IDX 13 1 14 2 15 3 16 4 17 5 18 6 19 7 20 8 21 9 22 10 23 11
REMARK SMILES IDX 24 12 25 13 26 14 12 15 11 16 10 17 9 18 8 19 7 20 6 21 5 22
REMARK SMILES IDX 4 23 3 24 2 25 1 26
REMARK H PARENT
REMARK Flexibility Score: inf
ROOT
ATOM      1  C   UNL     1       4.108  21.574   8.598  1.00  0.00     0.000 C 
ENDROOT
BRANCH   1   2
ATOM      2  C   UNL     1       2.677  22.049   8.910  1.00  0.00     0.000 C 
BRANCH   2   3
ATOM      3  C   UNL     1       1.906  21.067   9.809  1.00  0.00     0.000 C 
BRANCH   3   4
ATOM      4  C   UNL     1       2.344  19.604   9.612  1.00  0.00     0.000 C 
BRANCH   4   5
ATOM      5  C   UNL     1       2.685  18.838  10.907  1.00  0.00     0.000 C 
BRANCH   5   6
ATOM      6  C   UNL     1       3.779  17.760  10.764  1.00  0.00     0.000 C 
BRANCH   6   7
ATOM      7  C   UNL     1       4.953  18.147   9.846  1.00  0.00     0.000 C 
BRANCH   7   8
ATOM      8  C   UNL     1       5.305  17.046   8.835  1.00  0.00     0.000 C 
BRANCH   8   9
ATOM      9  C   UNL     1       4.082  16.658   7.997  1.00  0.00     0.000 C 
BRANCH   9  10
ATOM     10  C   UNL     1       4.025  15.137   7.783  1.00  0.00     0.006 C 
BRANCH  10  11
ATOM     11  C   UNL     1       5.396  14.550   7.420  1.00  0.00     0.053 C 
BRANCH  11  12
ATOM     12  C   UNL     1       5.690  13.303   8.198  1.00  0.00     0.041 C 
ATOM     13  O   UNL     1       5.497  13.271   9.443  1.00  0.00    -0.550 OA
ATOM     14  O   UNL     1       6.193  12.181   7.550  1.00  0.00    -0.550 OA
ENDBRANCH  11  12
ENDBRANCH  10  11
ENDBRANCH   9  10
ENDBRANCH   8   9
ENDBRANCH   7   8
ENDBRANCH   6   7
ENDBRANCH   5   6
ENDBRANCH   4   5
ENDBRANCH   3   4
ENDBRANCH   2   3
ENDBRANCH   1   2
BRANCH   1  15
ATOM     15  C   UNL     1       4.447  21.455   7.101  1.00  0.00     0.000 C 
BRANCH  15  16
ATOM     16  C   UNL     1       4.422  20.001   6.597  1.00  0.00     0.000 C 
BRANCH  16  17
ATOM     17  C   UNL     1       3.061  19.614   5.994  1.00  0.00     0.000 C 
BRANCH  17  18
ATOM     18  C   UNL     1       2.536  20.672   5.009  1.00  0.00    -0.000 C 
BRANCH  18  19
ATOM     19  C   UNL     1       1.151  21.222   5.397  1.00  0.00    -0.000 C 
BRANCH  19  20
ATOM     20  C   UNL     1       0.373  20.378   6.424  1.00  0.00    -0.000 C 
BRANCH  20  21
ATOM     21  C   UNL     1      -0.689  21.189   7.187  1.00  0.00    -0.000 C 
BRANCH  21  22
ATOM     22  C   UNL     1      -2.120  20.667   6.964  1.00  0.00    -0.000 C 
BRANCH  22  23
ATOM     23  C   UNL     1      -2.441  20.204   5.531  1.00  0.00    -0.000 C 
BRANCH  23  24
ATOM     24  C   UNL     1      -3.679  19.294   5.455  1.00  0.00    -0.000 C 
BRANCH  24  25
ATOM     25  C   UNL     1      -3.636  18.153   6.483  1.00  0.00    -0.003 C 
ATOM     26  C   UNL     1      -2.919  16.909   5.962  1.00  0.00     0.004 C 
ENDBRANCH  24  25
ENDBRANCH  23  24
ENDBRANCH  22  23
ENDBRANCH  21  22
ENDBRANCH  20  21
ENDBRANCH  19  20
ENDBRANCH  18  19
ENDBRANCH  17  18
ENDBRANCH  16  17
ENDBRANCH  15  16
ENDBRANCH   1  15
TORSDOF 22
ENDMDL
MODEL 5
REMARK VINA RESULT:    -2.624      1.362      3.819
REMARK INTER + INTRA:         -10.029
REMARK INTER:                  -6.061
REMARK INTRA:                  -3.968
REMARK UNBOUND:                -4.030
REMARK SMILES CCCCCCCCCCCCCCCCCCCCCCCC(=O)[O-]
REMARK SMILES IDX 13 1 14 2 15 3 16 4 17 5 18 6 19 7 20 8 21 9 22 10 23 11
REMARK SMILES IDX 24 12 25 13 26 14 12 15 11 16 10 17 9 18 8 19 7 20 6 21 5 22
REMARK SMILES IDX 4 23 3 24 2 25 1 26
REMARK H PARENT
REMARK Flexibility Score: inf
ROOT
ATOM      1  C   UNL     1       1.582  20.403  10.014  1.00  0.00     0.000 C 
ENDROOT
BRANCH   1   2
ATOM      2  C   UNL     1       2.624  19.287  10.205  1.00  0.00     0.000 C 
BRANCH   2   3
ATOM      3  C   UNL     1       2.481  18.562  11.555  1.00  0.00     0.000 C 
BRANCH   3   4
ATOM      4  C   UNL     1       3.838  18.245  12.210  1.00  0.00     0.000 C 
BRANCH   4   5
ATOM      5  C   UNL     1       5.076  18.524  11.332  1.00  0.00     0.000 C 
BRANCH   5   6
ATOM      6  C   UNL     1       5.772  17.272  10.761  1.00  0.00     0.000 C 
BRANCH   6   7
ATOM      7  C   UNL     1       5.121  15.934  11.153  1.00  0.00     0.000 C 
BRANCH   7   8
ATOM      8  C   UNL     1       4.802  15.050   9.939  1.00  0.00     0.000 C 
BRANCH   8   9
ATOM      9  C   UNL     1       4.676  15.891   8.663  1.00  0.00     0.000 C 
BRANCH   9  10
ATOM     10  C   UNL     1       3.813  15.172   7.616  1.00  0.00     0.006 C 
BRANCH  10  11
ATOM     11  C   UNL     1       4.653  14.316   6.659  1.00  0.00     0.053 C 
BRANCH  11  12
ATOM     12  C   UNL     1       4.274  12.868   6.729  1.00  0.00     0.041 C 
ATOM     13  O   UNL     1       4.732  12.136   7.647  1.00  0.00    -0.550 OA
ATOM     14  O   UNL     1       3.428  12.323   5.771  1.00  0.00    -0.550 OA
ENDBRANCH  11  12
ENDBRANCH  10  11
ENDBRANCH   9  10
ENDBRANCH   8   9
ENDBRANCH   7   8
ENDBRANCH   6   7
ENDBRANCH   5   6
ENDBRANCH   4   5
ENDBRANCH   3   4
ENDBRANCH   2   3
ENDBRANCH   1   2
BRANCH   1  15
ATOM     15  C   UNL     1       2.123  21.708   9.402  1.00  0.00     0.000 C 
BRANCH  15  16
ATOM     16  C   UNL     1       1.584  21.972   7.984  1.00  0.00     0.000 C 
BRANCH  16  17
ATOM     17  C   UNL     1       0.451  21.006   7.600  1.00  0.00     0.000 C 
BRANCH  17  18
ATOM     18  C   UNL     1       0.711  20.306   6.254  1.00  0.00    -0.000 C 
BRANCH  18  19
ATOM     19  C   UNL     1       2.210  20.140   5.942  1.00  0.00    -0.000 C 
BRANCH  19  20
ATOM     20  C   UNL     1       2.890  18.929   6.608  1.00  0.00    -0.000 C 
BRANCH  20  21
ATOM     21  C   UNL     1       4.401  18.859   6.327  1.00  0.00    -0.000 C 
BRANCH  21  22
ATOM     22  C   UNL     1       5.258  19.256   7.544  1.00  0.00    -0.000 C 
BRANCH  22  23
ATOM     23  C   UNL     1       5.126  20.721   7.997  1.00  0.00    -0.000 C 
BRANCH  23  24
ATOM     24  C   UNL     1       6.255  21.162   8.944  1.00  0.00    -0.000 C 
BRANCH  24  25
ATOM     25  C   UNL     1       5.724  21.811  10.232  1.00  0.00    -0.003 C 
ATOM     26  C   UNL     1       6.824  22.086  11.257  1.00  0.00     0.004 C 
ENDBRANCH  24  25
ENDBRANCH  23  24
ENDBRANCH  22  23
ENDBRANCH  21  22
ENDBRANCH  20  21
ENDBRANCH  19  20
ENDBRANCH  18  19
ENDBRANCH  17  18
ENDBRANCH  16  17
ENDBRANCH  15  16
ENDBRANCH   1  15
TORSDOF 22
ENDMDL
MODEL 6
REMARK VINA RESULT:    -2.624      1.994      2.940
REMARK INTER + INTRA:         -10.028
REMARK INTER:                  -7.484
REMARK INTRA:                  -2.544
REMARK UNBOUND:                -4.030
REMARK SMILES CCCCCCCCCCCCCCCCCCCCCCCC(=O)[O-]
REMARK SMILES IDX 13 1 14 2 15 3 16 4 17 5 18 6 19 7 20 8 21 9 22 10 23 11
REMARK SMILES IDX 24 12 25 13 26 14 12 15 11 16 10 17 9 18 8 19 7 20 6 21 5 22
REMARK SMILES IDX 4 23 3 24 2 25 1 26
REMARK H PARENT
REMARK Flexibility Score: inf
ROOT
ATOM      1  C   UNL     1       3.502  20.230   9.924  1.00  0.00     0.000 C 
ENDROOT
BRANCH   1   2
ATOM      2  C   UNL     1       2.045  19.763  10.100  1.00  0.00     0.000 C 
BRANCH   2   3
ATOM      3  C   UNL     1       1.700  19.421  11.559  1.00  0.00     0.000 C 
BRANCH   3   4
ATOM      4  C   UNL     1       2.938  19.048  12.396  1.00  0.00     0.000 C 
BRANCH   4   5
ATOM      5  C   UNL     1       2.833  17.720  13.172  1.00  0.00     0.000 C 
BRANCH   5   6
ATOM      6  C   UNL     1       3.811  16.615  12.721  1.00  0.00     0.000 C 
BRANCH   6   7
ATOM      7  C   UNL     1       4.725  17.002  11.544  1.00  0.00     0.000 C 
BRANCH   7   8
ATOM      8  C   UNL     1       4.266  16.395  10.211  1.00  0.00     0.000 C 
BRANCH   8   9
ATOM      9  C   UNL     1       5.445  16.236   9.244  1.00  0.00     0.000 C 
BRANCH   9  10
ATOM     10  C   UNL     1       5.305  14.948   8.417  1.00  0.00     0.006 C 
BRANCH  10  11
ATOM     11  C   UNL     1       4.081  14.981   7.492  1.00  0.00     0.053 C 
BRANCH  11  12
ATOM     12  C   UNL     1       4.171  13.944   6.414  1.00  0.00     0.041 C 
ATOM     13  O   UNL     1       3.668  12.802   6.589  1.00  0.00    -0.550 OA
ATOM     14  O   UNL     1       4.825  14.234   5.223  1.00  0.00    -0.550 OA
ENDBRANCH  11  12
ENDBRANCH  10  11
ENDBRANCH   9  10
ENDBRANCH   8   9
ENDBRANCH   7   8
ENDBRANCH   6   7
ENDBRANCH   5   6
ENDBRANCH   4   5
ENDBRANCH   3   4
ENDBRANCH   2   3
ENDBRANCH   1   2
BRANCH   1  15
ATOM     15  C   UNL     1       4.196  19.744   8.639  1.00  0.00     0.000 C 
BRANCH  15  16
ATOM     16  C   UNL     1       3.260  18.934   7.723  1.00  0.00     0.000 C 
BRANCH  16  17
ATOM     17  C   UNL     1       3.519  19.208   6.232  1.00  0.00     0.000 C 
BRANCH  17  18
ATOM     18  C   UNL     1       2.486  20.173   5.627  1.00  0.00    -0.000 C 
BRANCH  18  19
ATOM     19  C   UNL     1       1.260  20.390   6.534  1.00  0.00    -0.000 C 
BRANCH  19  20
ATOM     20  C   UNL     1       0.032  21.010   5.842  1.00  0.00    -0.000 C 
BRANCH  20  21
ATOM     21  C   UNL     1      -1.301  20.478   6.396  1.00  0.00    -0.000 C 
BRANCH  21  22
ATOM     22  C   UNL     1      -2.468  20.625   5.402  1.00  0.00    -0.000 C 
BRANCH  22  23
ATOM     23  C   UNL     1      -3.318  19.360   5.187  1.00  0.00    -0.000 C 
BRANCH  23  24
ATOM     24  C   UNL     1      -3.160  18.330   6.318  1.00  0.00    -0.000 C 
BRANCH  24  25
ATOM     25  C   UNL     1      -3.044  16.890   5.792  1.00  0.00    -0.003 C 
ATOM     26  C   UNL     1      -4.057  15.941   6.429  1.00  0.00     0.004 C 
ENDBRANCH  24  25
ENDBRANCH  23  24
ENDBRANCH  22  23
ENDBRANCH  21  22
ENDBRANCH  20  21
ENDBRANCH  19  20
ENDBRANCH  18  19
ENDBRANCH  17  18
ENDBRANCH  16  17
ENDBRANCH  15  16
ENDBRANCH   1  15
TORSDOF 22
ENDMDL
MODEL 7
REMARK VINA RESULT:    -2.595      1.877      3.417
REMARK INTER + INTRA:          -9.962
REMARK INTER:                  -5.304
REMARK INTRA:                  -4.658
REMARK UNBOUND:                -4.030
REMARK SMILES CCCCCCCCCCCCCCCCCCCCCCCC(=O)[O-]
REMARK SMILES IDX 13 1 14 2 15 3 16 4 17 5 18 6 19 7 20 8 21 9 22 10 23 11
REMARK SMILES IDX 24 12 25 13 26 14 12 15 11 16 10 17 9 18 8 19 7 20 6 21 5 22
REMARK SMILES IDX 4 23 3 24 2 25 1 26
REMARK H PARENT
REMARK Flexibility Score: inf
ROOT
ATOM      1  C   UNL     1       1.539  20.596   6.614  1.00  0.00     0.000 C 
ENDROOT
BRANCH   1   2
ATOM      2  C   UNL     1       1.777  21.240   7.992  1.00  0.00     0.000 C 
BRANCH   2   3
ATOM      3  C   UNL     1       0.508  21.274   8.862  1.00  0.00     0.000 C 
BRANCH   3   4
ATOM      4  C   UNL     1       0.754  20.777  10.298  1.00  0.00     0.000 C 
BRANCH   4   5
ATOM      5  C   UNL     1       2.210  20.379  10.618  1.00  0.00     0.000 C 
BRANCH   5   6
ATOM      6  C   UNL     1       2.372  19.293  11.701  1.00  0.00     0.000 C 
BRANCH   6   7
ATOM      7  C   UNL     1       3.179  18.057  11.262  1.00  0.00     0.000 C 
BRANCH   7   8
ATOM      8  C   UNL     1       4.638  18.391  10.922  1.00  0.00     0.000 C 
BRANCH   8   9
ATOM      9  C   UNL     1       5.369  17.163  10.367  1.00  0.00     0.000 C 
BRANCH   9  10
ATOM     10  C   UNL     1       4.408  15.972  10.225  1.00  0.00     0.006 C 
BRANCH  10  11
ATOM     11  C   UNL     1       4.462  15.345   8.826  1.00  0.00     0.053 C 
BRANCH  11  12
ATOM     12  C   UNL     1       5.807  14.752   8.534  1.00  0.00     0.041 C 
ATOM     13  O   UNL     1       6.217  13.757   9.190  1.00  0.00    -0.550 OA
ATOM     14  O   UNL     1       6.614  15.308   7.548  1.00  0.00    -0.550 OA
ENDBRANCH  11  12
ENDBRANCH  10  11
ENDBRANCH   9  10
ENDBRANCH   8   9
ENDBRANCH   7   8
ENDBRANCH   6   7
ENDBRANCH   5   6
ENDBRANCH   4   5
ENDBRANCH   3   4
ENDBRANCH   2   3
ENDBRANCH   1   2
BRANCH   1  15
ATOM     15  C   UNL     1       2.383  19.342   6.322  1.00  0.00     0.000 C 
BRANCH  15  16
ATOM     16  C   UNL     1       3.269  18.927   7.510  1.00  0.00     0.000 C 
BRANCH  16  17
ATOM     17  C   UNL     1       4.680  18.503   7.068  1.00  0.00     0.000 C 
BRANCH  17  18
ATOM     18  C   UNL     1       4.657  17.617   5.810  1.00  0.00    -0.000 C 
BRANCH  18  19
ATOM     19  C   UNL     1       5.848  17.876   4.870  1.00  0.00    -0.000 C 
BRANCH  19  20
ATOM     20  C   UNL     1       6.112  19.356   4.534  1.00  0.00    -0.000 C 
BRANCH  20  21
ATOM     21  C   UNL     1       4.977  19.997   3.717  1.00  0.00    -0.000 C 
BRANCH  21  22
ATOM     22  C   UNL     1       4.485  21.330   4.312  1.00  0.00    -0.000 C 
BRANCH  22  23
ATOM     23  C   UNL     1       5.500  22.072   5.201  1.00  0.00    -0.000 C 
BRANCH  23  24
ATOM     24  C   UNL     1       4.984  22.314   6.630  1.00  0.00    -0.000 C 
BRANCH  24  25
ATOM     25  C   UNL     1       6.013  21.926   7.703  1.00  0.00    -0.003 C 
ATOM     26  C   UNL     1       5.373  21.591   9.049  1.00  0.00     0.004 C 
ENDBRANCH  24  25
ENDBRANCH  23  24
ENDBRANCH  22  23
ENDBRANCH  21  22
ENDBRANCH  20  21
ENDBRANCH  19  20
ENDBRANCH  18  19
ENDBRANCH  17  18
ENDBRANCH  16  17
ENDBRANCH  15  16
ENDBRANCH   1  15
TORSDOF 22
ENDMDL
MODEL 8
REMARK VINA RESULT:    -2.592      1.531      5.639
REMARK INTER + INTRA:          -9.955
REMARK INTER:                  -6.132
REMARK INTRA:                  -3.823
REMARK UNBOUND:                -4.030
REMARK SMILES CCCCCCCCCCCCCCCCCCCCCCCC(=O)[O-]
REMARK SMILES IDX 13 1 14 2 15 3 16 4 17 5 18 6 19 7 20 8 21 9 22 10 23 11
REMARK SMILES IDX 24 12 25 13 26 14 12 15 11 16 10 17 9 18 8 19 7 20 6 21 5 22
REMARK SMILES IDX 4 23 3 24 2 25 1 26
REMARK H PARENT
REMARK Flexibility Score: inf
ROOT
ATOM      1  C   UNL     1       0.970  20.975   8.990  1.00  0.00     0.000 C 
ENDROOT
BRANCH   1   2
ATOM      2  C   UNL     1       0.392  21.352   7.614  1.00  0.00     0.000 C 
BRANCH   2   3
ATOM      3  C   UNL     1       0.683  20.296   6.534  1.00  0.00     0.000 C 
BRANCH   3   4
ATOM      4  C   UNL     1       1.569  20.833   5.395  1.00  0.00     0.000 C 
BRANCH   4   5
ATOM      5  C   UNL     1       3.038  20.363   5.424  1.00  0.00     0.000 C 
BRANCH   5   6
ATOM      6  C   UNL     1       3.302  19.083   6.243  1.00  0.00     0.000 C 
BRANCH   6   7
ATOM      7  C   UNL     1       4.552  19.136   7.140  1.00  0.00     0.000 C 
BRANCH   7   8
ATOM      8  C   UNL     1       5.547  18.005   6.841  1.00  0.00     0.000 C 
BRANCH   8   9
ATOM      9  C   UNL     1       5.262  17.368   5.476  1.00  0.00     0.000 C 
BRANCH   9  10
ATOM     10  C   UNL     1       5.083  15.848   5.607  1.00  0.00     0.006 C 
BRANCH  10  11
ATOM     11  C   UNL     1       4.515  15.445   6.975  1.00  0.00     0.053 C 
BRANCH  11  12
ATOM     12  C   UNL     1       4.440  13.957   7.129  1.00  0.00     0.041 C 
ATOM     13  O   UNL     1       3.636  13.286   6.428  1.00  0.00    -0.550 OA
ATOM     14  O   UNL     1       5.246  13.312   8.060  1.00  0.00    -0.550 OA
ENDBRANCH  11  12
ENDBRANCH  10  11
ENDBRANCH   9  10
ENDBRANCH   8   9
ENDBRANCH   7   8
ENDBRANCH   6   7
ENDBRANCH   5   6
ENDBRANCH   4   5
ENDBRANCH   3   4
ENDBRANCH   2   3
ENDBRANCH   1   2
BRANCH   1  15
ATOM     15  C   UNL     1       2.451  21.338   9.202  1.00  0.00     0.000 C 
BRANCH  15  16
ATOM     16  C   UNL     1       3.108  20.532  10.336  1.00  0.00     0.000 C 
BRANCH  16  17
ATOM     17  C   UNL     1       2.359  19.221  10.631  1.00  0.00     0.000 C 
BRANCH  17  18
ATOM     18  C   UNL     1       3.273  18.154  11.257  1.00  0.00    -0.000 C 
BRANCH  18  19
ATOM     19  C   UNL     1       4.073  17.357  10.210  1.00  0.00    -0.000 C 
BRANCH  19  20
ATOM     20  C   UNL     1       4.476  15.932  10.636  1.00  0.00    -0.000 C 
BRANCH  20  21
ATOM     21  C   UNL     1       5.487  15.916  11.795  1.00  0.00    -0.000 C 
BRANCH  21  22
ATOM     22  C   UNL     1       6.867  16.474  11.399  1.00  0.00    -0.000 C 
BRANCH  22  23
ATOM     23  C   UNL     1       7.398  17.615  12.286  1.00  0.00    -0.000 C 
BRANCH  23  24
ATOM     24  C   UNL     1       6.970  19.008  11.795  1.00  0.00    -0.000 C 
BRANCH  24  25
ATOM     25  C   UNL     1       7.260  19.222  10.301  1.00  0.00    -0.003 C 
ATOM     26  C   UNL     1       6.721  20.551   9.774  1.00  0.00     0.004 C 
ENDBRANCH  24  25
ENDBRANCH  23  24
ENDBRANCH  22  23
ENDBRANCH  21  22
ENDBRANCH  20  21
ENDBRANCH  19  20
ENDBRANCH  18  19
ENDBRANCH  17  18
ENDBRANCH  16  17
ENDBRANCH  15  16
ENDBRANCH   1  15
TORSDOF 22
ENDMDL
MODEL 9
REMARK VINA RESULT:    -2.564      2.076      4.749
REMARK INTER + INTRA:          -9.892
REMARK INTER:                  -6.123
REMARK INTRA:                  -3.769
REMARK UNBOUND:                -4.030
REMARK SMILES CCCCCCCCCCCCCCCCCCCCCCCC(=O)[O-]
REMARK SMILES IDX 13 1 14 2 15 3 16 4 17 5 18 6 19 7 20 8 21 9 22 10 23 11
REMARK SMILES IDX 24 12 25 13 26 14 12 15 11 16 10 17 9 18 8 19 7 20 6 21 5 22
REMARK SMILES IDX 4 23 3 24 2 25 1 26
REMARK H PARENT
REMARK Flexibility Score: inf
ROOT
ATOM      1  C   UNL     1       2.720  19.001  10.416  1.00  0.00     0.000 C 
ENDROOT
BRANCH   1   2
ATOM      2  C   UNL     1       3.606  17.989  11.165  1.00  0.00     0.000 C 
BRANCH   2   3
ATOM      3  C   UNL     1       4.879  17.619  10.385  1.00  0.00     0.000 C 
BRANCH   3   4
ATOM      4  C   UNL     1       4.801  16.222   9.741  1.00  0.00     0.000 C 
BRANCH   4   5
ATOM      5  C   UNL     1       3.961  16.137   8.451  1.00  0.00     0.000 C 
BRANCH   5   6
ATOM      6  C   UNL     1       4.559  16.860   7.227  1.00  0.00     0.000 C 
BRANCH   6   7
ATOM      7  C   UNL     1       6.056  16.594   6.986  1.00  0.00     0.000 C 
BRANCH   7   8
ATOM      8  C   UNL     1       6.326  15.891   5.648  1.00  0.00     0.000 C 
BRANCH   8   9
ATOM      9  C   UNL     1       5.020  15.416   5.002  1.00  0.00     0.000 C 
BRANCH   9  10
ATOM     10  C   UNL     1       4.945  13.882   4.981  1.00  0.00     0.006 C 
BRANCH  10  11
ATOM     11  C   UNL     1       4.768  13.289   6.385  1.00  0.00     0.053 C 
BRANCH  11  12
ATOM     12  C   UNL     1       3.988  12.009   6.354  1.00  0.00     0.041 C 
ATOM     13  O   UNL     1       3.131  11.810   5.452  1.00  0.00    -0.550 OA
ATOM     14  O   UNL     1       4.197  11.044   7.331  1.00  0.00    -0.550 OA
ENDBRANCH  11  12
ENDBRANCH  10  11
ENDBRANCH   9  10
ENDBRANCH   8   9
ENDBRANCH   7   8
ENDBRANCH   6   7
ENDBRANCH   5   6
ENDBRANCH   4   5
ENDBRANCH   3   4
ENDBRANCH   2   3
ENDBRANCH   1   2
BRANCH   1  15
ATOM     15  C   UNL     1       3.402  19.729   9.243  1.00  0.00     0.000 C 
BRANCH  15  16
ATOM     16  C   UNL     1       2.402  20.465   8.334  1.00  0.00     0.000 C 
BRANCH  16  17
ATOM     17  C   UNL     1       2.185  19.739   6.995  1.00  0.00     0.000 C 
BRANCH  17  18
ATOM     18  C   UNL     1       1.175  20.468   6.093  1.00  0.00    -0.000 C 
BRANCH  18  19
ATOM     19  C   UNL     1       1.830  21.126   4.864  1.00  0.00    -0.000 C 
BRANCH  19  20
ATOM     20  C   UNL     1       2.800  22.281   5.176  1.00  0.00    -0.000 C 
BRANCH  20  21
ATOM     21  C   UNL     1       4.239  21.999   4.710  1.00  0.00    -0.000 C 
BRANCH  21  22
ATOM     22  C   UNL     1       5.167  21.557   5.856  1.00  0.00    -0.000 C 
BRANCH  22  23
ATOM     23  C   UNL     1       5.695  20.114   5.760  1.00  0.00    -0.000 C 
BRANCH  23  24
ATOM     24  C   UNL     1       5.072  19.321   4.598  1.00  0.00    -0.000 C 
BRANCH  24  25
ATOM     25  C   UNL     1       6.094  18.980   3.502  1.00  0.00    -0.003 C 
ATOM     26  C   UNL     1       5.515  19.091   2.093  1.00  0.00     0.004 C 
ENDBRANCH  24  25
ENDBRANCH  23  24
ENDBRANCH  22  23
ENDBRANCH  21  22
ENDBRANCH  20  21
ENDBRANCH  19  20
ENDBRANCH  18  19
ENDBRANCH  17  18
ENDBRANCH  16  17
ENDBRANCH  15  16
ENDBRANCH   1  15
TORSDOF 22
ENDMDL
