MODEL 1
REMARK VINA RESULT:    -4.629      0.000      0.000
REMARK INTER + INTRA:          -5.734
REMARK INTER:                  -5.440
REMARK INTRA:                  -0.293
REMARK UNBOUND:                -0.293
REMARK SMILES O=c1cc(-c2ccc(O)c(O)c2)oc2cc(O)cc(O)c12
REMARK SMILES IDX 4 1 3 2 2 3 1 4 21 5 19 6 18 7 16 8 15 9 14 10 13 11 5 12
REMARK SMILES IDX 6 13 7 14 8 15 12 16 10 17 9 18 11 20 20 22 17 24
REMARK H PARENT 9 19 11 21 20 23 17 25
REMARK Flexibility Score: inf
ROOT
ATOM      1  C   UNL     1      51.411  21.016 129.777  1.00  0.00     0.138 A 
ATOM      2  C   UNL     1      50.700  20.001 129.116  1.00  0.00     0.100 A 
ATOM      3  C   UNL     1      49.356  19.789 129.429  1.00  0.00     0.197 A 
ATOM      4  O   UNL     1      48.726  18.876 128.830  1.00  0.00    -0.289 OA
ATOM      5  C   UNL     1      48.731  20.598 130.399  1.00  0.00     0.107 A 
ATOM      6  C   UNL     1      47.376  20.449 130.775  1.00  0.00     0.134 A 
ATOM      7  C   UNL     1      46.826  21.299 131.746  1.00  0.00     0.093 A 
ATOM      8  C   UNL     1      47.607  22.295 132.345  1.00  0.00     0.123 A 
ATOM      9  C   UNL     1      48.945  22.445 131.977  1.00  0.00     0.094 A 
ATOM     10  C   UNL     1      49.511  21.607 131.012  1.00  0.00     0.146 A 
ATOM     11  O   UNL     1      50.788  21.770 130.680  1.00  0.00    -0.456 OA
ENDROOT
BRANCH   1  12
ATOM     12  C   UNL     1      52.840  21.288 129.484  1.00  0.00     0.021 A 
ATOM     13  C   UNL     1      53.396  22.528 129.843  1.00  0.00     0.016 A 
ATOM     14  C   UNL     1      54.741  22.806 129.586  1.00  0.00     0.051 A 
ATOM     15  C   UNL     1      55.557  21.846 128.975  1.00  0.00     0.157 A 
ATOM     16  C   UNL     1      53.670  20.322 128.881  1.00  0.00     0.062 A 
ATOM     17  C   UNL     1      55.019  20.598 128.625  1.00  0.00     0.158 A 
BRANCH  15  18
ATOM     18  O   UNL     1      56.898  22.127 128.717  1.00  0.00    -0.504 OA
ATOM     19  H   UNL     1      57.410  22.812 129.261  1.00  0.00     0.293 HD
ENDBRANCH  15  18
BRANCH  17  20
ATOM     20  O   UNL     1      55.807  19.616 128.025  1.00  0.00    -0.504 OA
ATOM     21  H   UNL     1      56.738  19.395 128.359  1.00  0.00     0.293 HD
ENDBRANCH  17  20
ENDBRANCH   1  12
BRANCH   6  22
ATOM     22  O   UNL     1      46.573  19.467 130.194  1.00  0.00    -0.507 OA
ATOM     23  H   UNL     1      46.166  19.586 129.273  1.00  0.00     0.293 HD
ENDBRANCH   6  22
BRANCH   8  24
ATOM     24  O   UNL     1      47.061  23.140 133.310  1.00  0.00    -0.508 OA
ATOM     25  H   UNL     1      46.263  23.729 133.107  1.00  0.00     0.293 HD
ENDBRANCH   8  24
TORSDOF 5
ENDMDL
MODEL 2
REMARK VINA RESULT:    -4.625     11.858     14.098
REMARK INTER + INTRA:          -5.730
REMARK INTER:                  -5.411
REMARK INTRA:                  -0.318
REMARK UNBOUND:                -0.293
REMARK SMILES O=c1cc(-c2ccc(O)c(O)c2)oc2cc(O)cc(O)c12
REMARK SMILES IDX 4 1 3 2 2 3 1 4 21 5 19 6 18 7 16 8 15 9 14 10 13 11 5 12
REMARK SMILES IDX 6 13 7 14 8 15 12 16 10 17 9 18 11 20 20 22 17 24
REMARK H PARENT 9 19 11 21 20 23 17 25
REMARK Flexibility Score: inf
ROOT
ATOM      1  C   UNL     1      62.665  28.915 129.178  1.00  0.00     0.138 A 
ATOM      2  C   UNL     1      63.178  30.208 128.987  1.00  0.00     0.100 A 
ATOM      3  C   UNL     1      62.302  31.266 128.739  1.00  0.00     0.197 A 
ATOM      4  O   UNL     1      62.773  32.424 128.569  1.00  0.00    -0.289 OA
ATOM      5  C   UNL     1      60.915  31.023 128.688  1.00  0.00     0.107 A 
ATOM      6  C   UNL     1      59.959  32.036 128.442  1.00  0.00     0.134 A 
ATOM      7  C   UNL     1      58.595  31.714 128.413  1.00  0.00     0.093 A 
ATOM      8  C   UNL     1      58.170  30.397 128.627  1.00  0.00     0.123 A 
ATOM      9  C   UNL     1      59.110  29.394 128.870  1.00  0.00     0.094 A 
ATOM     10  C   UNL     1      60.474  29.695 128.902  1.00  0.00     0.146 A 
ATOM     11  O   UNL     1      61.348  28.721 129.135  1.00  0.00    -0.456 OA
ENDROOT
BRANCH   1  12
ATOM     12  C   UNL     1      63.549  27.754 129.446  1.00  0.00     0.021 A 
ATOM     13  C   UNL     1      64.940  27.943 129.510  1.00  0.00     0.016 A 
ATOM     14  C   UNL     1      65.793  26.868 129.770  1.00  0.00     0.051 A 
ATOM     15  C   UNL     1      65.271  25.586 129.980  1.00  0.00     0.157 A 
ATOM     16  C   UNL     1      63.029  26.463 129.672  1.00  0.00     0.062 A 
ATOM     17  C   UNL     1      63.882  25.385 129.935  1.00  0.00     0.158 A 
BRANCH  15  18
ATOM     18  O   UNL     1      66.125  24.515 130.237  1.00  0.00    -0.504 OA
ATOM     19  H   UNL     1      66.879  24.273 129.604  1.00  0.00     0.293 HD
ENDBRANCH  15  18
BRANCH  17  20
ATOM     20  O   UNL     1      63.330  24.123 130.151  1.00  0.00    -0.504 OA
ATOM     21  H   UNL     1      63.479  23.610 131.012  1.00  0.00     0.293 HD
ENDBRANCH  17  20
ENDBRANCH   1  12
BRANCH   6  22
ATOM     22  O   UNL     1      60.354  33.358 128.227  1.00  0.00    -0.507 OA
ATOM     23  H   UNL     1      59.846  33.970 127.598  1.00  0.00     0.293 HD
ENDBRANCH   6  22
BRANCH   8  24
ATOM     24  O   UNL     1      56.814  30.075 128.598  1.00  0.00    -0.508 OA
ATOM     25  H   UNL     1      56.478  29.171 128.908  1.00  0.00     0.293 HD
ENDBRANCH   8  24
TORSDOF 5
ENDMDL
MODEL 3
REMARK VINA RESULT:    -4.592      7.682     10.867
REMARK INTER + INTRA:          -5.690
REMARK INTER:                  -5.395
REMARK INTRA:                  -0.296
REMARK UNBOUND:                -0.293
REMARK SMILES O=c1cc(-c2ccc(O)c(O)c2)oc2cc(O)cc(O)c12
REMARK SMILES IDX 4 1 3 2 2 3 1 4 21 5 19 6 18 7 16 8 15 9 14 10 13 11 5 12
REMARK SMILES IDX 6 13 7 14 8 15 12 16 10 17 9 18 11 20 20 22 17 24
REMARK H PARENT 9 19 11 21 20 23 17 25
REMARK Flexibility Score: inf
ROOT
ATOM      1  C   UNL     1      57.773  29.240 128.546  1.00  0.00     0.138 A 
ATOM      2  C   UNL     1      56.533  29.777 128.925  1.00  0.00     0.100 A 
ATOM      3  C   UNL     1      55.421  28.938 129.021  1.00  0.00     0.197 A 
ATOM      4  O   UNL     1      54.311  29.430 129.363  1.00  0.00    -0.289 OA
ATOM      5  C   UNL     1      55.560  27.564 128.740  1.00  0.00     0.107 A 
ATOM      6  C   UNL     1      54.487  26.646 128.812  1.00  0.00     0.134 A 
ATOM      7  C   UNL     1      54.710  25.292 128.523  1.00  0.00     0.093 A 
ATOM      8  C   UNL     1      55.986  24.840 128.164  1.00  0.00     0.123 A 
ATOM      9  C   UNL     1      57.047  25.743 128.091  1.00  0.00     0.094 A 
ATOM     10  C   UNL     1      56.846  27.097 128.376  1.00  0.00     0.146 A 
ATOM     11  O   UNL     1      57.874  27.936 128.298  1.00  0.00    -0.456 OA
ENDROOT
BRANCH   1  12
ATOM     12  C   UNL     1      58.989  30.084 128.429  1.00  0.00     0.021 A 
ATOM     13  C   UNL     1      60.247  29.471 128.304  1.00  0.00     0.016 A 
ATOM     14  C   UNL     1      61.406  30.242 128.185  1.00  0.00     0.051 A 
ATOM     15  C   UNL     1      61.326  31.640 128.178  1.00  0.00     0.157 A 
ATOM     16  C   UNL     1      58.915  31.491 128.408  1.00  0.00     0.062 A 
ATOM     17  C   UNL     1      60.074  32.266 128.286  1.00  0.00     0.158 A 
BRANCH  15  18
ATOM     18  O   UNL     1      62.484  32.408 128.061  1.00  0.00    -0.504 OA
ATOM     19  H   UNL     1      62.921  32.576 127.162  1.00  0.00     0.293 HD
ENDBRANCH  15  18
BRANCH  17  20
ATOM     20  O   UNL     1      59.960  33.656 128.271  1.00  0.00    -0.504 OA
ATOM     21  H   UNL     1      59.736  34.186 129.105  1.00  0.00     0.293 HD
ENDBRANCH  17  20
ENDBRANCH   1  12
BRANCH   6  22
ATOM     22  O   UNL     1      53.205  27.067 129.168  1.00  0.00    -0.507 OA
ATOM     23  H   UNL     1      52.612  27.575 128.522  1.00  0.00     0.293 HD
ENDBRANCH   6  22
BRANCH   8  24
ATOM     24  O   UNL     1      56.207  23.494 127.876  1.00  0.00    -0.508 OA
ATOM     25  H   UNL     1      55.445  22.830 127.835  1.00  0.00     0.293 HD
ENDBRANCH   8  24
TORSDOF 5
ENDMDL
MODEL 4
REMARK VINA RESULT:    -4.572      1.721      6.976
REMARK INTER + INTRA:          -5.667
REMARK INTER:                  -5.350
REMARK INTRA:                  -0.318
REMARK UNBOUND:                -0.293
REMARK SMILES O=c1cc(-c2ccc(O)c(O)c2)oc2cc(O)cc(O)c12
REMARK SMILES IDX 4 1 3 2 2 3 1 4 21 5 19 6 18 7 16 8 15 9 14 10 13 11 5 12
REMARK SMILES IDX 6 13 7 14 8 15 12 16 10 17 9 18 11 20 20 22 17 24
REMARK H PARENT 9 19 11 21 20 23 17 25
REMARK Flexibility Score: inf
ROOT
ATOM      1  C   UNL     1      52.157  21.331 129.279  1.00  0.00     0.138 A 
ATOM      2  C   UNL     1      53.269  20.525 128.985  1.00  0.00     0.100 A 
ATOM      3  C   UNL     1      54.541  21.099 128.939  1.00  0.00     0.197 A 
ATOM      4  O   UNL     1      55.533  20.367 128.675  1.00  0.00    -0.289 OA
ATOM      5  C   UNL     1      54.691  22.477 129.191  1.00  0.00     0.107 A 
ATOM      6  C   UNL     1      55.941  23.139 129.162  1.00  0.00     0.134 A 
ATOM      7  C   UNL     1      56.007  24.514 129.430  1.00  0.00     0.093 A 
ATOM      8  C   UNL     1      54.846  25.238 129.727  1.00  0.00     0.123 A 
ATOM      9  C   UNL     1      53.610  24.590 129.755  1.00  0.00     0.094 A 
ATOM     10  C   UNL     1      53.523  23.220 129.491  1.00  0.00     0.146 A 
ATOM     11  O   UNL     1      52.334  22.627 129.523  1.00  0.00    -0.456 OA
ENDROOT
BRANCH   1  12
ATOM     12  C   UNL     1      50.782  20.774 129.344  1.00  0.00     0.021 A 
ATOM     13  C   UNL     1      50.563  19.430 128.996  1.00  0.00     0.016 A 
ATOM     14  C   UNL     1      49.281  18.880 129.056  1.00  0.00     0.051 A 
ATOM     15  C   UNL     1      48.196  19.659 129.475  1.00  0.00     0.157 A 
ATOM     16  C   UNL     1      49.689  21.549 129.778  1.00  0.00     0.062 A 
ATOM     17  C   UNL     1      48.403  20.999 129.842  1.00  0.00     0.158 A 
BRANCH  15  18
ATOM     18  O   UNL     1      46.917  19.108 129.533  1.00  0.00    -0.504 OA
ATOM     19  H   UNL     1      46.103  19.674 129.742  1.00  0.00     0.293 HD
ENDBRANCH  15  18
BRANCH  17  20
ATOM     20  O   UNL     1      47.346  21.799 130.275  1.00  0.00    -0.504 OA
ATOM     21  H   UNL     1      46.404  21.439 130.372  1.00  0.00     0.293 HD
ENDBRANCH  17  20
ENDBRANCH   1  12
BRANCH   6  22
ATOM     22  O   UNL     1      57.115  22.442 128.871  1.00  0.00    -0.507 OA
ATOM     23  H   UNL     1      57.154  21.748 128.134  1.00  0.00     0.293 HD
ENDBRANCH   6  22
BRANCH   8  24
ATOM     24  O   UNL     1      54.911  26.605 129.994  1.00  0.00    -0.508 OA
ATOM     25  H   UNL     1      55.116  26.954 130.922  1.00  0.00     0.293 HD
ENDBRANCH   8  24
TORSDOF 5
ENDMDL
MODEL 5
REMARK VINA RESULT:    -4.521     11.545     14.710
REMARK INTER + INTRA:          -5.607
REMARK INTER:                  -5.303
REMARK INTRA:                  -0.304
REMARK UNBOUND:                -0.293
REMARK SMILES O=c1cc(-c2ccc(O)c(O)c2)oc2cc(O)cc(O)c12
REMARK SMILES IDX 4 1 3 2 2 3 1 4 21 5 19 6 18 7 16 8 15 9 14 10 13 11 5 12
REMARK SMILES IDX 6 13 7 14 8 15 12 16 10 17 9 18 11 20 20 22 17 24
REMARK H PARENT 9 19 11 21 20 23 17 25
REMARK Flexibility Score: inf
ROOT
ATOM      1  C   UNL     1      46.762  31.536 138.115  1.00  0.00     0.138 A 
ATOM      2  C   UNL     1      47.122  30.736 137.018  1.00  0.00     0.100 A 
ATOM      3  C   UNL     1      47.241  29.354 137.185  1.00  0.00     0.197 A 
ATOM      4  O   UNL     1      47.564  28.645 136.194  1.00  0.00    -0.289 OA
ATOM      5  C   UNL     1      46.996  28.783 138.449  1.00  0.00     0.107 A 
ATOM      6  C   UNL     1      47.096  27.395 138.705  1.00  0.00     0.134 A 
ATOM      7  C   UNL     1      46.830  26.904 139.991  1.00  0.00     0.093 A 
ATOM      8  C   UNL     1      46.465  27.775 141.025  1.00  0.00     0.123 A 
ATOM      9  C   UNL     1      46.366  29.145 140.777  1.00  0.00     0.094 A 
ATOM     10  C   UNL     1      46.627  29.654 139.502  1.00  0.00     0.146 A 
ATOM     11  O   UNL     1      46.527  30.963 139.294  1.00  0.00    -0.456 OA
ENDROOT
BRANCH   1  12
ATOM     12  C   UNL     1      46.618  33.008 137.996  1.00  0.00     0.021 A 
ATOM     13  C   UNL     1      46.148  33.562 136.792  1.00  0.00     0.016 A 
ATOM     14  C   UNL     1      45.996  34.944 136.657  1.00  0.00     0.051 A 
ATOM     15  C   UNL     1      46.301  35.796 137.725  1.00  0.00     0.157 A 
ATOM     16  C   UNL     1      46.910  33.871 139.071  1.00  0.00     0.062 A 
ATOM     17  C   UNL     1      46.756  35.256 138.938  1.00  0.00     0.158 A 
BRANCH  15  18
ATOM     18  O   UNL     1      46.150  37.175 137.587  1.00  0.00    -0.504 OA
ATOM     19  H   UNL     1      46.756  37.827 138.071  1.00  0.00     0.293 HD
ENDBRANCH  15  18
BRANCH  17  20
ATOM     20  O   UNL     1      47.057  36.077 140.025  1.00  0.00    -0.504 OA
ATOM     21  H   UNL     1      46.799  37.056 140.047  1.00  0.00     0.293 HD
ENDBRANCH  17  20
ENDBRANCH   1  12
BRANCH   6  22
ATOM     22  O   UNL     1      47.456  26.504 137.693  1.00  0.00    -0.507 OA
ATOM     23  H   UNL     1      48.410  26.436 137.356  1.00  0.00     0.293 HD
ENDBRANCH   6  22
BRANCH   8  24
ATOM     24  O   UNL     1      46.200  27.286 142.304  1.00  0.00    -0.508 OA
ATOM     25  H   UNL     1      45.730  27.852 142.999  1.00  0.00     0.293 HD
ENDBRANCH   8  24
TORSDOF 5
ENDMDL
MODEL 6
REMARK VINA RESULT:    -4.420     12.539     15.801
REMARK INTER + INTRA:          -5.489
REMARK INTER:                  -5.171
REMARK INTRA:                  -0.318
REMARK UNBOUND:                -0.293
REMARK SMILES O=c1cc(-c2ccc(O)c(O)c2)oc2cc(O)cc(O)c12
REMARK SMILES IDX 4 1 3 2 2 3 1 4 21 5 19 6 18 7 16 8 15 9 14 10 13 11 5 12
REMARK SMILES IDX 6 13 7 14 8 15 12 16 10 17 9 18 11 20 20 22 17 24
REMARK H PARENT 9 19 11 21 20 23 17 25
REMARK Flexibility Score: inf
ROOT
ATOM      1  C   UNL     1      61.235  33.288 130.051  1.00  0.00     0.138 A 
ATOM      2  C   UNL     1      61.536  32.258 129.145  1.00  0.00     0.100 A 
ATOM      3  C   UNL     1      60.517  31.414 128.700  1.00  0.00     0.197 A 
ATOM      4  O   UNL     1      60.797  30.493 127.886  1.00  0.00    -0.289 OA
ATOM      5  C   UNL     1      59.200  31.610 129.162  1.00  0.00     0.107 A 
ATOM      6  C   UNL     1      58.110  30.802 128.764  1.00  0.00     0.134 A 
ATOM      7  C   UNL     1      56.828  31.066 129.266  1.00  0.00     0.093 A 
ATOM      8  C   UNL     1      56.616  32.124 130.158  1.00  0.00     0.123 A 
ATOM      9  C   UNL     1      57.689  32.924 130.555  1.00  0.00     0.094 A 
ATOM     10  C   UNL     1      58.975  32.677 130.066  1.00  0.00     0.146 A 
ATOM     11  O   UNL     1      59.979  33.453 130.460  1.00  0.00    -0.456 OA
ENDROOT
BRANCH   1  12
ATOM     12  C   UNL     1      62.278  34.216 130.556  1.00  0.00     0.021 A 
ATOM     13  C   UNL     1      63.620  34.014 130.189  1.00  0.00     0.016 A 
ATOM     14  C   UNL     1      64.619  34.878 130.644  1.00  0.00     0.051 A 
ATOM     15  C   UNL     1      64.294  35.964 131.466  1.00  0.00     0.157 A 
ATOM     16  C   UNL     1      61.956  35.319 131.372  1.00  0.00     0.062 A 
ATOM     17  C   UNL     1      62.956  36.187 131.827  1.00  0.00     0.158 A 
BRANCH  15  18
ATOM     18  O   UNL     1      65.294  36.823 131.920  1.00  0.00    -0.504 OA
ATOM     19  H   UNL     1      65.609  36.809 132.883  1.00  0.00     0.293 HD
ENDBRANCH  15  18
BRANCH  17  20
ATOM     20  O   UNL     1      62.598  37.266 132.634  1.00  0.00    -0.504 OA
ATOM     21  H   UNL     1      61.684  37.699 132.580  1.00  0.00     0.293 HD
ENDBRANCH  17  20
ENDBRANCH   1  12
BRANCH   6  22
ATOM     22  O   UNL     1      58.291  29.741 127.875  1.00  0.00    -0.507 OA
ATOM     23  H   UNL     1      58.295  28.777 128.188  1.00  0.00     0.293 HD
ENDBRANCH   6  22
BRANCH   8  24
ATOM     24  O   UNL     1      55.341  32.387 130.657  1.00  0.00    -0.508 OA
ATOM     25  H   UNL     1      54.822  33.209 130.375  1.00  0.00     0.293 HD
ENDBRANCH   8  24
TORSDOF 5
ENDMDL
MODEL 7
REMARK VINA RESULT:    -4.392     13.337     16.655
REMARK INTER + INTRA:          -5.456
REMARK INTER:                  -5.189
REMARK INTRA:                  -0.266
REMARK UNBOUND:                -0.293
REMARK SMILES O=c1cc(-c2ccc(O)c(O)c2)oc2cc(O)cc(O)c12
REMARK SMILES IDX 4 1 3 2 2 3 1 4 21 5 19 6 18 7 16 8 15 9 14 10 13 11 5 12
REMARK SMILES IDX 6 13 7 14 8 15 12 16 10 17 9 18 11 20 20 22 17 24
REMARK H PARENT 9 19 11 21 20 23 17 25
REMARK Flexibility Score: inf
ROOT
ATOM      1  C   UNL     1      61.093  34.583 129.912  1.00  0.00     0.138 A 
ATOM      2  C   UNL     1      60.079  35.074 130.751  1.00  0.00     0.100 A 
ATOM      3  C   UNL     1      58.877  34.371 130.859  1.00  0.00     0.197 A 
ATOM      4  O   UNL     1      57.973  34.819 131.615  1.00  0.00    -0.289 OA
ATOM      5  C   UNL     1      58.700  33.179 130.130  1.00  0.00     0.107 A 
ATOM      6  C   UNL     1      57.516  32.407 130.180  1.00  0.00     0.134 A 
ATOM      7  C   UNL     1      57.421  31.228 129.428  1.00  0.00     0.093 A 
ATOM      8  C   UNL     1      58.489  30.807 128.626  1.00  0.00     0.123 A 
ATOM      9  C   UNL     1      59.659  31.565 128.572  1.00  0.00     0.094 A 
ATOM     10  C   UNL     1      59.773  32.744 129.315  1.00  0.00     0.146 A 
ATOM     11  O   UNL     1      60.899  33.448 129.245  1.00  0.00    -0.456 OA
ENDROOT
BRANCH   1  12
ATOM     12  C   UNL     1      62.391  35.287 129.760  1.00  0.00     0.021 A 
ATOM     13  C   UNL     1      62.768  35.777 128.497  1.00  0.00     0.016 A 
ATOM     14  C   UNL     1      63.981  36.449 128.329  1.00  0.00     0.051 A 
ATOM     15  C   UNL     1      64.833  36.654 129.421  1.00  0.00     0.157 A 
ATOM     16  C   UNL     1      63.247  35.509 130.857  1.00  0.00     0.062 A 
ATOM     17  C   UNL     1      64.462  36.185 130.690  1.00  0.00     0.158 A 
BRANCH  15  18
ATOM     18  O   UNL     1      66.044  37.324 129.249  1.00  0.00    -0.504 OA
ATOM     19  H   UNL     1      66.917  36.937 129.585  1.00  0.00     0.293 HD
ENDBRANCH  15  18
BRANCH  17  20
ATOM     20  O   UNL     1      65.283  36.382 131.800  1.00  0.00    -0.504 OA
ATOM     21  H   UNL     1      65.684  35.609 132.317  1.00  0.00     0.293 HD
ENDBRANCH  17  20
ENDBRANCH   1  12
BRANCH   6  22
ATOM     22  O   UNL     1      56.436  32.802 130.972  1.00  0.00    -0.507 OA
ATOM     23  H   UNL     1      56.081  32.218 131.720  1.00  0.00     0.293 HD
ENDBRANCH   6  22
BRANCH   8  24
ATOM     24  O   UNL     1      58.395  29.634 127.877  1.00  0.00    -0.508 OA
ATOM     25  H   UNL     1      57.539  29.378 127.401  1.00  0.00     0.293 HD
ENDBRANCH   8  24
TORSDOF 5
ENDMDL
MODEL 8
REMARK VINA RESULT:    -4.347     12.355     15.566
REMARK INTER + INTRA:          -5.402
REMARK INTER:                  -5.106
REMARK INTRA:                  -0.296
REMARK UNBOUND:                -0.293
REMARK SMILES O=c1cc(-c2ccc(O)c(O)c2)oc2cc(O)cc(O)c12
REMARK SMILES IDX 4 1 3 2 2 3 1 4 21 5 19 6 18 7 16 8 15 9 14 10 13 11 5 12
REMARK SMILES IDX 6 13 7 14 8 15 12 16 10 17 9 18 11 20 20 22 17 24
REMARK H PARENT 9 19 11 21 20 23 17 25
REMARK Flexibility Score: inf
ROOT
ATOM      1  C   UNL     1      59.905  33.817 130.818  1.00  0.00     0.138 A 
ATOM      2  C   UNL     1      58.661  34.298 131.258  1.00  0.00     0.100 A 
ATOM      3  C   UNL     1      57.498  33.602 130.926  1.00  0.00     0.197 A 
ATOM      4  O   UNL     1      56.386  34.042 131.327  1.00  0.00    -0.289 OA
ATOM      5  C   UNL     1      57.588  32.423 130.159  1.00  0.00     0.107 A 
ATOM      6  C   UNL     1      56.461  31.659 129.777  1.00  0.00     0.134 A 
ATOM      7  C   UNL     1      56.635  30.494 129.017  1.00  0.00     0.093 A 
ATOM      8  C   UNL     1      57.916  30.080 128.631  1.00  0.00     0.123 A 
ATOM      9  C   UNL     1      59.031  30.832 129.004  1.00  0.00     0.094 A 
ATOM     10  C   UNL     1      58.878  31.996 129.762  1.00  0.00     0.146 A 
ATOM     11  O   UNL     1      59.957  32.695 130.104  1.00  0.00    -0.456 OA
ENDROOT
BRANCH   1  12
ATOM     12  C   UNL     1      61.174  34.515 131.143  1.00  0.00     0.021 A 
ATOM     13  C   UNL     1      62.371  34.089 130.542  1.00  0.00     0.016 A 
ATOM     14  C   UNL     1      63.577  34.734 130.824  1.00  0.00     0.051 A 
ATOM     15  C   UNL     1      63.607  35.823 131.704  1.00  0.00     0.157 A 
ATOM     16  C   UNL     1      61.209  35.620 132.017  1.00  0.00     0.062 A 
ATOM     17  C   UNL     1      62.417  36.270 132.299  1.00  0.00     0.158 A 
BRANCH  15  18
ATOM     18  O   UNL     1      64.813  36.464 131.985  1.00  0.00    -0.504 OA
ATOM     19  H   UNL     1      65.189  37.179 131.374  1.00  0.00     0.293 HD
ENDBRANCH  15  18
BRANCH  17  20
ATOM     20  O   UNL     1      62.411  37.358 133.171  1.00  0.00    -0.504 OA
ATOM     21  H   UNL     1      61.770  37.418 133.952  1.00  0.00     0.293 HD
ENDBRANCH  17  20
ENDBRANCH   1  12
BRANCH   6  22
ATOM     22  O   UNL     1      55.172  32.046 130.148  1.00  0.00    -0.507 OA
ATOM     23  H   UNL     1      54.959  32.360 131.088  1.00  0.00     0.293 HD
ENDBRANCH   6  22
BRANCH   8  24
ATOM     24  O   UNL     1      58.091  28.922 127.875  1.00  0.00    -0.508 OA
ATOM     25  H   UNL     1      57.304  28.438 127.459  1.00  0.00     0.293 HD
ENDBRANCH   8  24
TORSDOF 5
ENDMDL
MODEL 9
REMARK VINA RESULT:    -4.289     12.698     17.062
REMARK INTER + INTRA:          -5.334
REMARK INTER:                  -5.055
REMARK INTRA:                  -0.279
REMARK UNBOUND:                -0.293
REMARK SMILES O=c1cc(-c2ccc(O)c(O)c2)oc2cc(O)cc(O)c12
REMARK SMILES IDX 4 1 3 2 2 3 1 4 21 5 19 6 18 7 16 8 15 9 14 10 13 11 5 12
REMARK SMILES IDX 6 13 7 14 8 15 12 16 10 17 9 18 11 20 20 22 17 24
REMARK H PARENT 9 19 11 21 20 23 17 25
REMARK Flexibility Score: inf
ROOT
ATOM      1  C   UNL     1      61.630  32.503 129.301  1.00  0.00     0.138 A 
ATOM      2  C   UNL     1      62.865  32.379 128.645  1.00  0.00     0.100 A 
ATOM      3  C   UNL     1      63.889  33.285 128.928  1.00  0.00     0.197 A 
ATOM      4  O   UNL     1      64.994  33.164 128.334  1.00  0.00    -0.289 OA
ATOM      5  C   UNL     1      63.670  34.308 129.872  1.00  0.00     0.107 A 
ATOM      6  C   UNL     1      64.651  35.267 130.217  1.00  0.00     0.134 A 
ATOM      7  C   UNL     1      64.356  36.252 131.170  1.00  0.00     0.093 A 
ATOM      8  C   UNL     1      63.098  36.294 131.785  1.00  0.00     0.123 A 
ATOM      9  C   UNL     1      62.127  35.351 131.448  1.00  0.00     0.094 A 
ATOM     10  C   UNL     1      62.402  34.361 130.499  1.00  0.00     0.146 A 
ATOM     11  O   UNL     1      61.459  33.475 130.195  1.00  0.00    -0.456 OA
ENDROOT
BRANCH   1  12
ATOM     12  C   UNL     1      60.507  31.568 129.040  1.00  0.00     0.021 A 
ATOM     13  C   UNL     1      59.205  32.076 128.886  1.00  0.00     0.016 A 
ATOM     14  C   UNL     1      58.133  31.218 128.633  1.00  0.00     0.051 A 
ATOM     15  C   UNL     1      58.343  29.838 128.517  1.00  0.00     0.157 A 
ATOM     16  C   UNL     1      60.714  30.180 128.909  1.00  0.00     0.062 A 
ATOM     17  C   UNL     1      59.641  29.319 128.653  1.00  0.00     0.158 A 
BRANCH  15  18
ATOM     18  O   UNL     1      57.270  28.984 128.266  1.00  0.00    -0.504 OA
ATOM     19  H   UNL     1      57.399  28.093 127.801  1.00  0.00     0.293 HD
ENDBRANCH  15  18
BRANCH  17  20
ATOM     20  O   UNL     1      59.885  27.951 128.532  1.00  0.00    -0.504 OA
ATOM     21  H   UNL     1      59.982  27.349 129.341  1.00  0.00     0.293 HD
ENDBRANCH  17  20
ENDBRANCH   1  12
BRANCH   6  22
ATOM     22  O   UNL     1      65.913  35.249 129.621  1.00  0.00    -0.507 OA
ATOM     23  H   UNL     1      66.760  35.145 130.168  1.00  0.00     0.293 HD
ENDBRANCH   6  22
BRANCH   8  24
ATOM     24  O   UNL     1      62.805  37.273 132.734  1.00  0.00    -0.508 OA
ATOM     25  H   UNL     1      62.901  38.259 132.524  1.00  0.00     0.293 HD
ENDBRANCH   8  24
TORSDOF 5
ENDMDL
