MODEL 1
REMARK VINA RESULT:    -5.385      0.000      0.000
REMARK INTER + INTRA:          -6.455
REMARK INTER:                  -6.329
REMARK INTRA:                  -0.125
REMARK UNBOUND:                -0.125
REMARK SMILES O=C([O-])C=Cc1ccc(O)c(O)c1
REMARK SMILES IDX 6 1 13 2 7 3 11 4 8 5 9 6 5 7 4 8 2 9 1 10 3 11 12 12 10 14
REMARK H PARENT 12 13 10 15
REMARK Flexibility Score: inf
ROOT
ATOM      1  C   UNL     1      26.561 -27.249  39.916  1.00  0.00    -0.022 A 
ATOM      2  C   UNL     1      26.940 -28.020  38.798  1.00  0.00     0.058 A 
ATOM      3  C   UNL     1      25.848 -27.869  40.956  1.00  0.00     0.012 A 
ATOM      4  C   UNL     1      26.588 -29.376  38.716  1.00  0.00     0.157 A 
ATOM      5  C   UNL     1      25.497 -29.218  40.872  1.00  0.00     0.051 A 
ATOM      6  C   UNL     1      25.862 -29.974  39.752  1.00  0.00     0.157 A 
ENDROOT
BRANCH   1   7
ATOM      7  C   UNL     1      26.919 -25.816  40.056  1.00  0.00     0.010 C 
ATOM      8  C   UNL     1      26.537 -24.864  39.192  1.00  0.00     0.025 C 
BRANCH   8   9
ATOM      9  C   UNL     1      26.901 -23.449  39.370  1.00  0.00     0.064 C 
ATOM     10  O   UNL     1      26.624 -22.588  38.492  1.00  0.00    -0.545 OA
ATOM     11  O   UNL     1      27.559 -23.055  40.528  1.00  0.00    -0.545 OA
ENDBRANCH   8   9
ENDBRANCH   1   7
BRANCH   4  12
ATOM     12  O   UNL     1      26.962 -30.135  37.608  1.00  0.00    -0.504 OA
ATOM     13  H   UNL     1      26.963 -31.148  37.634  1.00  0.00     0.293 HD
ENDBRANCH   4  12
BRANCH   6  14
ATOM     14  O   UNL     1      25.513 -31.321  39.664  1.00  0.00    -0.504 OA
ATOM     15  H   UNL     1      24.634 -31.614  39.254  1.00  0.00     0.293 HD
ENDBRANCH   6  14
TORSDOF 4
ENDMDL
MODEL 2
REMARK VINA RESULT:    -5.095     10.734     11.788
REMARK INTER + INTRA:          -6.114
REMARK INTER:                  -5.991
REMARK INTRA:                  -0.123
REMARK UNBOUND:                -0.125
REMARK SMILES O=C([O-])C=Cc1ccc(O)c(O)c1
REMARK SMILES IDX 6 1 13 2 7 3 11 4 8 5 9 6 5 7 4 8 2 9 1 10 3 11 12 12 10 14
REMARK H PARENT 12 13 10 15
REMARK Flexibility Score: inf
ROOT
ATOM      1  C   UNL     1      25.832 -26.911  28.190  1.00  0.00    -0.022 A 
ATOM      2  C   UNL     1      25.301 -27.819  29.129  1.00  0.00     0.058 A 
ATOM      3  C   UNL     1      27.225 -26.853  28.018  1.00  0.00     0.012 A 
ATOM      4  C   UNL     1      26.151 -28.633  29.893  1.00  0.00     0.157 A 
ATOM      5  C   UNL     1      28.071 -27.661  28.780  1.00  0.00     0.051 A 
ATOM      6  C   UNL     1      27.538 -28.550  29.721  1.00  0.00     0.157 A 
ENDROOT
BRANCH   1   7
ATOM      7  C   UNL     1      24.975 -26.039  27.350  1.00  0.00     0.010 C 
ATOM      8  C   UNL     1      23.634 -26.068  27.371  1.00  0.00     0.025 C 
BRANCH   8   9
ATOM      9  C   UNL     1      22.816 -25.178  26.531  1.00  0.00     0.064 C 
ATOM     10  O   UNL     1      22.474 -24.034  26.932  1.00  0.00    -0.545 OA
ATOM     11  O   UNL     1      22.415 -25.607  25.273  1.00  0.00    -0.545 OA
ENDBRANCH   8   9
ENDBRANCH   1   7
BRANCH   4  12
ATOM     12  O   UNL     1      25.624 -29.528  30.822  1.00  0.00    -0.504 OA
ATOM     13  H   UNL     1      24.643 -29.515  31.074  1.00  0.00     0.293 HD
ENDBRANCH   4  12
BRANCH   6  14
ATOM     14  O   UNL     1      28.379 -29.358  30.485  1.00  0.00    -0.504 OA
ATOM     15  H   UNL     1      28.843 -29.005  31.313  1.00  0.00     0.293 HD
ENDBRANCH   6  14
TORSDOF 4
ENDMDL
MODEL 3
REMARK VINA RESULT:    -5.091      1.202      6.109
REMARK INTER + INTRA:          -6.110
REMARK INTER:                  -5.965
REMARK INTRA:                  -0.144
REMARK UNBOUND:                -0.125
REMARK SMILES O=C([O-])C=Cc1ccc(O)c(O)c1
REMARK SMILES IDX 6 1 13 2 7 3 11 4 8 5 9 6 5 7 4 8 2 9 1 10 3 11 12 12 10 14
REMARK H PARENT 12 13 10 15
REMARK Flexibility Score: inf
ROOT
ATOM      1  C   UNL     1      26.823 -26.123  39.071  1.00  0.00    -0.022 A 
ATOM      2  C   UNL     1      27.372 -25.275  40.054  1.00  0.00     0.058 A 
ATOM      3  C   UNL     1      26.331 -25.555  37.885  1.00  0.00     0.012 A 
ATOM      4  C   UNL     1      27.403 -23.886  39.860  1.00  0.00     0.157 A 
ATOM      5  C   UNL     1      26.360 -24.172  37.693  1.00  0.00     0.051 A 
ATOM      6  C   UNL     1      26.892 -23.333  38.680  1.00  0.00     0.157 A 
ENDROOT
BRANCH   1   7
ATOM      7  C   UNL     1      26.779 -27.599  39.223  1.00  0.00     0.010 C 
ATOM      8  C   UNL     1      25.760 -28.361  38.800  1.00  0.00     0.025 C 
BRANCH   8   9
ATOM      9  C   UNL     1      25.756 -29.824  38.957  1.00  0.00     0.064 C 
ATOM     10  O   UNL     1      26.202 -30.370  40.001  1.00  0.00    -0.545 OA
ATOM     11  O   UNL     1      25.250 -30.619  37.936  1.00  0.00    -0.545 OA
ENDBRANCH   8   9
ENDBRANCH   1   7
BRANCH   4  12
ATOM     12  O   UNL     1      27.944 -23.049  40.835  1.00  0.00    -0.504 OA
ATOM     13  H   UNL     1      27.424 -22.798  41.667  1.00  0.00     0.293 HD
ENDBRANCH   4  12
BRANCH   6  14
ATOM     14  O   UNL     1      26.922 -21.952  38.493  1.00  0.00    -0.504 OA
ATOM     15  H   UNL     1      27.797 -21.451  38.390  1.00  0.00     0.293 HD
ENDBRANCH   6  14
TORSDOF 4
ENDMDL
MODEL 4
REMARK VINA RESULT:    -5.078      1.455      2.278
REMARK INTER + INTRA:          -6.094
REMARK INTER:                  -5.970
REMARK INTRA:                  -0.124
REMARK UNBOUND:                -0.125
REMARK SMILES O=C([O-])C=Cc1ccc(O)c(O)c1
REMARK SMILES IDX 6 1 13 2 7 3 11 4 8 5 9 6 5 7 4 8 2 9 1 10 3 11 12 12 10 14
REMARK H PARENT 12 13 10 15
REMARK Flexibility Score: inf
ROOT
ATOM      1  C   UNL     1      26.360 -27.727  38.425  1.00  0.00    -0.022 A 
ATOM      2  C   UNL     1      26.543 -28.784  39.340  1.00  0.00     0.058 A 
ATOM      3  C   UNL     1      25.579 -27.951  37.279  1.00  0.00     0.012 A 
ATOM      4  C   UNL     1      25.975 -30.044  39.096  1.00  0.00     0.157 A 
ATOM      5  C   UNL     1      25.015 -29.206  37.036  1.00  0.00     0.051 A 
ATOM      6  C   UNL     1      25.213 -30.256  37.941  1.00  0.00     0.157 A 
ENDROOT
BRANCH   1   7
ATOM      7  C   UNL     1      26.929 -26.374  38.643  1.00  0.00     0.010 C 
ATOM      8  C   UNL     1      26.938 -25.753  39.831  1.00  0.00     0.025 C 
BRANCH   8   9
ATOM      9  C   UNL     1      27.524 -24.414  40.013  1.00  0.00     0.064 C 
ATOM     10  O   UNL     1      28.502 -24.229  40.785  1.00  0.00    -0.545 OA
ATOM     11  O   UNL     1      26.989 -23.336  39.319  1.00  0.00    -0.545 OA
ENDBRANCH   8   9
ENDBRANCH   1   7
BRANCH   4  12
ATOM     12  O   UNL     1      26.159 -31.088  40.001  1.00  0.00    -0.504 OA
ATOM     13  H   UNL     1      27.009 -31.174  40.546  1.00  0.00     0.293 HD
ENDBRANCH   4  12
BRANCH   6  14
ATOM     14  O   UNL     1      24.654 -31.509  37.702  1.00  0.00    -0.504 OA
ATOM     15  H   UNL     1      24.327 -31.777  36.781  1.00  0.00     0.293 HD
ENDBRANCH   6  14
TORSDOF 4
ENDMDL
MODEL 5
REMARK VINA RESULT:    -5.021     14.650     15.304
REMARK INTER + INTRA:          -6.027
REMARK INTER:                  -5.901
REMARK INTRA:                  -0.126
REMARK UNBOUND:                -0.125
REMARK SMILES O=C([O-])C=Cc1ccc(O)c(O)c1
REMARK SMILES IDX 6 1 13 2 7 3 11 4 8 5 9 6 5 7 4 8 2 9 1 10 3 11 12 12 10 14
REMARK H PARENT 12 13 10 15
REMARK Flexibility Score: inf
ROOT
ATOM      1  C   UNL     1      22.665 -22.999  25.453  1.00  0.00    -0.022 A 
ATOM      2  C   UNL     1      23.432 -23.152  24.280  1.00  0.00     0.058 A 
ATOM      3  C   UNL     1      22.291 -24.146  26.172  1.00  0.00     0.012 A 
ATOM      4  C   UNL     1      23.794 -24.430  23.828  1.00  0.00     0.157 A 
ATOM      5  C   UNL     1      22.650 -25.418  25.720  1.00  0.00     0.051 A 
ATOM      6  C   UNL     1      23.399 -25.564  24.547  1.00  0.00     0.157 A 
ENDROOT
BRANCH   1   7
ATOM      7  C   UNL     1      22.267 -21.669  25.979  1.00  0.00     0.010 C 
ATOM      8  C   UNL     1      23.135 -20.681  26.239  1.00  0.00     0.025 C 
BRANCH   8   9
ATOM      9  C   UNL     1      22.702 -19.370  26.749  1.00  0.00     0.064 C 
ATOM     10  O   UNL     1      21.607 -19.235  27.357  1.00  0.00    -0.545 OA
ATOM     11  O   UNL     1      23.517 -18.261  26.558  1.00  0.00    -0.545 OA
ENDBRANCH   8   9
ENDBRANCH   1   7
BRANCH   4  12
ATOM     12  O   UNL     1      24.551 -24.578  22.667  1.00  0.00    -0.504 OA
ATOM     13  H   UNL     1      25.562 -24.626  22.694  1.00  0.00     0.293 HD
ENDBRANCH   4  12
BRANCH   6  14
ATOM     14  O   UNL     1      23.759 -26.831  24.092  1.00  0.00    -0.504 OA
ATOM     15  H   UNL     1      23.405 -27.672  24.532  1.00  0.00     0.293 HD
ENDBRANCH   6  14
TORSDOF 4
ENDMDL
MODEL 6
REMARK VINA RESULT:    -4.974      4.667      6.344
REMARK INTER + INTRA:          -5.971
REMARK INTER:                  -5.829
REMARK INTRA:                  -0.143
REMARK UNBOUND:                -0.125
REMARK SMILES O=C([O-])C=Cc1ccc(O)c(O)c1
REMARK SMILES IDX 6 1 13 2 7 3 11 4 8 5 9 6 5 7 4 8 2 9 1 10 3 11 12 12 10 14
REMARK H PARENT 12 13 10 15
REMARK Flexibility Score: inf
ROOT
ATOM      1  C   UNL     1      27.035 -28.714  34.904  1.00  0.00    -0.022 A 
ATOM      2  C   UNL     1      26.125 -28.997  33.866  1.00  0.00     0.058 A 
ATOM      3  C   UNL     1      28.410 -28.700  34.616  1.00  0.00     0.012 A 
ATOM      4  C   UNL     1      26.588 -29.284  32.572  1.00  0.00     0.157 A 
ATOM      5  C   UNL     1      28.869 -28.988  33.329  1.00  0.00     0.051 A 
ATOM      6  C   UNL     1      27.962 -29.284  32.305  1.00  0.00     0.157 A 
ENDROOT
BRANCH   1   7
ATOM      7  C   UNL     1      26.597 -28.392  36.285  1.00  0.00     0.010 C 
ATOM      8  C   UNL     1      27.259 -28.775  37.386  1.00  0.00     0.025 C 
BRANCH   8   9
ATOM      9  C   UNL     1      26.801 -28.426  38.740  1.00  0.00     0.064 C 
ATOM     10  O   UNL     1      26.999 -27.279  39.222  1.00  0.00    -0.545 OA
ATOM     11  O   UNL     1      26.134 -29.379  39.501  1.00  0.00    -0.545 OA
ENDBRANCH   8   9
ENDBRANCH   1   7
BRANCH   4  12
ATOM     12  O   UNL     1      25.686 -29.567  31.548  1.00  0.00    -0.504 OA
ATOM     13  H   UNL     1      24.865 -30.139  31.705  1.00  0.00     0.293 HD
ENDBRANCH   4  12
BRANCH   6  14
ATOM     14  O   UNL     1      28.416 -29.573  31.019  1.00  0.00    -0.504 OA
ATOM     15  H   UNL     1      27.773 -29.775  30.263  1.00  0.00     0.293 HD
ENDBRANCH   6  14
TORSDOF 4
ENDMDL
MODEL 7
REMARK VINA RESULT:    -4.850     14.220     14.973
REMARK INTER + INTRA:          -5.826
REMARK INTER:                  -5.695
REMARK INTRA:                  -0.131
REMARK UNBOUND:                -0.125
REMARK SMILES O=C([O-])C=Cc1ccc(O)c(O)c1
REMARK SMILES IDX 6 1 13 2 7 3 11 4 8 5 9 6 5 7 4 8 2 9 1 10 3 11 12 12 10 14
REMARK H PARENT 12 13 10 15
REMARK Flexibility Score: inf
ROOT
ATOM      1  C   UNL     1      22.698 -22.849  25.622  1.00  0.00    -0.022 A 
ATOM      2  C   UNL     1      22.280 -24.006  26.309  1.00  0.00     0.058 A 
ATOM      3  C   UNL     1      23.454 -22.996  24.446  1.00  0.00     0.012 A 
ATOM      4  C   UNL     1      22.633 -25.281  25.840  1.00  0.00     0.157 A 
ATOM      5  C   UNL     1      23.807 -24.264  23.981  1.00  0.00     0.051 A 
ATOM      6  C   UNL     1      23.401 -25.410  24.677  1.00  0.00     0.157 A 
ENDROOT
BRANCH   1   7
ATOM      7  C   UNL     1      22.341 -21.481  26.070  1.00  0.00     0.010 C 
ATOM      8  C   UNL     1      23.227 -20.600  26.557  1.00  0.00     0.025 C 
BRANCH   8   9
ATOM      9  C   UNL     1      22.837 -19.246  26.980  1.00  0.00     0.064 C 
ATOM     10  O   UNL     1      23.395 -18.224  26.496  1.00  0.00    -0.545 OA
ATOM     11  O   UNL     1      21.835 -19.090  27.929  1.00  0.00    -0.545 OA
ENDBRANCH   8   9
ENDBRANCH   1   7
BRANCH   4  12
ATOM     12  O   UNL     1      22.220 -26.423  26.523  1.00  0.00    -0.504 OA
ATOM     13  H   UNL     1      21.307 -26.834  26.369  1.00  0.00     0.293 HD
ENDBRANCH   4  12
BRANCH   6  14
ATOM     14  O   UNL     1      23.753 -26.677  24.217  1.00  0.00    -0.504 OA
ATOM     15  H   UNL     1      23.948 -26.850  23.237  1.00  0.00     0.293 HD
ENDBRANCH   6  14
TORSDOF 4
ENDMDL
MODEL 8
REMARK VINA RESULT:    -4.843      5.259      7.137
REMARK INTER + INTRA:          -5.818
REMARK INTER:                  -5.681
REMARK INTRA:                  -0.137
REMARK UNBOUND:                -0.125
REMARK SMILES O=C([O-])C=Cc1ccc(O)c(O)c1
REMARK SMILES IDX 6 1 13 2 7 3 11 4 8 5 9 6 5 7 4 8 2 9 1 10 3 11 12 12 10 14
REMARK H PARENT 12 13 10 15
REMARK Flexibility Score: inf
ROOT
ATOM      1  C   UNL     1      27.410 -28.520  34.178  1.00  0.00    -0.022 A 
ATOM      2  C   UNL     1      28.129 -29.312  33.260  1.00  0.00     0.058 A 
ATOM      3  C   UNL     1      26.570 -27.508  33.686  1.00  0.00     0.012 A 
ATOM      4  C   UNL     1      28.024 -29.077  31.880  1.00  0.00     0.157 A 
ATOM      5  C   UNL     1      26.467 -27.272  32.313  1.00  0.00     0.051 A 
ATOM      6  C   UNL     1      27.195 -28.053  31.407  1.00  0.00     0.157 A 
ENDROOT
BRANCH   1   7
ATOM      7  C   UNL     1      27.478 -28.737  35.644  1.00  0.00     0.010 C 
ATOM      8  C   UNL     1      26.406 -28.990  36.410  1.00  0.00     0.025 C 
BRANCH   8   9
ATOM      9  C   UNL     1      26.513 -29.213  37.861  1.00  0.00     0.064 C 
ATOM     10  O   UNL     1      27.176 -28.432  38.594  1.00  0.00    -0.545 OA
ATOM     11  O   UNL     1      25.869 -30.303  38.433  1.00  0.00    -0.545 OA
ENDBRANCH   8   9
ENDBRANCH   1   7
BRANCH   4  12
ATOM     12  O   UNL     1      28.737 -29.860  30.975  1.00  0.00    -0.504 OA
ATOM     13  H   UNL     1      28.338 -30.144  30.088  1.00  0.00     0.293 HD
ENDBRANCH   4  12
BRANCH   6  14
ATOM     14  O   UNL     1      27.096 -27.821  30.036  1.00  0.00    -0.504 OA
ATOM     15  H   UNL     1      26.374 -27.223  29.651  1.00  0.00     0.293 HD
ENDBRANCH   6  14
TORSDOF 4
ENDMDL
MODEL 9
REMARK VINA RESULT:    -4.833     10.262     11.185
REMARK INTER + INTRA:          -5.806
REMARK INTER:                  -5.681
REMARK INTRA:                  -0.125
REMARK UNBOUND:                -0.125
REMARK SMILES O=C([O-])C=Cc1ccc(O)c(O)c1
REMARK SMILES IDX 6 1 13 2 7 3 11 4 8 5 9 6 5 7 4 8 2 9 1 10 3 11 12 12 10 14
REMARK H PARENT 12 13 10 15
REMARK Flexibility Score: inf
ROOT
ATOM      1  C   UNL     1      27.087 -27.051  28.765  1.00  0.00    -0.022 A 
ATOM      2  C   UNL     1      28.004 -28.076  29.076  1.00  0.00     0.058 A 
ATOM      3  C   UNL     1      25.994 -26.837  29.621  1.00  0.00     0.012 A 
ATOM      4  C   UNL     1      27.812 -28.883  30.208  1.00  0.00     0.157 A 
ATOM      5  C   UNL     1      25.803 -27.642  30.746  1.00  0.00     0.051 A 
ATOM      6  C   UNL     1      26.709 -28.668  31.042  1.00  0.00     0.157 A 
ENDROOT
BRANCH   1   7
ATOM      7  C   UNL     1      27.251 -26.163  27.587  1.00  0.00     0.010 C 
ATOM      8  C   UNL     1      28.442 -25.803  27.086  1.00  0.00     0.025 C 
BRANCH   8   9
ATOM      9  C   UNL     1      28.566 -24.930  25.908  1.00  0.00     0.064 C 
ATOM     10  O   UNL     1      28.876 -25.396  24.779  1.00  0.00    -0.545 OA
ATOM     11  O   UNL     1      28.336 -23.566  26.042  1.00  0.00    -0.545 OA
ENDBRANCH   8   9
ENDBRANCH   1   7
BRANCH   4  12
ATOM     12  O   UNL     1      28.719 -29.897  30.512  1.00  0.00    -0.504 OA
ATOM     13  H   UNL     1      29.719 -29.740  30.488  1.00  0.00     0.293 HD
ENDBRANCH   4  12
BRANCH   6  14
ATOM     14  O   UNL     1      26.521 -29.474  32.163  1.00  0.00    -0.504 OA
ATOM     15  H   UNL     1      27.051 -30.327  32.297  1.00  0.00     0.293 HD
ENDBRANCH   6  14
TORSDOF 4
ENDMDL
