MODEL 1
REMARK VINA RESULT:    22.035      0.000      0.000
REMARK INTER + INTRA:          25.632
REMARK INTER:                  25.900
REMARK INTRA:                  -0.267
REMARK UNBOUND:                -0.267
REMARK SMILES O=c1c(O)c(-c2ccc(O)cc2)oc2cc(O)cc(O)c12
REMARK SMILES IDX 5 1 3 2 2 3 1 4 21 5 19 6 18 7 16 8 15 9 14 10 13 11 6 12
REMARK SMILES IDX 7 13 8 14 9 15 12 16 11 17 10 18 4 20 20 22 17 24
REMARK H PARENT 10 19 4 21 20 23 17 25
REMARK Flexibility Score: inf
ROOT
ATOM      1  C   UNL     1      26.842  29.984   4.846  1.00  0.00     0.180 A 
ATOM      2  C   UNL     1      27.927  30.578   4.178  1.00  0.00     0.208 A 
ATOM      3  C   UNL     1      28.486  29.923   3.069  1.00  0.00     0.238 A 
ATOM      4  O   UNL     1      29.422  30.485   2.443  1.00  0.00    -0.285 OA
ATOM      5  C   UNL     1      27.963  28.675   2.651  1.00  0.00     0.111 A 
ATOM      6  C   UNL     1      28.478  27.904   1.566  1.00  0.00     0.134 A 
ATOM      7  C   UNL     1      27.801  26.748   1.159  1.00  0.00     0.093 A 
ATOM      8  C   UNL     1      26.667  26.299   1.840  1.00  0.00     0.123 A 
ATOM      9  C   UNL     1      26.192  27.013   2.938  1.00  0.00     0.094 A 
ATOM     10  C   UNL     1      26.824  28.190   3.345  1.00  0.00     0.146 A 
ATOM     11  O   UNL     1      26.333  28.845   4.389  1.00  0.00    -0.452 OA
ENDROOT
BRANCH   1  12
ATOM     12  C   UNL     1      26.216  30.601   6.037  1.00  0.00     0.021 A 
ATOM     13  C   UNL     1      25.265  31.631   5.916  1.00  0.00     0.016 A 
ATOM     14  C   UNL     1      24.707  32.215   7.057  1.00  0.00     0.047 A 
ATOM     15  C   UNL     1      25.100  31.789   8.332  1.00  0.00     0.115 A 
ATOM     16  C   UNL     1      26.622  30.194   7.320  1.00  0.00     0.016 A 
ATOM     17  C   UNL     1      26.060  30.780   8.459  1.00  0.00     0.047 A 
BRANCH  15  18
ATOM     18  O   UNL     1      24.550  32.362   9.475  1.00  0.00    -0.508 OA
ATOM     19  H   UNL     1      24.224  33.322   9.481  1.00  0.00     0.293 HD
ENDBRANCH  15  18
ENDBRANCH   1  12
BRANCH   2  20
ATOM     20  O   UNL     1      28.413  31.820   4.594  1.00  0.00    -0.502 OA
ATOM     21  H   UNL     1      28.759  32.516   3.942  1.00  0.00     0.293 HD
ENDBRANCH   2  20
BRANCH   6  22
ATOM     22  O   UNL     1      29.655  28.213   0.878  1.00  0.00    -0.507 OA
ATOM     23  H   UNL     1      29.854  29.105   0.453  1.00  0.00     0.293 HD
ENDBRANCH   6  22
BRANCH   8  24
ATOM     24  O   UNL     1      26.009  25.139   1.438  1.00  0.00    -0.508 OA
ATOM     25  H   UNL     1      25.043  25.156   1.133  1.00  0.00     0.293 HD
ENDBRANCH   8  24
TORSDOF 5
ENDMDL
MODEL 2
REMARK VINA RESULT:    24.313      3.736      6.634
REMARK INTER + INTRA:          28.309
REMARK INTER:                  27.841
REMARK INTRA:                   0.468
REMARK UNBOUND:                -0.267
REMARK SMILES O=c1c(O)c(-c2ccc(O)cc2)oc2cc(O)cc(O)c12
REMARK SMILES IDX 5 1 3 2 2 3 1 4 21 5 19 6 18 7 16 8 15 9 14 10 13 11 6 12
REMARK SMILES IDX 7 13 8 14 9 15 12 16 11 17 10 18 4 20 20 22 17 24
REMARK H PARENT 10 19 4 21 20 23 17 25
REMARK Flexibility Score: inf
ROOT
ATOM      1  C   UNL     1      28.006  27.687   2.333  1.00  0.00     0.180 A 
ATOM      2  C   UNL     1      27.300  28.753   1.748  1.00  0.00     0.208 A 
ATOM      3  C   UNL     1      27.702  30.070   2.025  1.00  0.00     0.238 A 
ATOM      4  O   UNL     1      27.100  31.018   1.456  1.00  0.00    -0.285 OA
ATOM      5  C   UNL     1      28.794  30.304   2.895  1.00  0.00     0.111 A 
ATOM      6  C   UNL     1      29.261  31.598   3.278  1.00  0.00     0.134 A 
ATOM      7  C   UNL     1      30.431  31.712   4.039  1.00  0.00     0.093 A 
ATOM      8  C   UNL     1      31.112  30.578   4.488  1.00  0.00     0.123 A 
ATOM      9  C   UNL     1      30.629  29.310   4.169  1.00  0.00     0.094 A 
ATOM     10  C   UNL     1      29.486  29.165   3.381  1.00  0.00     0.146 A 
ATOM     11  O   UNL     1      29.067  27.939   3.092  1.00  0.00    -0.452 OA
ENDROOT
BRANCH   1  12
ATOM     12  C   UNL     1      27.626  26.274   2.109  1.00  0.00     0.021 A 
ATOM     13  C   UNL     1      26.716  25.910   1.099  1.00  0.00     0.016 A 
ATOM     14  C   UNL     1      26.355  24.571   0.923  1.00  0.00     0.047 A 
ATOM     15  C   UNL     1      26.886  23.582   1.760  1.00  0.00     0.115 A 
ATOM     16  C   UNL     1      28.138  25.278   2.958  1.00  0.00     0.016 A 
ATOM     17  C   UNL     1      27.775  23.939   2.778  1.00  0.00     0.047 A 
BRANCH  15  18
ATOM     18  O   UNL     1      26.534  22.245   1.593  1.00  0.00    -0.508 OA
ATOM     19  H   UNL     1      25.971  21.755   2.279  1.00  0.00     0.293 HD
ENDBRANCH  15  18
ENDBRANCH   1  12
BRANCH   2  20
ATOM     20  O   UNL     1      26.239  28.498   0.875  1.00  0.00    -0.502 OA
ATOM     21  H   UNL     1      25.563  27.762   1.040  1.00  0.00     0.293 HD
ENDBRANCH   2  20
BRANCH   6  22
ATOM     22  O   UNL     1      28.604  32.790   2.960  1.00  0.00    -0.507 OA
ATOM     23  H   UNL     1      29.005  33.711   3.058  1.00  0.00     0.293 HD
ENDBRANCH   6  22
BRANCH   8  24
ATOM     24  O   UNL     1      32.265  30.700   5.259  1.00  0.00    -0.508 OA
ATOM     25  H   UNL     1      32.690  29.898   5.709  1.00  0.00     0.293 HD
ENDBRANCH   8  24
TORSDOF 5
ENDMDL
