MODEL 1
REMARK VINA RESULT:    -5.992      0.000      0.000
REMARK INTER + INTRA:         -13.027
REMARK INTER:                 -11.246
REMARK INTRA:                  -1.781
REMARK UNBOUND:                -1.781
REMARK SMILES CCCCCCCCC=CCCCCCCCC(=O)[O-]
REMARK SMILES IDX 10 1 9 2 11 3 12 4 13 5 14 6 15 7 16 8 17 9 18 10 19 11
REMARK SMILES IDX 20 12 8 13 7 14 6 15 5 16 4 17 3 18 2 19 1 20
REMARK H PARENT
REMARK Flexibility Score: inf
ROOT
ATOM      1  C   UNL     1       8.973 -46.693  34.977  1.00  0.00    -0.031 C 
ATOM      2  C   UNL     1       8.782 -45.398  34.683  1.00  0.00    -0.031 C 
ENDROOT
BRANCH   1   3
ATOM      3  C   UNL     1       8.002 -47.458  35.833  1.00  0.00     0.027 C 
BRANCH   3   4
ATOM      4  C   UNL     1       8.737 -48.286  36.897  1.00  0.00     0.004 C 
BRANCH   4   5
ATOM      5  C   UNL     1       8.590 -47.705  38.315  1.00  0.00     0.000 C 
BRANCH   5   6
ATOM      6  C   UNL     1       9.897 -47.198  38.955  1.00  0.00     0.000 C 
BRANCH   6   7
ATOM      7  C   UNL     1      10.450 -45.887  38.367  1.00  0.00     0.000 C 
BRANCH   7   8
ATOM      8  C   UNL     1      11.813 -46.068  37.678  1.00  0.00     0.006 C 
BRANCH   8   9
ATOM      9  C   UNL     1      12.790 -46.883  38.535  1.00  0.00     0.053 C 
BRANCH   9  10
ATOM     10  C   UNL     1      14.182 -46.838  37.985  1.00  0.00     0.041 C 
ATOM     11  O   UNL     1      14.374 -46.860  36.741  1.00  0.00    -0.550 OA
ATOM     12  O   UNL     1      15.269 -46.806  38.848  1.00  0.00    -0.550 OA
ENDBRANCH   9  10
ENDBRANCH   8   9
ENDBRANCH   7   8
ENDBRANCH   6   7
ENDBRANCH   5   6
ENDBRANCH   4   5
ENDBRANCH   3   4
ENDBRANCH   1   3
BRANCH   2  13
ATOM     13  C   UNL     1       9.731 -44.641  33.795  1.00  0.00     0.027 C 
BRANCH  13  14
ATOM     14  C   UNL     1       9.968 -45.368  32.465  1.00  0.00     0.004 C 
BRANCH  14  15
ATOM     15  C   UNL     1       8.740 -45.302  31.542  1.00  0.00     0.000 C 
BRANCH  15  16
ATOM     16  C   UNL     1       7.953 -43.984  31.683  1.00  0.00     0.000 C 
BRANCH  16  17
ATOM     17  C   UNL     1       6.425 -44.145  31.783  1.00  0.00    -0.000 C 
BRANCH  17  18
ATOM     18  C   UNL     1       5.822 -45.252  30.897  1.00  0.00    -0.000 C 
BRANCH  18  19
ATOM     19  C   UNL     1       4.916 -46.239  31.662  1.00  0.00    -0.003 C 
ATOM     20  C   UNL     1       5.673 -47.029  32.731  1.00  0.00     0.004 C 
ENDBRANCH  18  19
ENDBRANCH  17  18
ENDBRANCH  16  17
ENDBRANCH  15  16
ENDBRANCH  14  15
ENDBRANCH  13  14
ENDBRANCH   2  13
TORSDOF 15
ENDMDL
MODEL 2
REMARK VINA RESULT:    -5.984      0.928      2.676
REMARK INTER + INTRA:         -13.013
REMARK INTER:                 -11.354
REMARK INTRA:                  -1.659
REMARK UNBOUND:                -1.781
REMARK SMILES CCCCCCCCC=CCCCCCCCC(=O)[O-]
REMARK SMILES IDX 10 1 9 2 11 3 12 4 13 5 14 6 15 7 16 8 17 9 18 10 19 11
REMARK SMILES IDX 20 12 8 13 7 14 6 15 5 16 4 17 3 18 2 19 1 20
REMARK H PARENT
REMARK Flexibility Score: inf
ROOT
ATOM      1  C   UNL     1       7.590 -47.617  34.871  1.00  0.00    -0.031 C 
ATOM      2  C   UNL     1       7.380 -47.608  33.545  1.00  0.00    -0.031 C 
ENDROOT
BRANCH   1   3
ATOM      3  C   UNL     1       8.978 -47.598  35.448  1.00  0.00     0.027 C 
BRANCH   3   4
ATOM      4  C   UNL     1       8.940 -47.415  36.972  1.00  0.00     0.004 C 
BRANCH   4   5
ATOM      5  C   UNL     1       9.184 -45.959  37.407  1.00  0.00     0.000 C 
BRANCH   5   6
ATOM      6  C   UNL     1      10.219 -45.776  38.535  1.00  0.00     0.000 C 
BRANCH   6   7
ATOM      7  C   UNL     1      10.802 -47.080  39.108  1.00  0.00     0.000 C 
BRANCH   7   8
ATOM      8  C   UNL     1      12.337 -47.057  39.205  1.00  0.00     0.006 C 
BRANCH   8   9
ATOM      9  C   UNL     1      12.989 -46.525  37.923  1.00  0.00     0.053 C 
BRANCH   9  10
ATOM     10  C   UNL     1      14.403 -47.000  37.780  1.00  0.00     0.041 C 
ATOM     11  O   UNL     1      14.823 -47.417  36.668  1.00  0.00    -0.550 OA
ATOM     12  O   UNL     1      15.246 -47.014  38.882  1.00  0.00    -0.550 OA
ENDBRANCH   9  10
ENDBRANCH   8   9
ENDBRANCH   7   8
ENDBRANCH   6   7
ENDBRANCH   5   6
ENDBRANCH   4   5
ENDBRANCH   3   4
ENDBRANCH   1   3
BRANCH   2  13
ATOM     13  C   UNL     1       5.991 -47.588  32.966  1.00  0.00     0.027 C 
BRANCH  13  14
ATOM     14  C   UNL     1       5.998 -47.174  31.489  1.00  0.00     0.004 C 
BRANCH  14  15
ATOM     15  C   UNL     1       5.009 -46.030  31.203  1.00  0.00     0.000 C 
BRANCH  15  16
ATOM     16  C   UNL     1       5.710 -44.721  30.790  1.00  0.00     0.000 C 
BRANCH  16  17
ATOM     17  C   UNL     1       6.519 -44.034  31.907  1.00  0.00    -0.000 C 
BRANCH  17  18
ATOM     18  C   UNL     1       8.048 -44.199  31.805  1.00  0.00    -0.000 C 
BRANCH  18  19
ATOM     19  C   UNL     1       8.774 -44.131  33.164  1.00  0.00    -0.003 C 
ATOM     20  C   UNL     1      10.089 -44.914  33.172  1.00  0.00     0.004 C 
ENDBRANCH  18  19
ENDBRANCH  17  18
ENDBRANCH  16  17
ENDBRANCH  15  16
ENDBRANCH  14  15
ENDBRANCH  13  14
ENDBRANCH   2  13
TORSDOF 15
ENDMDL
MODEL 3
REMARK VINA RESULT:    -5.945      1.162      2.387
REMARK INTER + INTRA:         -12.940
REMARK INTER:                 -11.421
REMARK INTRA:                  -1.520
REMARK UNBOUND:                -1.781
REMARK SMILES CCCCCCCCC=CCCCCCCCC(=O)[O-]
REMARK SMILES IDX 10 1 9 2 11 3 12 4 13 5 14 6 15 7 16 8 17 9 18 10 19 11
REMARK SMILES IDX 20 12 8 13 7 14 6 15 5 16 4 17 3 18 2 19 1 20
REMARK H PARENT
REMARK Flexibility Score: inf
ROOT
ATOM      1  C   UNL     1       8.547 -48.209  36.030  1.00  0.00    -0.031 C 
ATOM      2  C   UNL     1       7.969 -47.143  35.455  1.00  0.00    -0.031 C 
ENDROOT
BRANCH   1   3
ATOM      3  C   UNL     1       8.148 -48.677  37.402  1.00  0.00     0.027 C 
BRANCH   3   4
ATOM      4  C   UNL     1       8.196 -47.523  38.414  1.00  0.00     0.004 C 
BRANCH   4   5
ATOM      5  C   UNL     1       9.631 -47.092  38.764  1.00  0.00     0.000 C 
BRANCH   5   6
ATOM      6  C   UNL     1      10.135 -45.832  38.032  1.00  0.00     0.000 C 
BRANCH   6   7
ATOM      7  C   UNL     1      11.399 -46.033  37.176  1.00  0.00     0.000 C 
BRANCH   7   8
ATOM      8  C   UNL     1      12.648 -46.346  38.017  1.00  0.00     0.006 C 
BRANCH   8   9
ATOM      9  C   UNL     1      13.943 -46.174  37.213  1.00  0.00     0.053 C 
BRANCH   9  10
ATOM     10  C   UNL     1      15.028 -47.082  37.706  1.00  0.00     0.041 C 
ATOM     11  O   UNL     1      15.362 -47.071  38.920  1.00  0.00    -0.550 OA
ATOM     12  O   UNL     1      15.693 -47.917  36.817  1.00  0.00    -0.550 OA
ENDBRANCH   9  10
ENDBRANCH   8   9
ENDBRANCH   7   8
ENDBRANCH   6   7
ENDBRANCH   5   6
ENDBRANCH   4   5
ENDBRANCH   3   4
ENDBRANCH   1   3
BRANCH   2  13
ATOM     13  C   UNL     1       8.340 -46.697  34.066  1.00  0.00     0.027 C 
BRANCH  13  14
ATOM     14  C   UNL     1       7.800 -47.656  32.998  1.00  0.00     0.004 C 
BRANCH  14  15
ATOM     15  C   UNL     1       6.303 -47.953  33.189  1.00  0.00     0.000 C 
BRANCH  15  16
ATOM     16  C   UNL     1       5.393 -46.925  32.488  1.00  0.00     0.000 C 
BRANCH  16  17
ATOM     17  C   UNL     1       5.807 -46.562  31.049  1.00  0.00    -0.000 C 
BRANCH  17  18
ATOM     18  C   UNL     1       5.707 -45.065  30.696  1.00  0.00    -0.000 C 
BRANCH  18  19
ATOM     19  C   UNL     1       6.278 -44.129  31.781  1.00  0.00    -0.003 C 
ATOM     20  C   UNL     1       7.806 -44.058  31.757  1.00  0.00     0.004 C 
ENDBRANCH  18  19
ENDBRANCH  17  18
ENDBRANCH  16  17
ENDBRANCH  15  16
ENDBRANCH  14  15
ENDBRANCH  13  14
ENDBRANCH   2  13
TORSDOF 15
ENDMDL
MODEL 4
REMARK VINA RESULT:    -5.848      3.334      7.635
REMARK INTER + INTRA:         -12.757
REMARK INTER:                 -10.493
REMARK INTRA:                  -2.264
REMARK UNBOUND:                -1.781
REMARK SMILES CCCCCCCCC=CCCCCCCCC(=O)[O-]
REMARK SMILES IDX 10 1 9 2 11 3 12 4 13 5 14 6 15 7 16 8 17 9 18 10 19 11
REMARK SMILES IDX 20 12 8 13 7 14 6 15 5 16 4 17 3 18 2 19 1 20
REMARK H PARENT
REMARK Flexibility Score: inf
ROOT
ATOM      1  C   UNL     1       9.032 -45.830  34.740  1.00  0.00    -0.031 C 
ATOM      2  C   UNL     1       9.144 -47.080  34.266  1.00  0.00    -0.031 C 
ENDROOT
BRANCH   1   3
ATOM      3  C   UNL     1       9.477 -44.639  33.937  1.00  0.00     0.027 C 
BRANCH   3   4
ATOM      4  C   UNL     1       9.705 -45.019  32.466  1.00  0.00     0.004 C 
BRANCH   4   5
ATOM      5  C   UNL     1       8.504 -44.678  31.566  1.00  0.00     0.000 C 
BRANCH   5   6
ATOM      6  C   UNL     1       7.417 -43.804  32.225  1.00  0.00     0.000 C 
BRANCH   6   7
ATOM      7  C   UNL     1       6.031 -43.870  31.559  1.00  0.00     0.000 C 
BRANCH   7   8
ATOM      8  C   UNL     1       5.816 -45.162  30.753  1.00  0.00     0.006 C 
BRANCH   8   9
ATOM      9  C   UNL     1       4.857 -46.130  31.458  1.00  0.00     0.053 C 
BRANCH   9  10
ATOM     10  C   UNL     1       5.583 -47.046  32.395  1.00  0.00     0.041 C 
ATOM     11  O   UNL     1       6.642 -47.620  32.028  1.00  0.00    -0.550 OA
ATOM     12  O   UNL     1       5.071 -47.291  33.663  1.00  0.00    -0.550 OA
ENDBRANCH   9  10
ENDBRANCH   8   9
ENDBRANCH   7   8
ENDBRANCH   6   7
ENDBRANCH   5   6
ENDBRANCH   4   5
ENDBRANCH   3   4
ENDBRANCH   1   3
BRANCH   2  13
ATOM     13  C   UNL     1       8.664 -48.269  35.052  1.00  0.00     0.027 C 
BRANCH  13  14
ATOM     14  C   UNL     1       7.722 -47.856  36.190  1.00  0.00     0.004 C 
BRANCH  14  15
ATOM     15  C   UNL     1       7.961 -48.679  37.467  1.00  0.00     0.000 C 
BRANCH  15  16
ATOM     16  C   UNL     1       8.565 -47.846  38.614  1.00  0.00     0.000 C 
BRANCH  16  17
ATOM     17  C   UNL     1       8.268 -46.335  38.548  1.00  0.00    -0.000 C 
BRANCH  17  18
ATOM     18  C   UNL     1       9.488 -45.440  38.255  1.00  0.00    -0.000 C 
BRANCH  18  19
ATOM     19  C   UNL     1      10.842 -46.167  38.390  1.00  0.00    -0.003 C 
ATOM     20  C   UNL     1      11.781 -45.890  37.215  1.00  0.00     0.004 C 
ENDBRANCH  18  19
ENDBRANCH  17  18
ENDBRANCH  16  17
ENDBRANCH  15  16
ENDBRANCH  14  15
ENDBRANCH  13  14
ENDBRANCH   2  13
TORSDOF 15
ENDMDL
MODEL 5
REMARK VINA RESULT:    -5.836      2.523      7.230
REMARK INTER + INTRA:         -12.735
REMARK INTER:                 -11.093
REMARK INTRA:                  -1.642
REMARK UNBOUND:                -1.781
REMARK SMILES CCCCCCCCC=CCCCCCCCC(=O)[O-]
REMARK SMILES IDX 10 1 9 2 11 3 12 4 13 5 14 6 15 7 16 8 17 9 18 10 19 11
REMARK SMILES IDX 20 12 8 13 7 14 6 15 5 16 4 17 3 18 2 19 1 20
REMARK H PARENT
REMARK Flexibility Score: inf
ROOT
ATOM      1  C   UNL     1       7.908 -48.961  37.382  1.00  0.00    -0.031 C 
ATOM      2  C   UNL     1       8.172 -47.655  37.227  1.00  0.00    -0.031 C 
ENDROOT
BRANCH   1   3
ATOM      3  C   UNL     1       7.908 -49.908  36.214  1.00  0.00     0.027 C 
BRANCH   3   4
ATOM      4  C   UNL     1       6.546 -50.602  36.066  1.00  0.00     0.004 C 
BRANCH   4   5
ATOM      5  C   UNL     1       5.648 -49.939  35.006  1.00  0.00     0.000 C 
BRANCH   5   6
ATOM      6  C   UNL     1       6.394 -49.126  33.929  1.00  0.00     0.000 C 
BRANCH   6   7
ATOM      7  C   UNL     1       5.766 -47.763  33.584  1.00  0.00     0.000 C 
BRANCH   7   8
ATOM      8  C   UNL     1       6.804 -46.725  33.124  1.00  0.00     0.006 C 
BRANCH   8   9
ATOM      9  C   UNL     1       8.242 -47.217  33.331  1.00  0.00     0.053 C 
BRANCH   9  10
ATOM     10  C   UNL     1       9.073 -46.209  34.065  1.00  0.00     0.041 C 
ATOM     11  O   UNL     1      10.241 -46.499  34.437  1.00  0.00    -0.550 OA
ATOM     12  O   UNL     1       8.545 -44.961  34.368  1.00  0.00    -0.550 OA
ENDBRANCH   9  10
ENDBRANCH   8   9
ENDBRANCH   7   8
ENDBRANCH   6   7
ENDBRANCH   5   6
ENDBRANCH   4   5
ENDBRANCH   3   4
ENDBRANCH   1   3
BRANCH   2  13
ATOM     13  C   UNL     1       8.211 -46.712  38.399  1.00  0.00     0.027 C 
BRANCH  13  14
ATOM     14  C   UNL     1       9.310 -45.654  38.242  1.00  0.00     0.004 C 
BRANCH  14  15
ATOM     15  C   UNL     1      10.694 -46.286  38.015  1.00  0.00     0.000 C 
BRANCH  15  16
ATOM     16  C   UNL     1      11.187 -47.103  39.225  1.00  0.00     0.000 C 
BRANCH  16  17
ATOM     17  C   UNL     1      12.714 -47.286  39.311  1.00  0.00    -0.000 C 
BRANCH  17  18
ATOM     18  C   UNL     1      13.518 -46.634  38.169  1.00  0.00    -0.000 C 
BRANCH  18  19
ATOM     19  C   UNL     1      15.007 -47.036  38.147  1.00  0.00    -0.003 C 
ATOM     20  C   UNL     1      15.329 -48.049  37.046  1.00  0.00     0.004 C 
ENDBRANCH  18  19
ENDBRANCH  17  18
ENDBRANCH  16  17
ENDBRANCH  15  16
ENDBRANCH  14  15
ENDBRANCH  13  14
ENDBRANCH   2  13
TORSDOF 15
ENDMDL
MODEL 6
REMARK VINA RESULT:    -5.817      2.876      7.132
REMARK INTER + INTRA:         -12.698
REMARK INTER:                 -11.167
REMARK INTRA:                  -1.532
REMARK UNBOUND:                -1.781
REMARK SMILES CCCCCCCCC=CCCCCCCCC(=O)[O-]
REMARK SMILES IDX 10 1 9 2 11 3 12 4 13 5 14 6 15 7 16 8 17 9 18 10 19 11
REMARK SMILES IDX 20 12 8 13 7 14 6 15 5 16 4 17 3 18 2 19 1 20
REMARK H PARENT
REMARK Flexibility Score: inf
ROOT
ATOM      1  C   UNL     1       7.507 -48.768  38.250  1.00  0.00    -0.031 C 
ATOM      2  C   UNL     1       7.971 -47.509  38.234  1.00  0.00    -0.031 C 
ENDROOT
BRANCH   1   3
ATOM      3  C   UNL     1       6.158 -49.117  37.687  1.00  0.00     0.027 C 
BRANCH   3   4
ATOM      4  C   UNL     1       6.198 -49.174  36.153  1.00  0.00     0.004 C 
BRANCH   4   5
ATOM      5  C   UNL     1       7.403 -49.964  35.613  1.00  0.00     0.000 C 
BRANCH   5   6
ATOM      6  C   UNL     1       8.465 -49.122  34.878  1.00  0.00     0.000 C 
BRANCH   6   7
ATOM      7  C   UNL     1       8.069 -47.659  34.609  1.00  0.00     0.000 C 
BRANCH   7   8
ATOM      8  C   UNL     1       9.275 -46.765  34.274  1.00  0.00     0.006 C 
BRANCH   8   9
ATOM      9  C   UNL     1       8.978 -45.803  33.116  1.00  0.00     0.053 C 
BRANCH   9  10
ATOM     10  C   UNL     1       9.964 -44.678  33.061  1.00  0.00     0.041 C 
ATOM     11  O   UNL     1       9.627 -43.520  33.423  1.00  0.00    -0.550 OA
ATOM     12  O   UNL     1      11.247 -44.901  32.579  1.00  0.00    -0.550 OA
ENDBRANCH   9  10
ENDBRANCH   8   9
ENDBRANCH   7   8
ENDBRANCH   6   7
ENDBRANCH   5   6
ENDBRANCH   4   5
ENDBRANCH   3   4
ENDBRANCH   1   3
BRANCH   2  13
ATOM     13  C   UNL     1       9.337 -47.163  38.762  1.00  0.00     0.027 C 
BRANCH  13  14
ATOM     14  C   UNL     1      10.027 -46.099  37.900  1.00  0.00     0.004 C 
BRANCH  14  15
ATOM     15  C   UNL     1      11.559 -46.143  38.040  1.00  0.00     0.000 C 
BRANCH  15  16
ATOM     16  C   UNL     1      12.024 -46.909  39.294  1.00  0.00     0.000 C 
BRANCH  16  17
ATOM     17  C   UNL     1      13.462 -47.456  39.227  1.00  0.00    -0.000 C 
BRANCH  17  18
ATOM     18  C   UNL     1      14.348 -46.842  38.125  1.00  0.00    -0.000 C 
BRANCH  18  19
ATOM     19  C   UNL     1      15.215 -47.874  37.375  1.00  0.00    -0.003 C 
ATOM     20  C   UNL     1      15.717 -47.355  36.027  1.00  0.00     0.004 C 
ENDBRANCH  18  19
ENDBRANCH  17  18
ENDBRANCH  16  17
ENDBRANCH  15  16
ENDBRANCH  14  15
ENDBRANCH  13  14
ENDBRANCH   2  13
TORSDOF 15
ENDMDL
MODEL 7
REMARK VINA RESULT:    -5.740      2.620      7.467
REMARK INTER + INTRA:         -12.555
REMARK INTER:                 -11.135
REMARK INTRA:                  -1.421
REMARK UNBOUND:                -1.781
REMARK SMILES CCCCCCCCC=CCCCCCCCC(=O)[O-]
REMARK SMILES IDX 10 1 9 2 11 3 12 4 13 5 14 6 15 7 16 8 17 9 18 10 19 11
REMARK SMILES IDX 20 12 8 13 7 14 6 15 5 16 4 17 3 18 2 19 1 20
REMARK H PARENT
REMARK Flexibility Score: inf
ROOT
ATOM      1  C   UNL     1       9.087 -47.153  36.149  1.00  0.00    -0.031 C 
ATOM      2  C   UNL     1       8.985 -47.705  37.368  1.00  0.00    -0.031 C 
ENDROOT
BRANCH   1   3
ATOM      3  C   UNL     1       8.859 -47.957  34.899  1.00  0.00     0.027 C 
BRANCH   3   4
ATOM      4  C   UNL     1       7.749 -48.998  35.106  1.00  0.00     0.004 C 
BRANCH   4   5
ATOM      5  C   UNL     1       6.733 -49.030  33.951  1.00  0.00     0.000 C 
BRANCH   5   6
ATOM      6  C   UNL     1       5.869 -47.761  33.802  1.00  0.00     0.000 C 
BRANCH   6   7
ATOM      7  C   UNL     1       5.942 -47.078  32.424  1.00  0.00     0.000 C 
BRANCH   7   8
ATOM      8  C   UNL     1       7.342 -47.155  31.791  1.00  0.00     0.006 C 
BRANCH   8   9
ATOM      9  C   UNL     1       7.918 -45.765  31.493  1.00  0.00     0.053 C 
BRANCH   9  10
ATOM     10  C   UNL     1       8.828 -45.295  32.586  1.00  0.00     0.041 C 
ATOM     11  O   UNL     1       8.370 -44.622  33.548  1.00  0.00    -0.550 OA
ATOM     12  O   UNL     1      10.187 -45.571  32.527  1.00  0.00    -0.550 OA
ENDBRANCH   9  10
ENDBRANCH   8   9
ENDBRANCH   7   8
ENDBRANCH   6   7
ENDBRANCH   5   6
ENDBRANCH   4   5
ENDBRANCH   3   4
ENDBRANCH   1   3
BRANCH   2  13
ATOM     13  C   UNL     1       9.175 -46.894  38.621  1.00  0.00     0.027 C 
BRANCH  13  14
ATOM     14  C   UNL     1      10.234 -45.801  38.435  1.00  0.00     0.004 C 
BRANCH  14  15
ATOM     15  C   UNL     1      11.664 -46.365  38.485  1.00  0.00     0.000 C 
BRANCH  15  16
ATOM     16  C   UNL     1      12.460 -46.096  37.194  1.00  0.00     0.000 C 
BRANCH  16  17
ATOM     17  C   UNL     1      13.951 -45.767  37.402  1.00  0.00    -0.000 C 
BRANCH  17  18
ATOM     18  C   UNL     1      14.791 -46.898  38.026  1.00  0.00    -0.000 C 
BRANCH  18  19
ATOM     19  C   UNL     1      15.306 -47.930  37.001  1.00  0.00    -0.003 C 
ATOM     20  C   UNL     1      16.121 -47.290  35.877  1.00  0.00     0.004 C 
ENDBRANCH  18  19
ENDBRANCH  17  18
ENDBRANCH  16  17
ENDBRANCH  15  16
ENDBRANCH  14  15
ENDBRANCH  13  14
ENDBRANCH   2  13
TORSDOF 15
ENDMDL
MODEL 8
REMARK VINA RESULT:    -5.701      1.585      3.387
REMARK INTER + INTRA:         -12.481
REMARK INTER:                 -10.700
REMARK INTRA:                  -1.782
REMARK UNBOUND:                -1.781
REMARK SMILES CCCCCCCCC=CCCCCCCCC(=O)[O-]
REMARK SMILES IDX 10 1 9 2 11 3 12 4 13 5 14 6 15 7 16 8 17 9 18 10 19 11
REMARK SMILES IDX 20 12 8 13 7 14 6 15 5 16 4 17 3 18 2 19 1 20
REMARK H PARENT
REMARK Flexibility Score: inf
ROOT
ATOM      1  C   UNL     1       7.776 -48.819  37.302  1.00  0.00    -0.031 C 
ATOM      2  C   UNL     1       8.241 -48.663  36.052  1.00  0.00    -0.031 C 
ENDROOT
BRANCH   1   3
ATOM      3  C   UNL     1       8.301 -47.997  38.445  1.00  0.00     0.027 C 
BRANCH   3   4
ATOM      4  C   UNL     1       7.680 -46.593  38.447  1.00  0.00     0.004 C 
BRANCH   4   5
ATOM      5  C   UNL     1       8.555 -45.549  37.732  1.00  0.00     0.000 C 
BRANCH   5   6
ATOM      6  C   UNL     1      10.012 -45.460  38.231  1.00  0.00     0.000 C 
BRANCH   6   7
ATOM      7  C   UNL     1      11.072 -46.009  37.259  1.00  0.00     0.000 C 
BRANCH   7   8
ATOM      8  C   UNL     1      12.319 -46.551  37.978  1.00  0.00     0.006 C 
BRANCH   8   9
ATOM      9  C   UNL     1      13.615 -46.185  37.242  1.00  0.00     0.053 C 
BRANCH   9  10
ATOM     10  C   UNL     1      14.733 -47.120  37.588  1.00  0.00     0.041 C 
ATOM     11  O   UNL     1      15.076 -48.025  36.782  1.00  0.00    -0.550 OA
ATOM     12  O   UNL     1      15.374 -47.014  38.815  1.00  0.00    -0.550 OA
ENDBRANCH   9  10
ENDBRANCH   8   9
ENDBRANCH   7   8
ENDBRANCH   6   7
ENDBRANCH   5   6
ENDBRANCH   4   5
ENDBRANCH   3   4
ENDBRANCH   1   3
BRANCH   2  13
ATOM     13  C   UNL     1       7.690 -49.457  34.899  1.00  0.00     0.027 C 
BRANCH  13  14
ATOM     14  C   UNL     1       6.170 -49.293  34.771  1.00  0.00     0.004 C 
BRANCH  14  15
ATOM     15  C   UNL     1       5.788 -48.016  34.003  1.00  0.00     0.000 C 
BRANCH  15  16
ATOM     16  C   UNL     1       6.746 -47.708  32.836  1.00  0.00     0.000 C 
BRANCH  16  17
ATOM     17  C   UNL     1       7.466 -46.350  32.924  1.00  0.00    -0.000 C 
BRANCH  17  18
ATOM     18  C   UNL     1       9.005 -46.426  32.976  1.00  0.00    -0.000 C 
BRANCH  18  19
ATOM     19  C   UNL     1       9.651 -45.371  33.899  1.00  0.00    -0.003 C 
ATOM     20  C   UNL     1       9.073 -43.971  33.691  1.00  0.00     0.004 C 
ENDBRANCH  18  19
ENDBRANCH  17  18
ENDBRANCH  16  17
ENDBRANCH  15  16
ENDBRANCH  14  15
ENDBRANCH  13  14
ENDBRANCH   2  13
TORSDOF 15
ENDMDL
MODEL 9
REMARK VINA RESULT:    -5.690      1.418      2.864
REMARK INTER + INTRA:         -12.460
REMARK INTER:                 -10.919
REMARK INTRA:                  -1.540
REMARK UNBOUND:                -1.781
REMARK SMILES CCCCCCCCC=CCCCCCCCC(=O)[O-]
REMARK SMILES IDX 10 1 9 2 11 3 12 4 13 5 14 6 15 7 16 8 17 9 18 10 19 11
REMARK SMILES IDX 20 12 8 13 7 14 6 15 5 16 4 17 3 18 2 19 1 20
REMARK H PARENT
REMARK Flexibility Score: inf
ROOT
ATOM      1  C   UNL     1       9.624 -45.020  34.139  1.00  0.00    -0.031 C 
ATOM      2  C   UNL     1       9.503 -45.426  32.865  1.00  0.00    -0.031 C 
ENDROOT
BRANCH   1   3
ATOM      3  C   UNL     1      10.494 -45.756  35.120  1.00  0.00     0.027 C 
BRANCH   3   4
ATOM      4  C   UNL     1       9.719 -46.895  35.798  1.00  0.00     0.004 C 
BRANCH   4   5
ATOM      5  C   UNL     1       9.147 -46.497  37.171  1.00  0.00     0.000 C 
BRANCH   5   6
ATOM      6  C   UNL     1       9.874 -47.107  38.387  1.00  0.00     0.000 C 
BRANCH   6   7
ATOM      7  C   UNL     1      11.003 -46.242  38.977  1.00  0.00     0.000 C 
BRANCH   7   8
ATOM      8  C   UNL     1      12.387 -46.903  38.859  1.00  0.00     0.006 C 
BRANCH   8   9
ATOM      9  C   UNL     1      13.171 -46.389  37.645  1.00  0.00     0.053 C 
BRANCH   9  10
ATOM     10  C   UNL     1      14.606 -46.815  37.690  1.00  0.00     0.041 C 
ATOM     11  O   UNL     1      15.215 -47.108  36.628  1.00  0.00    -0.550 OA
ATOM     12  O   UNL     1      15.262 -46.920  38.910  1.00  0.00    -0.550 OA
ENDBRANCH   9  10
ENDBRANCH   8   9
ENDBRANCH   7   8
ENDBRANCH   6   7
ENDBRANCH   5   6
ENDBRANCH   4   5
ENDBRANCH   3   4
ENDBRANCH   1   3
BRANCH   2  13
ATOM     13  C   UNL     1       8.665 -44.669  31.871  1.00  0.00     0.027 C 
BRANCH  13  14
ATOM     14  C   UNL     1       7.279 -45.302  31.697  1.00  0.00     0.004 C 
BRANCH  14  15
ATOM     15  C   UNL     1       7.285 -46.806  32.019  1.00  0.00     0.000 C 
BRANCH  15  16
ATOM     16  C   UNL     1       5.889 -47.346  32.389  1.00  0.00     0.000 C 
BRANCH  16  17
ATOM     17  C   UNL     1       5.783 -47.971  33.793  1.00  0.00    -0.000 C 
BRANCH  17  18
ATOM     18  C   UNL     1       6.753 -49.138  34.067  1.00  0.00    -0.000 C 
BRANCH  18  19
ATOM     19  C   UNL     1       6.472 -49.884  35.387  1.00  0.00    -0.003 C 
ATOM     20  C   UNL     1       7.722 -50.036  36.257  1.00  0.00     0.004 C 
ENDBRANCH  18  19
ENDBRANCH  17  18
ENDBRANCH  16  17
ENDBRANCH  15  16
ENDBRANCH  14  15
ENDBRANCH  13  14
ENDBRANCH   2  13
TORSDOF 15
ENDMDL
