MODEL 1
REMARK VINA RESULT:    -4.668      0.000      0.000
REMARK INTER + INTRA:          -8.689
REMARK INTER:                  -7.942
REMARK INTRA:                  -0.747
REMARK UNBOUND:                -0.747
REMARK SMILES CCCCCCCCCCCCCC(=O)[O-]
REMARK SMILES IDX 8 1 9 2 10 3 11 4 12 5 13 6 14 7 15 8 16 9 7 10 6 11 5 12
REMARK SMILES IDX 4 13 3 14 2 15 1 16
REMARK H PARENT
REMARK Flexibility Score: inf
ROOT
ATOM      1  C   UNL     1       7.393   6.004   0.643  1.00  0.00     0.000 C 
ENDROOT
BRANCH   1   2
ATOM      2  C   UNL     1       7.631   7.409   1.208  1.00  0.00     0.000 C 
BRANCH   2   3
ATOM      3  C   UNL     1       8.927   7.458   2.033  1.00  0.00     0.000 C 
BRANCH   3   4
ATOM      4  C   UNL     1       9.045   8.739   2.874  1.00  0.00     0.000 C 
BRANCH   4   5
ATOM      5  C   UNL     1       7.718   9.506   2.976  1.00  0.00     0.006 C 
BRANCH   5   6
ATOM      6  C   UNL     1       7.369   9.804   4.438  1.00  0.00     0.053 C 
BRANCH   6   7
ATOM      7  C   UNL     1       5.944   9.449   4.720  1.00  0.00     0.041 C 
ATOM      8  O   UNL     1       5.137   9.270   3.771  1.00  0.00    -0.550 OA
ATOM      9  O   UNL     1       5.495   9.363   6.032  1.00  0.00    -0.550 OA
ENDBRANCH   6   7
ENDBRANCH   5   6
ENDBRANCH   4   5
ENDBRANCH   3   4
ENDBRANCH   2   3
ENDBRANCH   1   2
BRANCH   1  10
ATOM     10  C   UNL     1       8.112   4.942   1.485  1.00  0.00     0.000 C 
BRANCH  10  11
ATOM     11  C   UNL     1       8.232   3.619   0.714  1.00  0.00    -0.000 C 
BRANCH  11  12
ATOM     12  C   UNL     1       7.008   3.331  -0.169  1.00  0.00    -0.000 C 
BRANCH  12  13
ATOM     13  C   UNL     1       6.126   2.202   0.394  1.00  0.00    -0.000 C 
BRANCH  13  14
ATOM     14  C   UNL     1       6.160   0.937  -0.480  1.00  0.00    -0.000 C 
BRANCH  14  15
ATOM     15  C   UNL     1       7.079   1.085  -1.702  1.00  0.00    -0.003 C 
ATOM     16  C   UNL     1       6.300   0.895  -3.000  1.00  0.00     0.004 C 
ENDBRANCH  14  15
ENDBRANCH  13  14
ENDBRANCH  12  13
ENDBRANCH  11  12
ENDBRANCH  10  11
ENDBRANCH   1  10
TORSDOF 12
ENDMDL
MODEL 2
REMARK VINA RESULT:    -4.611      4.533      8.716
REMARK INTER + INTRA:          -8.592
REMARK INTER:                  -7.770
REMARK INTRA:                  -0.822
REMARK UNBOUND:                -0.747
REMARK SMILES CCCCCCCCCCCCCC(=O)[O-]
REMARK SMILES IDX 8 1 9 2 10 3 11 4 12 5 13 6 14 7 15 8 16 9 7 10 6 11 5 12
REMARK SMILES IDX 4 13 3 14 2 15 1 16
REMARK H PARENT
REMARK Flexibility Score: inf
ROOT
ATOM      1  C   UNL     1       6.926   3.829   0.702  1.00  0.00     0.000 C 
ENDROOT
BRANCH   1   2
ATOM      2  C   UNL     1       6.468   2.951  -0.469  1.00  0.00     0.000 C 
BRANCH   2   3
ATOM      3  C   UNL     1       6.028   1.564   0.024  1.00  0.00     0.000 C 
BRANCH   3   4
ATOM      4  C   UNL     1       6.735   0.419  -0.720  1.00  0.00     0.000 C 
BRANCH   4   5
ATOM      5  C   UNL     1       8.032   0.872  -1.408  1.00  0.00     0.006 C 
BRANCH   5   6
ATOM      6  C   UNL     1       8.487  -0.156  -2.448  1.00  0.00     0.053 C 
BRANCH   6   7
ATOM      7  C   UNL     1       7.677  -0.030  -3.699  1.00  0.00     0.041 C 
ATOM      8  O   UNL     1       7.622  -0.985  -4.517  1.00  0.00    -0.550 OA
ATOM      9  O   UNL     1       7.021   1.161  -3.986  1.00  0.00    -0.550 OA
ENDBRANCH   6   7
ENDBRANCH   5   6
ENDBRANCH   4   5
ENDBRANCH   3   4
ENDBRANCH   2   3
ENDBRANCH   1   2
BRANCH   1  10
ATOM     10  C   UNL     1       8.455   3.940   0.742  1.00  0.00     0.000 C 
BRANCH  10  11
ATOM     11  C   UNL     1       8.898   5.411   0.753  1.00  0.00    -0.000 C 
BRANCH  11  12
ATOM     12  C   UNL     1       7.716   6.390   0.679  1.00  0.00    -0.000 C 
BRANCH  12  13
ATOM     13  C   UNL     1       8.118   7.760   0.106  1.00  0.00    -0.000 C 
BRANCH  13  14
ATOM     14  C   UNL     1       8.400   8.799   1.204  1.00  0.00    -0.000 C 
BRANCH  14  15
ATOM     15  C   UNL     1       7.765   8.423   2.551  1.00  0.00    -0.003 C 
ATOM     16  C   UNL     1       8.834   8.196   3.617  1.00  0.00     0.004 C 
ENDBRANCH  14  15
ENDBRANCH  13  14
ENDBRANCH  12  13
ENDBRANCH  11  12
ENDBRANCH  10  11
ENDBRANCH   1  10
TORSDOF 12
ENDMDL
MODEL 3
REMARK VINA RESULT:    -4.558      4.216      8.627
REMARK INTER + INTRA:          -8.502
REMARK INTER:                  -7.777
REMARK INTRA:                  -0.725
REMARK UNBOUND:                -0.747
REMARK SMILES CCCCCCCCCCCCCC(=O)[O-]
REMARK SMILES IDX 8 1 9 2 10 3 11 4 12 5 13 6 14 7 15 8 16 9 7 10 6 11 5 12
REMARK SMILES IDX 4 13 3 14 2 15 1 16
REMARK H PARENT
REMARK Flexibility Score: inf
ROOT
ATOM      1  C   UNL     1       7.452   4.556   1.130  1.00  0.00     0.000 C 
ENDROOT
BRANCH   1   2
ATOM      2  C   UNL     1       8.517   3.721   0.411  1.00  0.00     0.000 C 
BRANCH   2   3
ATOM      3  C   UNL     1       7.889   2.870  -0.703  1.00  0.00     0.000 C 
BRANCH   3   4
ATOM      4  C   UNL     1       6.572   2.204  -0.270  1.00  0.00     0.000 C 
BRANCH   4   5
ATOM      5  C   UNL     1       6.436   0.766  -0.791  1.00  0.00     0.006 C 
BRANCH   5   6
ATOM      6  C   UNL     1       7.539   0.444  -1.804  1.00  0.00     0.053 C 
BRANCH   6   7
ATOM      7  C   UNL     1       6.994   0.465  -3.196  1.00  0.00     0.041 C 
ATOM      8  O   UNL     1       7.291  -0.450  -4.007  1.00  0.00    -0.550 OA
ATOM      9  O   UNL     1       6.197   1.523  -3.615  1.00  0.00    -0.550 OA
ENDBRANCH   6   7
ENDBRANCH   5   6
ENDBRANCH   4   5
ENDBRANCH   3   4
ENDBRANCH   2   3
ENDBRANCH   1   2
BRANCH   1  10
ATOM     10  C   UNL     1       7.182   5.867   0.382  1.00  0.00     0.000 C 
BRANCH  10  11
ATOM     11  C   UNL     1       7.616   7.078   1.223  1.00  0.00    -0.000 C 
BRANCH  11  12
ATOM     12  C   UNL     1       8.416   6.679   2.473  1.00  0.00    -0.000 C 
BRANCH  12  13
ATOM     13  C   UNL     1       8.587   7.846   3.462  1.00  0.00    -0.000 C 
BRANCH  13  14
ATOM     14  C   UNL     1       7.982   9.158   2.934  1.00  0.00    -0.000 C 
BRANCH  14  15
ATOM     15  C   UNL     1       6.796   9.646   3.778  1.00  0.00    -0.003 C 
ATOM     16  C   UNL     1       6.962   9.244   5.241  1.00  0.00     0.004 C 
ENDBRANCH  14  15
ENDBRANCH  13  14
ENDBRANCH  12  13
ENDBRANCH  11  12
ENDBRANCH  10  11
ENDBRANCH   1  10
TORSDOF 12
ENDMDL
MODEL 4
REMARK VINA RESULT:    -4.454      4.800      8.617
REMARK INTER + INTRA:          -8.325
REMARK INTER:                  -7.649
REMARK INTRA:                  -0.676
REMARK UNBOUND:                -0.747
REMARK SMILES CCCCCCCCCCCCCC(=O)[O-]
REMARK SMILES IDX 8 1 9 2 10 3 11 4 12 5 13 6 14 7 15 8 16 9 7 10 6 11 5 12
REMARK SMILES IDX 4 13 3 14 2 15 1 16
REMARK H PARENT
REMARK Flexibility Score: inf
ROOT
ATOM      1  C   UNL     1       7.264   4.467   0.554  1.00  0.00     0.000 C 
ENDROOT
BRANCH   1   2
ATOM      2  C   UNL     1       7.224   3.177  -0.273  1.00  0.00     0.000 C 
BRANCH   2   3
ATOM      3  C   UNL     1       6.176   2.200   0.282  1.00  0.00     0.000 C 
BRANCH   3   4
ATOM      4  C   UNL     1       6.164   0.856  -0.464  1.00  0.00     0.000 C 
BRANCH   4   5
ATOM      5  C   UNL     1       6.544   0.999  -1.946  1.00  0.00     0.006 C 
BRANCH   5   6
ATOM      6  C   UNL     1       7.775   0.150  -2.279  1.00  0.00     0.053 C 
BRANCH   6   7
ATOM      7  C   UNL     1       7.900  -0.034  -3.757  1.00  0.00     0.041 C 
ATOM      8  O   UNL     1       7.944   0.966  -4.519  1.00  0.00    -0.550 OA
ATOM      9  O   UNL     1       7.919  -1.313  -4.299  1.00  0.00    -0.550 OA
ENDBRANCH   6   7
ENDBRANCH   5   6
ENDBRANCH   4   5
ENDBRANCH   3   4
ENDBRANCH   2   3
ENDBRANCH   1   2
BRANCH   1  10
ATOM     10  C   UNL     1       8.427   4.445   1.553  1.00  0.00     0.000 C 
BRANCH  10  11
ATOM     11  C   UNL     1       8.614   5.822   2.209  1.00  0.00    -0.000 C 
BRANCH  11  12
ATOM     12  C   UNL     1       7.721   6.906   1.583  1.00  0.00    -0.000 C 
BRANCH  12  13
ATOM     13  C   UNL     1       8.212   8.330   1.899  1.00  0.00    -0.000 C 
BRANCH  13  14
ATOM     14  C   UNL     1       8.663   9.090   0.641  1.00  0.00    -0.000 C 
BRANCH  14  15
ATOM     15  C   UNL     1       8.353   8.327  -0.655  1.00  0.00    -0.003 C 
ATOM     16  C   UNL     1       9.039   8.978  -1.853  1.00  0.00     0.004 C 
ENDBRANCH  14  15
ENDBRANCH  13  14
ENDBRANCH  12  13
ENDBRANCH  11  12
ENDBRANCH  10  11
ENDBRANCH   1  10
TORSDOF 12
ENDMDL
MODEL 5
REMARK VINA RESULT:    -4.397      9.197     10.876
REMARK INTER + INTRA:          -8.229
REMARK INTER:                  -6.273
REMARK INTRA:                  -1.956
REMARK UNBOUND:                -0.747
REMARK SMILES CCCCCCCCCCCCCC(=O)[O-]
REMARK SMILES IDX 8 1 9 2 10 3 11 4 12 5 13 6 14 7 15 8 16 9 7 10 6 11 5 12
REMARK SMILES IDX 4 13 3 14 2 15 1 16
REMARK H PARENT
REMARK Flexibility Score: inf
ROOT
ATOM      1  C   UNL     1       2.931   5.119   9.764  1.00  0.00     0.000 C 
ENDROOT
BRANCH   1   2
ATOM      2  C   UNL     1       1.491   5.630   9.892  1.00  0.00     0.000 C 
BRANCH   2   3
ATOM      3  C   UNL     1       1.353   6.594  11.080  1.00  0.00     0.000 C 
BRANCH   3   4
ATOM      4  C   UNL     1       0.530   7.846  10.735  1.00  0.00     0.000 C 
BRANCH   4   5
ATOM      5  C   UNL     1       0.875   8.419   9.352  1.00  0.00     0.006 C 
BRANCH   5   6
ATOM      6  C   UNL     1       2.194   9.197   9.397  1.00  0.00     0.053 C 
BRANCH   6   7
ATOM      7  C   UNL     1       3.219   8.541   8.528  1.00  0.00     0.041 C 
ATOM      8  O   UNL     1       2.873   7.960   7.467  1.00  0.00    -0.550 OA
ATOM      9  O   UNL     1       4.553   8.526   8.917  1.00  0.00    -0.550 OA
ENDBRANCH   6   7
ENDBRANCH   5   6
ENDBRANCH   4   5
ENDBRANCH   3   4
ENDBRANCH   2   3
ENDBRANCH   1   2
BRANCH   1  10
ATOM     10  C   UNL     1       3.799   5.623  10.923  1.00  0.00     0.000 C 
BRANCH  10  11
ATOM     11  C   UNL     1       4.422   4.449  11.693  1.00  0.00    -0.000 C 
BRANCH  11  12
ATOM     12  C   UNL     1       3.559   3.990  12.879  1.00  0.00    -0.000 C 
BRANCH  12  13
ATOM     13  C   UNL     1       2.789   2.691  12.582  1.00  0.00    -0.000 C 
BRANCH  13  14
ATOM     14  C   UNL     1       1.265   2.885  12.636  1.00  0.00    -0.000 C 
BRANCH  14  15
ATOM     15  C   UNL     1       0.550   2.306  11.406  1.00  0.00    -0.003 C 
ATOM     16  C   UNL     1       1.554   1.849  10.352  1.00  0.00     0.004 C 
ENDBRANCH  14  15
ENDBRANCH  13  14
ENDBRANCH  12  13
ENDBRANCH  11  12
ENDBRANCH  10  11
ENDBRANCH   1  10
TORSDOF 12
ENDMDL
MODEL 6
REMARK VINA RESULT:    -4.306      9.347     10.959
REMARK INTER + INTRA:          -8.074
REMARK INTER:                  -6.540
REMARK INTRA:                  -1.534
REMARK UNBOUND:                -0.747
REMARK SMILES CCCCCCCCCCCCCC(=O)[O-]
REMARK SMILES IDX 8 1 9 2 10 3 11 4 12 5 13 6 14 7 15 8 16 9 7 10 6 11 5 12
REMARK SMILES IDX 4 13 3 14 2 15 1 16
REMARK H PARENT
REMARK Flexibility Score: inf
ROOT
ATOM      1  C   UNL     1       2.471   5.249  12.110  1.00  0.00     0.000 C 
ENDROOT
BRANCH   1   2
ATOM      2  C   UNL     1       2.915   5.442  10.655  1.00  0.00     0.000 C 
BRANCH   2   3
ATOM      3  C   UNL     1       1.727   5.840   9.766  1.00  0.00     0.000 C 
BRANCH   3   4
ATOM      4  C   UNL     1       0.854   6.936  10.398  1.00  0.00     0.000 C 
BRANCH   4   5
ATOM      5  C   UNL     1       0.920   8.263   9.628  1.00  0.00     0.006 C 
BRANCH   5   6
ATOM      6  C   UNL     1       1.667   8.090   8.302  1.00  0.00     0.053 C 
BRANCH   6   7
ATOM      7  C   UNL     1       2.820   9.039   8.222  1.00  0.00     0.041 C 
ATOM      8  O   UNL     1       3.871   8.709   7.614  1.00  0.00    -0.550 OA
ATOM      9  O   UNL     1       2.753  10.270   8.862  1.00  0.00    -0.550 OA
ENDBRANCH   6   7
ENDBRANCH   5   6
ENDBRANCH   4   5
ENDBRANCH   3   4
ENDBRANCH   2   3
ENDBRANCH   1   2
BRANCH   1  10
ATOM     10  C   UNL     1       3.446   4.340  12.868  1.00  0.00     0.000 C 
BRANCH  10  11
ATOM     11  C   UNL     1       4.040   3.272  11.936  1.00  0.00    -0.000 C 
BRANCH  11  12
ATOM     12  C   UNL     1       3.865   1.845  12.479  1.00  0.00    -0.000 C 
BRANCH  12  13
ATOM     13  C   UNL     1       2.632   1.137  11.890  1.00  0.00    -0.000 C 
BRANCH  13  14
ATOM     14  C   UNL     1       2.159   1.775  10.573  1.00  0.00    -0.000 C 
BRANCH  14  15
ATOM     15  C   UNL     1       0.715   2.292  10.651  1.00  0.00    -0.003 C 
ATOM     16  C   UNL     1       0.087   1.966  12.003  1.00  0.00     0.004 C 
ENDBRANCH  14  15
ENDBRANCH  13  14
ENDBRANCH  12  13
ENDBRANCH  11  12
ENDBRANCH  10  11
ENDBRANCH   1  10
TORSDOF 12
ENDMDL
MODEL 7
REMARK VINA RESULT:    -4.232      9.305     10.977
REMARK INTER + INTRA:          -7.947
REMARK INTER:                  -6.744
REMARK INTRA:                  -1.203
REMARK UNBOUND:                -0.747
REMARK SMILES CCCCCCCCCCCCCC(=O)[O-]
REMARK SMILES IDX 8 1 9 2 10 3 11 4 12 5 13 6 14 7 15 8 16 9 7 10 6 11 5 12
REMARK SMILES IDX 4 13 3 14 2 15 1 16
REMARK H PARENT
REMARK Flexibility Score: inf
ROOT
ATOM      1  C   UNL     1       1.644   6.032   9.729  1.00  0.00     0.000 C 
ENDROOT
BRANCH   1   2
ATOM      2  C   UNL     1       1.176   6.393  11.143  1.00  0.00     0.000 C 
BRANCH   2   3
ATOM      3  C   UNL     1       1.337   7.897  11.409  1.00  0.00     0.000 C 
BRANCH   3   4
ATOM      4  C   UNL     1       0.218   8.735  10.769  1.00  0.00     0.000 C 
BRANCH   4   5
ATOM      5  C   UNL     1       0.709   9.563   9.572  1.00  0.00     0.006 C 
BRANCH   5   6
ATOM      6  C   UNL     1       2.227   9.758   9.628  1.00  0.00     0.053 C 
BRANCH   6   7
ATOM      7  C   UNL     1       2.823   9.629   8.262  1.00  0.00     0.041 C 
ATOM      8  O   UNL     1       3.109   8.494   7.801  1.00  0.00    -0.550 OA
ATOM      9  O   UNL     1       3.109  10.767   7.518  1.00  0.00    -0.550 OA
ENDBRANCH   6   7
ENDBRANCH   5   6
ENDBRANCH   4   5
ENDBRANCH   3   4
ENDBRANCH   2   3
ENDBRANCH   1   2
BRANCH   1  10
ATOM     10  C   UNL     1       2.847   5.083   9.771  1.00  0.00     0.000 C 
BRANCH  10  11
ATOM     11  C   UNL     1       3.182   4.684  11.216  1.00  0.00    -0.000 C 
BRANCH  11  12
ATOM     12  C   UNL     1       3.153   3.163  11.436  1.00  0.00    -0.000 C 
BRANCH  12  13
ATOM     13  C   UNL     1       2.350   2.425  10.351  1.00  0.00    -0.000 C 
BRANCH  13  14
ATOM     14  C   UNL     1       0.911   2.112  10.794  1.00  0.00    -0.000 C 
BRANCH  14  15
ATOM     15  C   UNL     1       0.760   2.056  12.321  1.00  0.00    -0.003 C 
ATOM     16  C   UNL     1      -0.653   1.639  12.719  1.00  0.00     0.004 C 
ENDBRANCH  14  15
ENDBRANCH  13  14
ENDBRANCH  12  13
ENDBRANCH  11  12
ENDBRANCH  10  11
ENDBRANCH   1  10
TORSDOF 12
ENDMDL
MODEL 8
REMARK VINA RESULT:    -4.142      9.955     11.235
REMARK INTER + INTRA:          -7.794
REMARK INTER:                  -6.519
REMARK INTRA:                  -1.276
REMARK UNBOUND:                -0.747
REMARK SMILES CCCCCCCCCCCCCC(=O)[O-]
REMARK SMILES IDX 8 1 9 2 10 3 11 4 12 5 13 6 14 7 15 8 16 9 7 10 6 11 5 12
REMARK SMILES IDX 4 13 3 14 2 15 1 16
REMARK H PARENT
REMARK Flexibility Score: inf
ROOT
ATOM      1  C   UNL     1       1.240   6.210   9.919  1.00  0.00     0.000 C 
ENDROOT
BRANCH   1   2
ATOM      2  C   UNL     1       2.114   6.934   8.889  1.00  0.00     0.000 C 
BRANCH   2   3
ATOM      3  C   UNL     1       1.374   8.141   8.291  1.00  0.00     0.000 C 
BRANCH   3   4
ATOM      4  C   UNL     1       2.062   9.477   8.615  1.00  0.00     0.000 C 
BRANCH   4   5
ATOM      5  C   UNL     1       1.519  10.127   9.897  1.00  0.00     0.006 C 
BRANCH   5   6
ATOM      6  C   UNL     1       0.037   9.792  10.094  1.00  0.00     0.053 C 
BRANCH   6   7
ATOM      7  C   UNL     1      -0.213   9.323  11.492  1.00  0.00     0.041 C 
ATOM      8  O   UNL     1       0.741   8.907  12.200  1.00  0.00    -0.550 OA
ATOM      9  O   UNL     1      -1.507   9.297  11.996  1.00  0.00    -0.550 OA
ENDBRANCH   6   7
ENDBRANCH   5   6
ENDBRANCH   4   5
ENDBRANCH   3   4
ENDBRANCH   2   3
ENDBRANCH   1   2
BRANCH   1  10
ATOM     10  C   UNL     1       2.062   5.799  11.147  1.00  0.00     0.000 C 
BRANCH  10  11
ATOM     11  C   UNL     1       3.178   4.817  10.757  1.00  0.00    -0.000 C 
BRANCH  11  12
ATOM     12  C   UNL     1       2.937   3.398  11.296  1.00  0.00    -0.000 C 
BRANCH  12  13
ATOM     13  C   UNL     1       2.327   2.461  10.239  1.00  0.00    -0.000 C 
BRANCH  13  14
ATOM     14  C   UNL     1       0.916   1.982  10.620  1.00  0.00    -0.000 C 
BRANCH  14  15
ATOM     15  C   UNL     1       0.442   2.549  11.966  1.00  0.00    -0.003 C 
ATOM     16  C   UNL     1      -0.212   1.465  12.819  1.00  0.00     0.004 C 
ENDBRANCH  14  15
ENDBRANCH  13  14
ENDBRANCH  12  13
ENDBRANCH  11  12
ENDBRANCH  10  11
ENDBRANCH   1  10
TORSDOF 12
ENDMDL
MODEL 9
REMARK VINA RESULT:    -4.080      8.896     10.774
REMARK INTER + INTRA:          -7.690
REMARK INTER:                  -6.474
REMARK INTRA:                  -1.215
REMARK UNBOUND:                -0.747
REMARK SMILES CCCCCCCCCCCCCC(=O)[O-]
REMARK SMILES IDX 8 1 9 2 10 3 11 4 12 5 13 6 14 7 15 8 16 9 7 10 6 11 5 12
REMARK SMILES IDX 4 13 3 14 2 15 1 16
REMARK H PARENT
REMARK Flexibility Score: inf
ROOT
ATOM      1  C   UNL     1       1.232   6.805  10.988  1.00  0.00     0.000 C 
ENDROOT
BRANCH   1   2
ATOM      2  C   UNL     1       0.381   8.067  11.169  1.00  0.00     0.000 C 
BRANCH   2   3
ATOM      3  C   UNL     1       0.373   8.914   9.888  1.00  0.00     0.000 C 
BRANCH   3   4
ATOM      4  C   UNL     1       0.800  10.370  10.137  1.00  0.00     0.000 C 
BRANCH   4   5
ATOM      5  C   UNL     1       2.208  10.674   9.603  1.00  0.00     0.006 C 
BRANCH   5   6
ATOM      6  C   UNL     1       2.467   9.931   8.289  1.00  0.00     0.053 C 
BRANCH   6   7
ATOM      7  C   UNL     1       3.834   9.324   8.291  1.00  0.00     0.041 C 
ATOM      8  O   UNL     1       4.305   8.827   9.346  1.00  0.00    -0.550 OA
ATOM      9  O   UNL     1       4.608   9.350   7.137  1.00  0.00    -0.550 OA
ENDBRANCH   6   7
ENDBRANCH   5   6
ENDBRANCH   4   5
ENDBRANCH   3   4
ENDBRANCH   2   3
ENDBRANCH   1   2
BRANCH   1  10
ATOM     10  C   UNL     1       1.543   6.558   9.506  1.00  0.00     0.000 C 
BRANCH  10  11
ATOM     11  C   UNL     1       2.752   5.624   9.346  1.00  0.00    -0.000 C 
BRANCH  11  12
ATOM     12  C   UNL     1       3.041   4.802  10.613  1.00  0.00    -0.000 C 
BRANCH  12  13
ATOM     13  C   UNL     1       2.657   3.321  10.456  1.00  0.00    -0.000 C 
BRANCH  13  14
ATOM     14  C   UNL     1       1.195   3.046  10.848  1.00  0.00    -0.000 C 
BRANCH  14  15
ATOM     15  C   UNL     1       1.072   2.085  12.040  1.00  0.00    -0.003 C 
ATOM     16  C   UNL     1      -0.391   1.829  12.389  1.00  0.00     0.004 C 
ENDBRANCH  14  15
ENDBRANCH  13  14
ENDBRANCH  12  13
ENDBRANCH  11  12
ENDBRANCH  10  11
ENDBRANCH   1  10
TORSDOF 12
ENDMDL
