MODEL 1
REMARK VINA RESULT:    -6.054      0.000      0.000
REMARK INTER + INTRA:         -12.063
REMARK INTER:                 -11.009
REMARK INTRA:                  -1.055
REMARK UNBOUND:                -1.055
REMARK SMILES CCCCCCCCCCCCCCCC(=O)[O-]
REMARK SMILES IDX 9 1 10 2 11 3 12 4 13 5 14 6 15 7 16 8 17 9 18 10 8 11 7 12
REMARK SMILES IDX 6 13 5 14 4 15 3 16 2 17 1 18
REMARK H PARENT
REMARK Flexibility Score: inf
ROOT
ATOM      1  C   UNL     1     -14.143 -14.294 -34.772  1.00  0.00     0.000 C 
ENDROOT
BRANCH   1   2
ATOM      2  C   UNL     1     -15.675 -14.226 -34.896  1.00  0.00     0.000 C 
BRANCH   2   3
ATOM      3  C   UNL     1     -16.399 -14.783 -33.662  1.00  0.00     0.000 C 
BRANCH   3   4
ATOM      4  C   UNL     1     -15.976 -14.035 -32.392  1.00  0.00     0.000 C 
BRANCH   4   5
ATOM      5  C   UNL     1     -16.978 -14.275 -31.252  1.00  0.00     0.000 C 
BRANCH   5   6
ATOM      6  C   UNL     1     -18.036 -15.331 -31.608  1.00  0.00     0.006 C 
BRANCH   6   7
ATOM      7  C   UNL     1     -18.109 -16.465 -30.576  1.00  0.00     0.053 C 
BRANCH   7   8
ATOM      8  C   UNL     1     -18.030 -17.795 -31.256  1.00  0.00     0.041 C 
ATOM      9  O   UNL     1     -18.587 -18.802 -30.746  1.00  0.00    -0.550 OA
ATOM     10  O   UNL     1     -17.300 -17.933 -32.430  1.00  0.00    -0.550 OA
ENDBRANCH   7   8
ENDBRANCH   6   7
ENDBRANCH   5   6
ENDBRANCH   4   5
ENDBRANCH   3   4
ENDBRANCH   2   3
ENDBRANCH   1   2
BRANCH   1  11
ATOM     11  C   UNL     1     -13.477 -15.473 -35.509  1.00  0.00     0.000 C 
BRANCH  11  12
ATOM     12  C   UNL     1     -13.143 -15.215 -36.990  1.00  0.00    -0.000 C 
BRANCH  12  13
ATOM     13  C   UNL     1     -13.124 -13.720 -37.345  1.00  0.00    -0.000 C 
BRANCH  13  14
ATOM     14  C   UNL     1     -11.714 -13.272 -37.756  1.00  0.00    -0.000 C 
BRANCH  14  15
ATOM     15  C   UNL     1     -10.775 -14.457 -38.033  1.00  0.00    -0.000 C 
BRANCH  15  16
ATOM     16  C   UNL     1      -9.913 -14.249 -39.291  1.00  0.00    -0.000 C 
BRANCH  16  17
ATOM     17  C   UNL     1     -10.381 -15.112 -40.473  1.00  0.00    -0.003 C 
ATOM     18  C   UNL     1     -11.358 -16.210 -40.051  1.00  0.00     0.004 C 
ENDBRANCH  16  17
ENDBRANCH  15  16
ENDBRANCH  14  15
ENDBRANCH  13  14
ENDBRANCH  12  13
ENDBRANCH  11  12
ENDBRANCH   1  11
TORSDOF 14
ENDMDL
MODEL 2
REMARK VINA RESULT:    -6.040      2.067      3.783
REMARK INTER + INTRA:         -12.038
REMARK INTER:                 -11.185
REMARK INTRA:                  -0.853
REMARK UNBOUND:                -1.055
REMARK SMILES CCCCCCCCCCCCCCCC(=O)[O-]
REMARK SMILES IDX 9 1 10 2 11 3 12 4 13 5 14 6 15 7 16 8 17 9 18 10 8 11 7 12
REMARK SMILES IDX 6 13 5 14 4 15 3 16 2 17 1 18
REMARK H PARENT
REMARK Flexibility Score: inf
ROOT
ATOM      1  C   UNL     1     -12.558 -13.510 -37.451  1.00  0.00     0.000 C 
ENDROOT
BRANCH   1   2
ATOM      2  C   UNL     1     -13.406 -14.739 -37.822  1.00  0.00     0.000 C 
BRANCH   2   3
ATOM      3  C   UNL     1     -14.341 -15.182 -36.688  1.00  0.00     0.000 C 
BRANCH   3   4
ATOM      4  C   UNL     1     -14.850 -13.975 -35.891  1.00  0.00     0.000 C 
BRANCH   4   5
ATOM      5  C   UNL     1     -14.963 -14.310 -34.396  1.00  0.00     0.000 C 
BRANCH   5   6
ATOM      6  C   UNL     1     -16.417 -14.533 -33.949  1.00  0.00     0.006 C 
BRANCH   6   7
ATOM      7  C   UNL     1     -16.530 -15.517 -32.777  1.00  0.00     0.053 C 
BRANCH   7   8
ATOM      8  C   UNL     1     -17.442 -14.971 -31.724  1.00  0.00     0.041 C 
ATOM      9  O   UNL     1     -17.150 -13.904 -31.123  1.00  0.00    -0.550 OA
ATOM     10  O   UNL     1     -18.592 -15.666 -31.372  1.00  0.00    -0.550 OA
ENDBRANCH   7   8
ENDBRANCH   6   7
ENDBRANCH   5   6
ENDBRANCH   4   5
ENDBRANCH   3   4
ENDBRANCH   2   3
ENDBRANCH   1   2
BRANCH   1  11
ATOM     11  C   UNL     1     -11.161 -13.456 -38.104  1.00  0.00     0.000 C 
BRANCH  11  12
ATOM     12  C   UNL     1     -10.567 -14.822 -38.491  1.00  0.00    -0.000 C 
BRANCH  12  13
ATOM     13  C   UNL     1     -10.501 -15.034 -40.012  1.00  0.00    -0.000 C 
BRANCH  13  14
ATOM     14  C   UNL     1     -11.498 -16.113 -40.458  1.00  0.00    -0.000 C 
BRANCH  14  15
ATOM     15  C   UNL     1     -11.420 -17.383 -39.596  1.00  0.00    -0.000 C 
BRANCH  15  16
ATOM     16  C   UNL     1     -10.675 -18.532 -40.300  1.00  0.00    -0.000 C 
BRANCH  16  17
ATOM     17  C   UNL     1     -10.975 -19.900 -39.671  1.00  0.00    -0.003 C 
ATOM     18  C   UNL     1     -11.959 -20.727 -40.499  1.00  0.00     0.004 C 
ENDBRANCH  16  17
ENDBRANCH  15  16
ENDBRANCH  14  15
ENDBRANCH  13  14
ENDBRANCH  12  13
ENDBRANCH  11  12
ENDBRANCH   1  11
TORSDOF 14
ENDMDL
MODEL 3
REMARK VINA RESULT:    -6.013      3.537      8.875
REMARK INTER + INTRA:         -11.990
REMARK INTER:                 -10.963
REMARK INTRA:                  -1.027
REMARK UNBOUND:                -1.055
REMARK SMILES CCCCCCCCCCCCCCCC(=O)[O-]
REMARK SMILES IDX 9 1 10 2 11 3 12 4 13 5 14 6 15 7 16 8 17 9 18 10 8 11 7 12
REMARK SMILES IDX 6 13 5 14 4 15 3 16 2 17 1 18
REMARK H PARENT
REMARK Flexibility Score: inf
ROOT
ATOM      1  C   UNL     1     -13.761 -15.506 -36.825  1.00  0.00     0.000 C 
ENDROOT
BRANCH   1   2
ATOM      2  C   UNL     1     -13.337 -14.462 -37.872  1.00  0.00     0.000 C 
BRANCH   2   3
ATOM      3  C   UNL     1     -11.935 -13.892 -37.614  1.00  0.00     0.000 C 
BRANCH   3   4
ATOM      4  C   UNL     1     -10.853 -14.804 -38.204  1.00  0.00     0.000 C 
BRANCH   4   5
ATOM      5  C   UNL     1     -10.910 -14.804 -39.739  1.00  0.00     0.000 C 
BRANCH   5   6
ATOM      6  C   UNL     1     -10.750 -16.211 -40.337  1.00  0.00     0.006 C 
BRANCH   6   7
ATOM      7  C   UNL     1     -11.562 -17.270 -39.580  1.00  0.00     0.053 C 
BRANCH   7   8
ATOM      8  C   UNL     1     -11.110 -18.644 -39.961  1.00  0.00     0.041 C 
ATOM      9  O   UNL     1     -10.081 -18.800 -40.671  1.00  0.00    -0.550 OA
ATOM     10  O   UNL     1     -11.851 -19.753 -39.573  1.00  0.00    -0.550 OA
ENDBRANCH   7   8
ENDBRANCH   6   7
ENDBRANCH   5   6
ENDBRANCH   4   5
ENDBRANCH   3   4
ENDBRANCH   2   3
ENDBRANCH   1   2
BRANCH   1  11
ATOM     11  C   UNL     1     -13.912 -14.969 -35.387  1.00  0.00     0.000 C 
BRANCH  11  12
ATOM     12  C   UNL     1     -15.218 -14.201 -35.110  1.00  0.00    -0.000 C 
BRANCH  12  13
ATOM     13  C   UNL     1     -15.801 -14.499 -33.720  1.00  0.00    -0.000 C 
BRANCH  13  14
ATOM     14  C   UNL     1     -16.454 -15.888 -33.685  1.00  0.00    -0.000 C 
BRANCH  14  15
ATOM     15  C   UNL     1     -16.594 -16.440 -32.257  1.00  0.00    -0.000 C 
BRANCH  15  16
ATOM     16  C   UNL     1     -16.540 -15.334 -31.187  1.00  0.00    -0.000 C 
BRANCH  16  17
ATOM     17  C   UNL     1     -17.850 -15.221 -30.393  1.00  0.00    -0.003 C 
ATOM     18  C   UNL     1     -18.885 -16.267 -30.809  1.00  0.00     0.004 C 
ENDBRANCH  16  17
ENDBRANCH  15  16
ENDBRANCH  14  15
ENDBRANCH  13  14
ENDBRANCH  12  13
ENDBRANCH  11  12
ENDBRANCH   1  11
TORSDOF 14
ENDMDL
MODEL 4
REMARK VINA RESULT:    -6.007      3.788      8.533
REMARK INTER + INTRA:         -11.979
REMARK INTER:                 -10.893
REMARK INTRA:                  -1.086
REMARK UNBOUND:                -1.055
REMARK SMILES CCCCCCCCCCCCCCCC(=O)[O-]
REMARK SMILES IDX 9 1 10 2 11 3 12 4 13 5 14 6 15 7 16 8 17 9 18 10 8 11 7 12
REMARK SMILES IDX 6 13 5 14 4 15 3 16 2 17 1 18
REMARK H PARENT
REMARK Flexibility Score: inf
ROOT
ATOM      1  C   UNL     1     -11.687 -14.402 -36.998  1.00  0.00     0.000 C 
ENDROOT
BRANCH   1   2
ATOM      2  C   UNL     1     -11.554 -14.076 -38.496  1.00  0.00     0.000 C 
BRANCH   2   3
ATOM      3  C   UNL     1     -10.156 -14.381 -39.052  1.00  0.00     0.000 C 
BRANCH   3   4
ATOM      4  C   UNL     1     -10.236 -15.327 -40.256  1.00  0.00     0.000 C 
BRANCH   4   5
ATOM      5  C   UNL     1     -11.595 -16.042 -40.304  1.00  0.00     0.000 C 
BRANCH   5   6
ATOM      6  C   UNL     1     -11.563 -17.419 -39.622  1.00  0.00     0.006 C 
BRANCH   6   7
ATOM      7  C   UNL     1     -10.710 -18.438 -40.388  1.00  0.00     0.053 C 
BRANCH   7   8
ATOM      8  C   UNL     1     -11.097 -19.832 -40.007  1.00  0.00     0.041 C 
ATOM      9  O   UNL     1     -10.469 -20.439 -39.099  1.00  0.00    -0.550 OA
ATOM     10  O   UNL     1     -12.120 -20.480 -40.686  1.00  0.00    -0.550 OA
ENDBRANCH   7   8
ENDBRANCH   6   7
ENDBRANCH   5   6
ENDBRANCH   4   5
ENDBRANCH   3   4
ENDBRANCH   2   3
ENDBRANCH   1   2
BRANCH   1  11
ATOM     11  C   UNL     1     -12.755 -15.458 -36.649  1.00  0.00     0.000 C 
BRANCH  11  12
ATOM     12  C   UNL     1     -14.191 -15.100 -37.071  1.00  0.00    -0.000 C 
BRANCH  12  13
ATOM     13  C   UNL     1     -14.803 -13.979 -36.217  1.00  0.00    -0.000 C 
BRANCH  13  14
ATOM     14  C   UNL     1     -14.532 -14.217 -34.724  1.00  0.00    -0.000 C 
BRANCH  14  15
ATOM     15  C   UNL     1     -15.824 -14.400 -33.912  1.00  0.00    -0.000 C 
BRANCH  15  16
ATOM     16  C   UNL     1     -16.249 -15.876 -33.799  1.00  0.00    -0.000 C 
BRANCH  16  17
ATOM     17  C   UNL     1     -16.930 -16.190 -32.459  1.00  0.00    -0.003 C 
ATOM     18  C   UNL     1     -17.580 -14.960 -31.824  1.00  0.00     0.004 C 
ENDBRANCH  16  17
ENDBRANCH  15  16
ENDBRANCH  14  15
ENDBRANCH  13  14
ENDBRANCH  12  13
ENDBRANCH  11  12
ENDBRANCH   1  11
TORSDOF 14
ENDMDL
MODEL 5
REMARK VINA RESULT:    -5.916      1.475      2.616
REMARK INTER + INTRA:         -11.813
REMARK INTER:                 -10.781
REMARK INTRA:                  -1.032
REMARK UNBOUND:                -1.055
REMARK SMILES CCCCCCCCCCCCCCCC(=O)[O-]
REMARK SMILES IDX 9 1 10 2 11 3 12 4 13 5 14 6 15 7 16 8 17 9 18 10 8 11 7 12
REMARK SMILES IDX 6 13 5 14 4 15 3 16 2 17 1 18
REMARK H PARENT
REMARK Flexibility Score: inf
ROOT
ATOM      1  C   UNL     1     -13.427 -15.080 -37.063  1.00  0.00     0.000 C 
ENDROOT
BRANCH   1   2
ATOM      2  C   UNL     1     -13.647 -15.436 -35.583  1.00  0.00     0.000 C 
BRANCH   2   3
ATOM      3  C   UNL     1     -14.158 -14.249 -34.753  1.00  0.00     0.000 C 
BRANCH   3   4
ATOM      4  C   UNL     1     -15.690 -14.192 -34.761  1.00  0.00     0.000 C 
BRANCH   4   5
ATOM      5  C   UNL     1     -16.260 -14.528 -33.375  1.00  0.00     0.000 C 
BRANCH   5   6
ATOM      6  C   UNL     1     -16.519 -16.033 -33.191  1.00  0.00     0.006 C 
BRANCH   6   7
ATOM      7  C   UNL     1     -16.664 -16.431 -31.717  1.00  0.00     0.053 C 
BRANCH   7   8
ATOM      8  C   UNL     1     -17.720 -15.603 -31.055  1.00  0.00     0.041 C 
ATOM      9  O   UNL     1     -18.938 -15.844 -31.263  1.00  0.00    -0.550 OA
ATOM     10  O   UNL     1     -17.359 -14.534 -30.245  1.00  0.00    -0.550 OA
ENDBRANCH   7   8
ENDBRANCH   6   7
ENDBRANCH   5   6
ENDBRANCH   4   5
ENDBRANCH   3   4
ENDBRANCH   2   3
ENDBRANCH   1   2
BRANCH   1  11
ATOM     11  C   UNL     1     -13.131 -13.593 -37.343  1.00  0.00     0.000 C 
BRANCH  11  12
ATOM     12  C   UNL     1     -11.692 -13.285 -37.795  1.00  0.00    -0.000 C 
BRANCH  12  13
ATOM     13  C   UNL     1     -10.868 -14.553 -38.068  1.00  0.00    -0.000 C 
BRANCH  13  14
ATOM     14  C   UNL     1      -9.952 -14.360 -39.286  1.00  0.00    -0.000 C 
BRANCH  14  15
ATOM     15  C   UNL     1     -10.185 -15.421 -40.374  1.00  0.00    -0.000 C 
BRANCH  15  16
ATOM     16  C   UNL     1     -11.492 -16.207 -40.165  1.00  0.00    -0.000 C 
BRANCH  16  17
ATOM     17  C   UNL     1     -11.241 -17.670 -39.770  1.00  0.00    -0.003 C 
ATOM     18  C   UNL     1     -10.163 -18.335 -40.625  1.00  0.00     0.004 C 
ENDBRANCH  16  17
ENDBRANCH  15  16
ENDBRANCH  14  15
ENDBRANCH  13  14
ENDBRANCH  12  13
ENDBRANCH  11  12
ENDBRANCH   1  11
TORSDOF 14
ENDMDL
MODEL 6
REMARK VINA RESULT:    -5.882      3.657      8.920
REMARK INTER + INTRA:         -11.751
REMARK INTER:                 -10.982
REMARK INTRA:                  -0.769
REMARK UNBOUND:                -1.055
REMARK SMILES CCCCCCCCCCCCCCCC(=O)[O-]
REMARK SMILES IDX 9 1 10 2 11 3 12 4 13 5 14 6 15 7 16 8 17 9 18 10 8 11 7 12
REMARK SMILES IDX 6 13 5 14 4 15 3 16 2 17 1 18
REMARK H PARENT
REMARK Flexibility Score: inf
ROOT
ATOM      1  C   UNL     1     -14.605 -14.292 -34.726  1.00  0.00     0.000 C 
ENDROOT
BRANCH   1   2
ATOM      2  C   UNL     1     -14.652 -13.994 -36.235  1.00  0.00     0.000 C 
BRANCH   2   3
ATOM      3  C   UNL     1     -13.415 -13.231 -36.731  1.00  0.00     0.000 C 
BRANCH   3   4
ATOM      4  C   UNL     1     -12.629 -14.063 -37.752  1.00  0.00     0.000 C 
BRANCH   4   5
ATOM      5  C   UNL     1     -11.310 -13.372 -38.127  1.00  0.00     0.000 C 
BRANCH   5   6
ATOM      6  C   UNL     1     -10.223 -14.368 -38.563  1.00  0.00     0.006 C 
BRANCH   6   7
ATOM      7  C   UNL     1     -10.255 -14.652 -40.071  1.00  0.00     0.053 C 
BRANCH   7   8
ATOM      8  C   UNL     1     -10.676 -16.064 -40.326  1.00  0.00     0.041 C 
ATOM      9  O   UNL     1      -9.837 -16.915 -40.722  1.00  0.00    -0.550 OA
ATOM     10  O   UNL     1     -12.007 -16.431 -40.172  1.00  0.00    -0.550 OA
ENDBRANCH   7   8
ENDBRANCH   6   7
ENDBRANCH   5   6
ENDBRANCH   4   5
ENDBRANCH   3   4
ENDBRANCH   2   3
ENDBRANCH   1   2
BRANCH   1  11
ATOM     11  C   UNL     1     -15.637 -15.324 -34.230  1.00  0.00     0.000 C 
BRANCH  11  12
ATOM     12  C   UNL     1     -16.864 -14.731 -33.514  1.00  0.00    -0.000 C 
BRANCH  12  13
ATOM     13  C   UNL     1     -16.551 -14.259 -32.086  1.00  0.00    -0.000 C 
BRANCH  13  14
ATOM     14  C   UNL     1     -16.673 -15.418 -31.085  1.00  0.00    -0.000 C 
BRANCH  14  15
ATOM     15  C   UNL     1     -18.081 -16.032 -31.062  1.00  0.00    -0.000 C 
BRANCH  15  16
ATOM     16  C   UNL     1     -18.066 -17.557 -31.272  1.00  0.00    -0.000 C 
BRANCH  16  17
ATOM     17  C   UNL     1     -16.937 -18.010 -32.211  1.00  0.00    -0.003 C 
ATOM     18  C   UNL     1     -16.662 -19.511 -32.121  1.00  0.00     0.004 C 
ENDBRANCH  16  17
ENDBRANCH  15  16
ENDBRANCH  14  15
ENDBRANCH  13  14
ENDBRANCH  12  13
ENDBRANCH  11  12
ENDBRANCH   1  11
TORSDOF 14
ENDMDL
MODEL 7
REMARK VINA RESULT:    -5.826      1.370      2.140
REMARK INTER + INTRA:         -11.649
REMARK INTER:                 -10.900
REMARK INTRA:                  -0.749
REMARK UNBOUND:                -1.055
REMARK SMILES CCCCCCCCCCCCCCCC(=O)[O-]
REMARK SMILES IDX 9 1 10 2 11 3 12 4 13 5 14 6 15 7 16 8 17 9 18 10 8 11 7 12
REMARK SMILES IDX 6 13 5 14 4 15 3 16 2 17 1 18
REMARK H PARENT
REMARK Flexibility Score: inf
ROOT
ATOM      1  C   UNL     1     -15.412 -14.397 -33.961  1.00  0.00     0.000 C 
ENDROOT
BRANCH   1   2
ATOM      2  C   UNL     1     -16.820 -14.579 -33.368  1.00  0.00     0.000 C 
BRANCH   2   3
ATOM      3  C   UNL     1     -16.883 -14.254 -31.869  1.00  0.00     0.000 C 
BRANCH   3   4
ATOM      4  C   UNL     1     -16.864 -15.536 -31.027  1.00  0.00     0.000 C 
BRANCH   4   5
ATOM      5  C   UNL     1     -18.183 -16.310 -31.172  1.00  0.00     0.000 C 
BRANCH   5   6
ATOM      6  C   UNL     1     -17.967 -17.826 -31.300  1.00  0.00     0.006 C 
BRANCH   6   7
ATOM      7  C   UNL     1     -17.170 -18.205 -32.555  1.00  0.00     0.053 C 
BRANCH   7   8
ATOM      8  C   UNL     1     -17.121 -19.692 -32.712  1.00  0.00     0.041 C 
ATOM      9  O   UNL     1     -18.186 -20.363 -32.736  1.00  0.00    -0.550 OA
ATOM     10  O   UNL     1     -15.896 -20.344 -32.784  1.00  0.00    -0.550 OA
ENDBRANCH   7   8
ENDBRANCH   6   7
ENDBRANCH   5   6
ENDBRANCH   4   5
ENDBRANCH   3   4
ENDBRANCH   2   3
ENDBRANCH   1   2
BRANCH   1  11
ATOM     11  C   UNL     1     -15.374 -13.958 -35.438  1.00  0.00     0.000 C 
BRANCH  11  12
ATOM     12  C   UNL     1     -14.057 -14.257 -36.176  1.00  0.00    -0.000 C 
BRANCH  12  13
ATOM     13  C   UNL     1     -14.256 -15.136 -37.421  1.00  0.00    -0.000 C 
BRANCH  13  14
ATOM     14  C   UNL     1     -12.970 -15.201 -38.258  1.00  0.00    -0.000 C 
BRANCH  14  15
ATOM     15  C   UNL     1     -12.047 -13.996 -38.017  1.00  0.00    -0.000 C 
BRANCH  15  16
ATOM     16  C   UNL     1     -10.558 -14.386 -37.995  1.00  0.00    -0.000 C 
BRANCH  16  17
ATOM     17  C   UNL     1      -9.840 -14.041 -39.309  1.00  0.00    -0.003 C 
ATOM     18  C   UNL     1      -9.999 -15.129 -40.371  1.00  0.00     0.004 C 
ENDBRANCH  16  17
ENDBRANCH  15  16
ENDBRANCH  14  15
ENDBRANCH  13  14
ENDBRANCH  12  13
ENDBRANCH  11  12
ENDBRANCH   1  11
TORSDOF 14
ENDMDL
MODEL 8
REMARK VINA RESULT:    -5.728      4.145      9.572
REMARK INTER + INTRA:         -11.470
REMARK INTER:                 -10.680
REMARK INTRA:                  -0.790
REMARK UNBOUND:                -1.055
REMARK SMILES CCCCCCCCCCCCCCCC(=O)[O-]
REMARK SMILES IDX 9 1 10 2 11 3 12 4 13 5 14 6 15 7 16 8 17 9 18 10 8 11 7 12
REMARK SMILES IDX 6 13 5 14 4 15 3 16 2 17 1 18
REMARK H PARENT
REMARK Flexibility Score: inf
ROOT
ATOM      1  C   UNL     1     -14.344 -13.985 -34.100  1.00  0.00     0.000 C 
ENDROOT
BRANCH   1   2
ATOM      2  C   UNL     1     -14.568 -14.814 -35.377  1.00  0.00     0.000 C 
BRANCH   2   3
ATOM      3  C   UNL     1     -14.337 -14.004 -36.662  1.00  0.00     0.000 C 
BRANCH   3   4
ATOM      4  C   UNL     1     -13.223 -14.627 -37.511  1.00  0.00     0.000 C 
BRANCH   4   5
ATOM      5  C   UNL     1     -12.125 -13.598 -37.820  1.00  0.00     0.000 C 
BRANCH   5   6
ATOM      6  C   UNL     1     -10.724 -14.228 -37.881  1.00  0.00     0.006 C 
BRANCH   6   7
ATOM      7  C   UNL     1      -9.892 -13.704 -39.059  1.00  0.00     0.053 C 
BRANCH   7   8
ATOM      8  C   UNL     1      -9.661 -14.792 -40.059  1.00  0.00     0.041 C 
ATOM      9  O   UNL     1      -8.488 -15.121 -40.379  1.00  0.00    -0.550 OA
ATOM     10  O   UNL     1     -10.741 -15.413 -40.673  1.00  0.00    -0.550 OA
ENDBRANCH   7   8
ENDBRANCH   6   7
ENDBRANCH   5   6
ENDBRANCH   4   5
ENDBRANCH   3   4
ENDBRANCH   2   3
ENDBRANCH   1   2
BRANCH   1  11
ATOM     11  C   UNL     1     -15.523 -13.981 -33.107  1.00  0.00     0.000 C 
BRANCH  11  12
ATOM     12  C   UNL     1     -16.767 -14.766 -33.563  1.00  0.00    -0.000 C 
BRANCH  12  13
ATOM     13  C   UNL     1     -16.861 -16.159 -32.922  1.00  0.00    -0.000 C 
BRANCH  13  14
ATOM     14  C   UNL     1     -16.695 -16.075 -31.398  1.00  0.00    -0.000 C 
BRANCH  14  15
ATOM     15  C   UNL     1     -17.888 -15.393 -30.710  1.00  0.00    -0.000 C 
BRANCH  15  16
ATOM     16  C   UNL     1     -19.169 -16.244 -30.766  1.00  0.00    -0.000 C 
BRANCH  16  17
ATOM     17  C   UNL     1     -19.084 -17.493 -29.877  1.00  0.00    -0.003 C 
ATOM     18  C   UNL     1     -19.124 -17.160 -28.385  1.00  0.00     0.004 C 
ENDBRANCH  16  17
ENDBRANCH  15  16
ENDBRANCH  14  15
ENDBRANCH  13  14
ENDBRANCH  12  13
ENDBRANCH  11  12
ENDBRANCH   1  11
TORSDOF 14
ENDMDL
MODEL 9
REMARK VINA RESULT:    -5.715      3.805      8.904
REMARK INTER + INTRA:         -11.447
REMARK INTER:                 -10.512
REMARK INTRA:                  -0.936
REMARK UNBOUND:                -1.055
REMARK SMILES CCCCCCCCCCCCCCCC(=O)[O-]
REMARK SMILES IDX 9 1 10 2 11 3 12 4 13 5 14 6 15 7 16 8 17 9 18 10 8 11 7 12
REMARK SMILES IDX 6 13 5 14 4 15 3 16 2 17 1 18
REMARK H PARENT
REMARK Flexibility Score: inf
ROOT
ATOM      1  C   UNL     1     -16.042 -15.324 -34.098  1.00  0.00     0.000 C 
ENDROOT
BRANCH   1   2
ATOM      2  C   UNL     1     -15.100 -14.126 -34.305  1.00  0.00     0.000 C 
BRANCH   2   3
ATOM      3  C   UNL     1     -13.878 -14.471 -35.168  1.00  0.00     0.000 C 
BRANCH   3   4
ATOM      4  C   UNL     1     -14.066 -13.983 -36.609  1.00  0.00     0.000 C 
BRANCH   4   5
ATOM      5  C   UNL     1     -14.323 -15.162 -37.560  1.00  0.00     0.000 C 
BRANCH   5   6
ATOM      6  C   UNL     1     -13.023 -15.825 -38.043  1.00  0.00     0.006 C 
BRANCH   6   7
ATOM      7  C   UNL     1     -12.012 -14.811 -38.594  1.00  0.00     0.053 C 
BRANCH   7   8
ATOM      8  C   UNL     1     -11.205 -15.424 -39.694  1.00  0.00     0.041 C 
ATOM      9  O   UNL     1     -10.159 -14.857 -40.106  1.00  0.00    -0.550 OA
ATOM     10  O   UNL     1     -11.632 -16.600 -40.297  1.00  0.00    -0.550 OA
ENDBRANCH   7   8
ENDBRANCH   6   7
ENDBRANCH   5   6
ENDBRANCH   4   5
ENDBRANCH   3   4
ENDBRANCH   2   3
ENDBRANCH   1   2
BRANCH   1  11
ATOM     11  C   UNL     1     -17.216 -15.076 -33.129  1.00  0.00     0.000 C 
BRANCH  11  12
ATOM     12  C   UNL     1     -16.856 -14.300 -31.849  1.00  0.00    -0.000 C 
BRANCH  12  13
ATOM     13  C   UNL     1     -17.594 -14.822 -30.607  1.00  0.00    -0.000 C 
BRANCH  13  14
ATOM     14  C   UNL     1     -18.666 -15.850 -30.998  1.00  0.00    -0.000 C 
BRANCH  14  15
ATOM     15  C   UNL     1     -18.848 -16.947 -29.937  1.00  0.00    -0.000 C 
BRANCH  15  16
ATOM     16  C   UNL     1     -18.436 -18.339 -30.448  1.00  0.00    -0.000 C 
BRANCH  16  17
ATOM     17  C   UNL     1     -17.653 -18.272 -31.768  1.00  0.00    -0.003 C 
ATOM     18  C   UNL     1     -17.610 -19.616 -32.497  1.00  0.00     0.004 C 
ENDBRANCH  16  17
ENDBRANCH  15  16
ENDBRANCH  14  15
ENDBRANCH  13  14
ENDBRANCH  12  13
ENDBRANCH  11  12
ENDBRANCH   1  11
TORSDOF 14
ENDMDL
