MODEL 1
REMARK VINA RESULT:    -6.100      0.000      0.000
REMARK INTER + INTRA:          -6.457
REMARK INTER:                  -6.457
REMARK INTRA:                   0.000
REMARK UNBOUND:                 0.000
REMARK SMILES O=c1ccc2cc(O)c(O)cc2o1
REMARK SMILES IDX 4 1 3 2 2 3 1 4 13 5 12 6 11 7 9 8 7 9 6 10 5 11 8 12 10 14
REMARK H PARENT 8 13 10 15
REMARK Flexibility Score: inf
ROOT
ATOM      1  C   UNL     1      11.180  10.873  15.479  1.00  0.00     0.019 A 
ATOM      2  C   UNL     1      12.524  10.972  15.119  1.00  0.00     0.094 A 
ATOM      3  C   UNL     1      12.939  10.439  13.894  1.00  0.00     0.336 A 
ATOM      4  O   UNL     1      14.148  10.519  13.552  1.00  0.00    -0.246 OA
ATOM      5  O   UNL     1      12.062   9.848  13.086  1.00  0.00    -0.423 OA
ATOM      6  C   UNL     1      10.772   9.733  13.392  1.00  0.00     0.142 A 
ATOM      7  C   UNL     1       9.898   9.102  12.503  1.00  0.00     0.098 A 
ATOM      8  C   UNL     1       8.537   8.973  12.810  1.00  0.00     0.161 A 
ATOM      9  C   UNL     1       8.043   9.489  14.035  1.00  0.00     0.158 A 
ATOM     10  C   UNL     1       8.923  10.121  14.923  1.00  0.00     0.062 A 
ATOM     11  C   UNL     1      10.282  10.247  14.609  1.00  0.00     0.022 A 
ENDROOT
BRANCH   9  12
ATOM     12  O   UNL     1       6.700   9.396  14.404  1.00  0.00    -0.504 OA
ATOM     13  H   UNL     1       5.974  10.003  14.053  1.00  0.00     0.293 HD
ENDBRANCH   9  12
BRANCH   8  14
ATOM     14  O   UNL     1       7.718   8.331  11.879  1.00  0.00    -0.504 OA
ATOM     15  H   UNL     1       6.733   8.522  11.765  1.00  0.00     0.293 HD
ENDBRANCH   8  14
TORSDOF 2
ENDMDL
MODEL 2
REMARK VINA RESULT:    -5.965      1.231      5.048
REMARK INTER + INTRA:          -6.314
REMARK INTER:                  -6.314
REMARK INTRA:                   0.000
REMARK UNBOUND:                 0.000
REMARK SMILES O=c1ccc2cc(O)c(O)cc2o1
REMARK SMILES IDX 4 1 3 2 2 3 1 4 13 5 12 6 11 7 9 8 7 9 6 10 5 11 8 12 10 14
REMARK H PARENT 8 13 10 15
REMARK Flexibility Score: inf
ROOT
ATOM      1  C   UNL     1       9.644   8.834  12.824  1.00  0.00     0.019 A 
ATOM      2  C   UNL     1       8.279   8.725  13.092  1.00  0.00     0.094 A 
ATOM      3  C   UNL     1       7.729   9.489  14.127  1.00  0.00     0.336 A 
ATOM      4  O   UNL     1       6.499   9.403  14.384  1.00  0.00    -0.246 OA
ATOM      5  O   UNL     1       8.497  10.306  14.842  1.00  0.00    -0.423 OA
ATOM      6  C   UNL     1       9.802  10.440  14.618  1.00  0.00     0.142 A 
ATOM      7  C   UNL     1      10.559  11.314  15.401  1.00  0.00     0.098 A 
ATOM      8  C   UNL     1      11.934  11.466  15.178  1.00  0.00     0.161 A 
ATOM      9  C   UNL     1      12.562  10.725  14.146  1.00  0.00     0.158 A 
ATOM     10  C   UNL     1      11.799   9.849  13.362  1.00  0.00     0.062 A 
ATOM     11  C   UNL     1      10.426   9.702  13.591  1.00  0.00     0.022 A 
ENDROOT
BRANCH   9  12
ATOM     12  O   UNL     1      13.927  10.827  13.868  1.00  0.00    -0.504 OA
ATOM     13  H   UNL     1      14.586  10.072  13.990  1.00  0.00     0.293 HD
ENDBRANCH   9  12
BRANCH   8  14
ATOM     14  O   UNL     1      12.631  12.357  15.997  1.00  0.00    -0.504 OA
ATOM     15  H   UNL     1      13.565  12.689  15.804  1.00  0.00     0.293 HD
ENDBRANCH   8  14
TORSDOF 2
ENDMDL
MODEL 3
REMARK VINA RESULT:    -5.863      1.730      2.838
REMARK INTER + INTRA:          -6.205
REMARK INTER:                  -6.205
REMARK INTRA:                   0.000
REMARK UNBOUND:                 0.000
REMARK SMILES O=c1ccc2cc(O)c(O)cc2o1
REMARK SMILES IDX 4 1 3 2 2 3 1 4 13 5 12 6 11 7 9 8 7 9 6 10 5 11 8 12 10 14
REMARK H PARENT 8 13 10 15
REMARK Flexibility Score: inf
ROOT
ATOM      1  C   UNL     1      11.205   9.729  11.759  1.00  0.00     0.019 A 
ATOM      2  C   UNL     1      12.470  10.218  11.432  1.00  0.00     0.094 A 
ATOM      3  C   UNL     1      13.264  10.773  12.441  1.00  0.00     0.336 A 
ATOM      4  O   UNL     1      14.408  11.220  12.165  1.00  0.00    -0.246 OA
ATOM      5  O   UNL     1      12.818  10.830  13.693  1.00  0.00    -0.423 OA
ATOM      6  C   UNL     1      11.619  10.376  14.047  1.00  0.00     0.142 A 
ATOM      7  C   UNL     1      11.203  10.463  15.378  1.00  0.00     0.098 A 
ATOM      8  C   UNL     1       9.944   9.988  15.766  1.00  0.00     0.161 A 
ATOM      9  C   UNL     1       9.083   9.412  14.798  1.00  0.00     0.158 A 
ATOM     10  C   UNL     1       9.503   9.326  13.464  1.00  0.00     0.062 A 
ATOM     11  C   UNL     1      10.763   9.803  13.083  1.00  0.00     0.022 A 
ENDROOT
BRANCH   9  12
ATOM     12  O   UNL     1       7.816   8.919  15.115  1.00  0.00    -0.504 OA
ATOM     13  H   UNL     1       6.959   9.437  14.985  1.00  0.00     0.293 HD
ENDBRANCH   9  12
BRANCH   8  14
ATOM     14  O   UNL     1       9.591  10.106  17.112  1.00  0.00    -0.504 OA
ATOM     15  H   UNL     1       8.967   9.472  17.591  1.00  0.00     0.293 HD
ENDBRANCH   8  14
TORSDOF 2
ENDMDL
MODEL 4
REMARK VINA RESULT:    -5.768      1.402      4.442
REMARK INTER + INTRA:          -6.105
REMARK INTER:                  -6.105
REMARK INTRA:                   0.000
REMARK UNBOUND:                 0.000
REMARK SMILES O=c1ccc2cc(O)c(O)cc2o1
REMARK SMILES IDX 4 1 3 2 2 3 1 4 13 5 12 6 11 7 9 8 7 9 6 10 5 11 8 12 10 14
REMARK H PARENT 8 13 10 15
REMARK Flexibility Score: inf
ROOT
ATOM      1  C   UNL     1       8.668   9.766  14.272  1.00  0.00     0.019 A 
ATOM      2  C   UNL     1       8.102   9.017  13.242  1.00  0.00     0.094 A 
ATOM      3  C   UNL     1       8.916   8.593  12.185  1.00  0.00     0.336 A 
ATOM      4  O   UNL     1       8.423   7.916  11.245  1.00  0.00    -0.246 OA
ATOM      5  O   UNL     1      10.210   8.901  12.168  1.00  0.00    -0.423 OA
ATOM      6  C   UNL     1      10.789   9.613  13.131  1.00  0.00     0.142 A 
ATOM      7  C   UNL     1      12.153   9.905  13.060  1.00  0.00     0.098 A 
ATOM      8  C   UNL     1      12.778  10.653  14.066  1.00  0.00     0.161 A 
ATOM      9  C   UNL     1      12.017  11.118  15.169  1.00  0.00     0.158 A 
ATOM     10  C   UNL     1      10.649  10.822  15.237  1.00  0.00     0.062 A 
ATOM     11  C   UNL     1      10.032  10.074  14.228  1.00  0.00     0.022 A 
ENDROOT
BRANCH   9  12
ATOM     12  O   UNL     1      12.574  11.868  16.206  1.00  0.00    -0.504 OA
ATOM     13  H   UNL     1      12.288  11.795  17.172  1.00  0.00     0.293 HD
ENDBRANCH   9  12
BRANCH   8  14
ATOM     14  O   UNL     1      14.144  10.910  13.933  1.00  0.00    -0.504 OA
ATOM     15  H   UNL     1      14.525  11.685  13.410  1.00  0.00     0.293 HD
ENDBRANCH   8  14
TORSDOF 2
ENDMDL
MODEL 5
REMARK VINA RESULT:    -5.744      1.838      2.581
REMARK INTER + INTRA:          -6.080
REMARK INTER:                  -6.080
REMARK INTRA:                   0.000
REMARK UNBOUND:                 0.000
REMARK SMILES O=c1ccc2cc(O)c(O)cc2o1
REMARK SMILES IDX 4 1 3 2 2 3 1 4 13 5 12 6 11 7 9 8 7 9 6 10 5 11 8 12 10 14
REMARK H PARENT 8 13 10 15
REMARK Flexibility Score: inf
ROOT
ATOM      1  C   UNL     1      12.911  10.672  13.584  1.00  0.00     0.019 A 
ATOM      2  C   UNL     1      13.270  10.520  12.245  1.00  0.00     0.094 A 
ATOM      3  C   UNL     1      12.342   9.970  11.354  1.00  0.00     0.336 A 
ATOM      4  O   UNL     1      12.648   9.824  10.141  1.00  0.00    -0.246 OA
ATOM      5  O   UNL     1      11.137   9.601  11.779  1.00  0.00    -0.423 OA
ATOM      6  C   UNL     1      10.755   9.729  13.047  1.00  0.00     0.142 A 
ATOM      7  C   UNL     1       9.476   9.325  13.436  1.00  0.00     0.098 A 
ATOM      8  C   UNL     1       9.059   9.454  14.767  1.00  0.00     0.161 A 
ATOM      9  C   UNL     1       9.945  10.002  15.729  1.00  0.00     0.158 A 
ATOM     10  C   UNL     1      11.227  10.408  15.335  1.00  0.00     0.062 A 
ATOM     11  C   UNL     1      11.637  10.276  14.002  1.00  0.00     0.022 A 
ENDROOT
BRANCH   9  12
ATOM     12  O   UNL     1       9.596  10.160  17.071  1.00  0.00    -0.504 OA
ATOM     13  H   UNL     1      10.105   9.748  17.839  1.00  0.00     0.293 HD
ENDBRANCH   9  12
BRANCH   8  14
ATOM     14  O   UNL     1       7.769   9.029  15.089  1.00  0.00    -0.504 OA
ATOM     15  H   UNL     1       7.418   8.951  16.033  1.00  0.00     0.293 HD
ENDBRANCH   8  14
TORSDOF 2
ENDMDL
MODEL 6
REMARK VINA RESULT:    -5.680      1.178      2.384
REMARK INTER + INTRA:          -6.012
REMARK INTER:                  -6.012
REMARK INTRA:                   0.000
REMARK UNBOUND:                 0.000
REMARK SMILES O=c1ccc2cc(O)c(O)cc2o1
REMARK SMILES IDX 4 1 3 2 2 3 1 4 13 5 12 6 11 7 9 8 7 9 6 10 5 11 8 12 10 14
REMARK H PARENT 8 13 10 15
REMARK Flexibility Score: inf
ROOT
ATOM      1  C   UNL     1      12.396   9.706  11.804  1.00  0.00     0.019 A 
ATOM      2  C   UNL     1      13.600  10.043  12.421  1.00  0.00     0.094 A 
ATOM      3  C   UNL     1      13.635  10.171  13.814  1.00  0.00     0.336 A 
ATOM      4  O   UNL     1      14.712  10.475  14.389  1.00  0.00    -0.246 OA
ATOM      5  O   UNL     1      12.535   9.971  14.536  1.00  0.00    -0.423 OA
ATOM      6  C   UNL     1      11.367   9.648  13.986  1.00  0.00     0.142 A 
ATOM      7  C   UNL     1      10.245   9.451  14.794  1.00  0.00     0.098 A 
ATOM      8  C   UNL     1       9.009   9.110  14.231  1.00  0.00     0.161 A 
ATOM      9  C   UNL     1       8.896   8.963  12.825  1.00  0.00     0.158 A 
ATOM     10  C   UNL     1      10.024   9.161  12.018  1.00  0.00     0.062 A 
ATOM     11  C   UNL     1      11.256   9.502  12.588  1.00  0.00     0.022 A 
ENDROOT
BRANCH   9  12
ATOM     12  O   UNL     1       7.696   8.625  12.197  1.00  0.00    -0.504 OA
ATOM     13  H   UNL     1       7.518   8.756  11.212  1.00  0.00     0.293 HD
ENDBRANCH   9  12
BRANCH   8  14
ATOM     14  O   UNL     1       7.928   8.928  15.096  1.00  0.00    -0.504 OA
ATOM     15  H   UNL     1       6.968   9.121  14.850  1.00  0.00     0.293 HD
ENDBRANCH   8  14
TORSDOF 2
ENDMDL
MODEL 7
REMARK VINA RESULT:    -5.679      1.884      4.330
REMARK INTER + INTRA:          -6.011
REMARK INTER:                  -6.011
REMARK INTRA:                   0.000
REMARK UNBOUND:                 0.000
REMARK SMILES O=c1ccc2cc(O)c(O)cc2o1
REMARK SMILES IDX 4 1 3 2 2 3 1 4 13 5 12 6 11 7 9 8 7 9 6 10 5 11 8 12 10 14
REMARK H PARENT 8 13 10 15
REMARK Flexibility Score: inf
ROOT
ATOM      1  C   UNL     1      11.291   9.578  11.784  1.00  0.00     0.019 A 
ATOM      2  C   UNL     1      10.450   8.857  10.937  1.00  0.00     0.094 A 
ATOM      3  C   UNL     1       9.272   8.310  11.456  1.00  0.00     0.336 A 
ATOM      4  O   UNL     1       8.500   7.655  10.707  1.00  0.00    -0.246 OA
ATOM      5  O   UNL     1       8.961   8.477  12.739  1.00  0.00    -0.423 OA
ATOM      6  C   UNL     1       9.735   9.157  13.580  1.00  0.00     0.142 A 
ATOM      7  C   UNL     1       9.356   9.301  14.917  1.00  0.00     0.098 A 
ATOM      8  C   UNL     1      10.160  10.014  15.815  1.00  0.00     0.161 A 
ATOM      9  C   UNL     1      11.370  10.598  15.362  1.00  0.00     0.158 A 
ATOM     10  C   UNL     1      11.746  10.453  14.019  1.00  0.00     0.062 A 
ATOM     11  C   UNL     1      10.937   9.738  13.128  1.00  0.00     0.022 A 
ENDROOT
BRANCH   9  12
ATOM     12  O   UNL     1      12.219  11.322  16.201  1.00  0.00    -0.504 OA
ATOM     13  H   UNL     1      12.226  11.236  17.207  1.00  0.00     0.293 HD
ENDBRANCH   9  12
BRANCH   8  14
ATOM     14  O   UNL     1       9.724  10.119  17.137  1.00  0.00    -0.504 OA
ATOM     15  H   UNL     1       8.756  10.058  17.420  1.00  0.00     0.293 HD
ENDBRANCH   8  14
TORSDOF 2
ENDMDL
MODEL 8
REMARK VINA RESULT:    -5.440      2.053      3.906
REMARK INTER + INTRA:          -5.758
REMARK INTER:                  -5.758
REMARK INTRA:                   0.000
REMARK UNBOUND:                 0.000
REMARK SMILES O=c1ccc2cc(O)c(O)cc2o1
REMARK SMILES IDX 4 1 3 2 2 3 1 4 13 5 12 6 11 7 9 8 7 9 6 10 5 11 8 12 10 14
REMARK H PARENT 8 13 10 15
REMARK Flexibility Score: inf
ROOT
ATOM      1  C   UNL     1       8.712   8.472  12.778  1.00  0.00     0.019 A 
ATOM      2  C   UNL     1       9.125   8.289  11.459  1.00  0.00     0.094 A 
ATOM      3  C   UNL     1      10.374   8.781  11.065  1.00  0.00     0.336 A 
ATOM      4  O   UNL     1      10.765   8.626   9.878  1.00  0.00    -0.246 OA
ATOM      5  O   UNL     1      11.154   9.413  11.939  1.00  0.00    -0.423 OA
ATOM      6  C   UNL     1      10.797   9.609  13.205  1.00  0.00     0.142 A 
ATOM      7  C   UNL     1      11.657  10.279  14.078  1.00  0.00     0.098 A 
ATOM      8  C   UNL     1      11.296  10.493  15.415  1.00  0.00     0.161 A 
ATOM      9  C   UNL     1      10.045  10.022  15.886  1.00  0.00     0.158 A 
ATOM     10  C   UNL     1       9.185   9.349  15.008  1.00  0.00     0.062 A 
ATOM     11  C   UNL     1       9.552   9.140  13.674  1.00  0.00     0.022 A 
ENDROOT
BRANCH   9  12
ATOM     12  O   UNL     1       9.621  10.199  17.205  1.00  0.00    -0.504 OA
ATOM     13  H   UNL     1       9.988   9.682  17.990  1.00  0.00     0.293 HD
ENDBRANCH   9  12
BRANCH   8  14
ATOM     14  O   UNL     1      12.202  11.170  16.233  1.00  0.00    -0.504 OA
ATOM     15  H   UNL     1      12.500  10.841  17.140  1.00  0.00     0.293 HD
ENDBRANCH   8  14
TORSDOF 2
ENDMDL
MODEL 9
REMARK VINA RESULT:    -5.332      2.403      3.039
REMARK INTER + INTRA:          -5.644
REMARK INTER:                  -5.644
REMARK INTRA:                   0.000
REMARK UNBOUND:                 0.000
REMARK SMILES O=c1ccc2cc(O)c(O)cc2o1
REMARK SMILES IDX 4 1 3 2 2 3 1 4 13 5 12 6 11 7 9 8 7 9 6 10 5 11 8 12 10 14
REMARK H PARENT 8 13 10 15
REMARK Flexibility Score: inf
ROOT
ATOM      1  C   UNL     1      12.401  12.688  12.604  1.00  0.00     0.019 A 
ATOM      2  C   UNL     1      13.410  12.341  11.706  1.00  0.00     0.094 A 
ATOM      3  C   UNL     1      13.840  11.011  11.651  1.00  0.00     0.336 A 
ATOM      4  O   UNL     1      14.750  10.678  10.848  1.00  0.00    -0.246 OA
ATOM      5  O   UNL     1      13.292  10.093  12.444  1.00  0.00    -0.423 OA
ATOM      6  C   UNL     1      12.328  10.383  13.314  1.00  0.00     0.142 A 
ATOM      7  C   UNL     1      11.790   9.378  14.120  1.00  0.00     0.098 A 
ATOM      8  C   UNL     1      10.774   9.666  15.041  1.00  0.00     0.161 A 
ATOM      9  C   UNL     1      10.286  10.993  15.153  1.00  0.00     0.158 A 
ATOM     10  C   UNL     1      10.828  11.998  14.341  1.00  0.00     0.062 A 
ATOM     11  C   UNL     1      11.843  11.702  13.424  1.00  0.00     0.022 A 
ENDROOT
BRANCH   9  12
ATOM     12  O   UNL     1       9.276  11.351  16.047  1.00  0.00    -0.504 OA
ATOM     13  H   UNL     1       9.443  11.648  16.998  1.00  0.00     0.293 HD
ENDBRANCH   9  12
BRANCH   8  14
ATOM     14  O   UNL     1      10.281   8.615  15.816  1.00  0.00    -0.504 OA
ATOM     15  H   UNL     1      10.297   8.601  16.826  1.00  0.00     0.293 HD
ENDBRANCH   8  14
TORSDOF 2
ENDMDL
