MODEL 1
REMARK VINA RESULT:    -2.302      0.000      0.000
REMARK INTER + INTRA:          -6.137
REMARK INTER:                  -4.186
REMARK INTRA:                  -1.951
REMARK UNBOUND:                -1.951
REMARK SMILES CCCCCCCCCCCCCCCC(=O)[O-]
REMARK SMILES IDX 9 1 10 2 11 3 12 4 13 5 14 6 15 7 16 8 17 9 18 10 8 11 7 12
REMARK SMILES IDX 6 13 5 14 4 15 3 16 2 17 1 18
REMARK H PARENT
REMARK Flexibility Score: inf
ROOT
ATOM      1  C   UNL     1       6.393  -8.397  -4.982  1.00  0.00     0.000 C 
ENDROOT
BRANCH   1   2
ATOM      2  C   UNL     1       6.024  -8.799  -6.422  1.00  0.00     0.000 C 
BRANCH   2   3
ATOM      3  C   UNL     1       7.019  -8.260  -7.465  1.00  0.00     0.000 C 
BRANCH   3   4
ATOM      4  C   UNL     1       8.266  -9.151  -7.620  1.00  0.00     0.000 C 
BRANCH   4   5
ATOM      5  C   UNL     1       8.670  -9.469  -9.071  1.00  0.00     0.000 C 
BRANCH   5   6
ATOM      6  C   UNL     1       8.440  -8.289 -10.031  1.00  0.00     0.006 C 
BRANCH   6   7
ATOM      7  C   UNL     1       9.540  -7.225  -9.915  1.00  0.00     0.053 C 
BRANCH   7   8
ATOM      8  C   UNL     1       8.981  -5.837  -9.965  1.00  0.00     0.041 C 
ATOM      9  O   UNL     1       9.746  -4.841  -9.878  1.00  0.00    -0.550 OA
ATOM     10  O   UNL     1       7.609  -5.641 -10.080  1.00  0.00    -0.550 OA
ENDBRANCH   7   8
ENDBRANCH   6   7
ENDBRANCH   5   6
ENDBRANCH   4   5
ENDBRANCH   3   4
ENDBRANCH   2   3
ENDBRANCH   1   2
BRANCH   1  11
ATOM     11  C   UNL     1       6.909  -9.544  -4.088  1.00  0.00     0.000 C 
BRANCH  11  12
ATOM     12  C   UNL     1       7.488  -9.105  -2.731  1.00  0.00    -0.000 C 
BRANCH  12  13
ATOM     13  C   UNL     1       8.945  -9.550  -2.533  1.00  0.00    -0.000 C 
BRANCH  13  14
ATOM     14  C   UNL     1       9.919  -8.454  -2.979  1.00  0.00    -0.000 C 
BRANCH  14  15
ATOM     15  C   UNL     1       9.368  -7.059  -2.649  1.00  0.00    -0.000 C 
BRANCH  15  16
ATOM     16  C   UNL     1       9.264  -6.154  -3.888  1.00  0.00    -0.000 C 
BRANCH  16  17
ATOM     17  C   UNL     1       9.725  -6.856  -5.173  1.00  0.00    -0.003 C 
ATOM     18  C   UNL     1       9.703  -5.898  -6.360  1.00  0.00     0.004 C 
ENDBRANCH  16  17
ENDBRANCH  15  16
ENDBRANCH  14  15
ENDBRANCH  13  14
ENDBRANCH  12  13
ENDBRANCH  11  12
ENDBRANCH   1  11
TORSDOF 14
ENDMDL
MODEL 2
REMARK VINA RESULT:    -1.902      2.157      2.572
REMARK INTER + INTRA:          -5.410
REMARK INTER:                  -3.994
REMARK INTRA:                  -1.416
REMARK UNBOUND:                -1.951
REMARK SMILES CCCCCCCCCCCCCCCC(=O)[O-]
REMARK SMILES IDX 9 1 10 2 11 3 12 4 13 5 14 6 15 7 16 8 17 9 18 10 8 11 7 12
REMARK SMILES IDX 6 13 5 14 4 15 3 16 2 17 1 18
REMARK H PARENT
REMARK Flexibility Score: inf
ROOT
ATOM      1  C   UNL     1       6.660  -8.787  -4.994  1.00  0.00     0.000 C 
ENDROOT
BRANCH   1   2
ATOM      2  C   UNL     1       6.479  -9.395  -6.397  1.00  0.00     0.000 C 
BRANCH   2   3
ATOM      3  C   UNL     1       7.803  -9.522  -7.169  1.00  0.00     0.000 C 
BRANCH   3   4
ATOM      4  C   UNL     1       8.486  -8.164  -7.415  1.00  0.00     0.000 C 
BRANCH   4   5
ATOM      5  C   UNL     1       8.535  -7.709  -8.885  1.00  0.00     0.000 C 
BRANCH   5   6
ATOM      6  C   UNL     1       7.447  -8.364  -9.753  1.00  0.00     0.006 C 
BRANCH   6   7
ATOM      7  C   UNL     1       6.149  -7.545  -9.769  1.00  0.00     0.053 C 
BRANCH   7   8
ATOM      8  C   UNL     1       4.949  -8.407 -10.008  1.00  0.00     0.041 C 
ATOM      9  O   UNL     1       3.802  -7.892 -10.085  1.00  0.00    -0.550 OA
ATOM     10  O   UNL     1       5.091  -9.785 -10.120  1.00  0.00    -0.550 OA
ENDBRANCH   7   8
ENDBRANCH   6   7
ENDBRANCH   5   6
ENDBRANCH   4   5
ENDBRANCH   3   4
ENDBRANCH   2   3
ENDBRANCH   1   2
BRANCH   1  11
ATOM     11  C   UNL     1       6.650  -9.799  -3.829  1.00  0.00     0.000 C 
BRANCH  11  12
ATOM     12  C   UNL     1       7.482  -9.389  -2.600  1.00  0.00    -0.000 C 
BRANCH  12  13
ATOM     13  C   UNL     1       8.828 -10.125  -2.520  1.00  0.00    -0.000 C 
BRANCH  13  14
ATOM     14  C   UNL     1       9.998  -9.153  -2.712  1.00  0.00    -0.000 C 
BRANCH  14  15
ATOM     15  C   UNL     1       9.677  -7.778  -2.109  1.00  0.00    -0.000 C 
BRANCH  15  16
ATOM     16  C   UNL     1      10.125  -6.616  -3.009  1.00  0.00    -0.000 C 
BRANCH  16  17
ATOM     17  C   UNL     1       8.974  -6.038  -3.845  1.00  0.00    -0.003 C 
ATOM     18  C   UNL     1       9.396  -5.843  -5.298  1.00  0.00     0.004 C 
ENDBRANCH  16  17
ENDBRANCH  15  16
ENDBRANCH  14  15
ENDBRANCH  13  14
ENDBRANCH  12  13
ENDBRANCH  11  12
ENDBRANCH   1  11
TORSDOF 14
ENDMDL
MODEL 3
REMARK VINA RESULT:    -1.803      2.674      6.028
REMARK INTER + INTRA:          -5.229
REMARK INTER:                  -3.840
REMARK INTRA:                  -1.388
REMARK UNBOUND:                -1.951
REMARK SMILES CCCCCCCCCCCCCCCC(=O)[O-]
REMARK SMILES IDX 9 1 10 2 11 3 12 4 13 5 14 6 15 7 16 8 17 9 18 10 8 11 7 12
REMARK SMILES IDX 6 13 5 14 4 15 3 16 2 17 1 18
REMARK H PARENT
REMARK Flexibility Score: inf
ROOT
ATOM      1  C   UNL     1       8.737  -8.237  -8.735  1.00  0.00     0.000 C 
ENDROOT
BRANCH   1   2
ATOM      2  C   UNL     1       9.957  -8.705  -7.920  1.00  0.00     0.000 C 
BRANCH   2   3
ATOM      3  C   UNL     1       9.711 -10.036  -7.189  1.00  0.00     0.000 C 
BRANCH   3   4
ATOM      4  C   UNL     1      10.111  -9.986  -5.702  1.00  0.00     0.000 C 
BRANCH   4   5
ATOM      5  C   UNL     1       9.767  -8.675  -4.972  1.00  0.00     0.000 C 
BRANCH   5   6
ATOM      6  C   UNL     1       9.444  -8.883  -3.483  1.00  0.00     0.006 C 
BRANCH   6   7
ATOM      7  C   UNL     1       8.492  -7.809  -2.941  1.00  0.00     0.053 C 
BRANCH   7   8
ATOM      8  C   UNL     1       8.518  -6.567  -3.778  1.00  0.00     0.041 C 
ATOM      9  O   UNL     1       9.379  -5.674  -3.561  1.00  0.00    -0.550 OA
ATOM     10  O   UNL     1       7.574  -6.383  -4.781  1.00  0.00    -0.550 OA
ENDBRANCH   7   8
ENDBRANCH   6   7
ENDBRANCH   5   6
ENDBRANCH   4   5
ENDBRANCH   3   4
ENDBRANCH   2   3
ENDBRANCH   1   2
BRANCH   1  11
ATOM     11  C   UNL     1       7.843  -7.187  -8.043  1.00  0.00     0.000 C 
BRANCH  11  12
ATOM     12  C   UNL     1       6.877  -6.433  -8.974  1.00  0.00    -0.000 C 
BRANCH  12  13
ATOM     13  C   UNL     1       6.314  -7.321 -10.093  1.00  0.00    -0.000 C 
BRANCH  13  14
ATOM     14  C   UNL     1       5.036  -8.036  -9.637  1.00  0.00    -0.000 C 
BRANCH  14  15
ATOM     15  C   UNL     1       5.280  -9.543  -9.466  1.00  0.00    -0.000 C 
BRANCH  15  16
ATOM     16  C   UNL     1       4.987 -10.032  -8.038  1.00  0.00    -0.000 C 
BRANCH  16  17
ATOM     17  C   UNL     1       5.408  -9.015  -6.967  1.00  0.00    -0.003 C 
ATOM     18  C   UNL     1       6.414  -9.625  -5.996  1.00  0.00     0.004 C 
ENDBRANCH  16  17
ENDBRANCH  15  16
ENDBRANCH  14  15
ENDBRANCH  13  14
ENDBRANCH  12  13
ENDBRANCH  11  12
ENDBRANCH   1  11
TORSDOF 14
ENDMDL
MODEL 4
REMARK VINA RESULT:    -0.959      2.437      3.290
REMARK INTER + INTRA:          -3.694
REMARK INTER:                  -3.128
REMARK INTRA:                  -0.566
REMARK UNBOUND:                -1.951
REMARK SMILES CCCCCCCCCCCCCCCC(=O)[O-]
REMARK SMILES IDX 9 1 10 2 11 3 12 4 13 5 14 6 15 7 16 8 17 9 18 10 8 11 7 12
REMARK SMILES IDX 6 13 5 14 4 15 3 16 2 17 1 18
REMARK H PARENT
REMARK Flexibility Score: inf
ROOT
ATOM      1  C   UNL     1       7.059  -7.964  -5.185  1.00  0.00     0.000 C 
ENDROOT
BRANCH   1   2
ATOM      2  C   UNL     1       6.771  -9.372  -5.739  1.00  0.00     0.000 C 
BRANCH   2   3
ATOM      3  C   UNL     1       8.047 -10.124  -6.152  1.00  0.00     0.000 C 
BRANCH   3   4
ATOM      4  C   UNL     1       8.316 -10.061  -7.668  1.00  0.00     0.000 C 
BRANCH   4   5
ATOM      5  C   UNL     1       7.062  -9.944  -8.554  1.00  0.00     0.000 C 
BRANCH   5   6
ATOM      6  C   UNL     1       7.094  -8.716  -9.481  1.00  0.00     0.006 C 
BRANCH   6   7
ATOM      7  C   UNL     1       5.703  -8.364 -10.023  1.00  0.00     0.053 C 
BRANCH   7   8
ATOM      8  C   UNL     1       4.623  -9.144  -9.338  1.00  0.00     0.041 C 
ATOM      9  O   UNL     1       3.885  -9.921  -9.998  1.00  0.00    -0.550 OA
ATOM     10  O   UNL     1       4.413  -8.991  -7.972  1.00  0.00    -0.550 OA
ENDBRANCH   7   8
ENDBRANCH   6   7
ENDBRANCH   5   6
ENDBRANCH   4   5
ENDBRANCH   3   4
ENDBRANCH   2   3
ENDBRANCH   1   2
BRANCH   1  11
ATOM     11  C   UNL     1       6.927  -7.816  -3.654  1.00  0.00     0.000 C 
BRANCH  11  12
ATOM     12  C   UNL     1       7.769  -6.689  -3.031  1.00  0.00    -0.000 C 
BRANCH  12  13
ATOM     13  C   UNL     1       9.239  -7.084  -2.830  1.00  0.00    -0.000 C 
BRANCH  13  14
ATOM     14  C   UNL     1      10.125  -6.485  -3.928  1.00  0.00    -0.000 C 
BRANCH  14  15
ATOM     15  C   UNL     1       9.273  -5.913  -5.071  1.00  0.00    -0.000 C 
BRANCH  15  16
ATOM     16  C   UNL     1       9.985  -5.981  -6.432  1.00  0.00    -0.000 C 
BRANCH  16  17
ATOM     17  C   UNL     1       9.016  -6.250  -7.593  1.00  0.00    -0.003 C 
ATOM     18  C   UNL     1       9.751  -6.260  -8.930  1.00  0.00     0.004 C 
ENDBRANCH  16  17
ENDBRANCH  15  16
ENDBRANCH  14  15
ENDBRANCH  13  14
ENDBRANCH  12  13
ENDBRANCH  11  12
ENDBRANCH   1  11
TORSDOF 14
ENDMDL
MODEL 5
REMARK VINA RESULT:     0.390     15.517     18.259
REMARK INTER + INTRA:          -1.242
REMARK INTER:                  -0.269
REMARK INTRA:                  -0.973
REMARK UNBOUND:                -1.951
REMARK SMILES CCCCCCCCCCCCCCCC(=O)[O-]
REMARK SMILES IDX 9 1 10 2 11 3 12 4 13 5 14 6 15 7 16 8 17 9 18 10 8 11 7 12
REMARK SMILES IDX 6 13 5 14 4 15 3 16 2 17 1 18
REMARK H PARENT
REMARK Flexibility Score: inf
ROOT
ATOM      1  C   UNL     1      -6.107  -8.466  -5.220  1.00  0.00     0.000 C 
ENDROOT
BRANCH   1   2
ATOM      2  C   UNL     1      -7.423  -8.119  -4.499  1.00  0.00     0.000 C 
BRANCH   2   3
ATOM      3  C   UNL     1      -7.740  -6.614  -4.526  1.00  0.00     0.000 C 
BRANCH   3   4
ATOM      4  C   UNL     1      -9.249  -6.318  -4.443  1.00  0.00     0.000 C 
BRANCH   4   5
ATOM      5  C   UNL     1     -10.005  -7.061  -3.326  1.00  0.00     0.000 C 
BRANCH   5   6
ATOM      6  C   UNL     1      -9.966  -6.320  -1.978  1.00  0.00     0.006 C 
BRANCH   6   7
ATOM      7  C   UNL     1      -9.864  -7.285  -0.790  1.00  0.00     0.053 C 
BRANCH   7   8
ATOM      8  C   UNL     1     -10.007  -6.575   0.520  1.00  0.00     0.041 C 
ATOM      9  O   UNL     1      -9.998  -5.316   0.563  1.00  0.00    -0.550 OA
ATOM     10  O   UNL     1     -10.123  -7.302   1.699  1.00  0.00    -0.550 OA
ENDBRANCH   7   8
ENDBRANCH   6   7
ENDBRANCH   5   6
ENDBRANCH   4   5
ENDBRANCH   3   4
ENDBRANCH   2   3
ENDBRANCH   1   2
BRANCH   1  11
ATOM     11  C   UNL     1      -5.740  -7.547  -6.403  1.00  0.00     0.000 C 
BRANCH  11  12
ATOM     12  C   UNL     1      -5.074  -8.254  -7.598  1.00  0.00    -0.000 C 
BRANCH  12  13
ATOM     13  C   UNL     1      -6.076  -9.033  -8.463  1.00  0.00    -0.000 C 
BRANCH  13  14
ATOM     14  C   UNL     1      -6.853 -10.051  -7.621  1.00  0.00    -0.000 C 
BRANCH  14  15
ATOM     15  C   UNL     1      -8.322 -10.125  -8.064  1.00  0.00    -0.000 C 
BRANCH  15  16
ATOM     16  C   UNL     1      -9.167  -8.967  -7.510  1.00  0.00    -0.000 C 
BRANCH  16  17
ATOM     17  C   UNL     1      -9.892  -8.183  -8.614  1.00  0.00    -0.003 C 
ATOM     18  C   UNL     1      -9.650  -8.811  -9.983  1.00  0.00     0.004 C 
ENDBRANCH  16  17
ENDBRANCH  15  16
ENDBRANCH  14  15
ENDBRANCH  13  14
ENDBRANCH  12  13
ENDBRANCH  11  12
ENDBRANCH   1  11
TORSDOF 14
ENDMDL
