MODEL 1
REMARK VINA RESULT:    -5.436      0.000      0.000
REMARK INTER + INTRA:          -9.680
REMARK INTER:                  -9.250
REMARK INTRA:                  -0.429
REMARK UNBOUND:                -0.429
REMARK SMILES CCCCCCCCCCCCCC(=O)[O-]
REMARK SMILES IDX 8 1 9 2 10 3 11 4 12 5 13 6 14 7 15 8 16 9 7 10 6 11 5 12
REMARK SMILES IDX 4 13 3 14 2 15 1 16
REMARK H PARENT
REMARK Flexibility Score: inf
ROOT
ATOM      1  C   UNL     1      21.272 -12.842  21.325  1.00  0.00     0.000 C 
ENDROOT
BRANCH   1   2
ATOM      2  C   UNL     1      22.468 -11.969  21.745  1.00  0.00     0.000 C 
BRANCH   2   3
ATOM      3  C   UNL     1      22.033 -10.679  22.459  1.00  0.00     0.000 C 
BRANCH   3   4
ATOM      4  C   UNL     1      20.756 -10.864  23.297  1.00  0.00     0.000 C 
BRANCH   4   5
ATOM      5  C   UNL     1      20.767 -10.024  24.584  1.00  0.00     0.006 C 
BRANCH   5   6
ATOM      6  C   UNL     1      20.867  -8.519  24.305  1.00  0.00     0.053 C 
BRANCH   6   7
ATOM      7  C   UNL     1      20.376  -7.737  25.482  1.00  0.00     0.041 C 
ATOM      8  O   UNL     1      19.292  -7.100  25.413  1.00  0.00    -0.550 OA
ATOM      9  O   UNL     1      21.090  -7.752  26.673  1.00  0.00    -0.550 OA
ENDBRANCH   6   7
ENDBRANCH   5   6
ENDBRANCH   4   5
ENDBRANCH   3   4
ENDBRANCH   2   3
ENDBRANCH   1   2
BRANCH   1  10
ATOM     10  C   UNL     1      21.587 -13.734  20.113  1.00  0.00     0.000 C 
BRANCH  10  11
ATOM     11  C   UNL     1      22.635 -14.813  20.431  1.00  0.00    -0.000 C 
BRANCH  11  12
ATOM     12  C   UNL     1      22.920 -15.738  19.235  1.00  0.00    -0.000 C 
BRANCH  12  13
ATOM     13  C   UNL     1      23.243 -17.199  19.602  1.00  0.00    -0.000 C 
BRANCH  13  14
ATOM     14  C   UNL     1      23.651 -18.068  18.393  1.00  0.00    -0.000 C 
BRANCH  14  15
ATOM     15  C   UNL     1      22.932 -17.647  17.102  1.00  0.00    -0.003 C 
ATOM     16  C   UNL     1      22.368 -18.857  16.365  1.00  0.00     0.004 C 
ENDBRANCH  14  15
ENDBRANCH  13  14
ENDBRANCH  12  13
ENDBRANCH  11  12
ENDBRANCH  10  11
ENDBRANCH   1  10
TORSDOF 12
ENDMDL
MODEL 2
REMARK VINA RESULT:    -5.258      5.491      9.959
REMARK INTER + INTRA:          -9.376
REMARK INTER:                  -8.814
REMARK INTRA:                  -0.562
REMARK UNBOUND:                -0.429
REMARK SMILES CCCCCCCCCCCCCC(=O)[O-]
REMARK SMILES IDX 8 1 9 2 10 3 11 4 12 5 13 6 14 7 15 8 16 9 7 10 6 11 5 12
REMARK SMILES IDX 4 13 3 14 2 15 1 16
REMARK H PARENT
REMARK Flexibility Score: inf
ROOT
ATOM      1  C   UNL     1      21.476 -13.717  20.245  1.00  0.00     0.000 C 
ENDROOT
BRANCH   1   2
ATOM      2  C   UNL     1      22.785 -14.453  20.579  1.00  0.00     0.000 C 
BRANCH   2   3
ATOM      3  C   UNL     1      22.943 -15.763  19.788  1.00  0.00     0.000 C 
BRANCH   3   4
ATOM      4  C   UNL     1      22.632 -15.593  18.291  1.00  0.00     0.000 C 
BRANCH   4   5
ATOM      5  C   UNL     1      23.032 -16.825  17.462  1.00  0.00     0.006 C 
BRANCH   5   6
ATOM      6  C   UNL     1      23.129 -18.099  18.310  1.00  0.00     0.053 C 
BRANCH   6   7
ATOM      7  C   UNL     1      22.636 -19.280  17.535  1.00  0.00     0.041 C 
ATOM      8  O   UNL     1      23.339 -19.773  16.614  1.00  0.00    -0.550 OA
ATOM      9  O   UNL     1      21.420 -19.867  17.861  1.00  0.00    -0.550 OA
ENDBRANCH   6   7
ENDBRANCH   5   6
ENDBRANCH   4   5
ENDBRANCH   3   4
ENDBRANCH   2   3
ENDBRANCH   1   2
BRANCH   1  10
ATOM     10  C   UNL     1      21.164 -12.585  21.237  1.00  0.00     0.000 C 
BRANCH  10  11
ATOM     11  C   UNL     1      22.426 -11.833  21.691  1.00  0.00    -0.000 C 
BRANCH  11  12
ATOM     12  C   UNL     1      22.111 -10.643  22.614  1.00  0.00    -0.000 C 
BRANCH  12  13
ATOM     13  C   UNL     1      20.992 -10.893  23.643  1.00  0.00    -0.000 C 
BRANCH  13  14
ATOM     14  C   UNL     1      20.685  -9.674  24.537  1.00  0.00    -0.000 C 
BRANCH  14  15
ATOM     15  C   UNL     1      21.661  -8.512  24.295  1.00  0.00    -0.003 C 
ATOM     16  C   UNL     1      21.742  -7.596  25.512  1.00  0.00     0.004 C 
ENDBRANCH  14  15
ENDBRANCH  13  14
ENDBRANCH  12  13
ENDBRANCH  11  12
ENDBRANCH  10  11
ENDBRANCH   1  10
TORSDOF 12
ENDMDL
MODEL 3
REMARK VINA RESULT:    -5.239      4.412      9.723
REMARK INTER + INTRA:          -9.343
REMARK INTER:                  -8.746
REMARK INTRA:                  -0.597
REMARK UNBOUND:                -0.429
REMARK SMILES CCCCCCCCCCCCCC(=O)[O-]
REMARK SMILES IDX 8 1 9 2 10 3 11 4 12 5 13 6 14 7 15 8 16 9 7 10 6 11 5 12
REMARK SMILES IDX 4 13 3 14 2 15 1 16
REMARK H PARENT
REMARK Flexibility Score: inf
ROOT
ATOM      1  C   UNL     1      20.659 -11.114  23.359  1.00  0.00     0.000 C 
ENDROOT
BRANCH   1   2
ATOM      2  C   UNL     1      21.866 -10.713  22.494  1.00  0.00     0.000 C 
BRANCH   2   3
ATOM      3  C   UNL     1      22.390 -11.878  21.638  1.00  0.00     0.000 C 
BRANCH   3   4
ATOM      4  C   UNL     1      21.302 -12.916  21.318  1.00  0.00     0.000 C 
BRANCH   4   5
ATOM      5  C   UNL     1      21.702 -13.856  20.169  1.00  0.00     0.006 C 
BRANCH   5   6
ATOM      6  C   UNL     1      22.812 -14.836  20.568  1.00  0.00     0.053 C 
BRANCH   6   7
ATOM      7  C   UNL     1      22.957 -15.909  19.536  1.00  0.00     0.041 C 
ATOM      8  O   UNL     1      23.080 -17.112  19.885  1.00  0.00    -0.550 OA
ATOM      9  O   UNL     1      22.906 -15.586  18.186  1.00  0.00    -0.550 OA
ENDBRANCH   6   7
ENDBRANCH   5   6
ENDBRANCH   4   5
ENDBRANCH   3   4
ENDBRANCH   2   3
ENDBRANCH   1   2
BRANCH   1  10
ATOM     10  C   UNL     1      20.523 -10.248  24.622  1.00  0.00     0.000 C 
BRANCH  10  11
ATOM     11  C   UNL     1      21.300  -8.925  24.518  1.00  0.00    -0.000 C 
BRANCH  11  12
ATOM     12  C   UNL     1      20.937  -7.931  25.635  1.00  0.00    -0.000 C 
BRANCH  12  13
ATOM     13  C   UNL     1      19.902  -6.858  25.244  1.00  0.00    -0.000 C 
BRANCH  13  14
ATOM     14  C   UNL     1      20.056  -6.345  23.796  1.00  0.00    -0.000 C 
BRANCH  14  15
ATOM     15  C   UNL     1      19.172  -5.120  23.515  1.00  0.00    -0.003 C 
ATOM     16  C   UNL     1      17.964  -5.085  24.446  1.00  0.00     0.004 C 
ENDBRANCH  14  15
ENDBRANCH  13  14
ENDBRANCH  12  13
ENDBRANCH  11  12
ENDBRANCH  10  11
ENDBRANCH   1  10
TORSDOF 12
ENDMDL
MODEL 4
REMARK VINA RESULT:    -5.232      1.524      2.501
REMARK INTER + INTRA:          -9.331
REMARK INTER:                  -8.856
REMARK INTRA:                  -0.476
REMARK UNBOUND:                -0.429
REMARK SMILES CCCCCCCCCCCCCC(=O)[O-]
REMARK SMILES IDX 8 1 9 2 10 3 11 4 12 5 13 6 14 7 15 8 16 9 7 10 6 11 5 12
REMARK SMILES IDX 4 13 3 14 2 15 1 16
REMARK H PARENT
REMARK Flexibility Score: inf
ROOT
ATOM      1  C   UNL     1      21.354 -10.899  22.404  1.00  0.00     0.000 C 
ENDROOT
BRANCH   1   2
ATOM      2  C   UNL     1      20.767 -11.138  23.806  1.00  0.00     0.000 C 
BRANCH   2   3
ATOM      3  C   UNL     1      20.623  -9.838  24.614  1.00  0.00     0.000 C 
BRANCH   3   4
ATOM      4  C   UNL     1      21.314  -8.640  23.940  1.00  0.00     0.000 C 
BRANCH   4   5
ATOM      5  C   UNL     1      21.260  -7.367  24.800  1.00  0.00     0.006 C 
BRANCH   5   6
ATOM      6  C   UNL     1      19.855  -7.081  25.342  1.00  0.00     0.053 C 
BRANCH   6   7
ATOM      7  C   UNL     1      19.201  -5.994  24.549  1.00  0.00     0.041 C 
ATOM      8  O   UNL     1      18.016  -5.651  24.800  1.00  0.00    -0.550 OA
ATOM      9  O   UNL     1      19.917  -5.325  23.564  1.00  0.00    -0.550 OA
ENDBRANCH   6   7
ENDBRANCH   5   6
ENDBRANCH   4   5
ENDBRANCH   3   4
ENDBRANCH   2   3
ENDBRANCH   1   2
BRANCH   1  10
ATOM     10  C   UNL     1      22.436 -11.926  22.032  1.00  0.00     0.000 C 
BRANCH  10  11
ATOM     11  C   UNL     1      21.913 -13.019  21.085  1.00  0.00    -0.000 C 
BRANCH  11  12
ATOM     12  C   UNL     1      22.923 -14.160  20.876  1.00  0.00    -0.000 C 
BRANCH  12  13
ATOM     13  C   UNL     1      22.655 -15.052  19.648  1.00  0.00    -0.000 C 
BRANCH  13  14
ATOM     14  C   UNL     1      23.097 -16.519  19.837  1.00  0.00    -0.000 C 
BRANCH  14  15
ATOM     15  C   UNL     1      23.219 -17.268  18.502  1.00  0.00    -0.003 C 
ATOM     16  C   UNL     1      22.912 -16.349  17.323  1.00  0.00     0.004 C 
ENDBRANCH  14  15
ENDBRANCH  13  14
ENDBRANCH  12  13
ENDBRANCH  11  12
ENDBRANCH  10  11
ENDBRANCH   1  10
TORSDOF 12
ENDMDL
MODEL 5
REMARK VINA RESULT:    -5.129      1.468      2.525
REMARK INTER + INTRA:          -9.156
REMARK INTER:                  -8.675
REMARK INTRA:                  -0.482
REMARK UNBOUND:                -0.429
REMARK SMILES CCCCCCCCCCCCCC(=O)[O-]
REMARK SMILES IDX 8 1 9 2 10 3 11 4 12 5 13 6 14 7 15 8 16 9 7 10 6 11 5 12
REMARK SMILES IDX 4 13 3 14 2 15 1 16
REMARK H PARENT
REMARK Flexibility Score: inf
ROOT
ATOM      1  C   UNL     1      23.065 -14.899  20.748  1.00  0.00     0.000 C 
ENDROOT
BRANCH   1   2
ATOM      2  C   UNL     1      22.764 -13.458  21.195  1.00  0.00     0.000 C 
BRANCH   2   3
ATOM      3  C   UNL     1      21.306 -13.050  20.927  1.00  0.00     0.000 C 
BRANCH   3   4
ATOM      4  C   UNL     1      20.753 -12.088  21.992  1.00  0.00     0.000 C 
BRANCH   4   5
ATOM      5  C   UNL     1      21.860 -11.471  22.862  1.00  0.00     0.006 C 
BRANCH   5   6
ATOM      6  C   UNL     1      21.647  -9.972  23.110  1.00  0.00     0.053 C 
BRANCH   6   7
ATOM      7  C   UNL     1      20.819  -9.760  24.338  1.00  0.00     0.041 C 
ATOM      8  O   UNL     1      20.527 -10.732  25.082  1.00  0.00    -0.550 OA
ATOM      9  O   UNL     1      20.411  -8.479  24.688  1.00  0.00    -0.550 OA
ENDBRANCH   6   7
ENDBRANCH   5   6
ENDBRANCH   4   5
ENDBRANCH   3   4
ENDBRANCH   2   3
ENDBRANCH   1   2
BRANCH   1  10
ATOM     10  C   UNL     1      22.600 -15.182  19.310  1.00  0.00     0.000 C 
BRANCH  10  11
ATOM     11  C   UNL     1      23.000 -16.586  18.826  1.00  0.00    -0.000 C 
BRANCH  11  12
ATOM     12  C   UNL     1      23.027 -16.702  17.292  1.00  0.00    -0.000 C 
BRANCH  12  13
ATOM     13  C   UNL     1      23.471 -18.074  16.749  1.00  0.00    -0.000 C 
BRANCH  13  14
ATOM     14  C   UNL     1      22.299 -19.024  16.426  1.00  0.00    -0.000 C 
BRANCH  14  15
ATOM     15  C   UNL     1      22.262 -20.243  17.360  1.00  0.00    -0.003 C 
ATOM     16  C   UNL     1      23.573 -21.021  17.304  1.00  0.00     0.004 C 
ENDBRANCH  14  15
ENDBRANCH  13  14
ENDBRANCH  12  13
ENDBRANCH  11  12
ENDBRANCH  10  11
ENDBRANCH   1  10
TORSDOF 12
ENDMDL
MODEL 6
REMARK VINA RESULT:    -5.107      5.777     10.237
REMARK INTER + INTRA:          -9.119
REMARK INTER:                  -8.687
REMARK INTRA:                  -0.432
REMARK UNBOUND:                -0.429
REMARK SMILES CCCCCCCCCCCCCC(=O)[O-]
REMARK SMILES IDX 8 1 9 2 10 3 11 4 12 5 13 6 14 7 15 8 16 9 7 10 6 11 5 12
REMARK SMILES IDX 4 13 3 14 2 15 1 16
REMARK H PARENT
REMARK Flexibility Score: inf
ROOT
ATOM      1  C   UNL     1      22.982 -15.644  19.519  1.00  0.00     0.000 C 
ENDROOT
BRANCH   1   2
ATOM      2  C   UNL     1      22.983 -17.173  19.685  1.00  0.00     0.000 C 
BRANCH   2   3
ATOM      3  C   UNL     1      23.618 -17.895  18.486  1.00  0.00     0.000 C 
BRANCH   3   4
ATOM      4  C   UNL     1      22.946 -17.533  17.150  1.00  0.00     0.000 C 
BRANCH   4   5
ATOM      5  C   UNL     1      22.305 -18.748  16.463  1.00  0.00     0.006 C 
BRANCH   5   6
ATOM      6  C   UNL     1      22.047 -19.907  17.435  1.00  0.00     0.053 C 
BRANCH   6   7
ATOM      7  C   UNL     1      20.731 -20.553  17.139  1.00  0.00     0.041 C 
ATOM      8  O   UNL     1      20.577 -21.228  16.087  1.00  0.00    -0.550 OA
ATOM      9  O   UNL     1      19.686 -20.451  18.049  1.00  0.00    -0.550 OA
ENDBRANCH   6   7
ENDBRANCH   5   6
ENDBRANCH   4   5
ENDBRANCH   3   4
ENDBRANCH   2   3
ENDBRANCH   1   2
BRANCH   1  10
ATOM     10  C   UNL     1      23.007 -14.902  20.866  1.00  0.00     0.000 C 
BRANCH  10  11
ATOM     11  C   UNL     1      22.195 -13.596  20.836  1.00  0.00    -0.000 C 
BRANCH  11  12
ATOM     12  C   UNL     1      22.776 -12.512  21.760  1.00  0.00    -0.000 C 
BRANCH  12  13
ATOM     13  C   UNL     1      21.886 -11.268  21.947  1.00  0.00    -0.000 C 
BRANCH  13  14
ATOM     14  C   UNL     1      20.727 -11.477  22.945  1.00  0.00    -0.000 C 
BRANCH  14  15
ATOM     15  C   UNL     1      20.764 -10.468  24.103  1.00  0.00    -0.003 C 
ATOM     16  C   UNL     1      21.488  -9.188  23.695  1.00  0.00     0.004 C 
ENDBRANCH  14  15
ENDBRANCH  13  14
ENDBRANCH  12  13
ENDBRANCH  11  12
ENDBRANCH  10  11
ENDBRANCH   1  10
TORSDOF 12
ENDMDL
MODEL 7
REMARK VINA RESULT:    -5.088      4.718      9.701
REMARK INTER + INTRA:          -9.087
REMARK INTER:                  -8.492
REMARK INTRA:                  -0.595
REMARK UNBOUND:                -0.429
REMARK SMILES CCCCCCCCCCCCCC(=O)[O-]
REMARK SMILES IDX 8 1 9 2 10 3 11 4 12 5 13 6 14 7 15 8 16 9 7 10 6 11 5 12
REMARK SMILES IDX 4 13 3 14 2 15 1 16
REMARK H PARENT
REMARK Flexibility Score: inf
ROOT
ATOM      1  C   UNL     1      20.831 -11.785  22.310  1.00  0.00     0.000 C 
ENDROOT
BRANCH   1   2
ATOM      2  C   UNL     1      21.507 -12.610  21.202  1.00  0.00     0.000 C 
BRANCH   2   3
ATOM      3  C   UNL     1      22.933 -13.046  21.579  1.00  0.00     0.000 C 
BRANCH   3   4
ATOM      4  C   UNL     1      23.234 -14.501  21.181  1.00  0.00     0.000 C 
BRANCH   4   5
ATOM      5  C   UNL     1      22.592 -14.891  19.840  1.00  0.00     0.006 C 
BRANCH   5   6
ATOM      6  C   UNL     1      22.960 -16.314  19.402  1.00  0.00     0.053 C 
BRANCH   6   7
ATOM      7  C   UNL     1      23.014 -16.402  17.909  1.00  0.00     0.041 C 
ATOM      8  O   UNL     1      22.810 -15.379  17.205  1.00  0.00    -0.550 OA
ATOM      9  O   UNL     1      23.339 -17.606  17.296  1.00  0.00    -0.550 OA
ENDBRANCH   6   7
ENDBRANCH   5   6
ENDBRANCH   4   5
ENDBRANCH   3   4
ENDBRANCH   2   3
ENDBRANCH   1   2
BRANCH   1  10
ATOM     10  C   UNL     1      21.843 -11.042  23.197  1.00  0.00     0.000 C 
BRANCH  10  11
ATOM     11  C   UNL     1      22.137  -9.619  22.694  1.00  0.00    -0.000 C 
BRANCH  11  12
ATOM     12  C   UNL     1      21.190  -8.567  23.296  1.00  0.00    -0.000 C 
BRANCH  12  13
ATOM     13  C   UNL     1      20.728  -8.854  24.739  1.00  0.00    -0.000 C 
BRANCH  13  14
ATOM     14  C   UNL     1      20.021  -7.660  25.414  1.00  0.00    -0.000 C 
BRANCH  14  15
ATOM     15  C   UNL     1      21.015  -6.620  25.951  1.00  0.00    -0.003 C 
ATOM     16  C   UNL     1      21.661  -7.093  27.250  1.00  0.00     0.004 C 
ENDBRANCH  14  15
ENDBRANCH  13  14
ENDBRANCH  12  13
ENDBRANCH  11  12
ENDBRANCH  10  11
ENDBRANCH   1  10
TORSDOF 12
ENDMDL
MODEL 8
REMARK VINA RESULT:    -4.946      1.814      3.674
REMARK INTER + INTRA:          -8.845
REMARK INTER:                  -8.293
REMARK INTRA:                  -0.552
REMARK UNBOUND:                -0.429
REMARK SMILES CCCCCCCCCCCCCC(=O)[O-]
REMARK SMILES IDX 8 1 9 2 10 3 11 4 12 5 13 6 14 7 15 8 16 9 7 10 6 11 5 12
REMARK SMILES IDX 4 13 3 14 2 15 1 16
REMARK H PARENT
REMARK Flexibility Score: inf
ROOT
ATOM      1  C   UNL     1      20.845 -10.881  23.500  1.00  0.00     0.000 C 
ENDROOT
BRANCH   1   2
ATOM      2  C   UNL     1      20.737  -9.809  24.598  1.00  0.00     0.000 C 
BRANCH   2   3
ATOM      3  C   UNL     1      21.009  -8.392  24.065  1.00  0.00     0.000 C 
BRANCH   3   4
ATOM      4  C   UNL     1      21.843  -7.542  25.038  1.00  0.00     0.000 C 
BRANCH   4   5
ATOM      5  C   UNL     1      21.161  -6.212  25.395  1.00  0.00     0.006 C 
BRANCH   5   6
ATOM      6  C   UNL     1      20.612  -5.482  24.163  1.00  0.00     0.053 C 
BRANCH   6   7
ATOM      7  C   UNL     1      19.285  -4.863  24.472  1.00  0.00     0.041 C 
ATOM      8  O   UNL     1      19.171  -3.611  24.543  1.00  0.00    -0.550 OA
ATOM      9  O   UNL     1      18.164  -5.667  24.632  1.00  0.00    -0.550 OA
ENDBRANCH   6   7
ENDBRANCH   5   6
ENDBRANCH   4   5
ENDBRANCH   3   4
ENDBRANCH   2   3
ENDBRANCH   1   2
BRANCH   1  10
ATOM     10  C   UNL     1      22.039 -10.649  22.560  1.00  0.00     0.000 C 
BRANCH  10  11
ATOM     11  C   UNL     1      22.367 -11.885  21.706  1.00  0.00    -0.000 C 
BRANCH  11  12
ATOM     12  C   UNL     1      21.112 -12.669  21.285  1.00  0.00    -0.000 C 
BRANCH  12  13
ATOM     13  C   UNL     1      21.358 -13.793  20.260  1.00  0.00    -0.000 C 
BRANCH  13  14
ATOM     14  C   UNL     1      22.724 -14.494  20.422  1.00  0.00    -0.000 C 
BRANCH  14  15
ATOM     15  C   UNL     1      22.991 -15.515  19.306  1.00  0.00    -0.003 C 
ATOM     16  C   UNL     1      23.120 -16.927  19.869  1.00  0.00     0.004 C 
ENDBRANCH  14  15
ENDBRANCH  13  14
ENDBRANCH  12  13
ENDBRANCH  11  12
ENDBRANCH  10  11
ENDBRANCH   1  10
TORSDOF 12
ENDMDL
MODEL 9
REMARK VINA RESULT:    -4.863      1.761      3.112
REMARK INTER + INTRA:          -8.705
REMARK INTER:                  -8.228
REMARK INTRA:                  -0.476
REMARK UNBOUND:                -0.429
REMARK SMILES CCCCCCCCCCCCCC(=O)[O-]
REMARK SMILES IDX 8 1 9 2 10 3 11 4 12 5 13 6 14 7 15 8 16 9 7 10 6 11 5 12
REMARK SMILES IDX 4 13 3 14 2 15 1 16
REMARK H PARENT
REMARK Flexibility Score: inf
ROOT
ATOM      1  C   UNL     1      20.767 -10.621  23.486  1.00  0.00     0.000 C 
ENDROOT
BRANCH   1   2
ATOM      2  C   UNL     1      21.897  -9.708  22.979  1.00  0.00     0.000 C 
BRANCH   2   3
ATOM      3  C   UNL     1      22.058  -8.440  23.833  1.00  0.00     0.000 C 
BRANCH   3   4
ATOM      4  C   UNL     1      20.808  -8.125  24.672  1.00  0.00     0.000 C 
BRANCH   4   5
ATOM      5  C   UNL     1      21.020  -6.940  25.626  1.00  0.00     0.006 C 
BRANCH   5   6
ATOM      6  C   UNL     1      21.177  -7.380  27.087  1.00  0.00     0.053 C 
BRANCH   6   7
ATOM      7  C   UNL     1      22.231  -6.565  27.768  1.00  0.00     0.041 C 
ATOM      8  O   UNL     1      21.927  -5.806  28.725  1.00  0.00    -0.550 OA
ATOM      9  O   UNL     1      23.559  -6.680  27.376  1.00  0.00    -0.550 OA
ENDBRANCH   6   7
ENDBRANCH   5   6
ENDBRANCH   4   5
ENDBRANCH   3   4
ENDBRANCH   2   3
ENDBRANCH   1   2
BRANCH   1  10
ATOM     10  C   UNL     1      20.543 -11.844  22.583  1.00  0.00     0.000 C 
BRANCH  10  11
ATOM     11  C   UNL     1      21.702 -12.071  21.598  1.00  0.00    -0.000 C 
BRANCH  11  12
ATOM     12  C   UNL     1      21.571 -13.390  20.817  1.00  0.00    -0.000 C 
BRANCH  12  13
ATOM     13  C   UNL     1      22.878 -14.191  20.664  1.00  0.00    -0.000 C 
BRANCH  13  14
ATOM     14  C   UNL     1      22.718 -15.493  19.851  1.00  0.00    -0.000 C 
BRANCH  14  15
ATOM     15  C   UNL     1      22.771 -15.246  18.336  1.00  0.00    -0.003 C 
ATOM     16  C   UNL     1      22.964 -16.551  17.570  1.00  0.00     0.004 C 
ENDBRANCH  14  15
ENDBRANCH  13  14
ENDBRANCH  12  13
ENDBRANCH  11  12
ENDBRANCH  10  11
ENDBRANCH   1  10
TORSDOF 12
ENDMDL
