MODEL 1
REMARK VINA RESULT:    -3.234      0.000      0.000
REMARK INTER + INTRA:          -7.290
REMARK INTER:                  -5.503
REMARK INTRA:                  -1.787
REMARK UNBOUND:                -1.787
REMARK SMILES CCCCCCCCCCCCCC(=O)[O-]
REMARK SMILES IDX 8 1 9 2 10 3 11 4 12 5 13 6 14 7 15 8 16 9 7 10 6 11 5 12
REMARK SMILES IDX 4 13 3 14 2 15 1 16
REMARK H PARENT
REMARK Flexibility Score: inf
ROOT
ATOM      1  C   UNL     1      63.293  32.567  59.078  1.00  0.00     0.000 C 
ENDROOT
BRANCH   1   2
ATOM      2  C   UNL     1      61.868  32.817  59.596  1.00  0.00     0.000 C 
BRANCH   2   3
ATOM      3  C   UNL     1      61.198  31.503  60.016  1.00  0.00     0.000 C 
BRANCH   3   4
ATOM      4  C   UNL     1      61.142  31.377  61.543  1.00  0.00     0.000 C 
BRANCH   4   5
ATOM      5  C   UNL     1      61.898  30.131  62.022  1.00  0.00     0.006 C 
BRANCH   5   6
ATOM      6  C   UNL     1      62.565  29.409  60.848  1.00  0.00     0.053 C 
BRANCH   6   7
ATOM      7  C   UNL     1      64.017  29.181  61.130  1.00  0.00     0.041 C 
ATOM      8  O   UNL     1      64.798  30.160  61.263  1.00  0.00    -0.550 OA
ATOM      9  O   UNL     1      64.517  27.887  61.200  1.00  0.00    -0.550 OA
ENDBRANCH   6   7
ENDBRANCH   5   6
ENDBRANCH   4   5
ENDBRANCH   3   4
ENDBRANCH   2   3
ENDBRANCH   1   2
BRANCH   1  10
ATOM     10  C   UNL     1      64.355  33.357  59.859  1.00  0.00     0.000 C 
BRANCH  10  11
ATOM     11  C   UNL     1      63.833  33.875  61.210  1.00  0.00    -0.000 C 
BRANCH  11  12
ATOM     12  C   UNL     1      64.585  35.126  61.693  1.00  0.00    -0.000 C 
BRANCH  12  13
ATOM     13  C   UNL     1      63.790  36.422  61.468  1.00  0.00    -0.000 C 
BRANCH  13  14
ATOM     14  C   UNL     1      62.310  36.115  61.192  1.00  0.00    -0.000 C 
BRANCH  14  15
ATOM     15  C   UNL     1      61.791  36.804  59.920  1.00  0.00    -0.003 C 
ATOM     16  C   UNL     1      62.584  36.416  58.673  1.00  0.00     0.004 C 
ENDBRANCH  14  15
ENDBRANCH  13  14
ENDBRANCH  12  13
ENDBRANCH  11  12
ENDBRANCH  10  11
ENDBRANCH   1  10
TORSDOF 12
ENDMDL
MODEL 2
REMARK VINA RESULT:    -3.155     11.405     13.428
REMARK INTER + INTRA:          -7.156
REMARK INTER:                  -5.558
REMARK INTRA:                  -1.597
REMARK UNBOUND:                -1.787
REMARK SMILES CCCCCCCCCCCCCC(=O)[O-]
REMARK SMILES IDX 8 1 9 2 10 3 11 4 12 5 13 6 14 7 15 8 16 9 7 10 6 11 5 12
REMARK SMILES IDX 4 13 3 14 2 15 1 16
REMARK H PARENT
REMARK Flexibility Score: inf
ROOT
ATOM      1  C   UNL     1      57.860  27.730  52.568  1.00  0.00     0.000 C 
ENDROOT
BRANCH   1   2
ATOM      2  C   UNL     1      57.857  29.127  51.927  1.00  0.00     0.000 C 
BRANCH   2   3
ATOM      3  C   UNL     1      59.074  29.313  51.013  1.00  0.00     0.000 C 
BRANCH   3   4
ATOM      4  C   UNL     1      58.731  28.963  49.560  1.00  0.00     0.000 C 
BRANCH   4   5
ATOM      5  C   UNL     1      59.413  27.658  49.132  1.00  0.00     0.006 C 
BRANCH   5   6
ATOM      6  C   UNL     1      60.920  27.712  49.399  1.00  0.00     0.053 C 
BRANCH   6   7
ATOM      7  C   UNL     1      61.370  26.476  50.112  1.00  0.00     0.041 C 
ATOM      8  O   UNL     1      62.488  25.962  49.844  1.00  0.00    -0.550 OA
ATOM      9  O   UNL     1      60.536  25.865  51.039  1.00  0.00    -0.550 OA
ENDBRANCH   6   7
ENDBRANCH   5   6
ENDBRANCH   4   5
ENDBRANCH   3   4
ENDBRANCH   2   3
ENDBRANCH   1   2
BRANCH   1  10
ATOM     10  C   UNL     1      56.551  26.962  52.325  1.00  0.00     0.000 C 
BRANCH  10  11
ATOM     11  C   UNL     1      56.669  25.938  51.183  1.00  0.00    -0.000 C 
BRANCH  11  12
ATOM     12  C   UNL     1      55.972  26.406  49.896  1.00  0.00    -0.000 C 
BRANCH  12  13
ATOM     13  C   UNL     1      54.571  25.797  49.723  1.00  0.00    -0.000 C 
BRANCH  13  14
ATOM     14  C   UNL     1      53.517  26.898  49.522  1.00  0.00    -0.000 C 
BRANCH  14  15
ATOM     15  C   UNL     1      53.960  28.251  50.099  1.00  0.00    -0.003 C 
ATOM     16  C   UNL     1      53.290  28.572  51.434  1.00  0.00     0.004 C 
ENDBRANCH  14  15
ENDBRANCH  13  14
ENDBRANCH  12  13
ENDBRANCH  11  12
ENDBRANCH  10  11
ENDBRANCH   1  10
TORSDOF 12
ENDMDL
MODEL 3
REMARK VINA RESULT:    -3.137      1.735      3.434
REMARK INTER + INTRA:          -7.124
REMARK INTER:                  -6.201
REMARK INTRA:                  -0.923
REMARK UNBOUND:                -1.787
REMARK SMILES CCCCCCCCCCCCCC(=O)[O-]
REMARK SMILES IDX 8 1 9 2 10 3 11 4 12 5 13 6 14 7 15 8 16 9 7 10 6 11 5 12
REMARK SMILES IDX 4 13 3 14 2 15 1 16
REMARK H PARENT
REMARK Flexibility Score: inf
ROOT
ATOM      1  C   UNL     1      61.230  29.988  61.276  1.00  0.00     0.000 C 
ENDROOT
BRANCH   1   2
ATOM      2  C   UNL     1      62.400  29.324  62.019  1.00  0.00     0.000 C 
BRANCH   2   3
ATOM      3  C   UNL     1      63.248  28.477  61.063  1.00  0.00     0.000 C 
BRANCH   3   4
ATOM      4  C   UNL     1      63.773  29.321  59.896  1.00  0.00     0.000 C 
BRANCH   4   5
ATOM      5  C   UNL     1      65.252  29.025  59.623  1.00  0.00     0.006 C 
BRANCH   5   6
ATOM      6  C   UNL     1      66.137  29.555  60.755  1.00  0.00     0.053 C 
BRANCH   6   7
ATOM      7  C   UNL     1      66.971  28.453  61.328  1.00  0.00     0.041 C 
ATOM      8  O   UNL     1      67.824  28.703  62.220  1.00  0.00    -0.550 OA
ATOM      9  O   UNL     1      66.841  27.158  60.843  1.00  0.00    -0.550 OA
ENDBRANCH   6   7
ENDBRANCH   5   6
ENDBRANCH   4   5
ENDBRANCH   3   4
ENDBRANCH   2   3
ENDBRANCH   1   2
BRANCH   1  10
ATOM     10  C   UNL     1      61.121  31.494  61.564  1.00  0.00     0.000 C 
BRANCH  10  11
ATOM     11  C   UNL     1      61.644  32.357  60.404  1.00  0.00    -0.000 C 
BRANCH  11  12
ATOM     12  C   UNL     1      62.672  33.404  60.865  1.00  0.00    -0.000 C 
BRANCH  12  13
ATOM     13  C   UNL     1      62.231  34.845  60.559  1.00  0.00    -0.000 C 
BRANCH  13  14
ATOM     14  C   UNL     1      63.048  35.853  61.381  1.00  0.00    -0.000 C 
BRANCH  14  15
ATOM     15  C   UNL     1      64.388  35.275  61.862  1.00  0.00    -0.003 C 
ATOM     16  C   UNL     1      65.587  36.105  61.407  1.00  0.00     0.004 C 
ENDBRANCH  14  15
ENDBRANCH  13  14
ENDBRANCH  12  13
ENDBRANCH  11  12
ENDBRANCH  10  11
ENDBRANCH   1  10
TORSDOF 12
ENDMDL
MODEL 4
REMARK VINA RESULT:    -3.127     11.523     13.535
REMARK INTER + INTRA:          -7.108
REMARK INTER:                  -5.373
REMARK INTRA:                  -1.735
REMARK UNBOUND:                -1.787
REMARK SMILES CCCCCCCCCCCCCC(=O)[O-]
REMARK SMILES IDX 8 1 9 2 10 3 11 4 12 5 13 6 14 7 15 8 16 9 7 10 6 11 5 12
REMARK SMILES IDX 4 13 3 14 2 15 1 16
REMARK H PARENT
REMARK Flexibility Score: inf
ROOT
ATOM      1  C   UNL     1      58.623  25.349  49.992  1.00  0.00     0.000 C 
ENDROOT
BRANCH   1   2
ATOM      2  C   UNL     1      59.771  26.298  49.615  1.00  0.00     0.000 C 
BRANCH   2   3
ATOM      3  C   UNL     1      59.636  27.639  50.346  1.00  0.00     0.000 C 
BRANCH   3   4
ATOM      4  C   UNL     1      58.807  28.633  49.525  1.00  0.00     0.000 C 
BRANCH   4   5
ATOM      5  C   UNL     1      57.698  29.263  50.376  1.00  0.00     0.006 C 
BRANCH   5   6
ATOM      6  C   UNL     1      58.131  29.383  51.840  1.00  0.00     0.053 C 
BRANCH   6   7
ATOM      7  C   UNL     1      56.935  29.436  52.738  1.00  0.00     0.041 C 
ATOM      8  O   UNL     1      56.204  30.461  52.758  1.00  0.00    -0.550 OA
ATOM      9  O   UNL     1      56.655  28.373  53.587  1.00  0.00    -0.550 OA
ENDBRANCH   6   7
ENDBRANCH   5   6
ENDBRANCH   4   5
ENDBRANCH   3   4
ENDBRANCH   2   3
ENDBRANCH   1   2
BRANCH   1  10
ATOM     10  C   UNL     1      58.019  25.665  51.369  1.00  0.00     0.000 C 
BRANCH  10  11
ATOM     11  C   UNL     1      56.485  25.781  51.329  1.00  0.00    -0.000 C 
BRANCH  11  12
ATOM     12  C   UNL     1      55.962  26.206  49.948  1.00  0.00    -0.000 C 
BRANCH  12  13
ATOM     13  C   UNL     1      54.463  25.916  49.764  1.00  0.00    -0.000 C 
BRANCH  13  14
ATOM     14  C   UNL     1      53.675  27.219  49.557  1.00  0.00    -0.000 C 
BRANCH  14  15
ATOM     15  C   UNL     1      53.739  28.149  50.779  1.00  0.00    -0.003 C 
ATOM     16  C   UNL     1      53.860  29.623  50.394  1.00  0.00     0.004 C 
ENDBRANCH  14  15
ENDBRANCH  13  14
ENDBRANCH  12  13
ENDBRANCH  11  12
ENDBRANCH  10  11
ENDBRANCH   1  10
TORSDOF 12
ENDMDL
MODEL 5
REMARK VINA RESULT:    -3.101     11.884     13.568
REMARK INTER + INTRA:          -7.063
REMARK INTER:                  -4.826
REMARK INTRA:                  -2.237
REMARK UNBOUND:                -1.787
REMARK SMILES CCCCCCCCCCCCCC(=O)[O-]
REMARK SMILES IDX 8 1 9 2 10 3 11 4 12 5 13 6 14 7 15 8 16 9 7 10 6 11 5 12
REMARK SMILES IDX 4 13 3 14 2 15 1 16
REMARK H PARENT
REMARK Flexibility Score: inf
ROOT
ATOM      1  C   UNL     1      58.947  25.864  52.127  1.00  0.00     0.000 C 
ENDROOT
BRANCH   1   2
ATOM      2  C   UNL     1      57.730  26.213  52.998  1.00  0.00     0.000 C 
BRANCH   2   3
ATOM      3  C   UNL     1      56.423  26.004  52.222  1.00  0.00     0.000 C 
BRANCH   3   4
ATOM      4  C   UNL     1      55.789  27.346  51.839  1.00  0.00     0.000 C 
BRANCH   4   5
ATOM      5  C   UNL     1      55.697  27.498  50.316  1.00  0.00     0.006 C 
BRANCH   5   6
ATOM      6  C   UNL     1      55.350  26.163  49.651  1.00  0.00     0.053 C 
BRANCH   6   7
ATOM      7  C   UNL     1      53.880  26.075  49.388  1.00  0.00     0.041 C 
ATOM      8  O   UNL     1      53.325  24.952  49.259  1.00  0.00    -0.550 OA
ATOM      9  O   UNL     1      53.129  27.234  49.238  1.00  0.00    -0.550 OA
ENDBRANCH   6   7
ENDBRANCH   5   6
ENDBRANCH   4   5
ENDBRANCH   3   4
ENDBRANCH   2   3
ENDBRANCH   1   2
BRANCH   1  10
ATOM     10  C   UNL     1      58.571  25.049  50.880  1.00  0.00     0.000 C 
BRANCH  10  11
ATOM     11  C   UNL     1      59.074  25.695  49.577  1.00  0.00    -0.000 C 
BRANCH  11  12
ATOM     12  C   UNL     1      59.887  26.976  49.830  1.00  0.00    -0.000 C 
BRANCH  12  13
ATOM     13  C   UNL     1      59.219  28.230  49.243  1.00  0.00    -0.000 C 
BRANCH  13  14
ATOM     14  C   UNL     1      59.545  29.470  50.089  1.00  0.00    -0.000 C 
BRANCH  14  15
ATOM     15  C   UNL     1      58.636  29.601  51.320  1.00  0.00    -0.003 C 
ATOM     16  C   UNL     1      59.407  29.517  52.636  1.00  0.00     0.004 C 
ENDBRANCH  14  15
ENDBRANCH  13  14
ENDBRANCH  12  13
ENDBRANCH  11  12
ENDBRANCH  10  11
ENDBRANCH   1  10
TORSDOF 12
ENDMDL
MODEL 6
REMARK VINA RESULT:    -3.096     11.436     13.258
REMARK INTER + INTRA:          -7.054
REMARK INTER:                  -5.553
REMARK INTRA:                  -1.501
REMARK UNBOUND:                -1.787
REMARK SMILES CCCCCCCCCCCCCC(=O)[O-]
REMARK SMILES IDX 8 1 9 2 10 3 11 4 12 5 13 6 14 7 15 8 16 9 7 10 6 11 5 12
REMARK SMILES IDX 4 13 3 14 2 15 1 16
REMARK H PARENT
REMARK Flexibility Score: inf
ROOT
ATOM      1  C   UNL     1      59.419  29.520  51.343  1.00  0.00     0.000 C 
ENDROOT
BRANCH   1   2
ATOM      2  C   UNL     1      60.246  29.140  50.105  1.00  0.00     0.000 C 
BRANCH   2   3
ATOM      3  C   UNL     1      59.538  28.056  49.284  1.00  0.00     0.000 C 
BRANCH   3   4
ATOM      4  C   UNL     1      60.287  26.722  49.370  1.00  0.00     0.000 C 
BRANCH   4   5
ATOM      5  C   UNL     1      59.738  25.853  50.508  1.00  0.00     0.006 C 
BRANCH   5   6
ATOM      6  C   UNL     1      58.210  25.769  50.446  1.00  0.00     0.053 C 
BRANCH   6   7
ATOM      7  C   UNL     1      57.675  25.063  51.652  1.00  0.00     0.041 C 
ATOM      8  O   UNL     1      56.499  25.282  52.044  1.00  0.00    -0.550 OA
ATOM      9  O   UNL     1      58.491  24.198  52.371  1.00  0.00    -0.550 OA
ENDBRANCH   6   7
ENDBRANCH   5   6
ENDBRANCH   4   5
ENDBRANCH   3   4
ENDBRANCH   2   3
ENDBRANCH   1   2
BRANCH   1  10
ATOM     10  C   UNL     1      57.907  29.518  51.070  1.00  0.00     0.000 C 
BRANCH  10  11
ATOM     11  C   UNL     1      57.110  28.781  52.161  1.00  0.00    -0.000 C 
BRANCH  11  12
ATOM     12  C   UNL     1      55.615  28.667  51.824  1.00  0.00    -0.000 C 
BRANCH  12  13
ATOM     13  C   UNL     1      55.364  28.105  50.415  1.00  0.00    -0.000 C 
BRANCH  13  14
ATOM     14  C   UNL     1      53.876  28.204  50.044  1.00  0.00    -0.000 C 
BRANCH  14  15
ATOM     15  C   UNL     1      53.316  26.883  49.494  1.00  0.00    -0.003 C 
ATOM     16  C   UNL     1      54.404  25.842  49.234  1.00  0.00     0.004 C 
ENDBRANCH  14  15
ENDBRANCH  13  14
ENDBRANCH  12  13
ENDBRANCH  11  12
ENDBRANCH  10  11
ENDBRANCH   1  10
TORSDOF 12
ENDMDL
MODEL 7
REMARK VINA RESULT:    -3.088     12.192     13.846
REMARK INTER + INTRA:          -7.042
REMARK INTER:                  -5.846
REMARK INTRA:                  -1.196
REMARK UNBOUND:                -1.787
REMARK SMILES CCCCCCCCCCCCCC(=O)[O-]
REMARK SMILES IDX 8 1 9 2 10 3 11 4 12 5 13 6 14 7 15 8 16 9 7 10 6 11 5 12
REMARK SMILES IDX 4 13 3 14 2 15 1 16
REMARK H PARENT
REMARK Flexibility Score: inf
ROOT
ATOM      1  C   UNL     1      56.821  26.634  50.415  1.00  0.00     0.000 C 
ENDROOT
BRANCH   1   2
ATOM      2  C   UNL     1      56.823  28.151  50.164  1.00  0.00     0.000 C 
BRANCH   2   3
ATOM      3  C   UNL     1      58.216  28.744  50.408  1.00  0.00     0.000 C 
BRANCH   3   4
ATOM      4  C   UNL     1      59.281  27.644  50.472  1.00  0.00     0.000 C 
BRANCH   4   5
ATOM      5  C   UNL     1      60.172  27.665  49.224  1.00  0.00     0.006 C 
BRANCH   5   6
ATOM      6  C   UNL     1      61.477  26.901  49.468  1.00  0.00     0.053 C 
BRANCH   6   7
ATOM      7  C   UNL     1      62.655  27.802  49.273  1.00  0.00     0.041 C 
ATOM      8  O   UNL     1      62.927  28.685  50.129  1.00  0.00    -0.550 OA
ATOM      9  O   UNL     1      63.426  27.699  48.122  1.00  0.00    -0.550 OA
ENDBRANCH   6   7
ENDBRANCH   5   6
ENDBRANCH   4   5
ENDBRANCH   3   4
ENDBRANCH   2   3
ENDBRANCH   1   2
BRANCH   1  10
ATOM     10  C   UNL     1      55.408  26.072  50.639  1.00  0.00     0.000 C 
BRANCH  10  11
ATOM     11  C   UNL     1      54.618  25.917  49.328  1.00  0.00    -0.000 C 
BRANCH  11  12
ATOM     12  C   UNL     1      53.259  26.636  49.370  1.00  0.00    -0.000 C 
BRANCH  12  13
ATOM     13  C   UNL     1      53.141  27.617  50.547  1.00  0.00    -0.000 C 
BRANCH  13  14
ATOM     14  C   UNL     1      53.228  29.071  50.059  1.00  0.00    -0.000 C 
BRANCH  14  15
ATOM     15  C   UNL     1      53.578  30.053  51.187  1.00  0.00    -0.003 C 
ATOM     16  C   UNL     1      54.246  29.370  52.379  1.00  0.00     0.004 C 
ENDBRANCH  14  15
ENDBRANCH  13  14
ENDBRANCH  12  13
ENDBRANCH  11  12
ENDBRANCH  10  11
ENDBRANCH   1  10
TORSDOF 12
ENDMDL
MODEL 8
REMARK VINA RESULT:    -3.073     11.795     13.565
REMARK INTER + INTRA:          -7.015
REMARK INTER:                  -5.651
REMARK INTRA:                  -1.365
REMARK UNBOUND:                -1.787
REMARK SMILES CCCCCCCCCCCCCC(=O)[O-]
REMARK SMILES IDX 8 1 9 2 10 3 11 4 12 5 13 6 14 7 15 8 16 9 7 10 6 11 5 12
REMARK SMILES IDX 4 13 3 14 2 15 1 16
REMARK H PARENT
REMARK Flexibility Score: inf
ROOT
ATOM      1  C   UNL     1      57.512  26.827  52.490  1.00  0.00     0.000 C 
ENDROOT
BRANCH   1   2
ATOM      2  C   UNL     1      57.346  25.558  51.639  1.00  0.00     0.000 C 
BRANCH   2   3
ATOM      3  C   UNL     1      57.706  25.830  50.173  1.00  0.00     0.000 C 
BRANCH   3   4
ATOM      4  C   UNL     1      58.720  26.974  50.058  1.00  0.00     0.000 C 
BRANCH   4   5
ATOM      5  C   UNL     1      60.063  26.468  49.518  1.00  0.00     0.006 C 
BRANCH   5   6
ATOM      6  C   UNL     1      61.222  26.938  50.401  1.00  0.00     0.053 C 
BRANCH   6   7
ATOM      7  C   UNL     1      62.163  27.797  49.617  1.00  0.00     0.041 C 
ATOM      8  O   UNL     1      62.926  27.281  48.758  1.00  0.00    -0.550 OA
ATOM      9  O   UNL     1      62.232  29.162  49.867  1.00  0.00    -0.550 OA
ENDBRANCH   6   7
ENDBRANCH   5   6
ENDBRANCH   4   5
ENDBRANCH   3   4
ENDBRANCH   2   3
ENDBRANCH   1   2
BRANCH   1  10
ATOM     10  C   UNL     1      56.198  27.609  52.651  1.00  0.00     0.000 C 
BRANCH  10  11
ATOM     11  C   UNL     1      56.227  28.967  51.928  1.00  0.00    -0.000 C 
BRANCH  11  12
ATOM     12  C   UNL     1      55.602  28.901  50.525  1.00  0.00    -0.000 C 
BRANCH  12  13
ATOM     13  C   UNL     1      54.076  29.086  50.544  1.00  0.00    -0.000 C 
BRANCH  13  14
ATOM     14  C   UNL     1      53.379  27.965  49.757  1.00  0.00    -0.000 C 
BRANCH  14  15
ATOM     15  C   UNL     1      54.247  26.704  49.632  1.00  0.00    -0.003 C 
ATOM     16  C   UNL     1      53.526  25.558  48.924  1.00  0.00     0.004 C 
ENDBRANCH  14  15
ENDBRANCH  13  14
ENDBRANCH  12  13
ENDBRANCH  11  12
ENDBRANCH  10  11
ENDBRANCH   1  10
TORSDOF 12
ENDMDL
MODEL 9
REMARK VINA RESULT:    -3.011     11.056     12.981
REMARK INTER + INTRA:          -6.910
REMARK INTER:                  -4.890
REMARK INTRA:                  -2.021
REMARK UNBOUND:                -1.787
REMARK SMILES CCCCCCCCCCCCCC(=O)[O-]
REMARK SMILES IDX 8 1 9 2 10 3 11 4 12 5 13 6 14 7 15 8 16 9 7 10 6 11 5 12
REMARK SMILES IDX 4 13 3 14 2 15 1 16
REMARK H PARENT
REMARK Flexibility Score: inf
ROOT
ATOM      1  C   UNL     1      57.539  29.116  51.437  1.00  0.00     0.000 C 
ENDROOT
BRANCH   1   2
ATOM      2  C   UNL     1      58.959  29.202  50.854  1.00  0.00     0.000 C 
BRANCH   2   3
ATOM      3  C   UNL     1      58.945  28.956  49.341  1.00  0.00     0.000 C 
BRANCH   3   4
ATOM      4  C   UNL     1      59.845  27.773  48.967  1.00  0.00     0.000 C 
BRANCH   4   5
ATOM      5  C   UNL     1      60.974  27.593  49.988  1.00  0.00     0.006 C 
BRANCH   5   6
ATOM      6  C   UNL     1      62.345  27.766  49.328  1.00  0.00     0.053 C 
BRANCH   6   7
ATOM      7  C   UNL     1      63.031  28.986  49.856  1.00  0.00     0.041 C 
ATOM      8  O   UNL     1      64.242  28.934  50.195  1.00  0.00    -0.550 OA
ATOM      9  O   UNL     1      62.320  30.169  50.017  1.00  0.00    -0.550 OA
ENDBRANCH   6   7
ENDBRANCH   5   6
ENDBRANCH   4   5
ENDBRANCH   3   4
ENDBRANCH   2   3
ENDBRANCH   1   2
BRANCH   1  10
ATOM     10  C   UNL     1      56.474  28.829  50.367  1.00  0.00     0.000 C 
BRANCH  10  11
ATOM     11  C   UNL     1      55.700  27.528  50.637  1.00  0.00    -0.000 C 
BRANCH  11  12
ATOM     12  C   UNL     1      56.472  26.277  50.186  1.00  0.00    -0.000 C 
BRANCH  12  13
ATOM     13  C   UNL     1      57.115  25.520  51.360  1.00  0.00    -0.000 C 
BRANCH  13  14
ATOM     14  C   UNL     1      58.540  25.069  51.004  1.00  0.00    -0.000 C 
BRANCH  14  15
ATOM     15  C   UNL     1      59.461  25.000  52.232  1.00  0.00    -0.003 C 
ATOM     16  C   UNL     1      59.398  26.263  53.089  1.00  0.00     0.004 C 
ENDBRANCH  14  15
ENDBRANCH  13  14
ENDBRANCH  12  13
ENDBRANCH  11  12
ENDBRANCH  10  11
ENDBRANCH   1  10
TORSDOF 12
ENDMDL
