MODEL 1
REMARK VINA RESULT:    -3.481      0.000      0.000
REMARK INTER + INTRA:         -10.723
REMARK INTER:                  -7.551
REMARK INTRA:                  -3.172
REMARK UNBOUND:                -3.172
REMARK SMILES CCCCCCCCCCCCCCCCCCCCCC(=O)[O-]
REMARK SMILES IDX 12 1 11 2 10 3 9 4 8 5 7 6 6 7 5 8 4 9 3 10 2 11 1 12 13 13
REMARK SMILES IDX 14 14 15 15 16 16 17 17 18 18 19 19 20 20 21 21 22 22 23 23
REMARK SMILES IDX 24 24
REMARK H PARENT
REMARK Flexibility Score: inf
ROOT
ATOM      1  C   UNL     1    -104.590  31.899 -38.687  1.00  0.00     0.000 C 
ENDROOT
BRANCH   1   2
ATOM      2  C   UNL     1    -105.169  33.147 -37.998  1.00  0.00     0.000 C 
BRANCH   2   3
ATOM      3  C   UNL     1    -106.638  32.972 -37.586  1.00  0.00     0.000 C 
BRANCH   3   4
ATOM      4  C   UNL     1    -106.940  31.513 -37.222  1.00  0.00    -0.000 C 
BRANCH   4   5
ATOM      5  C   UNL     1    -106.753  31.274 -35.720  1.00  0.00    -0.000 C 
BRANCH   5   6
ATOM      6  C   UNL     1    -106.734  32.600 -34.945  1.00  0.00    -0.000 C 
BRANCH   6   7
ATOM      7  C   UNL     1    -107.957  32.765 -34.029  1.00  0.00    -0.000 C 
BRANCH   7   8
ATOM      8  C   UNL     1    -108.681  34.106 -34.242  1.00  0.00    -0.000 C 
BRANCH   8   9
ATOM      9  C   UNL     1    -110.182  33.932 -34.532  1.00  0.00    -0.000 C 
BRANCH   9  10
ATOM     10  C   UNL     1    -110.513  33.019 -35.730  1.00  0.00    -0.000 C 
BRANCH  10  11
ATOM     11  C   UNL     1    -110.260  33.643 -37.113  1.00  0.00    -0.003 C 
ATOM     12  C   UNL     1    -110.375  32.630 -38.253  1.00  0.00     0.004 C 
ENDBRANCH  10  11
ENDBRANCH   9  10
ENDBRANCH   8   9
ENDBRANCH   7   8
ENDBRANCH   6   7
ENDBRANCH   5   6
ENDBRANCH   4   5
ENDBRANCH   3   4
ENDBRANCH   2   3
ENDBRANCH   1   2
BRANCH   1  13
ATOM     13  C   UNL     1    -103.277  31.363 -38.080  1.00  0.00     0.000 C 
BRANCH  13  14
ATOM     14  C   UNL     1    -103.397  30.028 -37.322  1.00  0.00     0.000 C 
BRANCH  14  15
ATOM     15  C   UNL     1    -103.084  30.162 -35.823  1.00  0.00     0.000 C 
BRANCH  15  16
ATOM     16  C   UNL     1    -103.127  31.620 -35.327  1.00  0.00     0.000 C 
BRANCH  16  17
ATOM     17  C   UNL     1    -101.828  32.130 -34.674  1.00  0.00     0.000 C 
BRANCH  17  18
ATOM     18  C   UNL     1    -100.727  31.057 -34.608  1.00  0.00     0.000 C 
BRANCH  18  19
ATOM     19  C   UNL     1     -99.520  31.406 -35.506  1.00  0.00     0.000 C 
BRANCH  19  20
ATOM     20  C   UNL     1     -99.908  32.162 -36.790  1.00  0.00     0.006 C 
BRANCH  20  21
ATOM     21  C   UNL     1     -99.115  31.733 -38.034  1.00  0.00     0.053 C 
BRANCH  21  22
ATOM     22  C   UNL     1     -98.250  32.841 -38.556  1.00  0.00     0.041 C 
ATOM     23  O   UNL     1     -98.495  34.037 -38.250  1.00  0.00    -0.550 OA
ATOM     24  O   UNL     1     -97.183  32.553 -39.401  1.00  0.00    -0.550 OA
ENDBRANCH  21  22
ENDBRANCH  20  21
ENDBRANCH  19  20
ENDBRANCH  18  19
ENDBRANCH  17  18
ENDBRANCH  16  17
ENDBRANCH  15  16
ENDBRANCH  14  15
ENDBRANCH  13  14
ENDBRANCH   1  13
TORSDOF 20
ENDMDL
MODEL 2
REMARK VINA RESULT:    -3.434      3.255      5.626
REMARK INTER + INTRA:         -10.621
REMARK INTER:                  -7.567
REMARK INTRA:                  -3.054
REMARK UNBOUND:                -3.172
REMARK SMILES CCCCCCCCCCCCCCCCCCCCCC(=O)[O-]
REMARK SMILES IDX 12 1 11 2 10 3 9 4 8 5 7 6 6 7 5 8 4 9 3 10 2 11 1 12 13 13
REMARK SMILES IDX 14 14 15 15 16 16 17 17 18 18 19 19 20 20 21 21 22 22 23 23
REMARK SMILES IDX 24 24
REMARK H PARENT
REMARK Flexibility Score: inf
ROOT
ATOM      1  C   UNL     1     -99.438  31.469 -38.406  1.00  0.00     0.000 C 
ENDROOT
BRANCH   1   2
ATOM      2  C   UNL     1    -100.384  30.261 -38.280  1.00  0.00     0.000 C 
BRANCH   2   3
ATOM      3  C   UNL     1    -101.372  30.154 -39.451  1.00  0.00     0.000 C 
BRANCH   3   4
ATOM      4  C   UNL     1    -102.817  30.052 -38.947  1.00  0.00    -0.000 C 
BRANCH   4   5
ATOM      5  C   UNL     1    -102.894  30.348 -37.445  1.00  0.00    -0.000 C 
BRANCH   5   6
ATOM      6  C   UNL     1    -103.518  31.726 -37.183  1.00  0.00    -0.000 C 
BRANCH   6   7
ATOM      7  C   UNL     1    -104.538  32.127 -38.260  1.00  0.00    -0.000 C 
BRANCH   7   8
ATOM      8  C   UNL     1    -105.353  33.372 -37.871  1.00  0.00    -0.000 C 
BRANCH   8   9
ATOM      9  C   UNL     1    -106.844  33.063 -37.652  1.00  0.00    -0.000 C 
BRANCH   9  10
ATOM     10  C   UNL     1    -107.132  31.844 -36.751  1.00  0.00    -0.000 C 
BRANCH  10  11
ATOM     11  C   UNL     1    -108.230  32.060 -35.696  1.00  0.00    -0.003 C 
ATOM     12  C   UNL     1    -108.877  33.442 -35.783  1.00  0.00     0.004 C 
ENDBRANCH  10  11
ENDBRANCH   9  10
ENDBRANCH   8   9
ENDBRANCH   7   8
ENDBRANCH   6   7
ENDBRANCH   5   6
ENDBRANCH   4   5
ENDBRANCH   3   4
ENDBRANCH   2   3
ENDBRANCH   1   2
BRANCH   1  13
ATOM     13  C   UNL     1     -99.259  32.299 -37.118  1.00  0.00     0.000 C 
BRANCH  13  14
ATOM     14  C   UNL     1     -99.971  31.744 -35.871  1.00  0.00     0.000 C 
BRANCH  14  15
ATOM     15  C   UNL     1     -99.020  30.988 -34.927  1.00  0.00     0.000 C 
BRANCH  15  16
ATOM     16  C   UNL     1     -99.762  30.192 -33.838  1.00  0.00     0.000 C 
BRANCH  16  17
ATOM     17  C   UNL     1    -101.265  29.970 -34.097  1.00  0.00     0.000 C 
BRANCH  17  18
ATOM     18  C   UNL     1    -102.159  30.576 -33.001  1.00  0.00     0.000 C 
BRANCH  18  19
ATOM     19  C   UNL     1    -102.815  31.900 -33.452  1.00  0.00     0.000 C 
BRANCH  19  20
ATOM     20  C   UNL     1    -104.349  31.820 -33.557  1.00  0.00     0.006 C 
BRANCH  20  21
ATOM     21  C   UNL     1    -105.020  33.147 -33.944  1.00  0.00     0.053 C 
BRANCH  21  22
ATOM     22  C   UNL     1    -105.748  33.766 -32.789  1.00  0.00     0.041 C 
ATOM     23  O   UNL     1    -105.110  34.365 -31.884  1.00  0.00    -0.550 OA
ATOM     24  O   UNL     1    -107.132  33.661 -32.700  1.00  0.00    -0.550 OA
ENDBRANCH  21  22
ENDBRANCH  20  21
ENDBRANCH  19  20
ENDBRANCH  18  19
ENDBRANCH  17  18
ENDBRANCH  16  17
ENDBRANCH  15  16
ENDBRANCH  14  15
ENDBRANCH  13  14
ENDBRANCH   1  13
TORSDOF 20
ENDMDL
MODEL 3
REMARK VINA RESULT:    -3.334      3.320      6.437
REMARK INTER + INTRA:         -10.405
REMARK INTER:                  -7.315
REMARK INTRA:                  -3.090
REMARK UNBOUND:                -3.172
REMARK SMILES CCCCCCCCCCCCCCCCCCCCCC(=O)[O-]
REMARK SMILES IDX 12 1 11 2 10 3 9 4 8 5 7 6 6 7 5 8 4 9 3 10 2 11 1 12 13 13
REMARK SMILES IDX 14 14 15 15 16 16 17 17 18 18 19 19 20 20 21 21 22 22 23 23
REMARK SMILES IDX 24 24
REMARK H PARENT
REMARK Flexibility Score: inf
ROOT
ATOM      1  C   UNL     1     -99.117  32.117 -37.011  1.00  0.00     0.000 C 
ENDROOT
BRANCH   1   2
ATOM      2  C   UNL     1     -99.817  31.734 -35.695  1.00  0.00     0.000 C 
BRANCH   2   3
ATOM      3  C   UNL     1     -98.978  30.783 -34.829  1.00  0.00     0.000 C 
BRANCH   3   4
ATOM      4  C   UNL     1     -99.815  30.195 -33.686  1.00  0.00    -0.000 C 
BRANCH   4   5
ATOM      5  C   UNL     1    -101.122  30.975 -33.507  1.00  0.00    -0.000 C 
BRANCH   5   6
ATOM      6  C   UNL     1    -102.318  30.025 -33.346  1.00  0.00    -0.000 C 
BRANCH   6   7
ATOM      7  C   UNL     1    -103.393  30.585 -32.403  1.00  0.00    -0.000 C 
BRANCH   7   8
ATOM      8  C   UNL     1    -103.563  32.108 -32.536  1.00  0.00    -0.000 C 
BRANCH   8   9
ATOM      9  C   UNL     1    -104.817  32.633 -31.814  1.00  0.00    -0.000 C 
BRANCH   9  10
ATOM     10  C   UNL     1    -105.308  34.017 -32.284  1.00  0.00    -0.000 C 
BRANCH  10  11
ATOM     11  C   UNL     1    -106.802  34.090 -32.645  1.00  0.00    -0.003 C 
ATOM     12  C   UNL     1    -107.444  35.422 -32.257  1.00  0.00     0.004 C 
ENDBRANCH  10  11
ENDBRANCH   9  10
ENDBRANCH   8   9
ENDBRANCH   7   8
ENDBRANCH   6   7
ENDBRANCH   5   6
ENDBRANCH   4   5
ENDBRANCH   3   4
ENDBRANCH   2   3
ENDBRANCH   1   2
BRANCH   1  13
ATOM     13  C   UNL     1     -99.593  31.341 -38.257  1.00  0.00     0.000 C 
BRANCH  13  14
ATOM     14  C   UNL     1    -100.798  30.410 -38.033  1.00  0.00     0.000 C 
BRANCH  14  15
ATOM     15  C   UNL     1    -101.946  30.671 -39.023  1.00  0.00     0.000 C 
BRANCH  15  16
ATOM     16  C   UNL     1    -103.250  31.107 -38.330  1.00  0.00     0.000 C 
BRANCH  16  17
ATOM     17  C   UNL     1    -103.245  30.998 -36.793  1.00  0.00     0.000 C 
BRANCH  17  18
ATOM     18  C   UNL     1    -103.328  32.365 -36.093  1.00  0.00     0.000 C 
BRANCH  18  19
ATOM     19  C   UNL     1    -104.777  32.896 -36.025  1.00  0.00     0.000 C 
BRANCH  19  20
ATOM     20  C   UNL     1    -105.799  31.837 -35.571  1.00  0.00     0.006 C 
BRANCH  20  21
ATOM     21  C   UNL     1    -107.264  32.259 -35.762  1.00  0.00     0.053 C 
BRANCH  21  22
ATOM     22  C   UNL     1    -107.625  32.392 -37.211  1.00  0.00     0.041 C 
ATOM     23  O   UNL     1    -107.197  31.559 -38.052  1.00  0.00    -0.550 OA
ATOM     24  O   UNL     1    -108.418  33.452 -37.637  1.00  0.00    -0.550 OA
ENDBRANCH  21  22
ENDBRANCH  20  21
ENDBRANCH  19  20
ENDBRANCH  18  19
ENDBRANCH  17  18
ENDBRANCH  16  17
ENDBRANCH  15  16
ENDBRANCH  14  15
ENDBRANCH  13  14
ENDBRANCH   1  13
TORSDOF 20
ENDMDL
MODEL 4
REMARK VINA RESULT:    -3.278     10.952     13.505
REMARK INTER + INTRA:         -10.282
REMARK INTER:                  -6.771
REMARK INTRA:                  -3.511
REMARK UNBOUND:                -3.172
REMARK SMILES CCCCCCCCCCCCCCCCCCCCCC(=O)[O-]
REMARK SMILES IDX 12 1 11 2 10 3 9 4 8 5 7 6 6 7 5 8 4 9 3 10 2 11 1 12 13 13
REMARK SMILES IDX 14 14 15 15 16 16 17 17 18 18 19 19 20 20 21 21 22 22 23 23
REMARK SMILES IDX 24 24
REMARK H PARENT
REMARK Flexibility Score: inf
ROOT
ATOM      1  C   UNL     1    -108.481  45.143 -36.966  1.00  0.00     0.000 C 
ENDROOT
BRANCH   1   2
ATOM      2  C   UNL     1    -107.997  44.561 -38.306  1.00  0.00     0.000 C 
BRANCH   2   3
ATOM      3  C   UNL     1    -108.097  45.566 -39.462  1.00  0.00     0.000 C 
BRANCH   3   4
ATOM      4  C   UNL     1    -108.100  44.848 -40.818  1.00  0.00    -0.000 C 
BRANCH   4   5
ATOM      5  C   UNL     1    -107.563  43.420 -40.682  1.00  0.00    -0.000 C 
BRANCH   5   6
ATOM      6  C   UNL     1    -108.202  42.485 -41.720  1.00  0.00    -0.000 C 
BRANCH   6   7
ATOM      7  C   UNL     1    -109.166  41.472 -41.085  1.00  0.00    -0.000 C 
BRANCH   7   8
ATOM      8  C   UNL     1    -108.959  41.325 -39.568  1.00  0.00    -0.000 C 
BRANCH   8   9
ATOM      9  C   UNL     1    -110.235  41.625 -38.762  1.00  0.00    -0.000 C 
BRANCH   9  10
ATOM     10  C   UNL     1    -111.344  42.356 -39.545  1.00  0.00    -0.000 C 
BRANCH  10  11
ATOM     11  C   UNL     1    -111.464  43.862 -39.254  1.00  0.00    -0.003 C 
ATOM     12  C   UNL     1    -111.712  44.694 -40.512  1.00  0.00     0.004 C 
ENDBRANCH  10  11
ENDBRANCH   9  10
ENDBRANCH   8   9
ENDBRANCH   7   8
ENDBRANCH   6   7
ENDBRANCH   5   6
ENDBRANCH   4   5
ENDBRANCH   3   4
ENDBRANCH   2   3
ENDBRANCH   1   2
BRANCH   1  13
ATOM     13  C   UNL     1    -108.869  46.636 -37.000  1.00  0.00     0.000 C 
BRANCH  13  14
ATOM     14  C   UNL     1    -108.856  47.353 -35.638  1.00  0.00     0.000 C 
BRANCH  14  15
ATOM     15  C   UNL     1    -108.991  46.383 -34.452  1.00  0.00     0.000 C 
BRANCH  15  16
ATOM     16  C   UNL     1    -107.881  46.562 -33.400  1.00  0.00     0.000 C 
BRANCH  16  17
ATOM     17  C   UNL     1    -106.456  46.711 -33.967  1.00  0.00     0.000 C 
BRANCH  17  18
ATOM     18  C   UNL     1    -105.870  45.383 -34.476  1.00  0.00     0.000 C 
BRANCH  18  19
ATOM     19  C   UNL     1    -105.768  44.325 -33.355  1.00  0.00     0.000 C 
BRANCH  19  20
ATOM     20  C   UNL     1    -106.106  42.898 -33.824  1.00  0.00     0.006 C 
BRANCH  20  21
ATOM     21  C   UNL     1    -107.541  42.735 -34.347  1.00  0.00     0.053 C 
BRANCH  21  22
ATOM     22  C   UNL     1    -107.835  41.320 -34.748  1.00  0.00     0.041 C 
ATOM     23  O   UNL     1    -108.414  41.076 -35.839  1.00  0.00    -0.550 OA
ATOM     24  O   UNL     1    -107.487  40.270 -33.906  1.00  0.00    -0.550 OA
ENDBRANCH  21  22
ENDBRANCH  20  21
ENDBRANCH  19  20
ENDBRANCH  18  19
ENDBRANCH  17  18
ENDBRANCH  16  17
ENDBRANCH  15  16
ENDBRANCH  14  15
ENDBRANCH  13  14
ENDBRANCH   1  13
TORSDOF 20
ENDMDL
MODEL 5
REMARK VINA RESULT:    -3.154     11.619     14.287
REMARK INTER + INTRA:         -10.013
REMARK INTER:                  -5.924
REMARK INTRA:                  -4.089
REMARK UNBOUND:                -3.172
REMARK SMILES CCCCCCCCCCCCCCCCCCCCCC(=O)[O-]
REMARK SMILES IDX 12 1 11 2 10 3 9 4 8 5 7 6 6 7 5 8 4 9 3 10 2 11 1 12 13 13
REMARK SMILES IDX 14 14 15 15 16 16 17 17 18 18 19 19 20 20 21 21 22 22 23 23
REMARK SMILES IDX 24 24
REMARK H PARENT
REMARK Flexibility Score: inf
ROOT
ATOM      1  C   UNL     1    -108.105  45.497 -39.902  1.00  0.00     0.000 C 
ENDROOT
BRANCH   1   2
ATOM      2  C   UNL     1    -108.474  46.163 -38.564  1.00  0.00     0.000 C 
BRANCH   2   3
ATOM      3  C   UNL     1    -108.209  45.255 -37.355  1.00  0.00     0.000 C 
BRANCH   3   4
ATOM      4  C   UNL     1    -109.355  45.340 -36.339  1.00  0.00    -0.000 C 
BRANCH   4   5
ATOM      5  C   UNL     1    -109.334  44.137 -35.390  1.00  0.00    -0.000 C 
BRANCH   5   6
ATOM      6  C   UNL     1    -108.461  43.004 -35.948  1.00  0.00    -0.000 C 
BRANCH   6   7
ATOM      7  C   UNL     1    -107.868  42.117 -34.843  1.00  0.00    -0.000 C 
BRANCH   7   8
ATOM      8  C   UNL     1    -106.508  42.628 -34.339  1.00  0.00    -0.000 C 
BRANCH   8   9
ATOM      9  C   UNL     1    -106.587  43.239 -32.929  1.00  0.00    -0.000 C 
BRANCH   9  10
ATOM     10  C   UNL     1    -106.278  44.749 -32.855  1.00  0.00    -0.000 C 
BRANCH  10  11
ATOM     11  C   UNL     1    -106.002  45.424 -34.209  1.00  0.00    -0.003 C 
ATOM     12  C   UNL     1    -106.553  46.847 -34.289  1.00  0.00     0.004 C 
ENDBRANCH  10  11
ENDBRANCH   9  10
ENDBRANCH   8   9
ENDBRANCH   7   8
ENDBRANCH   6   7
ENDBRANCH   5   6
ENDBRANCH   4   5
ENDBRANCH   3   4
ENDBRANCH   2   3
ENDBRANCH   1   2
BRANCH   1  13
ATOM     13  C   UNL     1    -107.706  44.010 -39.808  1.00  0.00     0.000 C 
BRANCH  13  14
ATOM     14  C   UNL     1    -107.744  43.232 -41.135  1.00  0.00     0.000 C 
BRANCH  14  15
ATOM     15  C   UNL     1    -108.450  41.871 -41.010  1.00  0.00     0.000 C 
BRANCH  15  16
ATOM     16  C   UNL     1    -108.948  41.582 -39.582  1.00  0.00     0.000 C 
BRANCH  16  17
ATOM     17  C   UNL     1    -110.479  41.584 -39.408  1.00  0.00     0.000 C 
BRANCH  17  18
ATOM     18  C   UNL     1    -110.985  42.752 -38.544  1.00  0.00     0.000 C 
BRANCH  18  19
ATOM     19  C   UNL     1    -111.402  43.969 -39.398  1.00  0.00     0.000 C 
BRANCH  19  20
ATOM     20  C   UNL     1    -111.774  43.604 -40.847  1.00  0.00     0.006 C 
BRANCH  20  21
ATOM     21  C   UNL     1    -111.193  44.558 -41.902  1.00  0.00     0.053 C 
BRANCH  21  22
ATOM     22  C   UNL     1    -111.187  43.945 -43.270  1.00  0.00     0.041 C 
ATOM     23  O   UNL     1    -110.133  43.438 -43.735  1.00  0.00    -0.550 OA
ATOM     24  O   UNL     1    -112.344  43.953 -44.042  1.00  0.00    -0.550 OA
ENDBRANCH  21  22
ENDBRANCH  20  21
ENDBRANCH  19  20
ENDBRANCH  18  19
ENDBRANCH  17  18
ENDBRANCH  16  17
ENDBRANCH  15  16
ENDBRANCH  14  15
ENDBRANCH  13  14
ENDBRANCH   1  13
TORSDOF 20
ENDMDL
MODEL 6
REMARK VINA RESULT:    -3.145      3.954      7.479
REMARK INTER + INTRA:          -9.994
REMARK INTER:                  -6.631
REMARK INTRA:                  -3.363
REMARK UNBOUND:                -3.172
REMARK SMILES CCCCCCCCCCCCCCCCCCCCCC(=O)[O-]
REMARK SMILES IDX 12 1 11 2 10 3 9 4 8 5 7 6 6 7 5 8 4 9 3 10 2 11 1 12 13 13
REMARK SMILES IDX 14 14 15 15 16 16 17 17 18 18 19 19 20 20 21 21 22 22 23 23
REMARK SMILES IDX 24 24
REMARK H PARENT
REMARK Flexibility Score: inf
ROOT
ATOM      1  C   UNL     1    -101.768  30.885 -38.504  1.00  0.00     0.000 C 
ENDROOT
BRANCH   1   2
ATOM      2  C   UNL     1    -100.267  30.593 -38.332  1.00  0.00     0.000 C 
BRANCH   2   3
ATOM      3  C   UNL     1     -99.499  31.770 -37.711  1.00  0.00     0.000 C 
BRANCH   3   4
ATOM      4  C   UNL     1     -99.942  32.017 -36.264  1.00  0.00    -0.000 C 
BRANCH   4   5
ATOM      5  C   UNL     1     -99.366  30.951 -35.326  1.00  0.00    -0.000 C 
BRANCH   5   6
ATOM      6  C   UNL     1    -100.235  30.789 -34.070  1.00  0.00    -0.000 C 
BRANCH   6   7
ATOM      7  C   UNL     1    -101.508  31.647 -34.120  1.00  0.00    -0.000 C 
BRANCH   7   8
ATOM      8  C   UNL     1    -102.439  31.398 -32.921  1.00  0.00    -0.000 C 
BRANCH   8   9
ATOM      9  C   UNL     1    -103.718  30.636 -33.309  1.00  0.00    -0.000 C 
BRANCH   9  10
ATOM     10  C   UNL     1    -105.002  31.491 -33.338  1.00  0.00    -0.000 C 
BRANCH  10  11
ATOM     11  C   UNL     1    -104.794  32.989 -33.056  1.00  0.00    -0.003 C 
ATOM     12  C   UNL     1    -105.611  33.490 -31.865  1.00  0.00     0.004 C 
ENDBRANCH  10  11
ENDBRANCH   9  10
ENDBRANCH   8   9
ENDBRANCH   7   8
ENDBRANCH   6   7
ENDBRANCH   5   6
ENDBRANCH   4   5
ENDBRANCH   3   4
ENDBRANCH   2   3
ENDBRANCH   1   2
BRANCH   1  13
ATOM     13  C   UNL     1    -102.712  29.959 -37.711  1.00  0.00     0.000 C 
BRANCH  13  14
ATOM     14  C   UNL     1    -103.880  30.664 -36.996  1.00  0.00     0.000 C 
BRANCH  14  15
ATOM     15  C   UNL     1    -103.629  32.166 -36.782  1.00  0.00     0.000 C 
BRANCH  15  16
ATOM     16  C   UNL     1    -104.928  32.992 -36.742  1.00  0.00     0.000 C 
BRANCH  16  17
ATOM     17  C   UNL     1    -105.783  32.934 -38.022  1.00  0.00     0.000 C 
BRANCH  17  18
ATOM     18  C   UNL     1    -107.269  32.655 -37.741  1.00  0.00     0.000 C 
BRANCH  18  19
ATOM     19  C   UNL     1    -107.464  31.679 -36.559  1.00  0.00     0.000 C 
BRANCH  19  20
ATOM     20  C   UNL     1    -108.522  32.148 -35.544  1.00  0.00     0.006 C 
BRANCH  20  21
ATOM     21  C   UNL     1    -108.085  33.354 -34.697  1.00  0.00     0.053 C 
BRANCH  21  22
ATOM     22  C   UNL     1    -109.231  34.272 -34.397  1.00  0.00     0.041 C 
ATOM     23  O   UNL     1    -109.450  34.650 -33.216  1.00  0.00    -0.550 OA
ATOM     24  O   UNL     1    -110.072  34.695 -35.420  1.00  0.00    -0.550 OA
ENDBRANCH  21  22
ENDBRANCH  20  21
ENDBRANCH  19  20
ENDBRANCH  18  19
ENDBRANCH  17  18
ENDBRANCH  16  17
ENDBRANCH  15  16
ENDBRANCH  14  15
ENDBRANCH  13  14
ENDBRANCH   1  13
TORSDOF 20
ENDMDL
MODEL 7
REMARK VINA RESULT:    -3.133      2.299      3.475
REMARK INTER + INTRA:          -9.968
REMARK INTER:                  -7.064
REMARK INTRA:                  -2.903
REMARK UNBOUND:                -3.172
REMARK SMILES CCCCCCCCCCCCCCCCCCCCCC(=O)[O-]
REMARK SMILES IDX 12 1 11 2 10 3 9 4 8 5 7 6 6 7 5 8 4 9 3 10 2 11 1 12 13 13
REMARK SMILES IDX 14 14 15 15 16 16 17 17 18 18 19 19 20 20 21 21 22 22 23 23
REMARK SMILES IDX 24 24
REMARK H PARENT
REMARK Flexibility Score: inf
ROOT
ATOM      1  C   UNL     1    -105.117  33.167 -37.577  1.00  0.00     0.000 C 
ENDROOT
BRANCH   1   2
ATOM      2  C   UNL     1    -106.605  32.833 -37.780  1.00  0.00     0.000 C 
BRANCH   2   3
ATOM      3  C   UNL     1    -107.422  32.943 -36.485  1.00  0.00     0.000 C 
BRANCH   3   4
ATOM      4  C   UNL     1    -106.957  31.911 -35.450  1.00  0.00    -0.000 C 
BRANCH   4   5
ATOM      5  C   UNL     1    -106.855  32.542 -34.056  1.00  0.00    -0.000 C 
BRANCH   5   6
ATOM      6  C   UNL     1    -106.426  31.504 -33.008  1.00  0.00    -0.000 C 
BRANCH   6   7
ATOM      7  C   UNL     1    -106.238  32.120 -31.613  1.00  0.00    -0.000 C 
BRANCH   7   8
ATOM      8  C   UNL     1    -104.960  32.970 -31.507  1.00  0.00    -0.000 C 
BRANCH   8   9
ATOM      9  C   UNL     1    -105.225  34.374 -30.938  1.00  0.00    -0.000 C 
BRANCH   9  10
ATOM     10  C   UNL     1    -105.530  35.459 -31.992  1.00  0.00    -0.000 C 
BRANCH  10  11
ATOM     11  C   UNL     1    -106.971  35.996 -31.975  1.00  0.00    -0.003 C 
ATOM     12  C   UNL     1    -107.835  35.352 -30.890  1.00  0.00     0.004 C 
ENDBRANCH  10  11
ENDBRANCH   9  10
ENDBRANCH   8   9
ENDBRANCH   7   8
ENDBRANCH   6   7
ENDBRANCH   5   6
ENDBRANCH   4   5
ENDBRANCH   3   4
ENDBRANCH   2   3
ENDBRANCH   1   2
BRANCH   1  13
ATOM     13  C   UNL     1    -104.135  32.029 -37.925  1.00  0.00     0.000 C 
BRANCH  13  14
ATOM     14  C   UNL     1    -103.383  31.417 -36.729  1.00  0.00     0.000 C 
BRANCH  14  15
ATOM     15  C   UNL     1    -103.242  32.394 -35.550  1.00  0.00     0.000 C 
BRANCH  15  16
ATOM     16  C   UNL     1    -103.027  31.682 -34.202  1.00  0.00     0.000 C 
BRANCH  16  17
ATOM     17  C   UNL     1    -101.620  31.838 -33.594  1.00  0.00     0.000 C 
BRANCH  17  18
ATOM     18  C   UNL     1    -100.810  30.530 -33.609  1.00  0.00     0.000 C 
BRANCH  18  19
ATOM     19  C   UNL     1     -99.478  30.679 -34.376  1.00  0.00     0.000 C 
BRANCH  19  20
ATOM     20  C   UNL     1     -99.636  31.337 -35.759  1.00  0.00     0.006 C 
BRANCH  20  21
ATOM     21  C   UNL     1     -99.717  30.337 -36.922  1.00  0.00     0.053 C 
BRANCH  21  22
ATOM     22  C   UNL     1     -99.782  31.027 -38.252  1.00  0.00     0.041 C 
ATOM     23  O   UNL     1    -100.749  30.818 -39.029  1.00  0.00    -0.550 OA
ATOM     24  O   UNL     1     -98.761  31.887 -38.642  1.00  0.00    -0.550 OA
ENDBRANCH  21  22
ENDBRANCH  20  21
ENDBRANCH  19  20
ENDBRANCH  18  19
ENDBRANCH  17  18
ENDBRANCH  16  17
ENDBRANCH  15  16
ENDBRANCH  14  15
ENDBRANCH  13  14
ENDBRANCH   1  13
TORSDOF 20
ENDMDL
MODEL 8
REMARK VINA RESULT:    -3.127      3.904      7.156
REMARK INTER + INTRA:          -9.956
REMARK INTER:                  -6.904
REMARK INTRA:                  -3.051
REMARK UNBOUND:                -3.172
REMARK SMILES CCCCCCCCCCCCCCCCCCCCCC(=O)[O-]
REMARK SMILES IDX 12 1 11 2 10 3 9 4 8 5 7 6 6 7 5 8 4 9 3 10 2 11 1 12 13 13
REMARK SMILES IDX 14 14 15 15 16 16 17 17 18 18 19 19 20 20 21 21 22 22 23 23
REMARK SMILES IDX 24 24
REMARK H PARENT
REMARK Flexibility Score: inf
ROOT
ATOM      1  C   UNL     1     -99.635  31.294 -38.013  1.00  0.00     0.000 C 
ENDROOT
BRANCH   1   2
ATOM      2  C   UNL     1     -99.951  31.957 -36.660  1.00  0.00     0.000 C 
BRANCH   2   3
ATOM      3  C   UNL     1     -99.073  31.427 -35.517  1.00  0.00     0.000 C 
BRANCH   3   4
ATOM      4  C   UNL     1     -99.754  30.257 -34.795  1.00  0.00    -0.000 C 
BRANCH   4   5
ATOM      5  C   UNL     1    -100.595  30.757 -33.615  1.00  0.00    -0.000 C 
BRANCH   5   6
ATOM      6  C   UNL     1    -102.096  30.638 -33.914  1.00  0.00    -0.000 C 
BRANCH   6   7
ATOM      7  C   UNL     1    -102.805  32.002 -33.926  1.00  0.00    -0.000 C 
BRANCH   7   8
ATOM      8  C   UNL     1    -103.111  32.497 -35.350  1.00  0.00    -0.000 C 
BRANCH   8   9
ATOM      9  C   UNL     1    -104.531  33.074 -35.486  1.00  0.00    -0.000 C 
BRANCH   9  10
ATOM     10  C   UNL     1    -105.621  32.316 -34.700  1.00  0.00    -0.000 C 
BRANCH  10  11
ATOM     11  C   UNL     1    -106.437  33.177 -33.722  1.00  0.00    -0.003 C 
ATOM     12  C   UNL     1    -105.585  33.775 -32.602  1.00  0.00     0.004 C 
ENDBRANCH  10  11
ENDBRANCH   9  10
ENDBRANCH   8   9
ENDBRANCH   7   8
ENDBRANCH   6   7
ENDBRANCH   5   6
ENDBRANCH   4   5
ENDBRANCH   3   4
ENDBRANCH   2   3
ENDBRANCH   1   2
BRANCH   1  13
ATOM     13  C   UNL     1    -100.781  30.458 -38.618  1.00  0.00     0.000 C 
BRANCH  13  14
ATOM     14  C   UNL     1    -101.790  29.889 -37.603  1.00  0.00     0.000 C 
BRANCH  14  15
ATOM     15  C   UNL     1    -103.247  30.009 -38.079  1.00  0.00     0.000 C 
BRANCH  15  16
ATOM     16  C   UNL     1    -103.510  31.288 -38.895  1.00  0.00     0.000 C 
BRANCH  16  17
ATOM     17  C   UNL     1    -104.984  31.734 -38.960  1.00  0.00     0.000 C 
BRANCH  17  18
ATOM     18  C   UNL     1    -105.913  30.866 -38.095  1.00  0.00     0.000 C 
BRANCH  18  19
ATOM     19  C   UNL     1    -107.372  30.890 -38.603  1.00  0.00     0.000 C 
BRANCH  19  20
ATOM     20  C   UNL     1    -108.365  31.489 -37.590  1.00  0.00     0.006 C 
BRANCH  20  21
ATOM     21  C   UNL     1    -108.291  33.020 -37.472  1.00  0.00     0.053 C 
BRANCH  21  22
ATOM     22  C   UNL     1    -109.646  33.655 -37.569  1.00  0.00     0.041 C 
ATOM     23  O   UNL     1    -110.441  33.318 -38.485  1.00  0.00    -0.550 OA
ATOM     24  O   UNL     1    -110.022  34.637 -36.659  1.00  0.00    -0.550 OA
ENDBRANCH  21  22
ENDBRANCH  20  21
ENDBRANCH  19  20
ENDBRANCH  18  19
ENDBRANCH  17  18
ENDBRANCH  16  17
ENDBRANCH  15  16
ENDBRANCH  14  15
ENDBRANCH  13  14
ENDBRANCH   1  13
TORSDOF 20
ENDMDL
MODEL 9
REMARK VINA RESULT:    -3.125      3.482      8.337
REMARK INTER + INTRA:          -9.950
REMARK INTER:                  -7.668
REMARK INTRA:                  -2.282
REMARK UNBOUND:                -3.172
REMARK SMILES CCCCCCCCCCCCCCCCCCCCCC(=O)[O-]
REMARK SMILES IDX 12 1 11 2 10 3 9 4 8 5 7 6 6 7 5 8 4 9 3 10 2 11 1 12 13 13
REMARK SMILES IDX 14 14 15 15 16 16 17 17 18 18 19 19 20 20 21 21 22 22 23 23
REMARK SMILES IDX 24 24
REMARK H PARENT
REMARK Flexibility Score: inf
ROOT
ATOM      1  C   UNL     1    -103.340  32.747 -36.210  1.00  0.00     0.000 C 
ENDROOT
BRANCH   1   2
ATOM      2  C   UNL     1    -103.230  31.414 -35.447  1.00  0.00     0.000 C 
BRANCH   2   3
ATOM      3  C   UNL     1    -103.096  31.607 -33.929  1.00  0.00     0.000 C 
BRANCH   3   4
ATOM      4  C   UNL     1    -101.627  31.540 -33.493  1.00  0.00    -0.000 C 
BRANCH   4   5
ATOM      5  C   UNL     1    -100.987  30.215 -33.924  1.00  0.00    -0.000 C 
BRANCH   5   6
ATOM      6  C   UNL     1     -99.465  30.355 -34.065  1.00  0.00    -0.000 C 
BRANCH   6   7
ATOM      7  C   UNL     1     -99.060  31.200 -35.282  1.00  0.00    -0.000 C 
BRANCH   7   8
ATOM      8  C   UNL     1     -99.696  30.698 -36.590  1.00  0.00    -0.000 C 
BRANCH   8   9
ATOM      9  C   UNL     1     -99.746  31.782 -37.681  1.00  0.00    -0.000 C 
BRANCH   9  10
ATOM     10  C   UNL     1     -98.756  32.949 -37.487  1.00  0.00    -0.000 C 
BRANCH  10  11
ATOM     11  C   UNL     1     -98.213  33.566 -38.787  1.00  0.00    -0.003 C 
ATOM     12  C   UNL     1     -97.062  32.762 -39.393  1.00  0.00     0.004 C 
ENDBRANCH  10  11
ENDBRANCH   9  10
ENDBRANCH   8   9
ENDBRANCH   7   8
ENDBRANCH   6   7
ENDBRANCH   5   6
ENDBRANCH   4   5
ENDBRANCH   3   4
ENDBRANCH   2   3
ENDBRANCH   1   2
BRANCH   1  13
ATOM     13  C   UNL     1    -104.653  32.949 -36.993  1.00  0.00     0.000 C 
BRANCH  13  14
ATOM     14  C   UNL     1    -105.266  31.671 -37.593  1.00  0.00     0.000 C 
BRANCH  14  15
ATOM     15  C   UNL     1    -106.443  31.127 -36.765  1.00  0.00     0.000 C 
BRANCH  15  16
ATOM     16  C   UNL     1    -107.734  31.946 -36.945  1.00  0.00     0.000 C 
BRANCH  16  17
ATOM     17  C   UNL     1    -108.155  32.785 -35.723  1.00  0.00     0.000 C 
BRANCH  17  18
ATOM     18  C   UNL     1    -107.173  32.664 -34.545  1.00  0.00     0.000 C 
BRANCH  18  19
ATOM     19  C   UNL     1    -107.743  33.281 -33.248  1.00  0.00     0.000 C 
BRANCH  19  20
ATOM     20  C   UNL     1    -106.893  34.439 -32.694  1.00  0.00     0.006 C 
BRANCH  20  21
ATOM     21  C   UNL     1    -105.408  34.091 -32.507  1.00  0.00     0.053 C 
BRANCH  21  22
ATOM     22  C   UNL     1    -105.152  33.412 -31.194  1.00  0.00     0.041 C 
ATOM     23  O   UNL     1    -105.235  32.160 -31.100  1.00  0.00    -0.550 OA
ATOM     24  O   UNL     1    -104.843  34.167 -30.068  1.00  0.00    -0.550 OA
ENDBRANCH  21  22
ENDBRANCH  20  21
ENDBRANCH  19  20
ENDBRANCH  18  19
ENDBRANCH  17  18
ENDBRANCH  16  17
ENDBRANCH  15  16
ENDBRANCH  14  15
ENDBRANCH  13  14
ENDBRANCH   1  13
TORSDOF 20
ENDMDL
