MODEL 1
REMARK VINA RESULT:    -5.113      0.000      0.000
REMARK INTER + INTRA:         -11.661
REMARK INTER:                  -9.298
REMARK INTRA:                  -2.362
REMARK UNBOUND:                -2.362
REMARK SMILES CCCCCCCCCCCCCCCC(=O)[O-]
REMARK SMILES IDX 9 1 10 2 11 3 12 4 13 5 14 6 15 7 16 8 17 9 18 10 8 11 7 12
REMARK SMILES IDX 6 13 5 14 4 15 3 16 2 17 1 18
REMARK H PARENT
REMARK Flexibility Score: inf
ROOT
ATOM      1  C   UNL     1     105.734  25.060 196.009  1.00  0.00     0.000 C 
ENDROOT
BRANCH   1   2
ATOM      2  C   UNL     1     104.971  24.279 194.927  1.00  0.00     0.000 C 
BRANCH   2   3
ATOM      3  C   UNL     1     105.387  22.802 194.857  1.00  0.00     0.000 C 
BRANCH   3   4
ATOM      4  C   UNL     1     104.158  21.884 194.866  1.00  0.00     0.000 C 
BRANCH   4   5
ATOM      5  C   UNL     1     102.972  22.547 194.147  1.00  0.00     0.000 C 
BRANCH   5   6
ATOM      6  C   UNL     1     101.610  22.020 194.634  1.00  0.00     0.006 C 
BRANCH   6   7
ATOM      7  C   UNL     1     101.700  20.986 195.767  1.00  0.00     0.053 C 
BRANCH   7   8
ATOM      8  C   UNL     1     100.464  20.974 196.614  1.00  0.00     0.041 C 
ATOM      9  O   UNL     1     100.022  22.046 197.104  1.00  0.00    -0.550 OA
ATOM     10  O   UNL     1      99.821  19.774 196.889  1.00  0.00    -0.550 OA
ENDBRANCH   7   8
ENDBRANCH   6   7
ENDBRANCH   5   6
ENDBRANCH   4   5
ENDBRANCH   3   4
ENDBRANCH   2   3
ENDBRANCH   1   2
BRANCH   1  11
ATOM     11  C   UNL     1     104.828  25.495 197.173  1.00  0.00     0.000 C 
BRANCH  11  12
ATOM     12  C   UNL     1     103.333  25.276 196.880  1.00  0.00    -0.000 C 
BRANCH  12  13
ATOM     13  C   UNL     1     102.641  24.207 197.750  1.00  0.00    -0.000 C 
BRANCH  13  14
ATOM     14  C   UNL     1     103.569  23.105 198.293  1.00  0.00    -0.000 C 
BRANCH  14  15
ATOM     15  C   UNL     1     103.849  23.247 199.796  1.00  0.00    -0.000 C 
BRANCH  15  16
ATOM     16  C   UNL     1     105.358  23.188 200.080  1.00  0.00    -0.000 C 
BRANCH  16  17
ATOM     17  C   UNL     1     106.135  22.437 198.988  1.00  0.00    -0.003 C 
ATOM     18  C   UNL     1     107.317  21.641 199.543  1.00  0.00     0.004 C 
ENDBRANCH  16  17
ENDBRANCH  15  16
ENDBRANCH  14  15
ENDBRANCH  13  14
ENDBRANCH  12  13
ENDBRANCH  11  12
ENDBRANCH   1  11
TORSDOF 14
ENDMDL
MODEL 2
REMARK VINA RESULT:    -5.049      2.010      3.428
REMARK INTER + INTRA:         -11.543
REMARK INTER:                  -9.040
REMARK INTRA:                  -2.503
REMARK UNBOUND:                -2.362
REMARK SMILES CCCCCCCCCCCCCCCC(=O)[O-]
REMARK SMILES IDX 9 1 10 2 11 3 12 4 13 5 14 6 15 7 16 8 17 9 18 10 8 11 7 12
REMARK SMILES IDX 6 13 5 14 4 15 3 16 2 17 1 18
REMARK H PARENT
REMARK Flexibility Score: inf
ROOT
ATOM      1  C   UNL     1     101.681  22.500 193.721  1.00  0.00     0.000 C 
ENDROOT
BRANCH   1   2
ATOM      2  C   UNL     1     103.100  22.904 193.292  1.00  0.00     0.000 C 
BRANCH   2   3
ATOM      3  C   UNL     1     104.190  22.079 193.993  1.00  0.00     0.000 C 
BRANCH   3   4
ATOM      4  C   UNL     1     105.022  22.957 194.936  1.00  0.00     0.000 C 
BRANCH   4   5
ATOM      5  C   UNL     1     105.639  22.119 196.066  1.00  0.00     0.000 C 
BRANCH   5   6
ATOM      6  C   UNL     1     105.125  20.667 196.082  1.00  0.00     0.006 C 
BRANCH   6   7
ATOM      7  C   UNL     1     104.236  20.325 197.286  1.00  0.00     0.053 C 
BRANCH   7   8
ATOM      8  C   UNL     1     103.776  18.899 197.256  1.00  0.00     0.041 C 
ATOM      9  O   UNL     1     104.594  17.975 197.008  1.00  0.00    -0.550 OA
ATOM     10  O   UNL     1     102.437  18.596 197.469  1.00  0.00    -0.550 OA
ENDBRANCH   7   8
ENDBRANCH   6   7
ENDBRANCH   5   6
ENDBRANCH   4   5
ENDBRANCH   3   4
ENDBRANCH   2   3
ENDBRANCH   1   2
BRANCH   1  11
ATOM     11  C   UNL     1     101.679  21.417 194.813  1.00  0.00     0.000 C 
BRANCH  11  12
ATOM     12  C   UNL     1     101.111  21.920 196.152  1.00  0.00    -0.000 C 
BRANCH  12  13
ATOM     13  C   UNL     1     101.339  23.417 196.443  1.00  0.00    -0.000 C 
BRANCH  13  14
ATOM     14  C   UNL     1     102.391  23.720 197.525  1.00  0.00    -0.000 C 
BRANCH  14  15
ATOM     15  C   UNL     1     102.115  22.991 198.848  1.00  0.00    -0.000 C 
BRANCH  15  16
ATOM     16  C   UNL     1     103.243  23.245 199.860  1.00  0.00    -0.000 C 
BRANCH  16  17
ATOM     17  C   UNL     1     104.596  23.512 199.181  1.00  0.00    -0.003 C 
ATOM     18  C   UNL     1     105.785  23.225 200.097  1.00  0.00     0.004 C 
ENDBRANCH  16  17
ENDBRANCH  15  16
ENDBRANCH  14  15
ENDBRANCH  13  14
ENDBRANCH  12  13
ENDBRANCH  11  12
ENDBRANCH   1  11
TORSDOF 14
ENDMDL
MODEL 3
REMARK VINA RESULT:    -5.046      1.616      3.149
REMARK INTER + INTRA:         -11.538
REMARK INTER:                  -9.362
REMARK INTRA:                  -2.176
REMARK UNBOUND:                -2.362
REMARK SMILES CCCCCCCCCCCCCCCC(=O)[O-]
REMARK SMILES IDX 9 1 10 2 11 3 12 4 13 5 14 6 15 7 16 8 17 9 18 10 8 11 7 12
REMARK SMILES IDX 6 13 5 14 4 15 3 16 2 17 1 18
REMARK H PARENT
REMARK Flexibility Score: inf
ROOT
ATOM      1  C   UNL     1     102.536  24.486 197.124  1.00  0.00     0.000 C 
ENDROOT
BRANCH   1   2
ATOM      2  C   UNL     1     103.659  25.533 197.197  1.00  0.00     0.000 C 
BRANCH   2   3
ATOM      3  C   UNL     1     104.584  25.499 195.971  1.00  0.00     0.000 C 
BRANCH   3   4
ATOM      4  C   UNL     1     105.654  24.411 196.119  1.00  0.00     0.000 C 
BRANCH   4   5
ATOM      5  C   UNL     1     105.431  23.278 195.106  1.00  0.00     0.000 C 
BRANCH   5   6
ATOM      6  C   UNL     1     104.369  23.626 194.046  1.00  0.00     0.006 C 
BRANCH   6   7
ATOM      7  C   UNL     1     103.623  22.410 193.476  1.00  0.00     0.053 C 
BRANCH   7   8
ATOM      8  C   UNL     1     102.277  22.232 194.109  1.00  0.00     0.041 C 
ATOM      9  O   UNL     1     102.163  21.587 195.184  1.00  0.00    -0.550 OA
ATOM     10  O   UNL     1     101.144  22.749 193.493  1.00  0.00    -0.550 OA
ENDBRANCH   7   8
ENDBRANCH   6   7
ENDBRANCH   5   6
ENDBRANCH   4   5
ENDBRANCH   3   4
ENDBRANCH   2   3
ENDBRANCH   1   2
BRANCH   1  11
ATOM     11  C   UNL     1     102.189  23.894 198.500  1.00  0.00     0.000 C 
BRANCH  11  12
ATOM     12  C   UNL     1     103.194  22.820 198.958  1.00  0.00    -0.000 C 
BRANCH  12  13
ATOM     13  C   UNL     1     104.133  23.245 200.105  1.00  0.00    -0.000 C 
BRANCH  13  14
ATOM     14  C   UNL     1     105.591  23.513 199.692  1.00  0.00    -0.000 C 
BRANCH  14  15
ATOM     15  C   UNL     1     106.483  22.268 199.805  1.00  0.00    -0.000 C 
BRANCH  15  16
ATOM     16  C   UNL     1     106.947  21.799 198.418  1.00  0.00    -0.000 C 
BRANCH  16  17
ATOM     17  C   UNL     1     106.563  20.339 198.130  1.00  0.00    -0.003 C 
ATOM     18  C   UNL     1     105.243  20.212 197.371  1.00  0.00     0.004 C 
ENDBRANCH  16  17
ENDBRANCH  15  16
ENDBRANCH  14  15
ENDBRANCH  13  14
ENDBRANCH  12  13
ENDBRANCH  11  12
ENDBRANCH   1  11
TORSDOF 14
ENDMDL
MODEL 4
REMARK VINA RESULT:    -4.997      3.234      5.544
REMARK INTER + INTRA:         -11.450
REMARK INTER:                  -9.018
REMARK INTRA:                  -2.431
REMARK UNBOUND:                -2.362
REMARK SMILES CCCCCCCCCCCCCCCC(=O)[O-]
REMARK SMILES IDX 9 1 10 2 11 3 12 4 13 5 14 6 15 7 16 8 17 9 18 10 8 11 7 12
REMARK SMILES IDX 6 13 5 14 4 15 3 16 2 17 1 18
REMARK H PARENT
REMARK Flexibility Score: inf
ROOT
ATOM      1  C   UNL     1     103.681  22.348 198.491  1.00  0.00     0.000 C 
ENDROOT
BRANCH   1   2
ATOM      2  C   UNL     1     104.049  23.081 199.791  1.00  0.00     0.000 C 
BRANCH   2   3
ATOM      3  C   UNL     1     105.565  23.244 199.973  1.00  0.00     0.000 C 
BRANCH   3   4
ATOM      4  C   UNL     1     106.333  22.498 198.874  1.00  0.00     0.000 C 
BRANCH   4   5
ATOM      5  C   UNL     1     107.208  21.386 199.473  1.00  0.00     0.000 C 
BRANCH   5   6
ATOM      6  C   UNL     1     106.841  19.988 198.942  1.00  0.00     0.006 C 
BRANCH   6   7
ATOM      7  C   UNL     1     106.699  19.909 197.415  1.00  0.00     0.053 C 
BRANCH   7   8
ATOM      8  C   UNL     1     108.030  19.873 196.729  1.00  0.00     0.041 C 
ATOM      9  O   UNL     1     108.427  20.866 196.065  1.00  0.00    -0.550 OA
ATOM     10  O   UNL     1     108.817  18.730 196.796  1.00  0.00    -0.550 OA
ENDBRANCH   7   8
ENDBRANCH   6   7
ENDBRANCH   5   6
ENDBRANCH   4   5
ENDBRANCH   3   4
ENDBRANCH   2   3
ENDBRANCH   1   2
BRANCH   1  11
ATOM     11  C   UNL     1     102.530  23.031 197.732  1.00  0.00     0.000 C 
BRANCH  11  12
ATOM     12  C   UNL     1     102.550  24.564 197.871  1.00  0.00    -0.000 C 
BRANCH  12  13
ATOM     13  C   UNL     1     103.351  25.313 196.787  1.00  0.00    -0.000 C 
BRANCH  13  14
ATOM     14  C   UNL     1     104.856  25.462 197.072  1.00  0.00    -0.000 C 
BRANCH  14  15
ATOM     15  C   UNL     1     105.736  24.858 195.968  1.00  0.00    -0.000 C 
BRANCH  15  16
ATOM     16  C   UNL     1     104.906  23.970 195.029  1.00  0.00    -0.000 C 
BRANCH  16  17
ATOM     17  C   UNL     1     105.227  22.476 195.193  1.00  0.00    -0.003 C 
ATOM     18  C   UNL     1     105.756  21.840 193.908  1.00  0.00     0.004 C 
ENDBRANCH  16  17
ENDBRANCH  15  16
ENDBRANCH  14  15
ENDBRANCH  13  14
ENDBRANCH  12  13
ENDBRANCH  11  12
ENDBRANCH   1  11
TORSDOF 14
ENDMDL
MODEL 5
REMARK VINA RESULT:    -4.984      2.368      4.885
REMARK INTER + INTRA:         -11.425
REMARK INTER:                  -9.526
REMARK INTRA:                  -1.899
REMARK UNBOUND:                -2.362
REMARK SMILES CCCCCCCCCCCCCCCC(=O)[O-]
REMARK SMILES IDX 9 1 10 2 11 3 12 4 13 5 14 6 15 7 16 8 17 9 18 10 8 11 7 12
REMARK SMILES IDX 6 13 5 14 4 15 3 16 2 17 1 18
REMARK H PARENT
REMARK Flexibility Score: inf
ROOT
ATOM      1  C   UNL     1     103.227  23.110 198.554  1.00  0.00     0.000 C 
ENDROOT
BRANCH   1   2
ATOM      2  C   UNL     1     103.702  23.175 200.014  1.00  0.00     0.000 C 
BRANCH   2   3
ATOM      3  C   UNL     1     105.232  23.249 200.138  1.00  0.00     0.000 C 
BRANCH   3   4
ATOM      4  C   UNL     1     105.909  22.868 198.815  1.00  0.00     0.000 C 
BRANCH   4   5
ATOM      5  C   UNL     1     106.513  21.458 198.893  1.00  0.00     0.000 C 
BRANCH   5   6
ATOM      6  C   UNL     1     106.452  20.708 197.549  1.00  0.00     0.006 C 
BRANCH   6   7
ATOM      7  C   UNL     1     105.049  20.217 197.163  1.00  0.00     0.053 C 
BRANCH   7   8
ATOM      8  C   UNL     1     104.906  18.736 197.337  1.00  0.00     0.041 C 
ATOM      9  O   UNL     1     105.906  18.034 197.639  1.00  0.00    -0.550 OA
ATOM     10  O   UNL     1     103.674  18.128 197.133  1.00  0.00    -0.550 OA
ENDBRANCH   7   8
ENDBRANCH   6   7
ENDBRANCH   5   6
ENDBRANCH   4   5
ENDBRANCH   3   4
ENDBRANCH   2   3
ENDBRANCH   1   2
BRANCH   1  11
ATOM     11  C   UNL     1     102.247  24.242 198.200  1.00  0.00     0.000 C 
BRANCH  11  12
ATOM     12  C   UNL     1     102.800  25.196 197.126  1.00  0.00    -0.000 C 
BRANCH  12  13
ATOM     13  C   UNL     1     104.336  25.214 196.988  1.00  0.00    -0.000 C 
BRANCH  13  14
ATOM     14  C   UNL     1     104.864  25.200 195.543  1.00  0.00    -0.000 C 
BRANCH  14  15
ATOM     15  C   UNL     1     105.355  23.814 195.100  1.00  0.00    -0.000 C 
BRANCH  15  16
ATOM     16  C   UNL     1     104.180  22.934 194.648  1.00  0.00    -0.000 C 
BRANCH  16  17
ATOM     17  C   UNL     1     104.464  22.203 193.326  1.00  0.00    -0.003 C 
ATOM     18  C   UNL     1     105.785  21.434 193.346  1.00  0.00     0.004 C 
ENDBRANCH  16  17
ENDBRANCH  15  16
ENDBRANCH  14  15
ENDBRANCH  13  14
ENDBRANCH  12  13
ENDBRANCH  11  12
ENDBRANCH   1  11
TORSDOF 14
ENDMDL
MODEL 6
REMARK VINA RESULT:    -4.947      1.963      4.995
REMARK INTER + INTRA:         -11.357
REMARK INTER:                  -9.113
REMARK INTRA:                  -2.244
REMARK UNBOUND:                -2.362
REMARK SMILES CCCCCCCCCCCCCCCC(=O)[O-]
REMARK SMILES IDX 9 1 10 2 11 3 12 4 13 5 14 6 15 7 16 8 17 9 18 10 8 11 7 12
REMARK SMILES IDX 6 13 5 14 4 15 3 16 2 17 1 18
REMARK H PARENT
REMARK Flexibility Score: inf
ROOT
ATOM      1  C   UNL     1     105.752  19.973 197.787  1.00  0.00     0.000 C 
ENDROOT
BRANCH   1   2
ATOM      2  C   UNL     1     106.426  21.169 197.095  1.00  0.00     0.000 C 
BRANCH   2   3
ATOM      3  C   UNL     1     106.105  22.508 197.778  1.00  0.00     0.000 C 
BRANCH   3   4
ATOM      4  C   UNL     1     106.061  22.350 199.303  1.00  0.00     0.000 C 
BRANCH   4   5
ATOM      5  C   UNL     1     105.018  23.291 199.923  1.00  0.00     0.000 C 
BRANCH   5   6
ATOM      6  C   UNL     1     103.675  23.273 199.169  1.00  0.00     0.006 C 
BRANCH   6   7
ATOM      7  C   UNL     1     102.480  22.813 200.018  1.00  0.00     0.053 C 
BRANCH   7   8
ATOM      8  C   UNL     1     101.199  23.449 199.574  1.00  0.00     0.041 C 
ATOM      9  O   UNL     1     100.703  24.402 200.231  1.00  0.00    -0.550 OA
ATOM     10  O   UNL     1     100.536  22.968 198.452  1.00  0.00    -0.550 OA
ENDBRANCH   7   8
ENDBRANCH   6   7
ENDBRANCH   5   6
ENDBRANCH   4   5
ENDBRANCH   3   4
ENDBRANCH   2   3
ENDBRANCH   1   2
BRANCH   1  11
ATOM     11  C   UNL     1     104.541  19.441 197.002  1.00  0.00     0.000 C 
BRANCH  11  12
ATOM     12  C   UNL     1     103.207  20.036 197.488  1.00  0.00    -0.000 C 
BRANCH  12  13
ATOM     13  C   UNL     1     102.363  20.734 196.402  1.00  0.00    -0.000 C 
BRANCH  13  14
ATOM     14  C   UNL     1     103.047  21.925 195.707  1.00  0.00    -0.000 C 
BRANCH  14  15
ATOM     15  C   UNL     1     102.468  22.217 194.315  1.00  0.00    -0.000 C 
BRANCH  15  16
ATOM     16  C   UNL     1     103.557  22.741 193.366  1.00  0.00    -0.000 C 
BRANCH  16  17
ATOM     17  C   UNL     1     104.976  22.470 193.890  1.00  0.00    -0.003 C 
ATOM     18  C   UNL     1     105.705  21.388 193.095  1.00  0.00     0.004 C 
ENDBRANCH  16  17
ENDBRANCH  15  16
ENDBRANCH  14  15
ENDBRANCH  13  14
ENDBRANCH  12  13
ENDBRANCH  11  12
ENDBRANCH   1  11
TORSDOF 14
ENDMDL
MODEL 7
REMARK VINA RESULT:    -4.945      2.780      4.443
REMARK INTER + INTRA:         -11.355
REMARK INTER:                  -8.855
REMARK INTRA:                  -2.499
REMARK UNBOUND:                -2.362
REMARK SMILES CCCCCCCCCCCCCCCC(=O)[O-]
REMARK SMILES IDX 9 1 10 2 11 3 12 4 13 5 14 6 15 7 16 8 17 9 18 10 8 11 7 12
REMARK SMILES IDX 6 13 5 14 4 15 3 16 2 17 1 18
REMARK H PARENT
REMARK Flexibility Score: inf
ROOT
ATOM      1  C   UNL     1     102.729  22.513 193.408  1.00  0.00     0.000 C 
ENDROOT
BRANCH   1   2
ATOM      2  C   UNL     1     104.159  22.923 193.791  1.00  0.00     0.000 C 
BRANCH   2   3
ATOM      3  C   UNL     1     105.206  21.873 193.391  1.00  0.00     0.000 C 
BRANCH   3   4
ATOM      4  C   UNL     1     105.970  21.362 194.619  1.00  0.00     0.000 C 
BRANCH   4   5
ATOM      5  C   UNL     1     105.567  22.142 195.880  1.00  0.00     0.000 C 
BRANCH   5   6
ATOM      6  C   UNL     1     105.509  21.254 197.137  1.00  0.00     0.006 C 
BRANCH   6   7
ATOM      7  C   UNL     1     105.080  19.804 196.868  1.00  0.00     0.053 C 
BRANCH   7   8
ATOM      8  C   UNL     1     105.982  18.818 197.544  1.00  0.00     0.041 C 
ATOM      9  O   UNL     1     105.684  17.594 197.561  1.00  0.00    -0.550 OA
ATOM     10  O   UNL     1     107.134  19.255 198.186  1.00  0.00    -0.550 OA
ENDBRANCH   7   8
ENDBRANCH   6   7
ENDBRANCH   5   6
ENDBRANCH   4   5
ENDBRANCH   3   4
ENDBRANCH   2   3
ENDBRANCH   1   2
BRANCH   1  11
ATOM     11  C   UNL     1     101.742  22.642 194.581  1.00  0.00     0.000 C 
BRANCH  11  12
ATOM     12  C   UNL     1     101.774  21.427 195.525  1.00  0.00    -0.000 C 
BRANCH  12  13
ATOM     13  C   UNL     1     101.946  21.759 197.021  1.00  0.00    -0.000 C 
BRANCH  13  14
ATOM     14  C   UNL     1     101.534  23.186 197.426  1.00  0.00    -0.000 C 
BRANCH  14  15
ATOM     15  C   UNL     1     102.715  24.028 197.931  1.00  0.00    -0.000 C 
BRANCH  15  16
ATOM     16  C   UNL     1     103.086  25.119 196.914  1.00  0.00    -0.000 C 
BRANCH  16  17
ATOM     17  C   UNL     1     104.550  25.567 197.038  1.00  0.00    -0.003 C 
ATOM     18  C   UNL     1     105.191  25.878 195.685  1.00  0.00     0.004 C 
ENDBRANCH  16  17
ENDBRANCH  15  16
ENDBRANCH  14  15
ENDBRANCH  13  14
ENDBRANCH  12  13
ENDBRANCH  11  12
ENDBRANCH   1  11
TORSDOF 14
ENDMDL
MODEL 8
REMARK VINA RESULT:    -4.921      2.033      3.572
REMARK INTER + INTRA:         -11.311
REMARK INTER:                  -9.081
REMARK INTRA:                  -2.230
REMARK UNBOUND:                -2.362
REMARK SMILES CCCCCCCCCCCCCCCC(=O)[O-]
REMARK SMILES IDX 9 1 10 2 11 3 12 4 13 5 14 6 15 7 16 8 17 9 18 10 8 11 7 12
REMARK SMILES IDX 6 13 5 14 4 15 3 16 2 17 1 18
REMARK H PARENT
REMARK Flexibility Score: inf
ROOT
ATOM      1  C   UNL     1     104.518  22.134 193.602  1.00  0.00     0.000 C 
ENDROOT
BRANCH   1   2
ATOM      2  C   UNL     1     103.197  22.878 193.347  1.00  0.00     0.000 C 
BRANCH   2   3
ATOM      3  C   UNL     1     101.975  22.120 193.887  1.00  0.00     0.000 C 
BRANCH   3   4
ATOM      4  C   UNL     1     101.367  22.847 195.093  1.00  0.00     0.000 C 
BRANCH   4   5
ATOM      5  C   UNL     1     100.796  21.846 196.108  1.00  0.00     0.000 C 
BRANCH   5   6
ATOM      6  C   UNL     1     101.474  20.466 196.032  1.00  0.00     0.006 C 
BRANCH   6   7
ATOM      7  C   UNL     1     102.579  20.246 197.077  1.00  0.00     0.053 C 
BRANCH   7   8
ATOM      8  C   UNL     1     102.806  18.792 197.355  1.00  0.00     0.041 C 
ATOM      9  O   UNL     1     101.827  18.022 197.541  1.00  0.00    -0.550 OA
ATOM     10  O   UNL     1     104.100  18.294 197.440  1.00  0.00    -0.550 OA
ENDBRANCH   7   8
ENDBRANCH   6   7
ENDBRANCH   5   6
ENDBRANCH   4   5
ENDBRANCH   3   4
ENDBRANCH   2   3
ENDBRANCH   1   2
BRANCH   1  11
ATOM     11  C   UNL     1     104.971  22.218 195.069  1.00  0.00     0.000 C 
BRANCH  11  12
ATOM     12  C   UNL     1     105.403  23.638 195.480  1.00  0.00    -0.000 C 
BRANCH  12  13
ATOM     13  C   UNL     1     104.918  24.097 196.870  1.00  0.00    -0.000 C 
BRANCH  13  14
ATOM     14  C   UNL     1     103.763  25.114 196.857  1.00  0.00    -0.000 C 
BRANCH  14  15
ATOM     15  C   UNL     1     102.585  24.693 197.747  1.00  0.00    -0.000 C 
BRANCH  15  16
ATOM     16  C   UNL     1     103.016  23.615 198.753  1.00  0.00    -0.000 C 
BRANCH  16  17
ATOM     17  C   UNL     1     101.826  23.002 199.508  1.00  0.00    -0.003 C 
ATOM     18  C   UNL     1     101.019  24.042 200.285  1.00  0.00     0.004 C 
ENDBRANCH  16  17
ENDBRANCH  15  16
ENDBRANCH  14  15
ENDBRANCH  13  14
ENDBRANCH  12  13
ENDBRANCH  11  12
ENDBRANCH   1  11
TORSDOF 14
ENDMDL
MODEL 9
REMARK VINA RESULT:    -4.916      2.940      4.347
REMARK INTER + INTRA:         -11.301
REMARK INTER:                  -8.949
REMARK INTRA:                  -2.352
REMARK UNBOUND:                -2.362
REMARK SMILES CCCCCCCCCCCCCCCC(=O)[O-]
REMARK SMILES IDX 9 1 10 2 11 3 12 4 13 5 14 6 15 7 16 8 17 9 18 10 8 11 7 12
REMARK SMILES IDX 6 13 5 14 4 15 3 16 2 17 1 18
REMARK H PARENT
REMARK Flexibility Score: inf
ROOT
ATOM      1  C   UNL     1     104.996  25.704 195.578  1.00  0.00     0.000 C 
ENDROOT
BRANCH   1   2
ATOM      2  C   UNL     1     105.391  24.326 195.024  1.00  0.00     0.000 C 
BRANCH   2   3
ATOM      3  C   UNL     1     104.216  23.595 194.357  1.00  0.00     0.000 C 
BRANCH   3   4
ATOM      4  C   UNL     1     104.553  22.118 194.119  1.00  0.00     0.000 C 
BRANCH   4   5
ATOM      5  C   UNL     1     105.969  21.789 194.616  1.00  0.00     0.000 C 
BRANCH   5   6
ATOM      6  C   UNL     1     105.981  20.698 195.703  1.00  0.00     0.006 C 
BRANCH   6   7
ATOM      7  C   UNL     1     107.345  20.498 196.382  1.00  0.00     0.053 C 
BRANCH   7   8
ATOM      8  C   UNL     1     107.238  20.534 197.875  1.00  0.00     0.041 C 
ATOM      9  O   UNL     1     106.795  19.536 198.503  1.00  0.00    -0.550 OA
ATOM     10  O   UNL     1     107.597  21.681 198.571  1.00  0.00    -0.550 OA
ENDBRANCH   7   8
ENDBRANCH   6   7
ENDBRANCH   5   6
ENDBRANCH   4   5
ENDBRANCH   3   4
ENDBRANCH   2   3
ENDBRANCH   1   2
BRANCH   1  11
ATOM     11  C   UNL     1     105.141  25.790 197.107  1.00  0.00     0.000 C 
BRANCH  11  12
ATOM     12  C   UNL     1     105.649  24.479 197.733  1.00  0.00    -0.000 C 
BRANCH  12  13
ATOM     13  C   UNL     1     104.652  23.767 198.670  1.00  0.00    -0.000 C 
BRANCH  13  14
ATOM     14  C   UNL     1     103.989  22.507 198.084  1.00  0.00    -0.000 C 
BRANCH  14  15
ATOM     15  C   UNL     1     102.550  22.754 197.611  1.00  0.00    -0.000 C 
BRANCH  15  16
ATOM     16  C   UNL     1     101.976  24.032 198.243  1.00  0.00    -0.000 C 
BRANCH  16  17
ATOM     17  C   UNL     1     100.929  23.735 199.327  1.00  0.00    -0.003 C 
ATOM     18  C   UNL     1     101.529  23.681 200.732  1.00  0.00     0.004 C 
ENDBRANCH  16  17
ENDBRANCH  15  16
ENDBRANCH  14  15
ENDBRANCH  13  14
ENDBRANCH  12  13
ENDBRANCH  11  12
ENDBRANCH   1  11
TORSDOF 14
ENDMDL
