MODEL 1
REMARK VINA RESULT:    -5.723      0.000      0.000
REMARK INTER + INTRA:          -7.117
REMARK INTER:                  -6.893
REMARK INTRA:                  -0.224
REMARK UNBOUND:                -0.224
REMARK SMILES O=c1c(O)c(-c2ccc(O)c(O)c2)oc2cc(O)cc(O)c12
REMARK SMILES IDX 5 1 3 2 2 3 1 4 22 5 20 6 19 7 17 8 16 9 15 10 14 11 6 12
REMARK SMILES IDX 7 13 8 14 9 15 13 16 11 17 10 18 12 20 4 22 21 24 18 26
REMARK H PARENT 10 19 12 21 4 23 21 25 18 27
REMARK Flexibility Score: inf
ROOT
ATOM      1  C   UNL     1     170.937 184.888  33.188  1.00  0.00     0.180 A 
ATOM      2  C   UNL     1     170.752 186.086  33.905  1.00  0.00     0.208 A 
ATOM      3  C   UNL     1     169.849 187.039  33.410  1.00  0.00     0.238 A 
ATOM      4  O   UNL     1     169.665 188.112  34.049  1.00  0.00    -0.285 OA
ATOM      5  C   UNL     1     169.163 186.790  32.203  1.00  0.00     0.111 A 
ATOM      6  C   UNL     1     168.239 187.700  31.635  1.00  0.00     0.134 A 
ATOM      7  C   UNL     1     167.605 187.382  30.424  1.00  0.00     0.093 A 
ATOM      8  C   UNL     1     167.875 186.177  29.773  1.00  0.00     0.123 A 
ATOM      9  C   UNL     1     168.786 185.273  30.330  1.00  0.00     0.094 A 
ATOM     10  C   UNL     1     169.428 185.571  31.536  1.00  0.00     0.146 A 
ATOM     11  O   UNL     1     170.285 184.693  32.046  1.00  0.00    -0.452 OA
ENDROOT
BRANCH   1  12
ATOM     12  C   UNL     1     171.857 183.827  33.655  1.00  0.00     0.025 A 
ATOM     13  C   UNL     1     171.329 182.641  34.192  1.00  0.00     0.016 A 
ATOM     14  C   UNL     1     172.178 181.635  34.658  1.00  0.00     0.051 A 
ATOM     15  C   UNL     1     173.568 181.804  34.610  1.00  0.00     0.157 A 
ATOM     16  C   UNL     1     173.253 184.001  33.628  1.00  0.00     0.062 A 
ATOM     17  C   UNL     1     174.106 182.996  34.096  1.00  0.00     0.158 A 
BRANCH  15  18
ATOM     18  O   UNL     1     174.413 180.797  35.074  1.00  0.00    -0.504 OA
ATOM     19  H   UNL     1     174.444 180.540  36.053  1.00  0.00     0.293 HD
ENDBRANCH  15  18
BRANCH  17  20
ATOM     20  O   UNL     1     175.485 183.201  34.049  1.00  0.00    -0.504 OA
ATOM     21  H   UNL     1     176.146 182.475  34.295  1.00  0.00     0.293 HD
ENDBRANCH  17  20
ENDBRANCH   1  12
BRANCH   2  22
ATOM     22  O   UNL     1     171.480 186.330  35.072  1.00  0.00    -0.502 OA
ATOM     23  H   UNL     1     171.365 187.177  35.616  1.00  0.00     0.293 HD
ENDBRANCH   2  22
BRANCH   6  24
ATOM     24  O   UNL     1     167.949 188.913  32.260  1.00  0.00    -0.507 OA
ATOM     25  H   UNL     1     166.995 189.203  32.445  1.00  0.00     0.293 HD
ENDBRANCH   6  24
BRANCH   8  26
ATOM     26  O   UNL     1     167.232 185.887  28.571  1.00  0.00    -0.508 OA
ATOM     27  H   UNL     1     166.238 185.693  28.537  1.00  0.00     0.293 HD
ENDBRANCH   8  26
TORSDOF 6
ENDMDL
MODEL 2
REMARK VINA RESULT:    -5.670      1.828      3.230
REMARK INTER + INTRA:          -7.054
REMARK INTER:                  -6.960
REMARK INTRA:                  -0.094
REMARK UNBOUND:                -0.224
REMARK SMILES O=c1c(O)c(-c2ccc(O)c(O)c2)oc2cc(O)cc(O)c12
REMARK SMILES IDX 5 1 3 2 2 3 1 4 22 5 20 6 19 7 17 8 16 9 15 10 14 11 6 12
REMARK SMILES IDX 7 13 8 14 9 15 13 16 11 17 10 18 12 20 4 22 21 24 18 26
REMARK H PARENT 10 19 12 21 4 23 21 25 18 27
REMARK Flexibility Score: inf
ROOT
ATOM      1  C   UNL     1     169.769 185.226  32.257  1.00  0.00     0.180 A 
ATOM      2  C   UNL     1     169.513 185.605  30.924  1.00  0.00     0.208 A 
ATOM      3  C   UNL     1     168.630 186.667  30.679  1.00  0.00     0.238 A 
ATOM      4  O   UNL     1     168.401 187.023  29.490  1.00  0.00    -0.285 OA
ATOM      5  C   UNL     1     168.005 187.319  31.763  1.00  0.00     0.111 A 
ATOM      6  C   UNL     1     167.100 188.396  31.601  1.00  0.00     0.134 A 
ATOM      7  C   UNL     1     166.512 188.986  32.730  1.00  0.00     0.093 A 
ATOM      8  C   UNL     1     166.810 188.522  34.013  1.00  0.00     0.123 A 
ATOM      9  C   UNL     1     167.705 187.459  34.179  1.00  0.00     0.094 A 
ATOM     10  C   UNL     1     168.301 186.859  33.067  1.00  0.00     0.146 A 
ATOM     11  O   UNL     1     169.150 185.854  33.253  1.00  0.00    -0.452 OA
ENDROOT
BRANCH   1  12
ATOM     12  C   UNL     1     170.702 184.129  32.597  1.00  0.00     0.025 A 
ATOM     13  C   UNL     1     170.268 183.087  33.432  1.00  0.00     0.016 A 
ATOM     14  C   UNL     1     171.137 182.051  33.783  1.00  0.00     0.051 A 
ATOM     15  C   UNL     1     172.459 182.049  33.317  1.00  0.00     0.157 A 
ATOM     16  C   UNL     1     172.035 184.133  32.148  1.00  0.00     0.062 A 
ATOM     17  C   UNL     1     172.909 183.098  32.500  1.00  0.00     0.158 A 
BRANCH  15  18
ATOM     18  O   UNL     1     173.323 181.013  33.667  1.00  0.00    -0.504 OA
ATOM     19  H   UNL     1     173.324 180.131  33.168  1.00  0.00     0.293 HD
ENDBRANCH  15  18
BRANCH  17  20
ATOM     20  O   UNL     1     174.223 183.133  32.032  1.00  0.00    -0.504 OA
ATOM     21  H   UNL     1     174.545 183.842  31.386  1.00  0.00     0.293 HD
ENDBRANCH  17  20
ENDBRANCH   1  12
BRANCH   2  22
ATOM     22  O   UNL     1     170.106 184.910  29.867  1.00  0.00    -0.502 OA
ATOM     23  H   UNL     1     169.619 184.189  29.350  1.00  0.00     0.293 HD
ENDBRANCH   2  22
BRANCH   6  24
ATOM     24  O   UNL     1     166.781 188.882  30.332  1.00  0.00    -0.507 OA
ATOM     25  H   UNL     1     166.335 188.297  29.634  1.00  0.00     0.293 HD
ENDBRANCH   6  24
BRANCH   8  26
ATOM     26  O   UNL     1     166.212 189.125  35.117  1.00  0.00    -0.508 OA
ATOM     27  H   UNL     1     166.565 188.979  36.056  1.00  0.00     0.293 HD
ENDBRANCH   8  26
TORSDOF 6
ENDMDL
MODEL 3
REMARK VINA RESULT:    -5.600      4.493      7.071
REMARK INTER + INTRA:          -6.969
REMARK INTER:                  -6.689
REMARK INTRA:                  -0.280
REMARK UNBOUND:                -0.224
REMARK SMILES O=c1c(O)c(-c2ccc(O)c(O)c2)oc2cc(O)cc(O)c12
REMARK SMILES IDX 5 1 3 2 2 3 1 4 22 5 20 6 19 7 17 8 16 9 15 10 14 11 6 12
REMARK SMILES IDX 7 13 8 14 9 15 13 16 11 17 10 18 12 20 4 22 21 24 18 26
REMARK H PARENT 10 19 12 21 4 23 21 25 18 27
REMARK Flexibility Score: inf
ROOT
ATOM      1  C   UNL     1     165.679 184.296  31.970  1.00  0.00     0.180 A 
ATOM      2  C   UNL     1     165.273 185.320  32.848  1.00  0.00     0.208 A 
ATOM      3  C   UNL     1     166.189 186.330  33.181  1.00  0.00     0.238 A 
ATOM      4  O   UNL     1     165.834 187.259  33.957  1.00  0.00    -0.285 OA
ATOM      5  C   UNL     1     167.496 186.289  32.651  1.00  0.00     0.111 A 
ATOM      6  C   UNL     1     168.479 187.265  32.940  1.00  0.00     0.134 A 
ATOM      7  C   UNL     1     169.761 187.149  32.380  1.00  0.00     0.093 A 
ATOM      8  C   UNL     1     170.077 186.078  31.540  1.00  0.00     0.123 A 
ATOM      9  C   UNL     1     169.108 185.111  31.250  1.00  0.00     0.094 A 
ATOM     10  C   UNL     1     167.826 185.211  31.798  1.00  0.00     0.146 A 
ATOM     11  O   UNL     1     166.924 184.281  31.502  1.00  0.00    -0.452 OA
ENDROOT
BRANCH   1  12
ATOM     12  C   UNL     1     164.766 183.207  31.557  1.00  0.00     0.025 A 
ATOM     13  C   UNL     1     164.127 183.279  30.308  1.00  0.00     0.016 A 
ATOM     14  C   UNL     1     163.245 182.273  29.905  1.00  0.00     0.051 A 
ATOM     15  C   UNL     1     162.974 181.189  30.751  1.00  0.00     0.157 A 
ATOM     16  C   UNL     1     164.475 182.128  32.411  1.00  0.00     0.062 A 
ATOM     17  C   UNL     1     163.590 181.121  32.012  1.00  0.00     0.158 A 
BRANCH  15  18
ATOM     18  O   UNL     1     162.096 180.186  30.346  1.00  0.00    -0.504 OA
ATOM     19  H   UNL     1     161.379 180.358  29.650  1.00  0.00     0.293 HD
ENDBRANCH  15  18
BRANCH  17  20
ATOM     20  O   UNL     1     163.330 180.062  32.883  1.00  0.00    -0.504 OA
ATOM     21  H   UNL     1     162.482 180.015  33.433  1.00  0.00     0.293 HD
ENDBRANCH  17  20
ENDBRANCH   1  12
BRANCH   2  22
ATOM     22  O   UNL     1     163.989 185.311  33.398  1.00  0.00    -0.502 OA
ATOM     23  H   UNL     1     163.455 184.458  33.516  1.00  0.00     0.293 HD
ENDBRANCH   2  22
BRANCH   6  24
ATOM     24  O   UNL     1     168.195 188.346  33.777  1.00  0.00    -0.507 OA
ATOM     25  H   UNL     1     168.282 189.304  33.458  1.00  0.00     0.293 HD
ENDBRANCH   6  24
BRANCH   8  26
ATOM     26  O   UNL     1     171.357 185.986  30.999  1.00  0.00    -0.508 OA
ATOM     27  H   UNL     1     172.097 186.620  31.278  1.00  0.00     0.293 HD
ENDBRANCH   8  26
TORSDOF 6
ENDMDL
MODEL 4
REMARK VINA RESULT:    -5.592      5.246      6.859
REMARK INTER + INTRA:          -6.960
REMARK INTER:                  -6.688
REMARK INTRA:                  -0.271
REMARK UNBOUND:                -0.224
REMARK SMILES O=c1c(O)c(-c2ccc(O)c(O)c2)oc2cc(O)cc(O)c12
REMARK SMILES IDX 5 1 3 2 2 3 1 4 22 5 20 6 19 7 17 8 16 9 15 10 14 11 6 12
REMARK SMILES IDX 7 13 8 14 9 15 13 16 11 17 10 18 12 20 4 22 21 24 18 26
REMARK H PARENT 10 19 12 21 4 23 21 25 18 27
REMARK Flexibility Score: inf
ROOT
ATOM      1  C   UNL     1     165.806 184.213  32.198  1.00  0.00     0.180 A 
ATOM      2  C   UNL     1     165.107 184.785  33.279  1.00  0.00     0.208 A 
ATOM      3  C   UNL     1     163.838 184.283  33.607  1.00  0.00     0.238 A 
ATOM      4  O   UNL     1     163.207 184.780  34.580  1.00  0.00    -0.285 OA
ATOM      5  C   UNL     1     163.282 183.237  32.842  1.00  0.00     0.111 A 
ATOM      6  C   UNL     1     162.009 182.678  33.104  1.00  0.00     0.134 A 
ATOM      7  C   UNL     1     161.521 181.644  32.289  1.00  0.00     0.093 A 
ATOM      8  C   UNL     1     162.281 181.161  31.221  1.00  0.00     0.123 A 
ATOM      9  C   UNL     1     163.540 181.710  30.958  1.00  0.00     0.094 A 
ATOM     10  C   UNL     1     164.043 182.739  31.759  1.00  0.00     0.146 A 
ATOM     11  O   UNL     1     165.245 183.239  31.489  1.00  0.00    -0.452 OA
ENDROOT
BRANCH   1  12
ATOM     12  C   UNL     1     167.156 184.675  31.803  1.00  0.00     0.025 A 
ATOM     13  C   UNL     1     168.268 184.298  32.574  1.00  0.00     0.016 A 
ATOM     14  C   UNL     1     169.549 184.738  32.232  1.00  0.00     0.051 A 
ATOM     15  C   UNL     1     169.736 185.575  31.123  1.00  0.00     0.157 A 
ATOM     16  C   UNL     1     167.346 185.531  30.704  1.00  0.00     0.062 A 
ATOM     17  C   UNL     1     168.628 185.976  30.360  1.00  0.00     0.158 A 
BRANCH  15  18
ATOM     18  O   UNL     1     171.016 186.011  30.783  1.00  0.00    -0.504 OA
ATOM     19  H   UNL     1     171.478 185.692  29.940  1.00  0.00     0.293 HD
ENDBRANCH  15  18
BRANCH  17  20
ATOM     20  O   UNL     1     168.779 186.820  29.260  1.00  0.00    -0.504 OA
ATOM     21  H   UNL     1     169.676 187.212  29.002  1.00  0.00     0.293 HD
ENDBRANCH  17  20
ENDBRANCH   1  12
BRANCH   2  22
ATOM     22  O   UNL     1     165.658 185.854  33.991  1.00  0.00    -0.502 OA
ATOM     23  H   UNL     1     166.188 186.590  33.540  1.00  0.00     0.293 HD
ENDBRANCH   2  22
BRANCH   6  24
ATOM     24  O   UNL     1     161.226 183.140  34.163  1.00  0.00    -0.507 OA
ATOM     25  H   UNL     1     160.261 182.849  34.279  1.00  0.00     0.293 HD
ENDBRANCH   6  24
BRANCH   8  26
ATOM     26  O   UNL     1     161.773 180.135  30.427  1.00  0.00    -0.508 OA
ATOM     27  H   UNL     1     160.910 179.659  30.666  1.00  0.00     0.293 HD
ENDBRANCH   8  26
TORSDOF 6
ENDMDL
MODEL 5
REMARK VINA RESULT:    -5.467      3.904      7.102
REMARK INTER + INTRA:          -6.809
REMARK INTER:                  -6.494
REMARK INTRA:                  -0.315
REMARK UNBOUND:                -0.224
REMARK SMILES O=c1c(O)c(-c2ccc(O)c(O)c2)oc2cc(O)cc(O)c12
REMARK SMILES IDX 5 1 3 2 2 3 1 4 22 5 20 6 19 7 17 8 16 9 15 10 14 11 6 12
REMARK SMILES IDX 7 13 8 14 9 15 13 16 11 17 10 18 12 20 4 22 21 24 18 26
REMARK H PARENT 10 19 12 21 4 23 21 25 18 27
REMARK Flexibility Score: inf
ROOT
ATOM      1  C   UNL     1     167.119 184.298  32.323  1.00  0.00     0.180 A 
ATOM      2  C   UNL     1     167.478 184.978  31.143  1.00  0.00     0.208 A 
ATOM      3  C   UNL     1     168.814 185.371  30.968  1.00  0.00     0.238 A 
ATOM      4  O   UNL     1     169.151 185.971  29.910  1.00  0.00    -0.285 OA
ATOM      5  C   UNL     1     169.761 185.097  31.976  1.00  0.00     0.111 A 
ATOM      6  C   UNL     1     171.125 185.463  31.878  1.00  0.00     0.134 A 
ATOM      7  C   UNL     1     172.003 185.163  32.931  1.00  0.00     0.093 A 
ATOM      8  C   UNL     1     171.545 184.507  34.076  1.00  0.00     0.123 A 
ATOM      9  C   UNL     1     170.198 184.143  34.178  1.00  0.00     0.094 A 
ATOM     10  C   UNL     1     169.308 184.432  33.139  1.00  0.00     0.146 A 
ATOM     11  O   UNL     1     168.035 184.070  33.260  1.00  0.00    -0.452 OA
ENDROOT
BRANCH   1  12
ATOM     12  C   UNL     1     165.736 183.834  32.573  1.00  0.00     0.025 A 
ATOM     13  C   UNL     1     165.308 182.612  32.029  1.00  0.00     0.016 A 
ATOM     14  C   UNL     1     164.001 182.165  32.235  1.00  0.00     0.051 A 
ATOM     15  C   UNL     1     163.096 182.939  32.974  1.00  0.00     0.157 A 
ATOM     16  C   UNL     1     164.819 184.618  33.297  1.00  0.00     0.062 A 
ATOM     17  C   UNL     1     163.508 184.173  33.503  1.00  0.00     0.158 A 
BRANCH  15  18
ATOM     18  O   UNL     1     161.794 182.489  33.180  1.00  0.00    -0.504 OA
ATOM     19  H   UNL     1     161.088 182.556  32.455  1.00  0.00     0.293 HD
ENDBRANCH  15  18
BRANCH  17  20
ATOM     20  O   UNL     1     162.628 184.974  34.230  1.00  0.00    -0.504 OA
ATOM     21  H   UNL     1     161.725 185.249  33.866  1.00  0.00     0.293 HD
ENDBRANCH  17  20
ENDBRANCH   1  12
BRANCH   2  22
ATOM     22  O   UNL     1     166.512 185.281  30.181  1.00  0.00    -0.502 OA
ATOM     23  H   UNL     1     165.710 185.866  30.382  1.00  0.00     0.293 HD
ENDBRANCH   2  22
BRANCH   6  24
ATOM     24  O   UNL     1     171.613 186.121  30.748  1.00  0.00    -0.507 OA
ATOM     25  H   UNL     1     171.824 187.112  30.758  1.00  0.00     0.293 HD
ENDBRANCH   6  24
BRANCH   8  26
ATOM     26  O   UNL     1     172.438 184.222  35.107  1.00  0.00    -0.508 OA
ATOM     27  H   UNL     1     172.668 183.268  35.359  1.00  0.00     0.293 HD
ENDBRANCH   8  26
TORSDOF 6
ENDMDL
MODEL 6
REMARK VINA RESULT:    -5.452      2.184      7.137
REMARK INTER + INTRA:          -6.791
REMARK INTER:                  -6.459
REMARK INTRA:                  -0.332
REMARK UNBOUND:                -0.224
REMARK SMILES O=c1c(O)c(-c2ccc(O)c(O)c2)oc2cc(O)cc(O)c12
REMARK SMILES IDX 5 1 3 2 2 3 1 4 22 5 20 6 19 7 17 8 16 9 15 10 14 11 6 12
REMARK SMILES IDX 7 13 8 14 9 15 13 16 11 17 10 18 12 20 4 22 21 24 18 26
REMARK H PARENT 10 19 12 21 4 23 21 25 18 27
REMARK Flexibility Score: inf
ROOT
ATOM      1  C   UNL     1     171.116 183.073  33.313  1.00  0.00     0.180 A 
ATOM      2  C   UNL     1     172.359 183.361  33.909  1.00  0.00     0.208 A 
ATOM      3  C   UNL     1     173.175 182.297  34.322  1.00  0.00     0.238 A 
ATOM      4  O   UNL     1     174.297 182.542  34.847  1.00  0.00    -0.285 OA
ATOM      5  C   UNL     1     172.730 180.969  34.152  1.00  0.00     0.111 A 
ATOM      6  C   UNL     1     173.491 179.841  34.544  1.00  0.00     0.134 A 
ATOM      7  C   UNL     1     172.973 178.552  34.350  1.00  0.00     0.093 A 
ATOM      8  C   UNL     1     171.714 178.369  33.773  1.00  0.00     0.123 A 
ATOM      9  C   UNL     1     170.959 179.480  33.383  1.00  0.00     0.094 A 
ATOM     10  C   UNL     1     171.458 180.772  33.567  1.00  0.00     0.146 A 
ATOM     11  O   UNL     1     170.722 181.810  33.183  1.00  0.00    -0.452 OA
ENDROOT
BRANCH   1  12
ATOM     12  C   UNL     1     170.208 184.139  32.835  1.00  0.00     0.025 A 
ATOM     13  C   UNL     1     169.195 184.616  33.683  1.00  0.00     0.016 A 
ATOM     14  C   UNL     1     168.314 185.608  33.246  1.00  0.00     0.051 A 
ATOM     15  C   UNL     1     168.420 186.127  31.948  1.00  0.00     0.157 A 
ATOM     16  C   UNL     1     170.298 184.648  31.527  1.00  0.00     0.062 A 
ATOM     17  C   UNL     1     169.415 185.640  31.085  1.00  0.00     0.158 A 
BRANCH  15  18
ATOM     18  O   UNL     1     167.541 187.117  31.515  1.00  0.00    -0.504 OA
ATOM     19  H   UNL     1     167.307 187.229  30.535  1.00  0.00     0.293 HD
ENDBRANCH  15  18
BRANCH  17  20
ATOM     20  O   UNL     1     169.538 186.125  29.782  1.00  0.00    -0.504 OA
ATOM     21  H   UNL     1     170.439 186.252  29.339  1.00  0.00     0.293 HD
ENDBRANCH  17  20
ENDBRANCH   1  12
BRANCH   2  22
ATOM     22  O   UNL     1     172.756 184.686  34.111  1.00  0.00    -0.502 OA
ATOM     23  H   UNL     1     172.226 185.328  34.688  1.00  0.00     0.293 HD
ENDBRANCH   2  22
BRANCH   6  24
ATOM     24  O   UNL     1     174.751 179.991  35.125  1.00  0.00    -0.507 OA
ATOM     25  H   UNL     1     175.502 180.481  34.650  1.00  0.00     0.293 HD
ENDBRANCH   6  24
BRANCH   8  26
ATOM     26  O   UNL     1     171.223 177.077  33.593  1.00  0.00    -0.508 OA
ATOM     27  H   UNL     1     171.841 176.301  33.386  1.00  0.00     0.293 HD
ENDBRANCH   8  26
TORSDOF 6
ENDMDL
MODEL 7
REMARK VINA RESULT:    -5.449      3.554      6.721
REMARK INTER + INTRA:          -6.787
REMARK INTER:                  -6.468
REMARK INTRA:                  -0.319
REMARK UNBOUND:                -0.224
REMARK SMILES O=c1c(O)c(-c2ccc(O)c(O)c2)oc2cc(O)cc(O)c12
REMARK SMILES IDX 5 1 3 2 2 3 1 4 22 5 20 6 19 7 17 8 16 9 15 10 14 11 6 12
REMARK SMILES IDX 7 13 8 14 9 15 13 16 11 17 10 18 12 20 4 22 21 24 18 26
REMARK H PARENT 10 19 12 21 4 23 21 25 18 27
REMARK Flexibility Score: inf
ROOT
ATOM      1  C   UNL     1     166.901 184.594  32.839  1.00  0.00     0.180 A 
ATOM      2  C   UNL     1     166.654 185.860  33.404  1.00  0.00     0.208 A 
ATOM      3  C   UNL     1     167.738 186.609  33.887  1.00  0.00     0.238 A 
ATOM      4  O   UNL     1     167.532 187.750  34.386  1.00  0.00    -0.285 OA
ATOM      5  C   UNL     1     169.042 186.076  33.816  1.00  0.00     0.111 A 
ATOM      6  C   UNL     1     170.187 186.765  34.284  1.00  0.00     0.134 A 
ATOM      7  C   UNL     1     171.450 186.162  34.186  1.00  0.00     0.093 A 
ATOM      8  C   UNL     1     171.590 184.887  33.632  1.00  0.00     0.123 A 
ATOM      9  C   UNL     1     170.462 184.202  33.167  1.00  0.00     0.094 A 
ATOM     10  C   UNL     1     169.195 184.787  33.255  1.00  0.00     0.146 A 
ATOM     11  O   UNL     1     168.142 184.117  32.802  1.00  0.00    -0.452 OA
ENDROOT
BRANCH   1  12
ATOM     12  C   UNL     1     165.814 183.753  32.291  1.00  0.00     0.025 A 
ATOM     13  C   UNL     1     165.313 182.687  33.055  1.00  0.00     0.016 A 
ATOM     14  C   UNL     1     164.301 181.867  32.550  1.00  0.00     0.051 A 
ATOM     15  C   UNL     1     163.785 182.090  31.267  1.00  0.00     0.157 A 
ATOM     16  C   UNL     1     165.307 183.960  30.995  1.00  0.00     0.062 A 
ATOM     17  C   UNL     1     164.295 183.139  30.485  1.00  0.00     0.158 A 
BRANCH  15  18
ATOM     18  O   UNL     1     162.774 181.271  30.766  1.00  0.00    -0.504 OA
ATOM     19  H   UNL     1     161.967 181.021  31.327  1.00  0.00     0.293 HD
ENDBRANCH  15  18
BRANCH  17  20
ATOM     20  O   UNL     1     163.813 183.378  29.198  1.00  0.00    -0.504 OA
ATOM     21  H   UNL     1     163.146 184.113  29.002  1.00  0.00     0.293 HD
ENDBRANCH  17  20
ENDBRANCH   1  12
BRANCH   2  22
ATOM     22  O   UNL     1     165.348 186.345  33.508  1.00  0.00    -0.502 OA
ATOM     23  H   UNL     1     164.797 186.597  32.697  1.00  0.00     0.293 HD
ENDBRANCH   2  22
BRANCH   6  24
ATOM     24  O   UNL     1     170.080 188.039  34.844  1.00  0.00    -0.507 OA
ATOM     25  H   UNL     1     169.315 188.288  35.460  1.00  0.00     0.293 HD
ENDBRANCH   6  24
BRANCH   8  26
ATOM     26  O   UNL     1     172.856 184.311  33.547  1.00  0.00    -0.508 OA
ATOM     27  H   UNL     1     173.627 184.791  33.099  1.00  0.00     0.293 HD
ENDBRANCH   8  26
TORSDOF 6
ENDMDL
MODEL 8
REMARK VINA RESULT:    -5.437      4.579      6.857
REMARK INTER + INTRA:          -6.773
REMARK INTER:                  -6.636
REMARK INTRA:                  -0.138
REMARK UNBOUND:                -0.224
REMARK SMILES O=c1c(O)c(-c2ccc(O)c(O)c2)oc2cc(O)cc(O)c12
REMARK SMILES IDX 5 1 3 2 2 3 1 4 22 5 20 6 19 7 17 8 16 9 15 10 14 11 6 12
REMARK SMILES IDX 7 13 8 14 9 15 13 16 11 17 10 18 12 20 4 22 21 24 18 26
REMARK H PARENT 10 19 12 21 4 23 21 25 18 27
REMARK Flexibility Score: inf
ROOT
ATOM      1  C   UNL     1     166.571 184.336  31.919  1.00  0.00     0.180 A 
ATOM      2  C   UNL     1     165.928 184.227  30.671  1.00  0.00     0.208 A 
ATOM      3  C   UNL     1     164.848 183.340  30.541  1.00  0.00     0.238 A 
ATOM      4  O   UNL     1     164.256 183.242  29.431  1.00  0.00    -0.285 OA
ATOM      5  C   UNL     1     164.442 182.566  31.648  1.00  0.00     0.111 A 
ATOM      6  C   UNL     1     163.366 181.648  31.598  1.00  0.00     0.134 A 
ATOM      7  C   UNL     1     163.031 180.907  32.742  1.00  0.00     0.093 A 
ATOM      8  C   UNL     1     163.748 181.067  33.930  1.00  0.00     0.123 A 
ATOM      9  C   UNL     1     164.811 181.974  33.985  1.00  0.00     0.094 A 
ATOM     10  C   UNL     1     165.160 182.721  32.856  1.00  0.00     0.146 A 
ATOM     11  O   UNL     1     166.171 183.579  32.937  1.00  0.00    -0.452 OA
ENDROOT
BRANCH   1  12
ATOM     12  C   UNL     1     167.704 185.262  32.141  1.00  0.00     0.025 A 
ATOM     13  C   UNL     1     167.555 186.334  33.036  1.00  0.00     0.016 A 
ATOM     14  C   UNL     1     168.604 187.232  33.245  1.00  0.00     0.051 A 
ATOM     15  C   UNL     1     169.813 187.083  32.552  1.00  0.00     0.157 A 
ATOM     16  C   UNL     1     168.911 185.128  31.432  1.00  0.00     0.062 A 
ATOM     17  C   UNL     1     169.963 186.027  31.638  1.00  0.00     0.158 A 
BRANCH  15  18
ATOM     18  O   UNL     1     170.858 187.979  32.765  1.00  0.00    -0.504 OA
ATOM     19  H   UNL     1     171.090 188.314  33.693  1.00  0.00     0.293 HD
ENDBRANCH  15  18
BRANCH  17  20
ATOM     20  O   UNL     1     171.148 185.859  30.921  1.00  0.00    -0.504 OA
ATOM     21  H   UNL     1     172.055 186.042  31.332  1.00  0.00     0.293 HD
ENDBRANCH  17  20
ENDBRANCH   1  12
BRANCH   2  22
ATOM     22  O   UNL     1     166.380 184.968  29.576  1.00  0.00    -0.502 OA
ATOM     23  H   UNL     1     167.154 185.618  29.643  1.00  0.00     0.293 HD
ENDBRANCH   2  22
BRANCH   6  24
ATOM     24  O   UNL     1     162.631 181.464  30.426  1.00  0.00    -0.507 OA
ATOM     25  H   UNL     1     161.724 181.011  30.431  1.00  0.00     0.293 HD
ENDBRANCH   6  24
BRANCH   8  26
ATOM     26  O   UNL     1     163.394 180.318  35.051  1.00  0.00    -0.508 OA
ATOM     27  H   UNL     1     162.567 179.733  35.056  1.00  0.00     0.293 HD
ENDBRANCH   8  26
TORSDOF 6
ENDMDL
MODEL 9
REMARK VINA RESULT:    -4.977      2.484      2.605
REMARK INTER + INTRA:          -6.219
REMARK INTER:                  -5.905
REMARK INTRA:                  -0.314
REMARK UNBOUND:                -0.224
REMARK SMILES O=c1c(O)c(-c2ccc(O)c(O)c2)oc2cc(O)cc(O)c12
REMARK SMILES IDX 5 1 3 2 2 3 1 4 22 5 20 6 19 7 17 8 16 9 15 10 14 11 6 12
REMARK SMILES IDX 7 13 8 14 9 15 13 16 11 17 10 18 12 20 4 22 21 24 18 26
REMARK H PARENT 10 19 12 21 4 23 21 25 18 27
REMARK Flexibility Score: inf
ROOT
ATOM      1  C   UNL     1     169.873 185.063  33.603  1.00  0.00     0.180 A 
ATOM      2  C   UNL     1     169.728 186.457  33.744  1.00  0.00     0.208 A 
ATOM      3  C   UNL     1     168.446 187.019  33.639  1.00  0.00     0.238 A 
ATOM      4  O   UNL     1     168.301 188.265  33.776  1.00  0.00    -0.285 OA
ATOM      5  C   UNL     1     167.338 186.187  33.377  1.00  0.00     0.111 A 
ATOM      6  C   UNL     1     166.015 186.674  33.254  1.00  0.00     0.134 A 
ATOM      7  C   UNL     1     164.967 185.781  32.982  1.00  0.00     0.093 A 
ATOM      8  C   UNL     1     165.216 184.415  32.832  1.00  0.00     0.123 A 
ATOM      9  C   UNL     1     166.521 183.928  32.954  1.00  0.00     0.094 A 
ATOM     10  C   UNL     1     167.579 184.801  33.225  1.00  0.00     0.146 A 
ATOM     11  O   UNL     1     168.808 184.311  33.341  1.00  0.00    -0.452 OA
ENDROOT
BRANCH   1  12
ATOM     12  C   UNL     1     171.188 184.395  33.718  1.00  0.00     0.025 A 
ATOM     13  C   UNL     1     171.691 184.075  34.990  1.00  0.00     0.016 A 
ATOM     14  C   UNL     1     172.939 183.462  35.125  1.00  0.00     0.051 A 
ATOM     15  C   UNL     1     173.711 183.173  33.992  1.00  0.00     0.157 A 
ATOM     16  C   UNL     1     171.975 184.122  32.585  1.00  0.00     0.062 A 
ATOM     17  C   UNL     1     173.227 183.510  32.717  1.00  0.00     0.158 A 
BRANCH  15  18
ATOM     18  O   UNL     1     174.955 182.560  34.129  1.00  0.00    -0.504 OA
ATOM     19  H   UNL     1     175.608 182.841  34.851  1.00  0.00     0.293 HD
ENDBRANCH  15  18
BRANCH  17  20
ATOM     20  O   UNL     1     173.977 183.249  31.570  1.00  0.00    -0.504 OA
ATOM     21  H   UNL     1     174.557 182.425  31.483  1.00  0.00     0.293 HD
ENDBRANCH  17  20
ENDBRANCH   1  12
BRANCH   2  22
ATOM     22  O   UNL     1     170.848 187.266  33.954  1.00  0.00    -0.502 OA
ATOM     23  H   UNL     1     171.755 187.049  33.561  1.00  0.00     0.293 HD
ENDBRANCH   2  22
BRANCH   6  24
ATOM     24  O   UNL     1     165.734 188.034  33.397  1.00  0.00    -0.507 OA
ATOM     25  H   UNL     1     165.893 188.522  34.271  1.00  0.00     0.293 HD
ENDBRANCH   6  24
BRANCH   8  26
ATOM     26  O   UNL     1     164.157 183.551  32.562  1.00  0.00    -0.508 OA
ATOM     27  H   UNL     1     164.317 182.607  32.229  1.00  0.00     0.293 HD
ENDBRANCH   8  26
TORSDOF 6
ENDMDL
