MODEL 1
REMARK VINA RESULT:    -3.608      0.000      0.000
REMARK INTER + INTRA:          -7.066
REMARK INTER:                  -5.717
REMARK INTRA:                  -1.349
REMARK UNBOUND:                -1.349
REMARK SMILES CCCCCCCCCCCC(=O)[O-]
REMARK SMILES IDX 7 1 8 2 9 3 10 4 11 5 12 6 13 7 14 8 6 9 5 10 4 11 3 12 2 13
REMARK SMILES IDX 1 14
REMARK H PARENT
REMARK Flexibility Score: inf
ROOT
ATOM      1  C   UNL     1     156.613 154.870 164.991  1.00  0.00     0.000 C 
ENDROOT
BRANCH   1   2
ATOM      2  C   UNL     1     156.334 154.162 166.328  1.00  0.00     0.000 C 
BRANCH   2   3
ATOM      3  C   UNL     1     155.897 155.121 167.456  1.00  0.00     0.000 C 
BRANCH   3   4
ATOM      4  C   UNL     1     154.452 154.860 167.913  1.00  0.00     0.006 C 
BRANCH   4   5
ATOM      5  C   UNL     1     154.051 153.386 167.761  1.00  0.00     0.053 C 
BRANCH   5   6
ATOM      6  C   UNL     1     154.075 152.664 169.073  1.00  0.00     0.041 C 
ATOM      7  O   UNL     1     154.319 151.430 169.112  1.00  0.00    -0.550 OA
ATOM      8  O   UNL     1     153.793 153.348 170.248  1.00  0.00    -0.550 OA
ENDBRANCH   5   6
ENDBRANCH   4   5
ENDBRANCH   3   4
ENDBRANCH   2   3
ENDBRANCH   1   2
BRANCH   1   9
ATOM      9  C   UNL     1     155.755 154.331 163.838  1.00  0.00     0.000 C 
BRANCH   9  10
ATOM     10  C   UNL     1     154.713 155.369 163.395  1.00  0.00    -0.000 C 
BRANCH  10  11
ATOM     11  C   UNL     1     153.441 155.333 164.255  1.00  0.00    -0.000 C 
BRANCH  11  12
ATOM     12  C   UNL     1     152.947 156.738 164.640  1.00  0.00    -0.000 C 
BRANCH  12  13
ATOM     13  C   UNL     1     154.030 157.568 165.347  1.00  0.00    -0.003 C 
ATOM     14  C   UNL     1     153.751 159.070 165.295  1.00  0.00     0.004 C 
ENDBRANCH  12  13
ENDBRANCH  11  12
ENDBRANCH  10  11
ENDBRANCH   9  10
ENDBRANCH   1   9
TORSDOF 10
ENDMDL
MODEL 2
REMARK VINA RESULT:    -3.292      3.651      5.532
REMARK INTER + INTRA:          -6.565
REMARK INTER:                  -5.474
REMARK INTRA:                  -1.091
REMARK UNBOUND:                -1.349
REMARK SMILES CCCCCCCCCCCC(=O)[O-]
REMARK SMILES IDX 7 1 8 2 9 3 10 4 11 5 12 6 13 7 14 8 6 9 5 10 4 11 3 12 2 13
REMARK SMILES IDX 1 14
REMARK H PARENT
REMARK Flexibility Score: inf
ROOT
ATOM      1  C   UNL     1     156.569 154.250 163.711  1.00  0.00     0.000 C 
ENDROOT
BRANCH   1   2
ATOM      2  C   UNL     1     155.505 155.168 163.085  1.00  0.00     0.000 C 
BRANCH   2   3
ATOM      3  C   UNL     1     154.125 155.071 163.769  1.00  0.00     0.000 C 
BRANCH   3   4
ATOM      4  C   UNL     1     153.131 156.110 163.221  1.00  0.00     0.006 C 
BRANCH   4   5
ATOM      5  C   UNL     1     153.817 157.164 162.343  1.00  0.00     0.053 C 
BRANCH   5   6
ATOM      6  C   UNL     1     153.810 158.516 162.987  1.00  0.00     0.041 C 
ATOM      7  O   UNL     1     154.044 159.546 162.301  1.00  0.00    -0.550 OA
ATOM      8  O   UNL     1     153.579 158.636 164.351  1.00  0.00    -0.550 OA
ENDBRANCH   5   6
ENDBRANCH   4   5
ENDBRANCH   3   4
ENDBRANCH   2   3
ENDBRANCH   1   2
BRANCH   1   9
ATOM      9  C   UNL     1     156.104 153.603 165.022  1.00  0.00     0.000 C 
BRANCH   9  10
ATOM     10  C   UNL     1     156.813 154.234 166.230  1.00  0.00    -0.000 C 
BRANCH  10  11
ATOM     11  C   UNL     1     155.849 154.534 167.389  1.00  0.00    -0.000 C 
BRANCH  11  12
ATOM     12  C   UNL     1     154.867 155.673 167.062  1.00  0.00    -0.000 C 
BRANCH  12  13
ATOM     13  C   UNL     1     153.452 155.398 167.592  1.00  0.00    -0.003 C 
ATOM     14  C   UNL     1     152.890 154.059 167.112  1.00  0.00     0.004 C 
ENDBRANCH  12  13
ENDBRANCH  11  12
ENDBRANCH  10  11
ENDBRANCH   9  10
ENDBRANCH   1   9
TORSDOF 10
ENDMDL
MODEL 3
REMARK VINA RESULT:    -3.177      2.880      5.281
REMARK INTER + INTRA:          -6.383
REMARK INTER:                  -5.029
REMARK INTRA:                  -1.355
REMARK UNBOUND:                -1.349
REMARK SMILES CCCCCCCCCCCC(=O)[O-]
REMARK SMILES IDX 7 1 8 2 9 3 10 4 11 5 12 6 13 7 14 8 6 9 5 10 4 11 3 12 2 13
REMARK SMILES IDX 1 14
REMARK H PARENT
REMARK Flexibility Score: inf
ROOT
ATOM      1  C   UNL     1     154.537 156.478 165.852  1.00  0.00     0.000 C 
ENDROOT
BRANCH   1   2
ATOM      2  C   UNL     1     154.310 156.353 164.336  1.00  0.00     0.000 C 
BRANCH   2   3
ATOM      3  C   UNL     1     154.915 155.071 163.724  1.00  0.00     0.000 C 
BRANCH   3   4
ATOM      4  C   UNL     1     156.264 154.702 164.365  1.00  0.00     0.006 C 
BRANCH   4   5
ATOM      5  C   UNL     1     157.125 153.827 163.445  1.00  0.00     0.053 C 
BRANCH   5   6
ATOM      6  C   UNL     1     158.186 153.093 164.206  1.00  0.00     0.041 C 
ATOM      7  O   UNL     1     158.200 153.126 165.464  1.00  0.00    -0.550 OA
ATOM      8  O   UNL     1     159.180 152.404 163.525  1.00  0.00    -0.550 OA
ENDBRANCH   5   6
ENDBRANCH   4   5
ENDBRANCH   3   4
ENDBRANCH   2   3
ENDBRANCH   1   2
BRANCH   1   9
ATOM      9  C   UNL     1     153.235 156.401 166.661  1.00  0.00     0.000 C 
BRANCH   9  10
ATOM     10  C   UNL     1     153.365 155.400 167.819  1.00  0.00    -0.000 C 
BRANCH  10  11
ATOM     11  C   UNL     1     154.669 154.589 167.754  1.00  0.00    -0.000 C 
BRANCH  11  12
ATOM     12  C   UNL     1     154.422 153.071 167.757  1.00  0.00    -0.000 C 
BRANCH  12  13
ATOM     13  C   UNL     1     153.938 152.551 166.395  1.00  0.00    -0.003 C 
ATOM     14  C   UNL     1     154.921 151.574 165.751  1.00  0.00     0.004 C 
ENDBRANCH  12  13
ENDBRANCH  11  12
ENDBRANCH  10  11
ENDBRANCH   9  10
ENDBRANCH   1   9
TORSDOF 10
ENDMDL
MODEL 4
REMARK VINA RESULT:    -3.176      3.413      4.940
REMARK INTER + INTRA:          -6.382
REMARK INTER:                  -5.972
REMARK INTRA:                  -0.409
REMARK UNBOUND:                -1.349
REMARK SMILES CCCCCCCCCCCC(=O)[O-]
REMARK SMILES IDX 7 1 8 2 9 3 10 4 11 5 12 6 13 7 14 8 6 9 5 10 4 11 3 12 2 13
REMARK SMILES IDX 1 14
REMARK H PARENT
REMARK Flexibility Score: inf
ROOT
ATOM      1  C   UNL     1     154.315 154.638 169.443  1.00  0.00     0.000 C 
ENDROOT
BRANCH   1   2
ATOM      2  C   UNL     1     154.069 154.654 170.962  1.00  0.00     0.000 C 
BRANCH   2   3
ATOM      3  C   UNL     1     153.904 153.248 171.576  1.00  0.00     0.000 C 
BRANCH   3   4
ATOM      4  C   UNL     1     153.892 153.284 173.114  1.00  0.00     0.006 C 
BRANCH   4   5
ATOM      5  C   UNL     1     154.529 152.030 173.730  1.00  0.00     0.053 C 
BRANCH   5   6
ATOM      6  C   UNL     1     155.569 152.378 174.751  1.00  0.00     0.041 C 
ATOM      7  O   UNL     1     155.228 152.672 175.926  1.00  0.00    -0.550 OA
ATOM      8  O   UNL     1     156.910 152.411 174.394  1.00  0.00    -0.550 OA
ENDBRANCH   5   6
ENDBRANCH   4   5
ENDBRANCH   3   4
ENDBRANCH   2   3
ENDBRANCH   1   2
BRANCH   1   9
ATOM      9  C   UNL     1     153.192 155.316 168.647  1.00  0.00     0.000 C 
BRANCH   9  10
ATOM     10  C   UNL     1     153.408 155.147 167.136  1.00  0.00    -0.000 C 
BRANCH  10  11
ATOM     11  C   UNL     1     153.359 156.483 166.380  1.00  0.00    -0.000 C 
BRANCH  11  12
ATOM     12  C   UNL     1     154.701 156.837 165.717  1.00  0.00    -0.000 C 
BRANCH  12  13
ATOM     13  C   UNL     1     155.836 155.896 166.149  1.00  0.00    -0.003 C 
ATOM     14  C   UNL     1     156.334 155.007 165.009  1.00  0.00     0.004 C 
ENDBRANCH  12  13
ENDBRANCH  11  12
ENDBRANCH  10  11
ENDBRANCH   9  10
ENDBRANCH   1   9
TORSDOF 10
ENDMDL
MODEL 5
REMARK VINA RESULT:    -3.174      2.358      5.053
REMARK INTER + INTRA:          -6.378
REMARK INTER:                  -5.464
REMARK INTRA:                  -0.914
REMARK UNBOUND:                -1.349
REMARK SMILES CCCCCCCCCCCC(=O)[O-]
REMARK SMILES IDX 7 1 8 2 9 3 10 4 11 5 12 6 13 7 14 8 6 9 5 10 4 11 3 12 2 13
REMARK SMILES IDX 1 14
REMARK H PARENT
REMARK Flexibility Score: inf
ROOT
ATOM      1  C   UNL     1     153.125 156.602 166.214  1.00  0.00     0.000 C 
ENDROOT
BRANCH   1   2
ATOM      2  C   UNL     1     154.528 156.710 165.594  1.00  0.00     0.000 C 
BRANCH   2   3
ATOM      3  C   UNL     1     154.576 156.321 164.100  1.00  0.00     0.000 C 
BRANCH   3   4
ATOM      4  C   UNL     1     154.834 154.818 163.899  1.00  0.00     0.006 C 
BRANCH   4   5
ATOM      5  C   UNL     1     156.302 154.442 164.147  1.00  0.00     0.053 C 
BRANCH   5   6
ATOM      6  C   UNL     1     156.436 153.055 164.697  1.00  0.00     0.041 C 
ATOM      7  O   UNL     1     155.410 152.390 164.994  1.00  0.00    -0.550 OA
ATOM      8  O   UNL     1     157.696 152.512 164.914  1.00  0.00    -0.550 OA
ENDBRANCH   5   6
ENDBRANCH   4   5
ENDBRANCH   3   4
ENDBRANCH   2   3
ENDBRANCH   1   2
BRANCH   1   9
ATOM      9  C   UNL     1     153.109 155.798 167.521  1.00  0.00     0.000 C 
BRANCH   9  10
ATOM     10  C   UNL     1     153.852 154.464 167.356  1.00  0.00    -0.000 C 
BRANCH  10  11
ATOM     11  C   UNL     1     154.751 154.136 168.559  1.00  0.00    -0.000 C 
BRANCH  11  12
ATOM     12  C   UNL     1     154.086 153.163 169.547  1.00  0.00    -0.000 C 
BRANCH  12  13
ATOM     13  C   UNL     1     153.672 153.847 170.858  1.00  0.00    -0.003 C 
ATOM     14  C   UNL     1     154.312 155.224 171.034  1.00  0.00     0.004 C 
ENDBRANCH  12  13
ENDBRANCH  11  12
ENDBRANCH  10  11
ENDBRANCH   9  10
ENDBRANCH   1   9
TORSDOF 10
ENDMDL
MODEL 6
REMARK VINA RESULT:    -3.166     15.491     17.536
REMARK INTER + INTRA:          -6.366
REMARK INTER:                  -4.757
REMARK INTRA:                  -1.609
REMARK UNBOUND:                -1.349
REMARK SMILES CCCCCCCCCCCC(=O)[O-]
REMARK SMILES IDX 7 1 8 2 9 3 10 4 11 5 12 6 13 7 14 8 6 9 5 10 4 11 3 12 2 13
REMARK SMILES IDX 1 14
REMARK H PARENT
REMARK Flexibility Score: inf
ROOT
ATOM      1  C   UNL     1     167.105 151.345 177.749  1.00  0.00     0.000 C 
ENDROOT
BRANCH   1   2
ATOM      2  C   UNL     1     168.136 151.946 176.779  1.00  0.00     0.000 C 
BRANCH   2   3
ATOM      3  C   UNL     1     167.797 153.383 176.328  1.00  0.00     0.000 C 
BRANCH   3   4
ATOM      4  C   UNL     1     166.329 153.748 176.606  1.00  0.00     0.006 C 
BRANCH   4   5
ATOM      5  C   UNL     1     166.110 155.265 176.681  1.00  0.00     0.053 C 
BRANCH   5   6
ATOM      6  C   UNL     1     164.798 155.669 176.083  1.00  0.00     0.041 C 
ATOM      7  O   UNL     1     164.748 156.114 174.906  1.00  0.00    -0.550 OA
ATOM      8  O   UNL     1     163.635 155.586 176.837  1.00  0.00    -0.550 OA
ENDBRANCH   5   6
ENDBRANCH   4   5
ENDBRANCH   3   4
ENDBRANCH   2   3
ENDBRANCH   1   2
BRANCH   1   9
ATOM      9  C   UNL     1     167.729 150.875 179.070  1.00  0.00     0.000 C 
BRANCH   9  10
ATOM     10  C   UNL     1     168.139 152.071 179.942  1.00  0.00    -0.000 C 
BRANCH  10  11
ATOM     11  C   UNL     1     166.975 153.042 180.197  1.00  0.00    -0.000 C 
BRANCH  11  12
ATOM     12  C   UNL     1     167.418 154.515 180.178  1.00  0.00    -0.000 C 
BRANCH  12  13
ATOM     13  C   UNL     1     168.880 154.683 179.736  1.00  0.00    -0.003 C 
ATOM     14  C   UNL     1     169.079 155.865 178.787  1.00  0.00     0.004 C 
ENDBRANCH  12  13
ENDBRANCH  11  12
ENDBRANCH  10  11
ENDBRANCH   9  10
ENDBRANCH   1   9
TORSDOF 10
ENDMDL
MODEL 7
REMARK VINA RESULT:    -3.155     15.378     17.467
REMARK INTER + INTRA:          -6.349
REMARK INTER:                  -4.891
REMARK INTRA:                  -1.458
REMARK UNBOUND:                -1.349
REMARK SMILES CCCCCCCCCCCC(=O)[O-]
REMARK SMILES IDX 7 1 8 2 9 3 10 4 11 5 12 6 13 7 14 8 6 9 5 10 4 11 3 12 2 13
REMARK SMILES IDX 1 14
REMARK H PARENT
REMARK Flexibility Score: inf
ROOT
ATOM      1  C   UNL     1     167.884 151.852 176.908  1.00  0.00     0.000 C 
ENDROOT
BRANCH   1   2
ATOM      2  C   UNL     1     167.168 153.181 176.612  1.00  0.00     0.000 C 
BRANCH   2   3
ATOM      3  C   UNL     1     165.762 153.280 177.241  1.00  0.00     0.000 C 
BRANCH   3   4
ATOM      4  C   UNL     1     165.179 154.700 177.139  1.00  0.00     0.006 C 
BRANCH   4   5
ATOM      5  C   UNL     1     166.215 155.720 176.648  1.00  0.00     0.053 C 
BRANCH   5   6
ATOM      6  C   UNL     1     165.824 156.322 175.334  1.00  0.00     0.041 C 
ATOM      7  O   UNL     1     164.673 156.124 174.863  1.00  0.00    -0.550 OA
ATOM      8  O   UNL     1     166.742 157.073 174.612  1.00  0.00    -0.550 OA
ENDBRANCH   5   6
ENDBRANCH   4   5
ENDBRANCH   3   4
ENDBRANCH   2   3
ENDBRANCH   1   2
BRANCH   1   9
ATOM      9  C   UNL     1     167.157 151.003 177.960  1.00  0.00     0.000 C 
BRANCH   9  10
ATOM     10  C   UNL     1     167.960 150.942 179.269  1.00  0.00    -0.000 C 
BRANCH  10  11
ATOM     11  C   UNL     1     167.544 152.034 180.267  1.00  0.00    -0.000 C 
BRANCH  11  12
ATOM     12  C   UNL     1     168.526 153.218 180.292  1.00  0.00    -0.000 C 
BRANCH  12  13
ATOM     13  C   UNL     1     167.825 154.567 180.070  1.00  0.00    -0.003 C 
ATOM     14  C   UNL     1     166.416 154.606 180.661  1.00  0.00     0.004 C 
ENDBRANCH  12  13
ENDBRANCH  11  12
ENDBRANCH  10  11
ENDBRANCH   9  10
ENDBRANCH   1   9
TORSDOF 10
ENDMDL
MODEL 8
REMARK VINA RESULT:    -3.090     14.759     16.854
REMARK INTER + INTRA:          -6.245
REMARK INTER:                  -4.975
REMARK INTRA:                  -1.270
REMARK UNBOUND:                -1.349
REMARK SMILES CCCCCCCCCCCC(=O)[O-]
REMARK SMILES IDX 7 1 8 2 9 3 10 4 11 5 12 6 13 7 14 8 6 9 5 10 4 11 3 12 2 13
REMARK SMILES IDX 1 14
REMARK H PARENT
REMARK Flexibility Score: inf
ROOT
ATOM      1  C   UNL     1     165.780 152.602 177.186  1.00  0.00     0.000 C 
ENDROOT
BRANCH   1   2
ATOM      2  C   UNL     1     166.341 153.862 176.505  1.00  0.00     0.000 C 
BRANCH   2   3
ATOM      3  C   UNL     1     165.681 155.172 176.987  1.00  0.00     0.000 C 
BRANCH   3   4
ATOM      4  C   UNL     1     164.203 154.972 177.364  1.00  0.00     0.006 C 
BRANCH   4   5
ATOM      5  C   UNL     1     163.724 155.995 178.403  1.00  0.00     0.053 C 
BRANCH   5   6
ATOM      6  C   UNL     1     162.600 156.836 177.880  1.00  0.00     0.041 C 
ATOM      7  O   UNL     1     161.680 157.214 178.651  1.00  0.00    -0.550 OA
ATOM      8  O   UNL     1     162.551 157.173 176.533  1.00  0.00    -0.550 OA
ENDBRANCH   5   6
ENDBRANCH   4   5
ENDBRANCH   3   4
ENDBRANCH   2   3
ENDBRANCH   1   2
BRANCH   1   9
ATOM      9  C   UNL     1     166.808 151.467 177.284  1.00  0.00     0.000 C 
BRANCH   9  10
ATOM     10  C   UNL     1     168.241 152.020 177.278  1.00  0.00    -0.000 C 
BRANCH  10  11
ATOM     11  C   UNL     1     168.869 152.047 178.680  1.00  0.00    -0.000 C 
BRANCH  11  12
ATOM     12  C   UNL     1     168.551 153.342 179.446  1.00  0.00    -0.000 C 
BRANCH  12  13
ATOM     13  C   UNL     1     167.453 153.147 180.502  1.00  0.00    -0.003 C 
ATOM     14  C   UNL     1     166.423 154.276 180.500  1.00  0.00     0.004 C 
ENDBRANCH  12  13
ENDBRANCH  11  12
ENDBRANCH  10  11
ENDBRANCH   9  10
ENDBRANCH   1   9
TORSDOF 10
ENDMDL
