MODEL 1
REMARK VINA RESULT:     1.633      0.000      0.000
REMARK INTER + INTRA:           1.707
REMARK INTER:                   1.776
REMARK INTRA:                  -0.069
REMARK UNBOUND:                -0.069
REMARK SMILES C[C@@H]1[C@H](C)CC[C@@]2(C(=O)[O-])CC[C@@]3(C)C(=CC[C@@H]4[C@@]5(C)CC[C@H](O)C(C)(C)[C@H]5CC[C@@]43C)[C@H]12
REMARK SMILES IDX 7 1 6 2 11 3 33 4 5 5 12 6 15 7 2 8 3 9 13 10 16 11 1 12
REMARK SMILES IDX 4 13 14 14 31 15 17 16 18 17 30 18 32 19 19 20 29 21 28 22
REMARK SMILES IDX 21 23 20 24 25 25 22 26 23 27 26 28 27 29 8 30 9 31 10 32
REMARK SMILES IDX 24 33
REMARK H PARENT 24 34
REMARK Flexibility Score: inf
ROOT
ATOM      1  C   UNL     1      -6.631  21.622  37.703  1.00  0.00     0.017 C 
ATOM      2  C   UNL     1      -6.463  20.151  37.168  1.00  0.00     0.014 C 
ATOM      3  C   UNL     1      -5.330  22.020  38.502  1.00  0.00     0.014 C 
ATOM      4  C   UNL     1      -6.771  22.642  36.523  1.00  0.00     0.030 C 
ATOM      5  C   UNL     1      -6.361  20.033  35.637  1.00  0.00     0.004 C 
ATOM      6  C   UNL     1      -5.162  23.542  38.850  1.00  0.00     0.013 C 
ATOM      7  C   UNL     1      -6.769  24.072  37.088  1.00  0.00    -0.063 C 
ATOM      8  C   UNL     1      -7.678  22.247  35.298  1.00  0.00    -0.003 C 
ATOM      9  C   UNL     1      -7.542  20.724  34.914  1.00  0.00    -0.011 C 
ATOM     10  C   UNL     1      -5.430  24.544  37.659  1.00  0.00    -0.006 C 
ATOM     11  C   UNL     1      -7.902  24.543  37.646  1.00  0.00    -0.027 C 
ATOM     12  C   UNL     1      -9.125  22.772  35.299  1.00  0.00     0.008 C 
ATOM     13  C   UNL     1      -8.823  19.875  35.063  1.00  0.00     0.008 C 
ATOM     14  C   UNL     1      -4.293  24.377  36.585  1.00  0.00     0.017 C 
ATOM     15  C   UNL     1      -5.482  26.093  38.130  1.00  0.00    -0.020 C 
ATOM     16  C   UNL     1      -7.935  25.433  38.847  1.00  0.00     0.032 C 
ATOM     17  C   UNL     1      -6.726  26.395  39.081  1.00  0.00     0.006 C 
ATOM     18  C   UNL     1      -5.571  27.081  36.890  1.00  0.00     0.008 C 
ATOM     19  C   UNL     1      -4.132  26.396  38.908  1.00  0.00     0.012 C 
ATOM     20  C   UNL     1      -7.210  27.923  39.118  1.00  0.00    -0.025 C 
ATOM     21  C   UNL     1      -6.985  27.549  36.533  1.00  0.00     0.005 C 
ATOM     22  C   UNL     1      -7.710  28.363  37.668  1.00  0.00     0.003 C 
ATOM     23  C   UNL     1      -6.056  28.845  39.635  1.00  0.00     0.010 C 
ATOM     24  C   UNL     1      -8.362  28.038  40.180  1.00  0.00     0.012 C 
ATOM     25  C   UNL     1      -7.825  29.940  37.430  1.00  0.00    -0.006 C 
ATOM     26  C   UNL     1      -6.307  30.341  39.457  1.00  0.00     0.033 C 
ATOM     27  C   UNL     1      -6.570  30.677  37.988  1.00  0.00     0.120 C 
ATOM     28  C   UNL     1      -9.123  30.489  38.092  1.00  0.00     0.014 C 
ATOM     29  C   UNL     1      -7.965  30.298  35.922  1.00  0.00     0.014 C 
ENDROOT
BRANCH   1  30
ATOM     30  C   UNL     1      -7.848  21.660  38.631  1.00  0.00     0.048 C 
ATOM     31  O   UNL     1      -8.998  21.343  38.215  1.00  0.00    -0.550 OA
ATOM     32  O   UNL     1      -7.711  22.032  39.961  1.00  0.00    -0.550 OA
ENDBRANCH   1  30
BRANCH  27  33
ATOM     33  O   UNL     1      -6.716  32.072  37.875  1.00  0.00    -0.393 OA
ATOM     34  H   UNL     1      -7.632  32.303  38.182  1.00  0.00     0.210 HD
ENDBRANCH  27  33
TORSDOF 2
ENDMDL
MODEL 2
REMARK VINA RESULT:     3.447      1.219      1.432
REMARK INTER + INTRA:           3.679
REMARK INTER:                   3.682
REMARK INTRA:                  -0.003
REMARK UNBOUND:                -0.069
REMARK SMILES C[C@@H]1[C@H](C)CC[C@@]2(C(=O)[O-])CC[C@@]3(C)C(=CC[C@@H]4[C@@]5(C)CC[C@H](O)C(C)(C)[C@H]5CC[C@@]43C)[C@H]12
REMARK SMILES IDX 7 1 6 2 11 3 33 4 5 5 12 6 15 7 2 8 3 9 13 10 16 11 1 12
REMARK SMILES IDX 4 13 14 14 31 15 17 16 18 17 30 18 32 19 19 20 29 21 28 22
REMARK SMILES IDX 21 23 20 24 25 25 22 26 23 27 26 28 27 29 8 30 9 31 10 32
REMARK SMILES IDX 24 33
REMARK H PARENT 24 34
REMARK Flexibility Score: inf
ROOT
ATOM      1  C   UNL     1      -6.719  22.397  39.359  1.00  0.00     0.017 C 
ATOM      2  C   UNL     1      -6.463  20.845  39.311  1.00  0.00     0.014 C 
ATOM      3  C   UNL     1      -5.607  23.065  40.257  1.00  0.00     0.014 C 
ATOM      4  C   UNL     1      -6.598  23.036  37.934  1.00  0.00     0.030 C 
ATOM      5  C   UNL     1      -6.048  20.306  37.931  1.00  0.00     0.004 C 
ATOM      6  C   UNL     1      -5.494  24.629  40.184  1.00  0.00     0.013 C 
ATOM      7  C   UNL     1      -6.695  24.567  38.056  1.00  0.00    -0.063 C 
ATOM      8  C   UNL     1      -7.237  22.271  36.715  1.00  0.00    -0.003 C 
ATOM      9  C   UNL     1      -7.045  20.709  36.818  1.00  0.00    -0.011 C 
ATOM     10  C   UNL     1      -5.497  25.242  38.727  1.00  0.00    -0.006 C 
ATOM     11  C   UNL     1      -7.912  25.122  38.216  1.00  0.00    -0.027 C 
ATOM     12  C   UNL     1      -8.646  22.707  36.275  1.00  0.00     0.008 C 
ATOM     13  C   UNL     1      -8.340  19.878  36.940  1.00  0.00     0.008 C 
ATOM     14  C   UNL     1      -4.164  24.832  37.999  1.00  0.00     0.017 C 
ATOM     15  C   UNL     1      -5.625  26.857  38.717  1.00  0.00    -0.020 C 
ATOM     16  C   UNL     1      -8.182  26.312  39.081  1.00  0.00     0.032 C 
ATOM     17  C   UNL     1      -7.034  27.356  39.270  1.00  0.00     0.006 C 
ATOM     18  C   UNL     1      -5.442  27.450  37.256  1.00  0.00     0.008 C 
ATOM     19  C   UNL     1      -4.461  27.429  39.633  1.00  0.00     0.012 C 
ATOM     20  C   UNL     1      -7.495  28.808  38.771  1.00  0.00    -0.025 C 
ATOM     21  C   UNL     1      -6.745  27.733  36.502  1.00  0.00     0.005 C 
ATOM     22  C   UNL     1      -7.678  28.798  37.187  1.00  0.00     0.003 C 
ATOM     23  C   UNL     1      -6.461  29.891  39.226  1.00  0.00     0.010 C 
ATOM     24  C   UNL     1      -8.840  29.164  39.501  1.00  0.00     0.012 C 
ATOM     25  C   UNL     1      -7.721  30.237  36.491  1.00  0.00    -0.006 C 
ATOM     26  C   UNL     1      -6.651  31.263  38.582  1.00  0.00     0.033 C 
ATOM     27  C   UNL     1      -6.599  31.159  37.057  1.00  0.00     0.120 C 
ATOM     28  C   UNL     1      -9.121  30.890  36.692  1.00  0.00     0.014 C 
ATOM     29  C   UNL     1      -7.541  30.150  34.947  1.00  0.00     0.014 C 
ENDROOT
BRANCH   1  30
ATOM     30  C   UNL     1      -8.101  22.639  39.971  1.00  0.00     0.048 C 
ATOM     31  O   UNL     1      -9.121  22.023  39.549  1.00  0.00    -0.550 OA
ATOM     32  O   UNL     1      -8.263  23.533  41.020  1.00  0.00    -0.550 OA
ENDBRANCH   1  30
BRANCH  27  33
ATOM     33  O   UNL     1      -6.700  32.458  36.524  1.00  0.00    -0.393 OA
ATOM     34  H   UNL     1      -6.164  32.480  35.688  1.00  0.00     0.210 HD
ENDBRANCH  27  33
TORSDOF 2
ENDMDL
