MODEL 1
REMARK VINA RESULT:    -3.601      0.000      0.000
REMARK INTER + INTRA:          -8.458
REMARK INTER:                  -6.969
REMARK INTRA:                  -1.488
REMARK UNBOUND:                -1.488
REMARK SMILES CCCCCCCCCCCCCCCCCC(=O)[O-]
REMARK SMILES IDX 10 1 11 2 12 3 13 4 14 5 15 6 16 7 17 8 18 9 19 10 20 11
REMARK SMILES IDX 9 12 8 13 7 14 6 15 5 16 4 17 3 18 2 19 1 20
REMARK H PARENT
REMARK Flexibility Score: inf
ROOT
ATOM      1  C   UNL     1      12.436   0.530 -17.371  1.00  0.00     0.000 C 
ENDROOT
BRANCH   1   2
ATOM      2  C   UNL     1      11.063   0.258 -18.005  1.00  0.00     0.000 C 
BRANCH   2   3
ATOM      3  C   UNL     1      10.907  -1.228 -18.355  1.00  0.00     0.000 C 
BRANCH   3   4
ATOM      4  C   UNL     1      10.371  -1.405 -19.781  1.00  0.00     0.000 C 
BRANCH   4   5
ATOM      5  C   UNL     1      11.203  -0.595 -20.786  1.00  0.00     0.000 C 
BRANCH   5   6
ATOM      6  C   UNL     1      11.681  -1.441 -21.976  1.00  0.00     0.000 C 
BRANCH   6   7
ATOM      7  C   UNL     1      13.146  -1.889 -21.835  1.00  0.00     0.006 C 
BRANCH   7   8
ATOM      8  C   UNL     1      13.972  -0.907 -20.994  1.00  0.00     0.053 C 
BRANCH   8   9
ATOM      9  C   UNL     1      14.737  -1.609 -19.914  1.00  0.00     0.041 C 
ATOM     10  O   UNL     1      14.156  -1.967 -18.856  1.00  0.00    -0.550 OA
ATOM     11  O   UNL     1      16.100  -1.836 -20.061  1.00  0.00    -0.550 OA
ENDBRANCH   8   9
ENDBRANCH   7   8
ENDBRANCH   6   7
ENDBRANCH   5   6
ENDBRANCH   4   5
ENDBRANCH   3   4
ENDBRANCH   2   3
ENDBRANCH   1   2
BRANCH   1  12
ATOM     12  C   UNL     1      13.037   1.874 -17.812  1.00  0.00     0.000 C 
BRANCH  12  13
ATOM     13  C   UNL     1      13.075   2.031 -19.342  1.00  0.00    -0.000 C 
BRANCH  13  14
ATOM     14  C   UNL     1      12.954   3.497 -19.787  1.00  0.00    -0.000 C 
BRANCH  14  15
ATOM     15  C   UNL     1      14.125   3.944 -20.682  1.00  0.00    -0.000 C 
BRANCH  15  16
ATOM     16  C   UNL     1      14.374   5.459 -20.615  1.00  0.00    -0.000 C 
BRANCH  16  17
ATOM     17  C   UNL     1      15.832   5.833 -20.922  1.00  0.00    -0.000 C 
BRANCH  17  18
ATOM     18  C   UNL     1      16.042   6.027 -22.431  1.00  0.00    -0.000 C 
BRANCH  18  19
ATOM     19  C   UNL     1      16.937   4.940 -23.047  1.00  0.00    -0.003 C 
ATOM     20  C   UNL     1      17.050   5.058 -24.567  1.00  0.00     0.004 C 
ENDBRANCH  18  19
ENDBRANCH  17  18
ENDBRANCH  16  17
ENDBRANCH  15  16
ENDBRANCH  14  15
ENDBRANCH  13  14
ENDBRANCH  12  13
ENDBRANCH   1  12
TORSDOF 16
ENDMDL
MODEL 2
REMARK VINA RESULT:    -3.592      3.064      4.830
REMARK INTER + INTRA:          -8.439
REMARK INTER:                  -6.738
REMARK INTRA:                  -1.702
REMARK UNBOUND:                -1.488
REMARK SMILES CCCCCCCCCCCCCCCCCC(=O)[O-]
REMARK SMILES IDX 10 1 11 2 12 3 13 4 14 5 15 6 16 7 17 8 18 9 19 10 20 11
REMARK SMILES IDX 9 12 8 13 7 14 6 15 5 16 4 17 3 18 2 19 1 20
REMARK H PARENT
REMARK Flexibility Score: inf
ROOT
ATOM      1  C   UNL     1      13.353   1.672 -17.340  1.00  0.00     0.000 C 
ENDROOT
BRANCH   1   2
ATOM      2  C   UNL     1      12.636   0.771 -16.322  1.00  0.00     0.000 C 
BRANCH   2   3
ATOM      3  C   UNL     1      12.047  -0.468 -17.006  1.00  0.00     0.000 C 
BRANCH   3   4
ATOM      4  C   UNL     1      10.546  -0.292 -17.268  1.00  0.00     0.000 C 
BRANCH   4   5
ATOM      5  C   UNL     1      10.198  -0.632 -18.725  1.00  0.00     0.000 C 
BRANCH   5   6
ATOM      6  C   UNL     1       9.854  -2.117 -18.920  1.00  0.00     0.000 C 
BRANCH   6   7
ATOM      7  C   UNL     1       9.588  -2.476 -20.392  1.00  0.00     0.006 C 
BRANCH   7   8
ATOM      8  C   UNL     1      10.448  -1.646 -21.354  1.00  0.00     0.053 C 
BRANCH   8   9
ATOM      9  C   UNL     1      10.747  -2.394 -22.617  1.00  0.00     0.041 C 
ATOM     10  O   UNL     1      11.767  -2.107 -23.297  1.00  0.00    -0.550 OA
ATOM     11  O   UNL     1       9.880  -3.384 -23.063  1.00  0.00    -0.550 OA
ENDBRANCH   8   9
ENDBRANCH   7   8
ENDBRANCH   6   7
ENDBRANCH   5   6
ENDBRANCH   4   5
ENDBRANCH   3   4
ENDBRANCH   2   3
ENDBRANCH   1   2
BRANCH   1  12
ATOM     12  C   UNL     1      12.511   1.927 -18.601  1.00  0.00     0.000 C 
BRANCH  12  13
ATOM     13  C   UNL     1      13.295   2.675 -19.694  1.00  0.00    -0.000 C 
BRANCH  13  14
ATOM     14  C   UNL     1      13.512   1.820 -20.953  1.00  0.00    -0.000 C 
BRANCH  14  15
ATOM     15  C   UNL     1      12.863   0.428 -20.843  1.00  0.00    -0.000 C 
BRANCH  15  16
ATOM     16  C   UNL     1      13.886  -0.712 -20.967  1.00  0.00    -0.000 C 
BRANCH  16  17
ATOM     17  C   UNL     1      14.044  -1.509 -19.663  1.00  0.00    -0.000 C 
BRANCH  17  18
ATOM     18  C   UNL     1      15.479  -2.035 -19.512  1.00  0.00    -0.000 C 
BRANCH  18  19
ATOM     19  C   UNL     1      16.438  -1.443 -20.558  1.00  0.00    -0.003 C 
ATOM     20  C   UNL     1      17.901  -1.504 -20.121  1.00  0.00     0.004 C 
ENDBRANCH  18  19
ENDBRANCH  17  18
ENDBRANCH  16  17
ENDBRANCH  15  16
ENDBRANCH  14  15
ENDBRANCH  13  14
ENDBRANCH  12  13
ENDBRANCH   1  12
TORSDOF 16
ENDMDL
MODEL 3
REMARK VINA RESULT:    -3.523      3.129      6.951
REMARK INTER + INTRA:          -8.307
REMARK INTER:                  -7.153
REMARK INTRA:                  -1.154
REMARK UNBOUND:                -1.488
REMARK SMILES CCCCCCCCCCCCCCCCCC(=O)[O-]
REMARK SMILES IDX 10 1 11 2 12 3 13 4 14 5 15 6 16 7 17 8 18 9 19 10 20 11
REMARK SMILES IDX 9 12 8 13 7 14 6 15 5 16 4 17 3 18 2 19 1 20
REMARK H PARENT
REMARK Flexibility Score: inf
ROOT
ATOM      1  C   UNL     1      13.157   2.363 -18.118  1.00  0.00     0.000 C 
ENDROOT
BRANCH   1   2
ATOM      2  C   UNL     1      12.873   1.844 -19.536  1.00  0.00     0.000 C 
BRANCH   2   3
ATOM      3  C   UNL     1      13.275   2.883 -20.590  1.00  0.00     0.000 C 
BRANCH   3   4
ATOM      4  C   UNL     1      13.637   4.222 -19.934  1.00  0.00     0.000 C 
BRANCH   4   5
ATOM      5  C   UNL     1      13.999   5.274 -20.994  1.00  0.00     0.000 C 
BRANCH   5   6
ATOM      6  C   UNL     1      15.494   5.629 -20.988  1.00  0.00     0.000 C 
BRANCH   6   7
ATOM      7  C   UNL     1      15.992   6.119 -22.358  1.00  0.00     0.006 C 
BRANCH   7   8
ATOM      8  C   UNL     1      16.482   4.965 -23.242  1.00  0.00     0.053 C 
BRANCH   8   9
ATOM      9  C   UNL     1      17.651   5.370 -24.088  1.00  0.00     0.041 C 
ATOM     10  O   UNL     1      18.769   5.595 -23.557  1.00  0.00    -0.550 OA
ATOM     11  O   UNL     1      17.494   5.535 -25.459  1.00  0.00    -0.550 OA
ENDBRANCH   8   9
ENDBRANCH   7   8
ENDBRANCH   6   7
ENDBRANCH   5   6
ENDBRANCH   4   5
ENDBRANCH   3   4
ENDBRANCH   2   3
ENDBRANCH   1   2
BRANCH   1  12
ATOM     12  C   UNL     1      13.242   1.233 -17.079  1.00  0.00     0.000 C 
BRANCH  12  13
ATOM     13  C   UNL     1      11.950   0.401 -17.005  1.00  0.00    -0.000 C 
BRANCH  13  14
ATOM     14  C   UNL     1      12.192  -1.089 -17.297  1.00  0.00    -0.000 C 
BRANCH  14  15
ATOM     15  C   UNL     1      12.409  -1.371 -18.795  1.00  0.00    -0.000 C 
BRANCH  15  16
ATOM     16  C   UNL     1      13.882  -1.644 -19.137  1.00  0.00    -0.000 C 
BRANCH  16  17
ATOM     17  C   UNL     1      14.172  -1.525 -20.641  1.00  0.00    -0.000 C 
BRANCH  17  18
ATOM     18  C   UNL     1      12.976  -0.911 -21.383  1.00  0.00    -0.000 C 
BRANCH  18  19
ATOM     19  C   UNL     1      12.543  -1.747 -22.598  1.00  0.00    -0.003 C 
ATOM     20  C   UNL     1      11.064  -2.131 -22.555  1.00  0.00     0.004 C 
ENDBRANCH  18  19
ENDBRANCH  17  18
ENDBRANCH  16  17
ENDBRANCH  15  16
ENDBRANCH  14  15
ENDBRANCH  13  14
ENDBRANCH  12  13
ENDBRANCH   1  12
TORSDOF 16
ENDMDL
MODEL 4
REMARK VINA RESULT:    -3.479      2.731      7.059
REMARK INTER + INTRA:          -8.221
REMARK INTER:                  -6.452
REMARK INTRA:                  -1.769
REMARK UNBOUND:                -1.488
REMARK SMILES CCCCCCCCCCCCCCCCCC(=O)[O-]
REMARK SMILES IDX 10 1 11 2 12 3 13 4 14 5 15 6 16 7 17 8 18 9 19 10 20 11
REMARK SMILES IDX 9 12 8 13 7 14 6 15 5 16 4 17 3 18 2 19 1 20
REMARK H PARENT
REMARK Flexibility Score: inf
ROOT
ATOM      1  C   UNL     1      13.128  -1.322 -21.374  1.00  0.00     0.000 C 
ENDROOT
BRANCH   1   2
ATOM      2  C   UNL     1      13.835  -0.113 -20.743  1.00  0.00     0.000 C 
BRANCH   2   3
ATOM      3  C   UNL     1      12.880   1.082 -20.631  1.00  0.00     0.000 C 
BRANCH   3   4
ATOM      4  C   UNL     1      13.580   2.387 -21.032  1.00  0.00     0.000 C 
BRANCH   4   5
ATOM      5  C   UNL     1      13.234   3.520 -20.054  1.00  0.00     0.000 C 
BRANCH   5   6
ATOM      6  C   UNL     1      13.475   4.914 -20.655  1.00  0.00     0.000 C 
BRANCH   6   7
ATOM      7  C   UNL     1      14.958   5.321 -20.631  1.00  0.00     0.006 C 
BRANCH   7   8
ATOM      8  C   UNL     1      15.391   6.007 -21.934  1.00  0.00     0.053 C 
BRANCH   8   9
ATOM      9  C   UNL     1      16.544   5.299 -22.577  1.00  0.00     0.041 C 
ATOM     10  O   UNL     1      17.694   5.371 -22.069  1.00  0.00    -0.550 OA
ATOM     11  O   UNL     1      16.356   4.590 -23.757  1.00  0.00    -0.550 OA
ENDBRANCH   8   9
ENDBRANCH   7   8
ENDBRANCH   6   7
ENDBRANCH   5   6
ENDBRANCH   4   5
ENDBRANCH   3   4
ENDBRANCH   2   3
ENDBRANCH   1   2
BRANCH   1  12
ATOM     12  C   UNL     1      11.811  -0.942 -22.071  1.00  0.00     0.000 C 
BRANCH  12  13
ATOM     13  C   UNL     1      10.958  -2.171 -22.433  1.00  0.00    -0.000 C 
BRANCH  13  14
ATOM     14  C   UNL     1       9.928  -2.514 -21.345  1.00  0.00    -0.000 C 
BRANCH  14  15
ATOM     15  C   UNL     1       9.761  -1.386 -20.310  1.00  0.00    -0.000 C 
BRANCH  15  16
ATOM     16  C   UNL     1      10.239  -1.796 -18.908  1.00  0.00    -0.000 C 
BRANCH  16  17
ATOM     17  C   UNL     1      10.554  -0.587 -18.013  1.00  0.00    -0.000 C 
BRANCH  17  18
ATOM     18  C   UNL     1      12.020  -0.610 -17.558  1.00  0.00    -0.000 C 
BRANCH  18  19
ATOM     19  C   UNL     1      12.327   0.462 -16.500  1.00  0.00    -0.003 C 
ATOM     20  C   UNL     1      13.295   1.532 -17.005  1.00  0.00     0.004 C 
ENDBRANCH  18  19
ENDBRANCH  17  18
ENDBRANCH  16  17
ENDBRANCH  15  16
ENDBRANCH  14  15
ENDBRANCH  13  14
ENDBRANCH  12  13
ENDBRANCH   1  12
TORSDOF 16
ENDMDL
MODEL 5
REMARK VINA RESULT:    -3.447      2.858      6.815
REMARK INTER + INTRA:          -8.160
REMARK INTER:                  -6.843
REMARK INTRA:                  -1.318
REMARK UNBOUND:                -1.488
REMARK SMILES CCCCCCCCCCCCCCCCCC(=O)[O-]
REMARK SMILES IDX 10 1 11 2 12 3 13 4 14 5 15 6 16 7 17 8 18 9 19 10 20 11
REMARK SMILES IDX 9 12 8 13 7 14 6 15 5 16 4 17 3 18 2 19 1 20
REMARK H PARENT
REMARK Flexibility Score: inf
ROOT
ATOM      1  C   UNL     1      13.149   1.625 -17.444  1.00  0.00     0.000 C 
ENDROOT
BRANCH   1   2
ATOM      2  C   UNL     1      13.168   1.717 -18.978  1.00  0.00     0.000 C 
BRANCH   2   3
ATOM      3  C   UNL     1      12.861   3.146 -19.444  1.00  0.00     0.000 C 
BRANCH   3   4
ATOM      4  C   UNL     1      13.925   3.645 -20.430  1.00  0.00     0.000 C 
BRANCH   4   5
ATOM      5  C   UNL     1      13.834   5.167 -20.615  1.00  0.00     0.000 C 
BRANCH   5   6
ATOM      6  C   UNL     1      15.214   5.830 -20.745  1.00  0.00     0.000 C 
BRANCH   6   7
ATOM      7  C   UNL     1      15.976   5.373 -22.001  1.00  0.00     0.006 C 
BRANCH   7   8
ATOM      8  C   UNL     1      17.472   5.705 -21.923  1.00  0.00     0.053 C 
BRANCH   8   9
ATOM      9  C   UNL     1      18.182   5.370 -23.199  1.00  0.00     0.041 C 
ATOM     10  O   UNL     1      19.429   5.520 -23.289  1.00  0.00    -0.550 OA
ATOM     11  O   UNL     1      17.461   4.926 -24.301  1.00  0.00    -0.550 OA
ENDBRANCH   8   9
ENDBRANCH   7   8
ENDBRANCH   6   7
ENDBRANCH   5   6
ENDBRANCH   4   5
ENDBRANCH   3   4
ENDBRANCH   2   3
ENDBRANCH   1   2
BRANCH   1  12
ATOM     12  C   UNL     1      12.129   0.598 -16.925  1.00  0.00     0.000 C 
BRANCH  12  13
ATOM     13  C   UNL     1      11.995  -0.622 -17.853  1.00  0.00    -0.000 C 
BRANCH  13  14
ATOM     14  C   UNL     1      10.533  -0.916 -18.230  1.00  0.00    -0.000 C 
BRANCH  14  15
ATOM     15  C   UNL     1      10.379  -1.373 -19.692  1.00  0.00    -0.000 C 
BRANCH  15  16
ATOM     16  C   UNL     1      11.320  -0.622 -20.648  1.00  0.00    -0.000 C 
BRANCH  16  17
ATOM     17  C   UNL     1      11.749  -1.478 -21.849  1.00  0.00    -0.000 C 
BRANCH  17  18
ATOM     18  C   UNL     1      13.258  -1.760 -21.810  1.00  0.00    -0.000 C 
BRANCH  18  19
ATOM     19  C   UNL     1      13.989  -0.918 -20.753  1.00  0.00    -0.003 C 
ATOM     20  C   UNL     1      14.921  -1.750 -19.872  1.00  0.00     0.004 C 
ENDBRANCH  18  19
ENDBRANCH  17  18
ENDBRANCH  16  17
ENDBRANCH  15  16
ENDBRANCH  14  15
ENDBRANCH  13  14
ENDBRANCH  12  13
ENDBRANCH   1  12
TORSDOF 16
ENDMDL
MODEL 6
REMARK VINA RESULT:    -3.348      1.832      2.816
REMARK INTER + INTRA:          -7.967
REMARK INTER:                  -6.949
REMARK INTRA:                  -1.018
REMARK UNBOUND:                -1.488
REMARK SMILES CCCCCCCCCCCCCCCCCC(=O)[O-]
REMARK SMILES IDX 10 1 11 2 12 3 13 4 14 5 15 6 16 7 17 8 18 9 19 10 20 11
REMARK SMILES IDX 9 12 8 13 7 14 6 15 5 16 4 17 3 18 2 19 1 20
REMARK H PARENT
REMARK Flexibility Score: inf
ROOT
ATOM      1  C   UNL     1      13.031   2.482 -18.725  1.00  0.00     0.000 C 
ENDROOT
BRANCH   1   2
ATOM      2  C   UNL     1      12.087   1.348 -18.293  1.00  0.00     0.000 C 
BRANCH   2   3
ATOM      3  C   UNL     1      12.584   0.683 -17.004  1.00  0.00     0.000 C 
BRANCH   3   4
ATOM      4  C   UNL     1      12.312  -0.826 -17.022  1.00  0.00     0.000 C 
BRANCH   4   5
ATOM      5  C   UNL     1      12.447  -1.393 -18.443  1.00  0.00     0.000 C 
BRANCH   5   6
ATOM      6  C   UNL     1      13.905  -1.427 -18.930  1.00  0.00     0.000 C 
BRANCH   6   7
ATOM      7  C   UNL     1      14.016  -1.513 -20.462  1.00  0.00     0.006 C 
BRANCH   7   8
ATOM      8  C   UNL     1      13.047  -0.555 -21.167  1.00  0.00     0.053 C 
BRANCH   8   9
ATOM      9  C   UNL     1      11.986  -1.295 -21.924  1.00  0.00     0.041 C 
ATOM     10  O   UNL     1      10.820  -1.382 -21.458  1.00  0.00    -0.550 OA
ATOM     11  O   UNL     1      12.296  -1.918 -23.126  1.00  0.00    -0.550 OA
ENDBRANCH   8   9
ENDBRANCH   7   8
ENDBRANCH   6   7
ENDBRANCH   5   6
ENDBRANCH   4   5
ENDBRANCH   3   4
ENDBRANCH   2   3
ENDBRANCH   1   2
BRANCH   1  12
ATOM     12  C   UNL     1      13.023   2.715 -20.244  1.00  0.00     0.000 C 
BRANCH  12  13
ATOM     13  C   UNL     1      13.178   4.200 -20.615  1.00  0.00    -0.000 C 
BRANCH  13  14
ATOM     14  C   UNL     1      14.618   4.705 -20.428  1.00  0.00    -0.000 C 
BRANCH  14  15
ATOM     15  C   UNL     1      14.858   6.071 -21.097  1.00  0.00    -0.000 C 
BRANCH  15  16
ATOM     16  C   UNL     1      16.117   6.083 -21.979  1.00  0.00    -0.000 C 
BRANCH  16  17
ATOM     17  C   UNL     1      16.095   4.987 -23.055  1.00  0.00    -0.000 C 
BRANCH  17  18
ATOM     18  C   UNL     1      17.397   4.991 -23.869  1.00  0.00    -0.000 C 
BRANCH  18  19
ATOM     19  C   UNL     1      18.349   6.124 -23.454  1.00  0.00    -0.003 C 
ATOM     20  C   UNL     1      19.806   5.835 -23.816  1.00  0.00     0.004 C 
ENDBRANCH  18  19
ENDBRANCH  17  18
ENDBRANCH  16  17
ENDBRANCH  15  16
ENDBRANCH  14  15
ENDBRANCH  13  14
ENDBRANCH  12  13
ENDBRANCH   1  12
TORSDOF 16
ENDMDL
MODEL 7
REMARK VINA RESULT:    -3.274      2.839      6.513
REMARK INTER + INTRA:          -7.826
REMARK INTER:                  -5.979
REMARK INTRA:                  -1.846
REMARK UNBOUND:                -1.488
REMARK SMILES CCCCCCCCCCCCCCCCCC(=O)[O-]
REMARK SMILES IDX 10 1 11 2 12 3 13 4 14 5 15 6 16 7 17 8 18 9 19 10 20 11
REMARK SMILES IDX 9 12 8 13 7 14 6 15 5 16 4 17 3 18 2 19 1 20
REMARK H PARENT
REMARK Flexibility Score: inf
ROOT
ATOM      1  C   UNL     1      11.360  -0.283 -17.199  1.00  0.00     0.000 C 
ENDROOT
BRANCH   1   2
ATOM      2  C   UNL     1      12.418   0.821 -17.345  1.00  0.00     0.000 C 
BRANCH   2   3
ATOM      3  C   UNL     1      12.390   1.422 -18.756  1.00  0.00     0.000 C 
BRANCH   3   4
ATOM      4  C   UNL     1      13.369   2.597 -18.874  1.00  0.00     0.000 C 
BRANCH   4   5
ATOM      5  C   UNL     1      13.298   3.235 -20.269  1.00  0.00     0.000 C 
BRANCH   5   6
ATOM      6  C   UNL     1      12.976   4.737 -20.217  1.00  0.00     0.000 C 
BRANCH   6   7
ATOM      7  C   UNL     1      13.909   5.575 -21.108  1.00  0.00     0.006 C 
BRANCH   7   8
ATOM      8  C   UNL     1      15.372   5.496 -20.651  1.00  0.00     0.053 C 
BRANCH   8   9
ATOM      9  C   UNL     1      16.322   5.678 -21.795  1.00  0.00     0.041 C 
ATOM     10  O   UNL     1      15.885   5.808 -22.968  1.00  0.00    -0.550 OA
ATOM     11  O   UNL     1      17.693   5.668 -21.569  1.00  0.00    -0.550 OA
ENDBRANCH   8   9
ENDBRANCH   7   8
ENDBRANCH   6   7
ENDBRANCH   5   6
ENDBRANCH   4   5
ENDBRANCH   3   4
ENDBRANCH   2   3
ENDBRANCH   1   2
BRANCH   1  12
ATOM     12  C   UNL     1      10.350  -0.294 -18.358  1.00  0.00     0.000 C 
BRANCH  12  13
ATOM     13  C   UNL     1       9.761  -1.692 -18.615  1.00  0.00    -0.000 C 
BRANCH  13  14
ATOM     14  C   UNL     1       9.833  -2.098 -20.096  1.00  0.00    -0.000 C 
BRANCH  14  15
ATOM     15  C   UNL     1      10.769  -1.191 -20.915  1.00  0.00    -0.000 C 
BRANCH  15  16
ATOM     16  C   UNL     1      11.263  -1.863 -22.206  1.00  0.00    -0.000 C 
BRANCH  16  17
ATOM     17  C   UNL     1      12.779  -1.715 -22.407  1.00  0.00    -0.000 C 
BRANCH  17  18
ATOM     18  C   UNL     1      13.387  -0.799 -21.335  1.00  0.00    -0.000 C 
BRANCH  18  19
ATOM     19  C   UNL     1      14.453  -1.509 -20.486  1.00  0.00    -0.003 C 
ATOM     20  C   UNL     1      13.999  -1.752 -19.047  1.00  0.00     0.004 C 
ENDBRANCH  18  19
ENDBRANCH  17  18
ENDBRANCH  16  17
ENDBRANCH  15  16
ENDBRANCH  14  15
ENDBRANCH  13  14
ENDBRANCH  12  13
ENDBRANCH   1  12
TORSDOF 16
ENDMDL
MODEL 8
REMARK VINA RESULT:    -3.261      1.507      2.927
REMARK INTER + INTRA:          -7.799
REMARK INTER:                  -6.359
REMARK INTRA:                  -1.439
REMARK UNBOUND:                -1.488
REMARK SMILES CCCCCCCCCCCCCCCCCC(=O)[O-]
REMARK SMILES IDX 10 1 11 2 12 3 13 4 14 5 15 6 16 7 17 8 18 9 19 10 20 11
REMARK SMILES IDX 9 12 8 13 7 14 6 15 5 16 4 17 3 18 2 19 1 20
REMARK H PARENT
REMARK Flexibility Score: inf
ROOT
ATOM      1  C   UNL     1      13.835  -0.282 -20.645  1.00  0.00     0.000 C 
ENDROOT
BRANCH   1   2
ATOM      2  C   UNL     1      13.215  -1.380 -21.523  1.00  0.00     0.000 C 
BRANCH   2   3
ATOM      3  C   UNL     1      11.848  -0.942 -22.063  1.00  0.00     0.000 C 
BRANCH   3   4
ATOM      4  C   UNL     1      10.966  -2.156 -22.383  1.00  0.00     0.000 C 
BRANCH   4   5
ATOM      5  C   UNL     1      10.010  -2.464 -21.221  1.00  0.00     0.000 C 
BRANCH   5   6
ATOM      6  C   UNL     1       9.858  -1.282 -20.251  1.00  0.00     0.000 C 
BRANCH   6   7
ATOM      7  C   UNL     1      10.233  -1.649 -18.805  1.00  0.00     0.006 C 
BRANCH   7   8
ATOM      8  C   UNL     1      10.597  -0.414 -17.970  1.00  0.00     0.053 C 
BRANCH   8   9
ATOM      9  C   UNL     1      11.969  -0.528 -17.380  1.00  0.00     0.041 C 
ATOM     10  O   UNL     1      12.672  -1.548 -17.602  1.00  0.00    -0.550 OA
ATOM     11  O   UNL     1      12.457   0.478 -16.554  1.00  0.00    -0.550 OA
ENDBRANCH   8   9
ENDBRANCH   7   8
ENDBRANCH   6   7
ENDBRANCH   5   6
ENDBRANCH   4   5
ENDBRANCH   3   4
ENDBRANCH   2   3
ENDBRANCH   1   2
BRANCH   1  12
ATOM     12  C   UNL     1      12.890   0.913 -20.435  1.00  0.00     0.000 C 
BRANCH  12  13
ATOM     13  C   UNL     1      13.459   2.223 -21.005  1.00  0.00    -0.000 C 
BRANCH  13  14
ATOM     14  C   UNL     1      13.425   3.373 -19.985  1.00  0.00    -0.000 C 
BRANCH  14  15
ATOM     15  C   UNL     1      13.500   4.759 -20.651  1.00  0.00    -0.000 C 
BRANCH  15  16
ATOM     16  C   UNL     1      14.916   5.358 -20.608  1.00  0.00    -0.000 C 
BRANCH  16  17
ATOM     17  C   UNL     1      15.375   5.889 -21.974  1.00  0.00    -0.000 C 
BRANCH  17  18
ATOM     18  C   UNL     1      16.697   5.235 -22.400  1.00  0.00    -0.000 C 
BRANCH  18  19
ATOM     19  C   UNL     1      16.620   4.607 -23.801  1.00  0.00    -0.003 C 
ATOM     20  C   UNL     1      17.354   5.429 -24.860  1.00  0.00     0.004 C 
ENDBRANCH  18  19
ENDBRANCH  17  18
ENDBRANCH  16  17
ENDBRANCH  15  16
ENDBRANCH  14  15
ENDBRANCH  13  14
ENDBRANCH  12  13
ENDBRANCH   1  12
TORSDOF 16
ENDMDL
MODEL 9
REMARK VINA RESULT:    -3.194      1.964      2.571
REMARK INTER + INTRA:          -7.671
REMARK INTER:                  -6.042
REMARK INTRA:                  -1.629
REMARK UNBOUND:                -1.488
REMARK SMILES CCCCCCCCCCCCCCCCCC(=O)[O-]
REMARK SMILES IDX 10 1 11 2 12 3 13 4 14 5 15 6 16 7 17 8 18 9 19 10 20 11
REMARK SMILES IDX 9 12 8 13 7 14 6 15 5 16 4 17 3 18 2 19 1 20
REMARK H PARENT
REMARK Flexibility Score: inf
ROOT
ATOM      1  C   UNL     1      12.479   1.368 -16.914  1.00  0.00     0.000 C 
ENDROOT
BRANCH   1   2
ATOM      2  C   UNL     1      11.650   0.226 -17.524  1.00  0.00     0.000 C 
BRANCH   2   3
ATOM      3  C   UNL     1      12.320  -1.131 -17.272  1.00  0.00     0.000 C 
BRANCH   3   4
ATOM      4  C   UNL     1      12.659  -1.832 -18.594  1.00  0.00     0.000 C 
BRANCH   4   5
ATOM      5  C   UNL     1      14.026  -1.376 -19.125  1.00  0.00     0.000 C 
BRANCH   5   6
ATOM      6  C   UNL     1      14.108  -1.416 -20.659  1.00  0.00     0.000 C 
BRANCH   6   7
ATOM      7  C   UNL     1      12.878  -0.786 -21.335  1.00  0.00     0.006 C 
BRANCH   7   8
ATOM      8  C   UNL     1      12.359  -1.638 -22.501  1.00  0.00     0.053 C 
BRANCH   8   9
ATOM      9  C   UNL     1      10.953  -2.099 -22.269  1.00  0.00     0.041 C 
ATOM     10  O   UNL     1      10.330  -2.715 -23.173  1.00  0.00    -0.550 OA
ATOM     11  O   UNL     1      10.317  -1.817 -21.065  1.00  0.00    -0.550 OA
ENDBRANCH   8   9
ENDBRANCH   7   8
ENDBRANCH   6   7
ENDBRANCH   5   6
ENDBRANCH   4   5
ENDBRANCH   3   4
ENDBRANCH   2   3
ENDBRANCH   1   2
BRANCH   1  12
ATOM     12  C   UNL     1      13.444   2.005 -17.927  1.00  0.00     0.000 C 
BRANCH  12  13
ATOM     13  C   UNL     1      12.779   2.278 -19.287  1.00  0.00    -0.000 C 
BRANCH  13  14
ATOM     14  C   UNL     1      13.593   3.251 -20.155  1.00  0.00    -0.000 C 
BRANCH  14  15
ATOM     15  C   UNL     1      12.830   4.552 -20.462  1.00  0.00    -0.000 C 
BRANCH  15  16
ATOM     16  C   UNL     1      13.761   5.771 -20.571  1.00  0.00    -0.000 C 
BRANCH  16  17
ATOM     17  C   UNL     1      15.194   5.386 -20.969  1.00  0.00    -0.000 C 
BRANCH  17  18
ATOM     18  C   UNL     1      15.626   6.125 -22.244  1.00  0.00    -0.000 C 
BRANCH  18  19
ATOM     19  C   UNL     1      16.903   5.536 -22.864  1.00  0.00    -0.003 C 
ATOM     20  C   UNL     1      16.642   4.253 -23.652  1.00  0.00     0.004 C 
ENDBRANCH  18  19
ENDBRANCH  17  18
ENDBRANCH  16  17
ENDBRANCH  15  16
ENDBRANCH  14  15
ENDBRANCH  13  14
ENDBRANCH  12  13
ENDBRANCH   1  12
TORSDOF 16
ENDMDL
