MODEL 1
REMARK VINA RESULT:    13.806      0.000      0.000
REMARK INTER + INTRA:          15.691
REMARK INTER:                  15.016
REMARK INTRA:                   0.675
REMARK UNBOUND:                 0.675
REMARK SMILES C[C@@H]1[C@H](C)CC[C@]2(C(=O)[O-])CC[C@@]3(C)C(=CC[C@H]4[C@]5(C)CC[C@H](O)C(C)(C)[C@@H]5CC[C@@]43C)[C@@H]12
REMARK SMILES IDX 7 1 6 2 11 3 33 4 5 5 12 6 15 7 2 8 3 9 13 10 16 11 1 12
REMARK SMILES IDX 4 13 14 14 31 15 17 16 18 17 30 18 32 19 19 20 29 21 28 22
REMARK SMILES IDX 21 23 20 24 25 25 22 26 23 27 26 28 27 29 8 30 9 31 10 32
REMARK SMILES IDX 24 33
REMARK H PARENT 24 34
REMARK Flexibility Score: inf
ROOT
ATOM      1  C   UNL     1      14.415  41.385   8.365  1.00  0.00     0.017 C 
ATOM      2  C   UNL     1      12.953  40.873   8.518  1.00  0.00     0.014 C 
ATOM      3  C   UNL     1      14.607  42.056   6.994  1.00  0.00     0.014 C 
ATOM      4  C   UNL     1      15.340  40.121   8.411  1.00  0.00     0.030 C 
ATOM      5  C   UNL     1      12.758  40.172   9.879  1.00  0.00     0.004 C 
ATOM      6  C   UNL     1      16.025  42.643   6.885  1.00  0.00     0.013 C 
ATOM      7  C   UNL     1      16.710  40.264   7.683  1.00  0.00    -0.063 C 
ATOM      8  C   UNL     1      15.240  39.437   9.833  1.00  0.00    -0.003 C 
ATOM      9  C   UNL     1      13.758  39.009  10.122  1.00  0.00    -0.011 C 
ATOM     10  C   UNL     1      17.204  41.601   7.068  1.00  0.00    -0.006 C 
ATOM     11  C   UNL     1      17.334  39.107   7.346  1.00  0.00    -0.027 C 
ATOM     12  C   UNL     1      16.216  38.281  10.125  1.00  0.00     0.008 C 
ATOM     13  C   UNL     1      13.325  37.723   9.374  1.00  0.00     0.008 C 
ATOM     14  C   UNL     1      18.177  42.199   8.130  1.00  0.00     0.017 C 
ATOM     15  C   UNL     1      17.951  41.371   5.647  1.00  0.00    -0.020 C 
ATOM     16  C   UNL     1      18.365  38.937   6.271  1.00  0.00     0.032 C 
ATOM     17  C   UNL     1      19.015  40.237   5.751  1.00  0.00     0.006 C 
ATOM     18  C   UNL     1      18.747  42.639   5.263  1.00  0.00     0.008 C 
ATOM     19  C   UNL     1      16.900  41.019   4.547  1.00  0.00     0.012 C 
ATOM     20  C   UNL     1      20.012  40.035   4.489  1.00  0.00    -0.025 C 
ATOM     21  C   UNL     1      19.399  42.591   3.893  1.00  0.00     0.005 C 
ATOM     22  C   UNL     1      20.020  41.236   3.418  1.00  0.00     0.003 C 
ATOM     23  C   UNL     1      21.460  39.818   5.052  1.00  0.00     0.010 C 
ATOM     24  C   UNL     1      19.643  38.721   3.723  1.00  0.00     0.012 C 
ATOM     25  C   UNL     1      21.428  41.492   2.703  1.00  0.00    -0.006 C 
ATOM     26  C   UNL     1      22.257  41.120   5.155  1.00  0.00     0.033 C 
ATOM     27  C   UNL     1      22.557  41.749   3.774  1.00  0.00     0.120 C 
ATOM     28  C   UNL     1      21.840  40.286   1.805  1.00  0.00     0.014 C 
ATOM     29  C   UNL     1      21.336  42.677   1.685  1.00  0.00     0.014 C 
ENDROOT
BRANCH   1  30
ATOM     30  C   UNL     1      14.632  42.456   9.448  1.00  0.00     0.048 C 
ATOM     31  O   UNL     1      13.634  43.069   9.918  1.00  0.00    -0.550 OA
ATOM     32  O   UNL     1      15.889  42.817   9.909  1.00  0.00    -0.550 OA
ENDBRANCH   1  30
BRANCH  27  33
ATOM     33  O   UNL     1      22.781  43.123   3.959  1.00  0.00    -0.393 OA
ATOM     34  H   UNL     1      21.910  43.584   3.864  1.00  0.00     0.210 HD
ENDBRANCH  27  33
TORSDOF 2
ENDMDL
