MODEL 1
REMARK VINA RESULT:    -4.751      0.000      0.000
REMARK INTER + INTRA:          -6.057
REMARK INTER:                  -5.723
REMARK INTRA:                  -0.335
REMARK UNBOUND:                -0.335
REMARK SMILES O=c1c(O)c(-c2ccc(O)c(O)c2)oc2cc(O)cc(O)c12
REMARK SMILES IDX 5 1 3 2 2 3 1 4 22 5 20 6 19 7 17 8 16 9 15 10 14 11 6 12
REMARK SMILES IDX 7 13 8 14 9 15 13 16 11 17 10 18 12 20 4 22 21 24 18 26
REMARK H PARENT 10 19 12 21 4 23 21 25 18 27
REMARK Flexibility Score: inf
ROOT
ATOM      1  C   UNL     1     142.661 142.045 150.512  1.00  0.00     0.180 A 
ATOM      2  C   UNL     1     143.789 141.236 150.294  1.00  0.00     0.208 A 
ATOM      3  C   UNL     1     144.006 140.701 149.013  1.00  0.00     0.238 A 
ATOM      4  O   UNL     1     144.988 139.934 148.838  1.00  0.00    -0.285 OA
ATOM      5  C   UNL     1     143.101 140.995 147.965  1.00  0.00     0.111 A 
ATOM      6  C   UNL     1     143.244 140.540 146.620  1.00  0.00     0.134 A 
ATOM      7  C   UNL     1     142.221 140.783 145.695  1.00  0.00     0.093 A 
ATOM      8  C   UNL     1     141.089 141.521 146.052  1.00  0.00     0.123 A 
ATOM      9  C   UNL     1     140.967 142.020 147.346  1.00  0.00     0.094 A 
ATOM     10  C   UNL     1     141.955 141.763 148.301  1.00  0.00     0.146 A 
ATOM     11  O   UNL     1     141.795 142.248 149.526  1.00  0.00    -0.452 OA
ENDROOT
BRANCH   1  12
ATOM     12  C   UNL     1     142.379 142.665 151.828  1.00  0.00     0.025 A 
ATOM     13  C   UNL     1     141.532 142.007 152.733  1.00  0.00     0.016 A 
ATOM     14  C   UNL     1     141.236 142.582 153.972  1.00  0.00     0.051 A 
ATOM     15  C   UNL     1     141.769 143.832 154.315  1.00  0.00     0.157 A 
ATOM     16  C   UNL     1     142.895 143.928 152.167  1.00  0.00     0.062 A 
ATOM     17  C   UNL     1     142.598 144.509 153.406  1.00  0.00     0.158 A 
BRANCH  15  18
ATOM     18  O   UNL     1     141.472 144.404 155.552  1.00  0.00    -0.504 OA
ATOM     19  H   UNL     1     141.105 143.852 156.317  1.00  0.00     0.293 HD
ENDBRANCH  15  18
BRANCH  17  20
ATOM     20  O   UNL     1     143.132 145.760 153.711  1.00  0.00    -0.504 OA
ATOM     21  H   UNL     1     143.130 146.131 154.654  1.00  0.00     0.293 HD
ENDBRANCH  17  20
ENDBRANCH   1  12
BRANCH   2  22
ATOM     22  O   UNL     1     144.658 140.941 151.348  1.00  0.00    -0.502 OA
ATOM     23  H   UNL     1     145.229 140.105 151.364  1.00  0.00     0.293 HD
ENDBRANCH   2  22
BRANCH   6  24
ATOM     24  O   UNL     1     144.375 139.875 146.137  1.00  0.00    -0.507 OA
ATOM     25  H   UNL     1     145.327 140.129 146.353  1.00  0.00     0.293 HD
ENDBRANCH   6  24
BRANCH   8  26
ATOM     26  O   UNL     1     140.082 141.772 145.122  1.00  0.00    -0.508 OA
ATOM     27  H   UNL     1     139.573 141.018 144.675  1.00  0.00     0.293 HD
ENDBRANCH   8  26
TORSDOF 6
ENDMDL
MODEL 2
REMARK VINA RESULT:    -4.653      5.413      9.443
REMARK INTER + INTRA:          -5.939
REMARK INTER:                  -5.634
REMARK INTRA:                  -0.306
REMARK UNBOUND:                -0.335
REMARK SMILES O=c1c(O)c(-c2ccc(O)c(O)c2)oc2cc(O)cc(O)c12
REMARK SMILES IDX 5 1 3 2 2 3 1 4 22 5 20 6 19 7 17 8 16 9 15 10 14 11 6 12
REMARK SMILES IDX 7 13 8 14 9 15 13 16 11 17 10 18 12 20 4 22 21 24 18 26
REMARK H PARENT 10 19 12 21 4 23 21 25 18 27
REMARK Flexibility Score: inf
ROOT
ATOM      1  C   UNL     1     140.752 146.604 154.358  1.00  0.00     0.180 A 
ATOM      2  C   UNL     1     140.483 147.399 153.232  1.00  0.00     0.208 A 
ATOM      3  C   UNL     1     140.303 148.782 153.401  1.00  0.00     0.238 A 
ATOM      4  O   UNL     1     140.009 149.481 152.397  1.00  0.00    -0.285 OA
ATOM      5  C   UNL     1     140.412 149.352 154.692  1.00  0.00     0.111 A 
ATOM      6  C   UNL     1     140.288 150.746 154.975  1.00  0.00     0.134 A 
ATOM      7  C   UNL     1     140.284 151.184 156.305  1.00  0.00     0.093 A 
ATOM      8  C   UNL     1     140.463 150.284 157.359  1.00  0.00     0.123 A 
ATOM      9  C   UNL     1     140.643 148.930 157.091  1.00  0.00     0.094 A 
ATOM     10  C   UNL     1     140.616 148.458 155.776  1.00  0.00     0.146 A 
ATOM     11  O   UNL     1     140.782 147.158 155.564  1.00  0.00    -0.452 OA
ENDROOT
BRANCH   1  12
ATOM     12  C   UNL     1     140.978 145.143 154.256  1.00  0.00     0.025 A 
ATOM     13  C   UNL     1     139.875 144.274 154.236  1.00  0.00     0.016 A 
ATOM     14  C   UNL     1     140.065 142.892 154.160  1.00  0.00     0.051 A 
ATOM     15  C   UNL     1     141.360 142.358 154.120  1.00  0.00     0.157 A 
ATOM     16  C   UNL     1     142.276 144.603 154.237  1.00  0.00     0.062 A 
ATOM     17  C   UNL     1     142.469 143.218 154.163  1.00  0.00     0.158 A 
BRANCH  15  18
ATOM     18  O   UNL     1     141.547 140.978 154.044  1.00  0.00    -0.504 OA
ATOM     19  H   UNL     1     141.152 140.430 153.289  1.00  0.00     0.293 HD
ENDBRANCH  15  18
BRANCH  17  20
ATOM     20  O   UNL     1     143.771 142.717 154.139  1.00  0.00    -0.504 OA
ATOM     21  H   UNL     1     144.425 142.883 154.895  1.00  0.00     0.293 HD
ENDBRANCH  17  20
ENDBRANCH   1  12
BRANCH   2  22
ATOM     22  O   UNL     1     140.359 146.812 151.970  1.00  0.00    -0.502 OA
ATOM     23  H   UNL     1     141.145 146.705 151.340  1.00  0.00     0.293 HD
ENDBRANCH   2  22
BRANCH   6  24
ATOM     24  O   UNL     1     140.198 151.737 153.993  1.00  0.00    -0.507 OA
ATOM     25  H   UNL     1     140.545 151.645 153.050  1.00  0.00     0.293 HD
ENDBRANCH   6  24
BRANCH   8  26
ATOM     26  O   UNL     1     140.473 150.729 158.680  1.00  0.00    -0.508 OA
ATOM     27  H   UNL     1     141.264 150.559 159.291  1.00  0.00     0.293 HD
ENDBRANCH   8  26
TORSDOF 6
ENDMDL
MODEL 3
REMARK VINA RESULT:    -4.652      5.870      8.354
REMARK INTER + INTRA:          -5.938
REMARK INTER:                  -5.608
REMARK INTRA:                  -0.330
REMARK UNBOUND:                -0.335
REMARK SMILES O=c1c(O)c(-c2ccc(O)c(O)c2)oc2cc(O)cc(O)c12
REMARK SMILES IDX 5 1 3 2 2 3 1 4 22 5 20 6 19 7 17 8 16 9 15 10 14 11 6 12
REMARK SMILES IDX 7 13 8 14 9 15 13 16 11 17 10 18 12 20 4 22 21 24 18 26
REMARK H PARENT 10 19 12 21 4 23 21 25 18 27
REMARK Flexibility Score: inf
ROOT
ATOM      1  C   UNL     1     146.674 141.031 144.862  1.00  0.00     0.180 A 
ATOM      2  C   UNL     1     147.514 141.122 145.986  1.00  0.00     0.208 A 
ATOM      3  C   UNL     1     148.906 141.095 145.799  1.00  0.00     0.238 A 
ATOM      4  O   UNL     1     149.651 141.123 146.812  1.00  0.00    -0.285 OA
ATOM      5  C   UNL     1     149.438 140.995 144.491  1.00  0.00     0.111 A 
ATOM      6  C   UNL     1     150.832 140.999 144.182  1.00  0.00     0.134 A 
ATOM      7  C   UNL     1     151.249 140.763 142.866  1.00  0.00     0.093 A 
ATOM      8  C   UNL     1     150.319 140.587 141.838  1.00  0.00     0.123 A 
ATOM      9  C   UNL     1     148.957 140.640 142.119  1.00  0.00     0.094 A 
ATOM     10  C   UNL     1     148.511 140.837 143.429  1.00  0.00     0.146 A 
ATOM     11  O   UNL     1     147.203 140.871 143.655  1.00  0.00    -0.452 OA
ENDROOT
BRANCH   1  12
ATOM     12  C   UNL     1     145.198 141.077 144.977  1.00  0.00     0.025 A 
ATOM     13  C   UNL     1     144.469 139.877 144.994  1.00  0.00     0.016 A 
ATOM     14  C   UNL     1     143.074 139.897 145.081  1.00  0.00     0.051 A 
ATOM     15  C   UNL     1     142.388 141.117 145.135  1.00  0.00     0.157 A 
ATOM     16  C   UNL     1     144.504 142.299 145.011  1.00  0.00     0.062 A 
ATOM     17  C   UNL     1     143.107 142.323 145.096  1.00  0.00     0.158 A 
BRANCH  15  18
ATOM     18  O   UNL     1     140.996 141.135 145.223  1.00  0.00    -0.504 OA
ATOM     19  H   UNL     1     140.491 140.462 145.787  1.00  0.00     0.293 HD
ENDBRANCH  15  18
BRANCH  17  20
ATOM     20  O   UNL     1     142.452 143.554 145.134  1.00  0.00    -0.504 OA
ATOM     21  H   UNL     1     141.452 143.627 145.277  1.00  0.00     0.293 HD
ENDBRANCH  17  20
ENDBRANCH   1  12
BRANCH   2  22
ATOM     22  O   UNL     1     146.966 141.199 147.269  1.00  0.00    -0.502 OA
ATOM     23  H   UNL     1     147.126 141.989 147.882  1.00  0.00     0.293 HD
ENDBRANCH   2  22
BRANCH   6  24
ATOM     24  O   UNL     1     151.838 141.257 145.117  1.00  0.00    -0.507 OA
ATOM     25  H   UNL     1     152.300 142.147 145.234  1.00  0.00     0.293 HD
ENDBRANCH   6  24
BRANCH   8  26
ATOM     26  O   UNL     1     150.742 140.368 140.528  1.00  0.00    -0.508 OA
ATOM     27  H   UNL     1     150.800 141.125 139.856  1.00  0.00     0.293 HD
ENDBRANCH   8  26
TORSDOF 6
ENDMDL
MODEL 4
REMARK VINA RESULT:    -4.608      3.611      6.044
REMARK INTER + INTRA:          -5.886
REMARK INTER:                  -6.040
REMARK INTRA:                   0.154
REMARK UNBOUND:                -0.335
REMARK SMILES O=c1c(O)c(-c2ccc(O)c(O)c2)oc2cc(O)cc(O)c12
REMARK SMILES IDX 5 1 3 2 2 3 1 4 22 5 20 6 19 7 17 8 16 9 15 10 14 11 6 12
REMARK SMILES IDX 7 13 8 14 9 15 13 16 11 17 10 18 12 20 4 22 21 24 18 26
REMARK H PARENT 10 19 12 21 4 23 21 25 18 27
REMARK Flexibility Score: inf
ROOT
ATOM      1  C   UNL     1     144.365 141.813 146.190  1.00  0.00     0.180 A 
ATOM      2  C   UNL     1     144.123 142.415 144.944  1.00  0.00     0.208 A 
ATOM      3  C   UNL     1     145.127 142.375 143.962  1.00  0.00     0.238 A 
ATOM      4  O   UNL     1     144.925 142.962 142.868  1.00  0.00    -0.285 OA
ATOM      5  C   UNL     1     146.351 141.719 144.234  1.00  0.00     0.111 A 
ATOM      6  C   UNL     1     147.422 141.583 143.300  1.00  0.00     0.134 A 
ATOM      7  C   UNL     1     148.638 141.029 143.719  1.00  0.00     0.093 A 
ATOM      8  C   UNL     1     148.799 140.548 145.021  1.00  0.00     0.123 A 
ATOM      9  C   UNL     1     147.741 140.622 145.923  1.00  0.00     0.094 A 
ATOM     10  C   UNL     1     146.528 141.203 145.545  1.00  0.00     0.146 A 
ATOM     11  O   UNL     1     145.548 141.263 146.438  1.00  0.00    -0.452 OA
ENDROOT
BRANCH   1  12
ATOM     12  C   UNL     1     143.346 141.793 147.266  1.00  0.00     0.025 A 
ATOM     13  C   UNL     1     143.144 140.616 148.004  1.00  0.00     0.016 A 
ATOM     14  C   UNL     1     142.175 140.569 149.009  1.00  0.00     0.051 A 
ATOM     15  C   UNL     1     141.382 141.692 149.280  1.00  0.00     0.157 A 
ATOM     16  C   UNL     1     142.535 142.912 147.526  1.00  0.00     0.062 A 
ATOM     17  C   UNL     1     141.561 142.867 148.531  1.00  0.00     0.158 A 
BRANCH  15  18
ATOM     18  O   UNL     1     140.416 141.643 150.284  1.00  0.00    -0.504 OA
ATOM     19  H   UNL     1     139.998 140.767 150.575  1.00  0.00     0.293 HD
ENDBRANCH  15  18
BRANCH  17  20
ATOM     20  O   UNL     1     140.778 143.997 148.765  1.00  0.00    -0.504 OA
ATOM     21  H   UNL     1     140.198 144.088 149.590  1.00  0.00     0.293 HD
ENDBRANCH  17  20
ENDBRANCH   1  12
BRANCH   2  22
ATOM     22  O   UNL     1     142.915 143.076 144.704  1.00  0.00    -0.502 OA
ATOM     23  H   UNL     1     142.646 143.400 143.783  1.00  0.00     0.293 HD
ENDBRANCH   2  22
BRANCH   6  24
ATOM     24  O   UNL     1     147.334 141.946 141.954  1.00  0.00    -0.507 OA
ATOM     25  H   UNL     1     146.885 141.394 141.237  1.00  0.00     0.293 HD
ENDBRANCH   6  24
BRANCH   8  26
ATOM     26  O   UNL     1     150.008 139.983 145.426  1.00  0.00    -0.508 OA
ATOM     27  H   UNL     1     150.881 140.494 145.357  1.00  0.00     0.293 HD
ENDBRANCH   8  26
TORSDOF 6
ENDMDL
MODEL 5
REMARK VINA RESULT:    -4.565     12.712     15.485
REMARK INTER + INTRA:          -5.833
REMARK INTER:                  -5.510
REMARK INTRA:                  -0.323
REMARK UNBOUND:                -0.335
REMARK SMILES O=c1c(O)c(-c2ccc(O)c(O)c2)oc2cc(O)cc(O)c12
REMARK SMILES IDX 5 1 3 2 2 3 1 4 22 5 20 6 19 7 17 8 16 9 15 10 14 11 6 12
REMARK SMILES IDX 7 13 8 14 9 15 13 16 11 17 10 18 12 20 4 22 21 24 18 26
REMARK H PARENT 10 19 12 21 4 23 21 25 18 27
REMARK Flexibility Score: inf
ROOT
ATOM      1  C   UNL     1     155.633 142.507 155.704  1.00  0.00     0.180 A 
ATOM      2  C   UNL     1     156.252 143.563 156.395  1.00  0.00     0.208 A 
ATOM      3  C   UNL     1     155.610 144.109 157.519  1.00  0.00     0.238 A 
ATOM      4  O   UNL     1     156.143 145.090 158.101  1.00  0.00    -0.285 OA
ATOM      5  C   UNL     1     154.368 143.582 157.945  1.00  0.00     0.111 A 
ATOM      6  C   UNL     1     153.648 144.032 159.093  1.00  0.00     0.134 A 
ATOM      7  C   UNL     1     152.367 143.528 159.347  1.00  0.00     0.093 A 
ATOM      8  C   UNL     1     151.806 142.543 158.530  1.00  0.00     0.123 A 
ATOM      9  C   UNL     1     152.524 142.055 157.441  1.00  0.00     0.094 A 
ATOM     10  C   UNL     1     153.790 142.565 157.142  1.00  0.00     0.146 A 
ATOM     11  O   UNL     1     154.437 142.079 156.089  1.00  0.00    -0.452 OA
ENDROOT
BRANCH   1  12
ATOM     12  C   UNL     1     156.259 141.863 154.525  1.00  0.00     0.025 A 
ATOM     13  C   UNL     1     157.143 140.789 154.714  1.00  0.00     0.016 A 
ATOM     14  C   UNL     1     157.760 140.180 153.618  1.00  0.00     0.051 A 
ATOM     15  C   UNL     1     157.517 140.648 152.320  1.00  0.00     0.157 A 
ATOM     16  C   UNL     1     156.034 142.344 153.223  1.00  0.00     0.062 A 
ATOM     17  C   UNL     1     156.653 141.738 152.123  1.00  0.00     0.158 A 
BRANCH  15  18
ATOM     18  O   UNL     1     158.134 140.038 151.228  1.00  0.00    -0.504 OA
ATOM     19  H   UNL     1     159.120 139.808 151.236  1.00  0.00     0.293 HD
ENDBRANCH  15  18
BRANCH  17  20
ATOM     20  O   UNL     1     156.401 142.236 150.846  1.00  0.00    -0.504 OA
ATOM     21  H   UNL     1     156.793 143.113 150.523  1.00  0.00     0.293 HD
ENDBRANCH  17  20
ENDBRANCH   1  12
BRANCH   2  22
ATOM     22  O   UNL     1     157.468 144.082 155.944  1.00  0.00    -0.502 OA
ATOM     23  H   UNL     1     157.663 145.076 155.927  1.00  0.00     0.293 HD
ENDBRANCH   2  22
BRANCH   6  24
ATOM     24  O   UNL     1     154.155 144.943 160.024  1.00  0.00    -0.507 OA
ATOM     25  H   UNL     1     153.727 145.827 160.256  1.00  0.00     0.293 HD
ENDBRANCH   6  24
BRANCH   8  26
ATOM     26  O   UNL     1     150.536 142.035 158.798  1.00  0.00    -0.508 OA
ATOM     27  H   UNL     1     149.877 141.836 158.054  1.00  0.00     0.293 HD
ENDBRANCH   8  26
TORSDOF 6
ENDMDL
MODEL 6
REMARK VINA RESULT:    -4.553      4.105      9.122
REMARK INTER + INTRA:          -5.819
REMARK INTER:                  -5.500
REMARK INTRA:                  -0.319
REMARK UNBOUND:                -0.335
REMARK SMILES O=c1c(O)c(-c2ccc(O)c(O)c2)oc2cc(O)cc(O)c12
REMARK SMILES IDX 5 1 3 2 2 3 1 4 22 5 20 6 19 7 17 8 16 9 15 10 14 11 6 12
REMARK SMILES IDX 7 13 8 14 9 15 13 16 11 17 10 18 12 20 4 22 21 24 18 26
REMARK H PARENT 10 19 12 21 4 23 21 25 18 27
REMARK Flexibility Score: inf
ROOT
ATOM      1  C   UNL     1     141.977 145.207 155.158  1.00  0.00     0.180 A 
ATOM      2  C   UNL     1     143.084 144.821 155.933  1.00  0.00     0.208 A 
ATOM      3  C   UNL     1     143.539 145.679 156.947  1.00  0.00     0.238 A 
ATOM      4  O   UNL     1     144.563 145.352 157.601  1.00  0.00    -0.285 OA
ATOM      5  C   UNL     1     142.870 146.904 157.184  1.00  0.00     0.111 A 
ATOM      6  C   UNL     1     143.220 147.832 158.211  1.00  0.00     0.134 A 
ATOM      7  C   UNL     1     142.573 149.072 158.272  1.00  0.00     0.093 A 
ATOM      8  C   UNL     1     141.545 149.392 157.381  1.00  0.00     0.123 A 
ATOM      9  C   UNL     1     141.156 148.470 156.413  1.00  0.00     0.094 A 
ATOM     10  C   UNL     1     141.807 147.238 156.305  1.00  0.00     0.146 A 
ATOM     11  O   UNL     1     141.413 146.392 155.361  1.00  0.00    -0.452 OA
ENDROOT
BRANCH   1  12
ATOM     12  C   UNL     1     141.425 144.345 154.088  1.00  0.00     0.025 A 
ATOM     13  C   UNL     1     140.502 143.340 154.418  1.00  0.00     0.016 A 
ATOM     14  C   UNL     1     139.984 142.502 153.427  1.00  0.00     0.051 A 
ATOM     15  C   UNL     1     140.394 142.645 152.095  1.00  0.00     0.157 A 
ATOM     16  C   UNL     1     141.850 144.472 152.753  1.00  0.00     0.062 A 
ATOM     17  C   UNL     1     141.335 143.633 151.759  1.00  0.00     0.158 A 
BRANCH  15  18
ATOM     18  O   UNL     1     139.875 141.808 151.108  1.00  0.00    -0.504 OA
ATOM     19  H   UNL     1     139.757 140.814 151.263  1.00  0.00     0.293 HD
ENDBRANCH  15  18
BRANCH  17  20
ATOM     20  O   UNL     1     141.774 143.792 150.445  1.00  0.00    -0.504 OA
ATOM     21  H   UNL     1     142.756 143.761 150.198  1.00  0.00     0.293 HD
ENDBRANCH  17  20
ENDBRANCH   1  12
BRANCH   2  22
ATOM     22  O   UNL     1     143.742 143.617 155.668  1.00  0.00    -0.502 OA
ATOM     23  H   UNL     1     143.246 142.741 155.547  1.00  0.00     0.293 HD
ENDBRANCH   2  22
BRANCH   6  24
ATOM     24  O   UNL     1     144.167 147.574 159.206  1.00  0.00    -0.507 OA
ATOM     25  H   UNL     1     144.113 147.916 160.154  1.00  0.00     0.293 HD
ENDBRANCH   6  24
BRANCH   8  26
ATOM     26  O   UNL     1     140.895 150.622 157.457  1.00  0.00    -0.508 OA
ATOM     27  H   UNL     1     141.239 151.435 156.958  1.00  0.00     0.293 HD
ENDBRANCH   8  26
TORSDOF 6
ENDMDL
MODEL 7
REMARK VINA RESULT:    -4.481      4.017      9.382
REMARK INTER + INTRA:          -5.732
REMARK INTER:                  -5.405
REMARK INTRA:                  -0.327
REMARK UNBOUND:                -0.335
REMARK SMILES O=c1c(O)c(-c2ccc(O)c(O)c2)oc2cc(O)cc(O)c12
REMARK SMILES IDX 5 1 3 2 2 3 1 4 22 5 20 6 19 7 17 8 16 9 15 10 14 11 6 12
REMARK SMILES IDX 7 13 8 14 9 15 13 16 11 17 10 18 12 20 4 22 21 24 18 26
REMARK H PARENT 10 19 12 21 4 23 21 25 18 27
REMARK Flexibility Score: inf
ROOT
ATOM      1  C   UNL     1     141.972 145.210 155.126  1.00  0.00     0.180 A 
ATOM      2  C   UNL     1     141.551 146.539 155.305  1.00  0.00     0.208 A 
ATOM      3  C   UNL     1     142.130 147.303 156.332  1.00  0.00     0.238 A 
ATOM      4  O   UNL     1     141.711 148.474 156.522  1.00  0.00    -0.285 OA
ATOM      5  C   UNL     1     143.133 146.735 157.153  1.00  0.00     0.111 A 
ATOM      6  C   UNL     1     143.815 147.430 158.196  1.00  0.00     0.134 A 
ATOM      7  C   UNL     1     144.696 146.731 159.031  1.00  0.00     0.093 A 
ATOM      8  C   UNL     1     144.967 145.377 158.819  1.00  0.00     0.123 A 
ATOM      9  C   UNL     1     144.351 144.704 157.767  1.00  0.00     0.094 A 
ATOM     10  C   UNL     1     143.440 145.366 156.940  1.00  0.00     0.146 A 
ATOM     11  O   UNL     1     142.867 144.685 155.955  1.00  0.00    -0.452 OA
ENDROOT
BRANCH   1  12
ATOM     12  C   UNL     1     141.427 144.349 154.051  1.00  0.00     0.025 A 
ATOM     13  C   UNL     1     140.404 143.436 154.350  1.00  0.00     0.016 A 
ATOM     14  C   UNL     1     139.888 142.600 153.355  1.00  0.00     0.051 A 
ATOM     15  C   UNL     1     140.400 142.654 152.052  1.00  0.00     0.157 A 
ATOM     16  C   UNL     1     141.953 144.385 152.747  1.00  0.00     0.062 A 
ATOM     17  C   UNL     1     141.440 143.547 151.749  1.00  0.00     0.158 A 
BRANCH  15  18
ATOM     18  O   UNL     1     139.884 141.819 151.061  1.00  0.00    -0.504 OA
ATOM     19  H   UNL     1     140.273 141.801 150.127  1.00  0.00     0.293 HD
ENDBRANCH  15  18
BRANCH  17  20
ATOM     20  O   UNL     1     141.981 143.615 150.465  1.00  0.00    -0.504 OA
ATOM     21  H   UNL     1     142.508 142.849 150.062  1.00  0.00     0.293 HD
ENDBRANCH  17  20
ENDBRANCH   1  12
BRANCH   2  22
ATOM     22  O   UNL     1     140.545 147.073 154.497  1.00  0.00    -0.502 OA
ATOM     23  H   UNL     1     139.859 146.493 154.028  1.00  0.00     0.293 HD
ENDBRANCH   2  22
BRANCH   6  24
ATOM     24  O   UNL     1     143.687 148.801 158.434  1.00  0.00    -0.507 OA
ATOM     25  H   UNL     1     143.662 149.510 157.716  1.00  0.00     0.293 HD
ENDBRANCH   6  24
BRANCH   8  26
ATOM     26  O   UNL     1     145.857 144.692 159.644  1.00  0.00    -0.508 OA
ATOM     27  H   UNL     1     146.830 144.968 159.718  1.00  0.00     0.293 HD
ENDBRANCH   8  26
TORSDOF 6
ENDMDL
MODEL 8
REMARK VINA RESULT:    -4.453      5.636      9.749
REMARK INTER + INTRA:          -5.699
REMARK INTER:                  -5.461
REMARK INTRA:                  -0.238
REMARK UNBOUND:                -0.335
REMARK SMILES O=c1c(O)c(-c2ccc(O)c(O)c2)oc2cc(O)cc(O)c12
REMARK SMILES IDX 5 1 3 2 2 3 1 4 22 5 20 6 19 7 17 8 16 9 15 10 14 11 6 12
REMARK SMILES IDX 7 13 8 14 9 15 13 16 11 17 10 18 12 20 4 22 21 24 18 26
REMARK H PARENT 10 19 12 21 4 23 21 25 18 27
REMARK Flexibility Score: inf
ROOT
ATOM      1  C   UNL     1     147.174 141.866 143.710  1.00  0.00     0.180 A 
ATOM      2  C   UNL     1     146.471 142.917 143.097  1.00  0.00     0.208 A 
ATOM      3  C   UNL     1     145.169 143.213 143.536  1.00  0.00     0.238 A 
ATOM      4  O   UNL     1     144.525 144.120 142.947  1.00  0.00    -0.285 OA
ATOM      5  C   UNL     1     144.596 142.466 144.592  1.00  0.00     0.111 A 
ATOM      6  C   UNL     1     143.301 142.704 145.143  1.00  0.00     0.134 A 
ATOM      7  C   UNL     1     142.782 141.820 146.097  1.00  0.00     0.093 A 
ATOM      8  C   UNL     1     143.538 140.742 146.565  1.00  0.00     0.123 A 
ATOM      9  C   UNL     1     144.825 140.535 146.077  1.00  0.00     0.094 A 
ATOM     10  C   UNL     1     145.356 141.379 145.098  1.00  0.00     0.146 A 
ATOM     11  O   UNL     1     146.583 141.140 144.652  1.00  0.00    -0.452 OA
ENDROOT
BRANCH   1  12
ATOM     12  C   UNL     1     148.558 141.511 143.319  1.00  0.00     0.025 A 
ATOM     13  C   UNL     1     149.626 141.873 144.155  1.00  0.00     0.016 A 
ATOM     14  C   UNL     1     150.941 141.566 143.795  1.00  0.00     0.051 A 
ATOM     15  C   UNL     1     151.208 140.908 142.588  1.00  0.00     0.157 A 
ATOM     16  C   UNL     1     148.831 140.869 142.098  1.00  0.00     0.062 A 
ATOM     17  C   UNL     1     150.148 140.562 141.734  1.00  0.00     0.158 A 
BRANCH  15  18
ATOM     18  O   UNL     1     152.521 140.602 142.232  1.00  0.00    -0.504 OA
ATOM     19  H   UNL     1     153.156 140.154 142.882  1.00  0.00     0.293 HD
ENDBRANCH  15  18
BRANCH  17  20
ATOM     20  O   UNL     1     150.381 139.919 140.519  1.00  0.00    -0.504 OA
ATOM     21  H   UNL     1     150.129 140.337 139.631  1.00  0.00     0.293 HD
ENDBRANCH  17  20
ENDBRANCH   1  12
BRANCH   2  22
ATOM     22  O   UNL     1     147.048 143.629 142.042  1.00  0.00    -0.502 OA
ATOM     23  H   UNL     1     147.124 144.639 142.044  1.00  0.00     0.293 HD
ENDBRANCH   2  22
BRANCH   6  24
ATOM     24  O   UNL     1     142.502 143.803 144.812  1.00  0.00    -0.507 OA
ATOM     25  H   UNL     1     141.497 143.831 144.901  1.00  0.00     0.293 HD
ENDBRANCH   6  24
BRANCH   8  26
ATOM     26  O   UNL     1     143.021 139.875 147.527  1.00  0.00    -0.508 OA
ATOM     27  H   UNL     1     142.223 139.282 147.330  1.00  0.00     0.293 HD
ENDBRANCH   8  26
TORSDOF 6
ENDMDL
MODEL 9
REMARK VINA RESULT:    -4.420      1.667      7.224
REMARK INTER + INTRA:          -5.659
REMARK INTER:                  -5.397
REMARK INTRA:                  -0.263
REMARK UNBOUND:                -0.335
REMARK SMILES O=c1c(O)c(-c2ccc(O)c(O)c2)oc2cc(O)cc(O)c12
REMARK SMILES IDX 5 1 3 2 2 3 1 4 22 5 20 6 19 7 17 8 16 9 15 10 14 11 6 12
REMARK SMILES IDX 7 13 8 14 9 15 13 16 11 17 10 18 12 20 4 22 21 24 18 26
REMARK H PARENT 10 19 12 21 4 23 21 25 18 27
REMARK Flexibility Score: inf
ROOT
ATOM      1  C   UNL     1     142.254 142.231 150.678  1.00  0.00     0.180 A 
ATOM      2  C   UNL     1     141.024 142.278 151.355  1.00  0.00     0.208 A 
ATOM      3  C   UNL     1     140.977 142.832 152.645  1.00  0.00     0.238 A 
ATOM      4  O   UNL     1     139.883 142.822 153.267  1.00  0.00    -0.285 OA
ATOM      5  C   UNL     1     142.157 143.346 153.233  1.00  0.00     0.111 A 
ATOM      6  C   UNL     1     142.218 143.965 154.518  1.00  0.00     0.134 A 
ATOM      7  C   UNL     1     143.461 144.319 155.056  1.00  0.00     0.093 A 
ATOM      8  C   UNL     1     144.639 144.134 154.328  1.00  0.00     0.123 A 
ATOM      9  C   UNL     1     144.585 143.585 153.050  1.00  0.00     0.094 A 
ATOM     10  C   UNL     1     143.362 143.189 152.501  1.00  0.00     0.146 A 
ATOM     11  O   UNL     1     143.356 142.660 151.283  1.00  0.00    -0.452 OA
ENDROOT
BRANCH   1  12
ATOM     12  C   UNL     1     142.379 141.684 149.307  1.00  0.00     0.025 A 
ATOM     13  C   UNL     1     143.053 140.469 149.106  1.00  0.00     0.016 A 
ATOM     14  C   UNL     1     143.199 139.946 147.819  1.00  0.00     0.051 A 
ATOM     15  C   UNL     1     142.689 140.638 146.712  1.00  0.00     0.157 A 
ATOM     16  C   UNL     1     141.887 142.387 148.192  1.00  0.00     0.062 A 
ATOM     17  C   UNL     1     142.035 141.866 146.901  1.00  0.00     0.158 A 
BRANCH  15  18
ATOM     18  O   UNL     1     142.837 140.113 145.429  1.00  0.00    -0.504 OA
ATOM     19  H   UNL     1     142.876 140.711 144.612  1.00  0.00     0.293 HD
ENDBRANCH  15  18
BRANCH  17  20
ATOM     20  O   UNL     1     141.528 142.586 145.819  1.00  0.00    -0.504 OA
ATOM     21  H   UNL     1     142.128 143.110 145.193  1.00  0.00     0.293 HD
ENDBRANCH  17  20
ENDBRANCH   1  12
BRANCH   2  22
ATOM     22  O   UNL     1     139.875 141.746 150.763  1.00  0.00    -0.502 OA
ATOM     23  H   UNL     1     138.972 142.200 150.824  1.00  0.00     0.293 HD
ENDBRANCH   2  22
BRANCH   6  24
ATOM     24  O   UNL     1     141.094 144.278 155.288  1.00  0.00    -0.507 OA
ATOM     25  H   UNL     1     140.201 143.812 155.219  1.00  0.00     0.293 HD
ENDBRANCH   6  24
BRANCH   8  26
ATOM     26  O   UNL     1     145.872 144.504 154.864  1.00  0.00    -0.508 OA
ATOM     27  H   UNL     1     145.937 145.068 155.704  1.00  0.00     0.293 HD
ENDBRANCH   8  26
TORSDOF 6
ENDMDL
