MODEL 1
REMARK VINA RESULT:    27.591      0.000      0.000
REMARK INTER + INTRA:          33.521
REMARK INTER:                  33.236
REMARK INTRA:                   0.285
REMARK UNBOUND:                 0.285
REMARK SMILES Oc1cc(O)c2cc(O)c(-c3ccc(O)c(O)c3)[o+]c2c1
REMARK SMILES IDX 10 1 19 2 20 3 21 4 2 5 3 6 4 7 6 8 7 9 8 10 11 11 12 12
REMARK SMILES IDX 13 13 14 14 18 15 16 16 15 17 17 19 9 21 1 23 5 25
REMARK H PARENT 15 18 17 20 9 22 1 24 5 26
REMARK Flexibility Score: inf
ROOT
ATOM      1  C   UNL     1      10.476  11.239  30.602  1.00  0.00     0.402 A 
ATOM      2  O   UNL     1      10.339  11.784  29.396  1.00  0.00    -0.202 OA
ATOM      3  C   UNL     1      11.222  12.625  28.869  1.00  0.00     0.368 A 
ATOM      4  C   UNL     1      10.989  13.148  27.594  1.00  0.00     0.162 A 
ATOM      5  C   UNL     1      11.897  14.035  27.019  1.00  0.00     0.128 A 
ATOM      6  C   UNL     1      13.049  14.406  27.720  1.00  0.00     0.093 A 
ATOM      7  C   UNL     1      13.307  13.897  28.999  1.00  0.00     0.136 A 
ATOM      8  C   UNL     1      12.387  12.992  29.588  1.00  0.00     0.125 A 
ATOM      9  C   UNL     1      12.569  12.421  30.858  1.00  0.00     0.078 A 
ATOM     10  C   UNL     1      11.619  11.532  31.370  1.00  0.00     0.223 A 
ENDROOT
BRANCH   1  11
ATOM     11  C   UNL     1       9.417  10.322  31.082  1.00  0.00     0.087 A 
ATOM     12  C   UNL     1       8.101  10.491  30.626  1.00  0.00     0.022 A 
ATOM     13  C   UNL     1       7.081   9.650  31.082  1.00  0.00     0.051 A 
ATOM     14  C   UNL     1       7.361   8.640  32.011  1.00  0.00     0.157 A 
ATOM     15  C   UNL     1       9.690   9.321  32.032  1.00  0.00     0.068 A 
ATOM     16  C   UNL     1       8.667   8.478  32.490  1.00  0.00     0.158 A 
BRANCH  14  17
ATOM     17  O   UNL     1       6.348   7.799  32.467  1.00  0.00    -0.504 OA
ATOM     18  H   UNL     1       5.451   8.163  32.764  1.00  0.00     0.293 HD
ENDBRANCH  14  17
BRANCH  16  19
ATOM     19  O   UNL     1       8.940   7.482  33.425  1.00  0.00    -0.504 OA
ATOM     20  H   UNL     1       8.199   7.016  33.936  1.00  0.00     0.293 HD
ENDBRANCH  16  19
ENDBRANCH   1  11
BRANCH  10  21
ATOM     21  O   UNL     1      11.824  10.927  32.610  1.00  0.00    -0.500 OA
ATOM     22  H   UNL     1      11.332  11.234  33.441  1.00  0.00     0.294 HD
ENDBRANCH  10  21
BRANCH   5  23
ATOM     23  O   UNL     1      11.646  14.545  25.747  1.00  0.00    -0.507 OA
ATOM     24  H   UNL     1      10.837  14.257  25.210  1.00  0.00     0.293 HD
ENDBRANCH   5  23
BRANCH   7  25
ATOM     25  O   UNL     1      14.478  14.319  29.637  1.00  0.00    -0.507 OA
ATOM     26  H   UNL     1      14.692  14.145  30.608  1.00  0.00     0.293 HD
ENDBRANCH   7  25
TORSDOF 6
ENDMDL
MODEL 2
REMARK VINA RESULT:    27.714      1.686      2.767
REMARK INTER + INTRA:          33.670
REMARK INTER:                  34.023
REMARK INTRA:                  -0.353
REMARK UNBOUND:                 0.285
REMARK SMILES Oc1cc(O)c2cc(O)c(-c3ccc(O)c(O)c3)[o+]c2c1
REMARK SMILES IDX 10 1 19 2 20 3 21 4 2 5 3 6 4 7 6 8 7 9 8 10 11 11 12 12
REMARK SMILES IDX 13 13 14 14 18 15 16 16 15 17 17 19 9 21 1 23 5 25
REMARK H PARENT 15 18 17 20 9 22 1 24 5 26
REMARK Flexibility Score: inf
ROOT
ATOM      1  C   UNL     1      10.392  11.219  30.765  1.00  0.00     0.402 A 
ATOM      2  O   UNL     1      11.629  10.759  30.590  1.00  0.00    -0.202 OA
ATOM      3  C   UNL     1      12.580  11.443  29.963  1.00  0.00     0.368 A 
ATOM      4  C   UNL     1      13.849  10.874  29.826  1.00  0.00     0.162 A 
ATOM      5  C   UNL     1      14.866  11.567  29.171  1.00  0.00     0.128 A 
ATOM      6  C   UNL     1      14.616  12.840  28.647  1.00  0.00     0.093 A 
ATOM      7  C   UNL     1      13.353  13.433  28.771  1.00  0.00     0.136 A 
ATOM      8  C   UNL     1      12.316  12.732  29.439  1.00  0.00     0.125 A 
ATOM      9  C   UNL     1      11.025  13.252  29.623  1.00  0.00     0.078 A 
ATOM     10  C   UNL     1      10.056  12.503  30.297  1.00  0.00     0.223 A 
ENDROOT
BRANCH   1  11
ATOM     11  C   UNL     1       9.417  10.357  31.472  1.00  0.00     0.087 A 
ATOM     12  C   UNL     1       9.369  10.377  32.874  1.00  0.00     0.022 A 
ATOM     13  C   UNL     1       8.471   9.557  33.564  1.00  0.00     0.051 A 
ATOM     14  C   UNL     1       7.620   8.695  32.860  1.00  0.00     0.157 A 
ATOM     15  C   UNL     1       8.576   9.474  30.771  1.00  0.00     0.068 A 
ATOM     16  C   UNL     1       7.675   8.650  31.461  1.00  0.00     0.158 A 
BRANCH  14  17
ATOM     17  O   UNL     1       6.723   7.876  33.543  1.00  0.00    -0.504 OA
ATOM     18  H   UNL     1       5.721   7.979  33.431  1.00  0.00     0.293 HD
ENDBRANCH  14  17
BRANCH  16  19
ATOM     19  O   UNL     1       6.838   7.781  30.765  1.00  0.00    -0.504 OA
ATOM     20  H   UNL     1       5.888   8.040  30.522  1.00  0.00     0.293 HD
ENDBRANCH  16  19
ENDBRANCH   1  11
BRANCH  10  21
ATOM     21  O   UNL     1       8.788  13.039  30.522  1.00  0.00    -0.500 OA
ATOM     22  H   UNL     1       8.298  13.565  29.809  1.00  0.00     0.294 HD
ENDBRANCH  10  21
BRANCH   5  23
ATOM     23  O   UNL     1      16.124  10.983  29.044  1.00  0.00    -0.507 OA
ATOM     24  H   UNL     1      16.973  11.532  29.113  1.00  0.00     0.293 HD
ENDBRANCH   5  23
BRANCH   7  25
ATOM     25  O   UNL     1      13.181  14.706  28.218  1.00  0.00    -0.507 OA
ATOM     26  H   UNL     1      13.717  15.519  28.481  1.00  0.00     0.293 HD
ENDBRANCH   7  25
TORSDOF 6
ENDMDL
MODEL 3
REMARK VINA RESULT:    28.141      1.713      2.747
REMARK INTER + INTRA:          34.184
REMARK INTER:                  33.891
REMARK INTRA:                   0.293
REMARK UNBOUND:                 0.285
REMARK SMILES Oc1cc(O)c2cc(O)c(-c3ccc(O)c(O)c3)[o+]c2c1
REMARK SMILES IDX 10 1 19 2 20 3 21 4 2 5 3 6 4 7 6 8 7 9 8 10 11 11 12 12
REMARK SMILES IDX 13 13 14 14 18 15 16 16 15 17 17 19 9 21 1 23 5 25
REMARK H PARENT 15 18 17 20 9 22 1 24 5 26
REMARK Flexibility Score: inf
ROOT
ATOM      1  C   UNL     1      10.797  11.417  30.915  1.00  0.00     0.402 A 
ATOM      2  O   UNL     1      11.172  12.581  31.440  1.00  0.00    -0.202 OA
ATOM      3  C   UNL     1      12.094  13.366  30.892  1.00  0.00     0.368 A 
ATOM      4  C   UNL     1      12.423  14.570  31.520  1.00  0.00     0.162 A 
ATOM      5  C   UNL     1      13.388  15.412  30.968  1.00  0.00     0.128 A 
ATOM      6  C   UNL     1      14.033  15.050  29.780  1.00  0.00     0.093 A 
ATOM      7  C   UNL     1      13.721  13.849  29.131  1.00  0.00     0.136 A 
ATOM      8  C   UNL     1      12.738  12.991  29.687  1.00  0.00     0.125 A 
ATOM      9  C   UNL     1      12.352  11.775  29.100  1.00  0.00     0.078 A 
ATOM     10  C   UNL     1      11.370  10.984  29.705  1.00  0.00     0.223 A 
ENDROOT
BRANCH   1  11
ATOM     11  C   UNL     1       9.766  10.628  31.626  1.00  0.00     0.087 A 
ATOM     12  C   UNL     1       9.642  10.751  33.019  1.00  0.00     0.022 A 
ATOM     13  C   UNL     1       8.689  10.000  33.714  1.00  0.00     0.051 A 
ATOM     14  C   UNL     1       7.858   9.105  33.028  1.00  0.00     0.157 A 
ATOM     15  C   UNL     1       8.944   9.712  30.945  1.00  0.00     0.068 A 
ATOM     16  C   UNL     1       7.989   8.957  31.641  1.00  0.00     0.158 A 
BRANCH  14  17
ATOM     17  O   UNL     1       6.907   8.355  33.716  1.00  0.00    -0.504 OA
ATOM     18  H   UNL     1       6.232   8.792  34.333  1.00  0.00     0.293 HD
ENDBRANCH  14  17
BRANCH  16  19
ATOM     19  O   UNL     1       7.172   8.055  30.963  1.00  0.00    -0.504 OA
ATOM     20  H   UNL     1       6.225   8.297  30.693  1.00  0.00     0.293 HD
ENDBRANCH  16  19
ENDBRANCH   1  11
BRANCH  10  21
ATOM     21  O   UNL     1      10.951   9.801  29.096  1.00  0.00    -0.500 OA
ATOM     22  H   UNL     1      11.491   9.360  28.361  1.00  0.00     0.294 HD
ENDBRANCH  10  21
BRANCH   5  23
ATOM     23  O   UNL     1      13.703  16.608  31.609  1.00  0.00    -0.507 OA
ATOM     24  H   UNL     1      13.398  16.798  32.557  1.00  0.00     0.293 HD
ENDBRANCH   5  23
BRANCH   7  25
ATOM     25  O   UNL     1      14.411  13.556  27.951  1.00  0.00    -0.507 OA
ATOM     26  H   UNL     1      15.290  13.976  27.685  1.00  0.00     0.293 HD
ENDBRANCH   7  25
TORSDOF 6
ENDMDL
MODEL 4
REMARK VINA RESULT:    29.170      1.394      6.945
REMARK INTER + INTRA:          35.423
REMARK INTER:                  34.937
REMARK INTRA:                   0.486
REMARK UNBOUND:                 0.285
REMARK SMILES Oc1cc(O)c2cc(O)c(-c3ccc(O)c(O)c3)[o+]c2c1
REMARK SMILES IDX 10 1 19 2 20 3 21 4 2 5 3 6 4 7 6 8 7 9 8 10 11 11 12 12
REMARK SMILES IDX 13 13 14 14 18 15 16 16 15 17 17 19 9 21 1 23 5 25
REMARK H PARENT 15 18 17 20 9 22 1 24 5 26
REMARK Flexibility Score: inf
ROOT
ATOM      1  C   UNL     1      11.569  13.074  28.744  1.00  0.00     0.402 A 
ATOM      2  O   UNL     1      10.495  12.333  29.005  1.00  0.00    -0.202 OA
ATOM      3  C   UNL     1      10.352  11.620  30.117  1.00  0.00     0.368 A 
ATOM      4  C   UNL     1       9.187  10.870  30.300  1.00  0.00     0.162 A 
ATOM      5  C   UNL     1       9.012  10.110  31.456  1.00  0.00     0.128 A 
ATOM      6  C   UNL     1      10.007  10.097  32.439  1.00  0.00     0.093 A 
ATOM      7  C   UNL     1      11.184  10.840  32.281  1.00  0.00     0.136 A 
ATOM      8  C   UNL     1      11.365  11.616  31.107  1.00  0.00     0.125 A 
ATOM      9  C   UNL     1      12.504  12.402  30.869  1.00  0.00     0.078 A 
ATOM     10  C   UNL     1      12.609  13.145  29.688  1.00  0.00     0.223 A 
ENDROOT
BRANCH   1  11
ATOM     11  C   UNL     1      11.614  13.816  27.464  1.00  0.00     0.087 A 
ATOM     12  C   UNL     1      12.760  14.558  27.137  1.00  0.00     0.022 A 
ATOM     13  C   UNL     1      12.817  15.284  25.944  1.00  0.00     0.051 A 
ATOM     14  C   UNL     1      11.724  15.289  25.068  1.00  0.00     0.157 A 
ATOM     15  C   UNL     1      10.511  13.842  26.591  1.00  0.00     0.068 A 
ATOM     16  C   UNL     1      10.567  14.571  25.395  1.00  0.00     0.158 A 
BRANCH  14  17
ATOM     17  O   UNL     1      11.777  16.010  23.877  1.00  0.00    -0.504 OA
ATOM     18  H   UNL     1      11.201  15.762  23.081  1.00  0.00     0.293 HD
ENDBRANCH  14  17
BRANCH  16  19
ATOM     19  O   UNL     1       9.476  14.590  24.529  1.00  0.00    -0.504 OA
ATOM     20  H   UNL     1       8.932  13.755  24.341  1.00  0.00     0.293 HD
ENDBRANCH  16  19
ENDBRANCH   1  11
BRANCH  10  21
ATOM     21  O   UNL     1      13.718  13.964  29.474  1.00  0.00    -0.500 OA
ATOM     22  H   UNL     1      14.149  14.049  28.561  1.00  0.00     0.294 HD
ENDBRANCH  10  21
BRANCH   5  23
ATOM     23  O   UNL     1       7.844   9.369  31.620  1.00  0.00    -0.507 OA
ATOM     24  H   UNL     1       7.208   9.544  32.389  1.00  0.00     0.293 HD
ENDBRANCH   5  23
BRANCH   7  25
ATOM     25  O   UNL     1      12.132  10.772  33.306  1.00  0.00    -0.507 OA
ATOM     26  H   UNL     1      13.046  11.198  33.267  1.00  0.00     0.293 HD
ENDBRANCH   7  25
TORSDOF 6
ENDMDL
