MODEL 1
REMARK VINA RESULT:    -7.534      0.000      0.000
REMARK INTER + INTRA:          -9.394
REMARK INTER:                  -9.075
REMARK INTRA:                  -0.319
REMARK UNBOUND:                -0.319
REMARK SMILES Oc1cc(O)c2cc(O)c(-c3ccc(O)c(O)c3)[o+]c2c1
REMARK SMILES IDX 10 1 19 2 20 3 21 4 2 5 3 6 4 7 6 8 7 9 8 10 11 11 12 12
REMARK SMILES IDX 13 13 14 14 18 15 16 16 15 17 17 19 9 21 1 23 5 25
REMARK H PARENT 15 18 17 20 9 22 1 24 5 26
REMARK Flexibility Score: inf
ROOT
ATOM      1  C   UNL     1     -17.882  12.087 -35.211  1.00  0.00     0.402 A 
ATOM      2  O   UNL     1     -18.923  11.265 -35.102  1.00  0.00    -0.202 OA
ATOM      3  C   UNL     1     -19.635  10.848 -36.144  1.00  0.00     0.368 A 
ATOM      4  C   UNL     1     -20.710   9.980 -35.930  1.00  0.00     0.162 A 
ATOM      5  C   UNL     1     -21.473   9.525 -37.005  1.00  0.00     0.128 A 
ATOM      6  C   UNL     1     -21.161   9.936 -38.306  1.00  0.00     0.093 A 
ATOM      7  C   UNL     1     -20.088  10.803 -38.547  1.00  0.00     0.136 A 
ATOM      8  C   UNL     1     -19.311  11.272 -37.455  1.00  0.00     0.125 A 
ATOM      9  C   UNL     1     -18.228  12.153 -37.600  1.00  0.00     0.078 A 
ATOM     10  C   UNL     1     -17.512  12.575 -36.477  1.00  0.00     0.223 A 
ENDROOT
BRANCH   1  11
ATOM     11  C   UNL     1     -17.162  12.471 -33.975  1.00  0.00     0.087 A 
ATOM     12  C   UNL     1     -15.937  11.857 -33.671  1.00  0.00     0.022 A 
ATOM     13  C   UNL     1     -15.231  12.219 -32.520  1.00  0.00     0.051 A 
ATOM     14  C   UNL     1     -15.729  13.208 -31.666  1.00  0.00     0.157 A 
ATOM     15  C   UNL     1     -17.652  13.480 -33.126  1.00  0.00     0.068 A 
ATOM     16  C   UNL     1     -16.942  13.846 -31.972  1.00  0.00     0.158 A 
BRANCH  14  17
ATOM     17  O   UNL     1     -15.003  13.545 -30.525  1.00  0.00    -0.504 OA
ATOM     18  H   UNL     1     -13.998  13.667 -30.543  1.00  0.00     0.293 HD
ENDBRANCH  14  17
BRANCH  16  19
ATOM     19  O   UNL     1     -17.437  14.843 -31.132  1.00  0.00    -0.504 OA
ATOM     20  H   UNL     1     -16.911  15.172 -30.332  1.00  0.00     0.293 HD
ENDBRANCH  16  19
ENDBRANCH   1  11
BRANCH  10  21
ATOM     21  O   UNL     1     -16.467  13.490 -36.615  1.00  0.00    -0.500 OA
ATOM     22  H   UNL     1     -16.557  14.318 -37.193  1.00  0.00     0.294 HD
ENDBRANCH  10  21
BRANCH   5  23
ATOM     23  O   UNL     1     -22.541   8.661 -36.771  1.00  0.00    -0.507 OA
ATOM     24  H   UNL     1     -23.190   8.408 -37.508  1.00  0.00     0.293 HD
ENDBRANCH   5  23
BRANCH   7  25
ATOM     25  O   UNL     1     -19.838  11.165 -39.874  1.00  0.00    -0.507 OA
ATOM     26  H   UNL     1     -20.539  11.514 -40.511  1.00  0.00     0.293 HD
ENDBRANCH   7  25
TORSDOF 6
ENDMDL
MODEL 2
REMARK VINA RESULT:    -7.261      1.047      1.674
REMARK INTER + INTRA:          -9.066
REMARK INTER:                  -8.801
REMARK INTRA:                  -0.265
REMARK UNBOUND:                -0.319
REMARK SMILES Oc1cc(O)c2cc(O)c(-c3ccc(O)c(O)c3)[o+]c2c1
REMARK SMILES IDX 10 1 19 2 20 3 21 4 2 5 3 6 4 7 6 8 7 9 8 10 11 11 12 12
REMARK SMILES IDX 13 13 14 14 18 15 16 16 15 17 17 19 9 21 1 23 5 25
REMARK H PARENT 15 18 17 20 9 22 1 24 5 26
REMARK Flexibility Score: inf
ROOT
ATOM      1  C   UNL     1     -18.428  12.487 -35.476  1.00  0.00     0.402 A 
ATOM      2  O   UNL     1     -19.216  11.416 -35.526  1.00  0.00    -0.202 OA
ATOM      3  C   UNL     1     -19.942  11.094 -36.593  1.00  0.00     0.368 A 
ATOM      4  C   UNL     1     -20.738   9.946 -36.552  1.00  0.00     0.162 A 
ATOM      5  C   UNL     1     -21.507   9.582 -37.657  1.00  0.00     0.128 A 
ATOM      6  C   UNL     1     -21.482  10.369 -38.814  1.00  0.00     0.093 A 
ATOM      7  C   UNL     1     -20.691  11.523 -38.881  1.00  0.00     0.136 A 
ATOM      8  C   UNL     1     -19.910  11.898 -37.757  1.00  0.00     0.125 A 
ATOM      9  C   UNL     1     -19.100  13.045 -37.729  1.00  0.00     0.078 A 
ATOM     10  C   UNL     1     -18.360  13.353 -36.583  1.00  0.00     0.223 A 
ENDROOT
BRANCH   1  11
ATOM     11  C   UNL     1     -17.661  12.734 -34.233  1.00  0.00     0.087 A 
ATOM     12  C   UNL     1     -18.071  13.754 -33.361  1.00  0.00     0.022 A 
ATOM     13  C   UNL     1     -17.374  13.992 -32.173  1.00  0.00     0.051 A 
ATOM     14  C   UNL     1     -16.270  13.205 -31.832  1.00  0.00     0.157 A 
ATOM     15  C   UNL     1     -16.563  11.931 -33.879  1.00  0.00     0.068 A 
ATOM     16  C   UNL     1     -15.864  12.166 -32.685  1.00  0.00     0.158 A 
BRANCH  14  17
ATOM     17  O   UNL     1     -15.593  13.468 -30.641  1.00  0.00    -0.504 OA
ATOM     18  H   UNL     1     -14.864  12.858 -30.291  1.00  0.00     0.293 HD
ENDBRANCH  14  17
BRANCH  16  19
ATOM     19  O   UNL     1     -14.771  11.370 -32.344  1.00  0.00    -0.504 OA
ATOM     20  H   UNL     1     -13.961  11.754 -31.873  1.00  0.00     0.293 HD
ENDBRANCH  16  19
ENDBRANCH   1  11
BRANCH  10  21
ATOM     21  O   UNL     1     -17.594  14.518 -36.536  1.00  0.00    -0.500 OA
ATOM     22  H   UNL     1     -17.364  14.970 -35.659  1.00  0.00     0.294 HD
ENDBRANCH  10  21
BRANCH   5  23
ATOM     23  O   UNL     1     -22.295   8.435 -37.597  1.00  0.00    -0.507 OA
ATOM     24  H   UNL     1     -22.630   8.066 -36.714  1.00  0.00     0.293 HD
ENDBRANCH   5  23
BRANCH   7  25
ATOM     25  O   UNL     1     -20.717  12.253 -40.072  1.00  0.00    -0.507 OA
ATOM     26  H   UNL     1     -20.775  11.842 -40.992  1.00  0.00     0.293 HD
ENDBRANCH   7  25
TORSDOF 6
ENDMDL
MODEL 3
REMARK VINA RESULT:    -7.058      9.176     10.918
REMARK INTER + INTRA:          -8.822
REMARK INTER:                  -8.628
REMARK INTRA:                  -0.194
REMARK UNBOUND:                -0.319
REMARK SMILES Oc1cc(O)c2cc(O)c(-c3ccc(O)c(O)c3)[o+]c2c1
REMARK SMILES IDX 10 1 19 2 20 3 21 4 2 5 3 6 4 7 6 8 7 9 8 10 11 11 12 12
REMARK SMILES IDX 13 13 14 14 18 15 16 16 15 17 17 19 9 21 1 23 5 25
REMARK H PARENT 15 18 17 20 9 22 1 24 5 26
REMARK Flexibility Score: inf
ROOT
ATOM      1  C   UNL     1     -24.964  18.160 -38.512  1.00  0.00     0.402 A 
ATOM      2  O   UNL     1     -25.603  17.024 -38.779  1.00  0.00    -0.202 OA
ATOM      3  C   UNL     1     -26.010  16.177 -37.838  1.00  0.00     0.368 A 
ATOM      4  C   UNL     1     -26.679  15.010 -38.217  1.00  0.00     0.162 A 
ATOM      5  C   UNL     1     -27.119  14.105 -37.251  1.00  0.00     0.128 A 
ATOM      6  C   UNL     1     -26.893  14.367 -35.895  1.00  0.00     0.093 A 
ATOM      7  C   UNL     1     -26.227  15.531 -35.489  1.00  0.00     0.136 A 
ATOM      8  C   UNL     1     -25.774  16.452 -36.470  1.00  0.00     0.125 A 
ATOM      9  C   UNL     1     -25.086  17.635 -36.157  1.00  0.00     0.078 A 
ATOM     10  C   UNL     1     -24.667  18.494 -37.178  1.00  0.00     0.223 A 
ENDROOT
BRANCH   1  11
ATOM     11  C   UNL     1     -24.570  19.025 -39.648  1.00  0.00     0.087 A 
ATOM     12  C   UNL     1     -25.114  20.315 -39.753  1.00  0.00     0.022 A 
ATOM     13  C   UNL     1     -24.742  21.156 -40.806  1.00  0.00     0.051 A 
ATOM     14  C   UNL     1     -23.811  20.727 -41.758  1.00  0.00     0.157 A 
ATOM     15  C   UNL     1     -23.620  18.603 -40.594  1.00  0.00     0.068 A 
ATOM     16  C   UNL     1     -23.244  19.447 -41.650  1.00  0.00     0.158 A 
BRANCH  14  17
ATOM     17  O   UNL     1     -23.462  21.588 -42.798  1.00  0.00    -0.504 OA
ATOM     18  H   UNL     1     -24.130  21.878 -43.502  1.00  0.00     0.293 HD
ENDBRANCH  14  17
BRANCH  16  19
ATOM     19  O   UNL     1     -22.305  19.019 -42.589  1.00  0.00    -0.504 OA
ATOM     20  H   UNL     1     -22.006  19.617 -43.350  1.00  0.00     0.293 HD
ENDBRANCH  16  19
ENDBRANCH   1  11
BRANCH  10  21
ATOM     21  O   UNL     1     -23.940  19.644 -36.871  1.00  0.00    -0.500 OA
ATOM     22  H   UNL     1     -23.185  19.971 -37.463  1.00  0.00     0.294 HD
ENDBRANCH  10  21
BRANCH   5  23
ATOM     23  O   UNL     1     -27.783  12.946 -37.648  1.00  0.00    -0.507 OA
ATOM     24  H   UNL     1     -28.658  12.663 -37.222  1.00  0.00     0.293 HD
ENDBRANCH   5  23
BRANCH   7  25
ATOM     25  O   UNL     1     -26.043  15.722 -34.117  1.00  0.00    -0.507 OA
ATOM     26  H   UNL     1     -26.541  16.403 -33.564  1.00  0.00     0.293 HD
ENDBRANCH   7  25
TORSDOF 6
ENDMDL
MODEL 4
REMARK VINA RESULT:    -6.991      1.778      3.158
REMARK INTER + INTRA:          -8.740
REMARK INTER:                  -8.592
REMARK INTRA:                  -0.148
REMARK UNBOUND:                -0.319
REMARK SMILES Oc1cc(O)c2cc(O)c(-c3ccc(O)c(O)c3)[o+]c2c1
REMARK SMILES IDX 10 1 19 2 20 3 21 4 2 5 3 6 4 7 6 8 7 9 8 10 11 11 12 12
REMARK SMILES IDX 13 13 14 14 18 15 16 16 15 17 17 19 9 21 1 23 5 25
REMARK H PARENT 15 18 17 20 9 22 1 24 5 26
REMARK Flexibility Score: inf
ROOT
ATOM      1  C   UNL     1     -19.274  12.490 -34.552  1.00  0.00     0.402 A 
ATOM      2  O   UNL     1     -18.944  12.389 -35.837  1.00  0.00    -0.202 OA
ATOM      3  C   UNL     1     -19.829  12.153 -36.801  1.00  0.00     0.368 A 
ATOM      4  C   UNL     1     -19.386  12.068 -38.124  1.00  0.00     0.162 A 
ATOM      5  C   UNL     1     -20.292  11.825 -39.155  1.00  0.00     0.128 A 
ATOM      6  C   UNL     1     -21.653  11.667 -38.867  1.00  0.00     0.093 A 
ATOM      7  C   UNL     1     -22.121  11.749 -37.549  1.00  0.00     0.136 A 
ATOM      8  C   UNL     1     -21.201  11.993 -36.496  1.00  0.00     0.125 A 
ATOM      9  C   UNL     1     -21.579  12.077 -35.147  1.00  0.00     0.078 A 
ATOM     10  C   UNL     1     -20.615  12.317 -34.163  1.00  0.00     0.223 A 
ENDROOT
BRANCH   1  11
ATOM     11  C   UNL     1     -18.198  12.765 -33.572  1.00  0.00     0.087 A 
ATOM     12  C   UNL     1     -18.274  13.913 -32.767  1.00  0.00     0.022 A 
ATOM     13  C   UNL     1     -17.279  14.182 -31.823  1.00  0.00     0.051 A 
ATOM     14  C   UNL     1     -16.205  13.302 -31.657  1.00  0.00     0.157 A 
ATOM     15  C   UNL     1     -17.128  11.871 -33.390  1.00  0.00     0.068 A 
ATOM     16  C   UNL     1     -16.130  12.138 -32.440  1.00  0.00     0.158 A 
BRANCH  14  17
ATOM     17  O   UNL     1     -15.228  13.598 -30.709  1.00  0.00    -0.504 OA
ATOM     18  H   UNL     1     -15.215  13.162 -29.794  1.00  0.00     0.293 HD
ENDBRANCH  14  17
BRANCH  16  19
ATOM     19  O   UNL     1     -15.068  11.250 -32.270  1.00  0.00    -0.504 OA
ATOM     20  H   UNL     1     -14.111  11.526 -32.454  1.00  0.00     0.293 HD
ENDBRANCH  16  19
ENDBRANCH   1  11
BRANCH  10  21
ATOM     21  O   UNL     1     -20.982  12.351 -32.817  1.00  0.00    -0.500 OA
ATOM     22  H   UNL     1     -21.192  11.505 -32.301  1.00  0.00     0.294 HD
ENDBRANCH  10  21
BRANCH   5  23
ATOM     23  O   UNL     1     -19.832  11.742 -40.468  1.00  0.00    -0.507 OA
ATOM     24  H   UNL     1     -20.004  10.924 -41.041  1.00  0.00     0.293 HD
ENDBRANCH   5  23
BRANCH   7  25
ATOM     25  O   UNL     1     -23.494  11.583 -37.343  1.00  0.00    -0.507 OA
ATOM     26  H   UNL     1     -23.909  11.295 -36.469  1.00  0.00     0.293 HD
ENDBRANCH   7  25
TORSDOF 6
ENDMDL
MODEL 5
REMARK VINA RESULT:    -6.895      1.496      7.152
REMARK INTER + INTRA:          -8.625
REMARK INTER:                  -8.278
REMARK INTRA:                  -0.347
REMARK UNBOUND:                -0.319
REMARK SMILES Oc1cc(O)c2cc(O)c(-c3ccc(O)c(O)c3)[o+]c2c1
REMARK SMILES IDX 10 1 19 2 20 3 21 4 2 5 3 6 4 7 6 8 7 9 8 10 11 11 12 12
REMARK SMILES IDX 13 13 14 14 18 15 16 16 15 17 17 19 9 21 1 23 5 25
REMARK H PARENT 15 18 17 20 9 22 1 24 5 26
REMARK Flexibility Score: inf
ROOT
ATOM      1  C   UNL     1     -19.305  12.060 -35.134  1.00  0.00     0.402 A 
ATOM      2  O   UNL     1     -18.005  11.778 -35.106  1.00  0.00    -0.202 OA
ATOM      3  C   UNL     1     -17.184  12.220 -34.159  1.00  0.00     0.368 A 
ATOM      4  C   UNL     1     -15.833  11.867 -34.212  1.00  0.00     0.162 A 
ATOM      5  C   UNL     1     -14.949  12.313 -33.230  1.00  0.00     0.128 A 
ATOM      6  C   UNL     1     -15.416  13.117 -32.184  1.00  0.00     0.093 A 
ATOM      7  C   UNL     1     -16.766  13.484 -32.107  1.00  0.00     0.136 A 
ATOM      8  C   UNL     1     -17.667  13.034 -33.107  1.00  0.00     0.125 A 
ATOM      9  C   UNL     1     -19.032  13.363 -33.119  1.00  0.00     0.078 A 
ATOM     10  C   UNL     1     -19.860  12.886 -34.140  1.00  0.00     0.223 A 
ENDROOT
BRANCH   1  11
ATOM     11  C   UNL     1     -20.119  11.500 -36.238  1.00  0.00     0.087 A 
ATOM     12  C   UNL     1     -20.094  12.121 -37.497  1.00  0.00     0.022 A 
ATOM     13  C   UNL     1     -20.839  11.599 -38.559  1.00  0.00     0.051 A 
ATOM     14  C   UNL     1     -21.604  10.442 -38.383  1.00  0.00     0.157 A 
ATOM     15  C   UNL     1     -20.873  10.326 -36.069  1.00  0.00     0.068 A 
ATOM     16  C   UNL     1     -21.619   9.798 -37.135  1.00  0.00     0.158 A 
BRANCH  14  17
ATOM     17  O   UNL     1     -22.338   9.946 -39.460  1.00  0.00    -0.504 OA
ATOM     18  H   UNL     1     -23.216  10.361 -39.749  1.00  0.00     0.293 HD
ENDBRANCH  14  17
BRANCH  16  19
ATOM     19  O   UNL     1     -22.369   8.637 -36.957  1.00  0.00    -0.504 OA
ATOM     20  H   UNL     1     -22.930   8.489 -36.127  1.00  0.00     0.293 HD
ENDBRANCH  16  19
ENDBRANCH   1  11
BRANCH  10  21
ATOM     21  O   UNL     1     -21.205  13.253 -34.179  1.00  0.00    -0.500 OA
ATOM     22  H   UNL     1     -21.631  13.625 -35.020  1.00  0.00     0.294 HD
ENDBRANCH  10  21
BRANCH   5  23
ATOM     23  O   UNL     1     -13.605  11.952 -33.300  1.00  0.00    -0.507 OA
ATOM     24  H   UNL     1     -13.293  11.178 -33.876  1.00  0.00     0.293 HD
ENDBRANCH   5  23
BRANCH   7  25
ATOM     25  O   UNL     1     -17.155  14.286 -31.031  1.00  0.00    -0.507 OA
ATOM     26  H   UNL     1     -18.021  14.181 -30.525  1.00  0.00     0.293 HD
ENDBRANCH   7  25
TORSDOF 6
ENDMDL
MODEL 6
REMARK VINA RESULT:    -6.828      2.166      3.364
REMARK INTER + INTRA:          -8.544
REMARK INTER:                  -8.316
REMARK INTRA:                  -0.227
REMARK UNBOUND:                -0.319
REMARK SMILES Oc1cc(O)c2cc(O)c(-c3ccc(O)c(O)c3)[o+]c2c1
REMARK SMILES IDX 10 1 19 2 20 3 21 4 2 5 3 6 4 7 6 8 7 9 8 10 11 11 12 12
REMARK SMILES IDX 13 13 14 14 18 15 16 16 15 17 17 19 9 21 1 23 5 25
REMARK H PARENT 15 18 17 20 9 22 1 24 5 26
REMARK Flexibility Score: inf
ROOT
ATOM      1  C   UNL     1     -19.545  11.183 -35.964  1.00  0.00     0.402 A 
ATOM      2  O   UNL     1     -20.223  12.155 -36.569  1.00  0.00    -0.202 OA
ATOM      3  C   UNL     1     -21.088  11.935 -37.554  1.00  0.00     0.368 A 
ATOM      4  C   UNL     1     -21.757  13.021 -38.126  1.00  0.00     0.162 A 
ATOM      5  C   UNL     1     -22.673  12.820 -39.158  1.00  0.00     0.128 A 
ATOM      6  C   UNL     1     -22.927  11.525 -39.624  1.00  0.00     0.093 A 
ATOM      7  C   UNL     1     -22.271  10.420 -39.066  1.00  0.00     0.136 A 
ATOM      8  C   UNL     1     -21.335  10.621 -38.018  1.00  0.00     0.125 A 
ATOM      9  C   UNL     1     -20.622   9.576 -37.410  1.00  0.00     0.078 A 
ATOM     10  C   UNL     1     -19.713   9.851 -36.384  1.00  0.00     0.223 A 
ENDROOT
BRANCH   1  11
ATOM     11  C   UNL     1     -18.615  11.554 -34.872  1.00  0.00     0.087 A 
ATOM     12  C   UNL     1     -19.134  11.988 -33.641  1.00  0.00     0.022 A 
ATOM     13  C   UNL     1     -18.276  12.325 -32.591  1.00  0.00     0.051 A 
ATOM     14  C   UNL     1     -16.891  12.217 -32.748  1.00  0.00     0.157 A 
ATOM     15  C   UNL     1     -17.223  11.428 -35.021  1.00  0.00     0.068 A 
ATOM     16  C   UNL     1     -16.360  11.763 -33.966  1.00  0.00     0.158 A 
BRANCH  14  17
ATOM     17  O   UNL     1     -16.060  12.563 -31.682  1.00  0.00    -0.504 OA
ATOM     18  H   UNL     1     -16.428  12.795 -30.767  1.00  0.00     0.293 HD
ENDBRANCH  14  17
BRANCH  16  19
ATOM     19  O   UNL     1     -14.980  11.642 -34.124  1.00  0.00    -0.504 OA
ATOM     20  H   UNL     1     -14.553  10.766 -34.402  1.00  0.00     0.293 HD
ENDBRANCH  16  19
ENDBRANCH   1  11
BRANCH  10  21
ATOM     21  O   UNL     1     -18.967   8.819 -35.814  1.00  0.00    -0.500 OA
ATOM     22  H   UNL     1     -18.011   8.635 -36.093  1.00  0.00     0.294 HD
ENDBRANCH  10  21
BRANCH   5  23
ATOM     23  O   UNL     1     -23.329  13.915 -39.717  1.00  0.00    -0.507 OA
ATOM     24  H   UNL     1     -22.910  14.462 -40.461  1.00  0.00     0.293 HD
ENDBRANCH   5  23
BRANCH   7  25
ATOM     25  O   UNL     1     -22.581   9.159 -39.584  1.00  0.00    -0.507 OA
ATOM     26  H   UNL     1     -23.499   8.741 -39.557  1.00  0.00     0.293 HD
ENDBRANCH   7  25
TORSDOF 6
ENDMDL
MODEL 7
REMARK VINA RESULT:    -6.761      8.910     10.442
REMARK INTER + INTRA:          -8.463
REMARK INTER:                  -8.124
REMARK INTRA:                  -0.339
REMARK UNBOUND:                -0.319
REMARK SMILES Oc1cc(O)c2cc(O)c(-c3ccc(O)c(O)c3)[o+]c2c1
REMARK SMILES IDX 10 1 19 2 20 3 21 4 2 5 3 6 4 7 6 8 7 9 8 10 11 11 12 12
REMARK SMILES IDX 13 13 14 14 18 15 16 16 15 17 17 19 9 21 1 23 5 25
REMARK H PARENT 15 18 17 20 9 22 1 24 5 26
REMARK Flexibility Score: inf
ROOT
ATOM      1  C   UNL     1     -24.585  17.945 -39.110  1.00  0.00     0.402 A 
ATOM      2  O   UNL     1     -24.538  16.636 -39.344  1.00  0.00    -0.202 OA
ATOM      3  C   UNL     1     -25.344  15.760 -38.751  1.00  0.00     0.368 A 
ATOM      4  C   UNL     1     -25.222  14.404 -39.065  1.00  0.00     0.162 A 
ATOM      5  C   UNL     1     -26.055  13.463 -38.461  1.00  0.00     0.128 A 
ATOM      6  C   UNL     1     -27.021  13.877 -37.537  1.00  0.00     0.093 A 
ATOM      7  C   UNL     1     -27.164  15.231 -37.207  1.00  0.00     0.136 A 
ATOM      8  C   UNL     1     -26.315  16.191 -37.817  1.00  0.00     0.125 A 
ATOM      9  C   UNL     1     -26.378  17.566 -37.537  1.00  0.00     0.078 A 
ATOM     10  C   UNL     1     -25.506  18.452 -38.175  1.00  0.00     0.223 A 
ENDROOT
BRANCH   1  11
ATOM     11  C   UNL     1     -23.641  18.821 -39.842  1.00  0.00     0.087 A 
ATOM     12  C   UNL     1     -22.301  18.888 -39.427  1.00  0.00     0.022 A 
ATOM     13  C   UNL     1     -21.388  19.693 -40.114  1.00  0.00     0.051 A 
ATOM     14  C   UNL     1     -21.794  20.427 -41.233  1.00  0.00     0.157 A 
ATOM     15  C   UNL     1     -24.043  19.545 -40.978  1.00  0.00     0.068 A 
ATOM     16  C   UNL     1     -23.126  20.351 -41.670  1.00  0.00     0.158 A 
BRANCH  14  17
ATOM     17  O   UNL     1     -20.861  21.223 -41.896  1.00  0.00    -0.504 OA
ATOM     18  H   UNL     1     -21.096  22.138 -42.260  1.00  0.00     0.293 HD
ENDBRANCH  14  17
BRANCH  16  19
ATOM     19  O   UNL     1     -23.534  21.071 -42.793  1.00  0.00    -0.504 OA
ATOM     20  H   UNL     1     -23.081  21.936 -43.061  1.00  0.00     0.293 HD
ENDBRANCH  16  19
ENDBRANCH   1  11
BRANCH  10  21
ATOM     21  O   UNL     1     -25.534  19.811 -37.859  1.00  0.00    -0.500 OA
ATOM     22  H   UNL     1     -25.027  20.496 -38.408  1.00  0.00     0.294 HD
ENDBRANCH  10  21
BRANCH   5  23
ATOM     23  O   UNL     1     -25.918  12.115 -38.786  1.00  0.00    -0.507 OA
ATOM     24  H   UNL     1     -25.092  11.588 -38.525  1.00  0.00     0.293 HD
ENDBRANCH   5  23
BRANCH   7  25
ATOM     25  O   UNL     1     -28.154  15.566 -36.277  1.00  0.00    -0.507 OA
ATOM     26  H   UNL     1     -28.459  14.963 -35.528  1.00  0.00     0.293 HD
ENDBRANCH   7  25
TORSDOF 6
ENDMDL
MODEL 8
REMARK VINA RESULT:    -6.594      8.928     11.334
REMARK INTER + INTRA:          -8.262
REMARK INTER:                  -8.002
REMARK INTRA:                  -0.260
REMARK UNBOUND:                -0.319
REMARK SMILES Oc1cc(O)c2cc(O)c(-c3ccc(O)c(O)c3)[o+]c2c1
REMARK SMILES IDX 10 1 19 2 20 3 21 4 2 5 3 6 4 7 6 8 7 9 8 10 11 11 12 12
REMARK SMILES IDX 13 13 14 14 18 15 16 16 15 17 17 19 9 21 1 23 5 25
REMARK H PARENT 15 18 17 20 9 22 1 24 5 26
REMARK Flexibility Score: inf
ROOT
ATOM      1  C   UNL     1     -24.788  17.760 -38.374  1.00  0.00     0.402 A 
ATOM      2  O   UNL     1     -24.750  18.308 -39.586  1.00  0.00    -0.202 OA
ATOM      3  C   UNL     1     -24.098  19.434 -39.857  1.00  0.00     0.368 A 
ATOM      4  C   UNL     1     -24.113  19.931 -41.163  1.00  0.00     0.162 A 
ATOM      5  C   UNL     1     -23.435  21.109 -41.476  1.00  0.00     0.128 A 
ATOM      6  C   UNL     1     -22.734  21.797 -40.480  1.00  0.00     0.093 A 
ATOM      7  C   UNL     1     -22.702  21.319 -39.163  1.00  0.00     0.136 A 
ATOM      8  C   UNL     1     -23.394  20.122 -38.840  1.00  0.00     0.125 A 
ATOM      9  C   UNL     1     -23.429  19.577 -37.546  1.00  0.00     0.078 A 
ATOM     10  C   UNL     1     -24.136  18.396 -37.302  1.00  0.00     0.223 A 
ENDROOT
BRANCH   1  11
ATOM     11  C   UNL     1     -25.541  16.496 -38.201  1.00  0.00     0.087 A 
ATOM     12  C   UNL     1     -26.782  16.517 -37.544  1.00  0.00     0.022 A 
ATOM     13  C   UNL     1     -27.519  15.340 -37.386  1.00  0.00     0.051 A 
ATOM     14  C   UNL     1     -27.037  14.131 -37.896  1.00  0.00     0.157 A 
ATOM     15  C   UNL     1     -25.068  15.283 -38.730  1.00  0.00     0.068 A 
ATOM     16  C   UNL     1     -25.808  14.101 -38.575  1.00  0.00     0.158 A 
BRANCH  14  17
ATOM     17  O   UNL     1     -27.794  12.973 -37.721  1.00  0.00    -0.504 OA
ATOM     18  H   UNL     1     -27.515  12.240 -37.079  1.00  0.00     0.293 HD
ENDBRANCH  14  17
BRANCH  16  19
ATOM     19  O   UNL     1     -25.328  12.900 -39.097  1.00  0.00    -0.504 OA
ATOM     20  H   UNL     1     -25.311  12.724 -40.094  1.00  0.00     0.293 HD
ENDBRANCH  16  19
ENDBRANCH   1  11
BRANCH  10  21
ATOM     21  O   UNL     1     -24.213  17.881 -36.008  1.00  0.00    -0.500 OA
ATOM     22  H   UNL     1     -23.386  17.585 -35.503  1.00  0.00     0.294 HD
ENDBRANCH  10  21
BRANCH   5  23
ATOM     23  O   UNL     1     -23.462  21.589 -42.784  1.00  0.00    -0.507 OA
ATOM     24  H   UNL     1     -23.026  21.081 -43.546  1.00  0.00     0.293 HD
ENDBRANCH   5  23
BRANCH   7  25
ATOM     25  O   UNL     1     -21.978  22.061 -38.226  1.00  0.00    -0.507 OA
ATOM     26  H   UNL     1     -22.150  23.032 -38.013  1.00  0.00     0.293 HD
ENDBRANCH   7  25
TORSDOF 6
ENDMDL
MODEL 9
REMARK VINA RESULT:    -6.531      1.662      6.697
REMARK INTER + INTRA:          -8.187
REMARK INTER:                  -7.834
REMARK INTRA:                  -0.353
REMARK UNBOUND:                -0.319
REMARK SMILES Oc1cc(O)c2cc(O)c(-c3ccc(O)c(O)c3)[o+]c2c1
REMARK SMILES IDX 10 1 19 2 20 3 21 4 2 5 3 6 4 7 6 8 7 9 8 10 11 11 12 12
REMARK SMILES IDX 13 13 14 14 18 15 16 16 15 17 17 19 9 21 1 23 5 25
REMARK H PARENT 15 18 17 20 9 22 1 24 5 26
REMARK Flexibility Score: inf
ROOT
ATOM      1  C   UNL     1     -18.520  12.457 -35.538  1.00  0.00     0.402 A 
ATOM      2  O   UNL     1     -18.019  12.303 -34.315  1.00  0.00    -0.202 OA
ATOM      3  C   UNL     1     -17.130  13.135 -33.781  1.00  0.00     0.368 A 
ATOM      4  C   UNL     1     -16.665  12.893 -32.485  1.00  0.00     0.162 A 
ATOM      5  C   UNL     1     -15.734  13.750 -31.900  1.00  0.00     0.128 A 
ATOM      6  C   UNL     1     -15.263  14.860 -32.610  1.00  0.00     0.093 A 
ATOM      7  C   UNL     1     -15.715  15.125 -33.909  1.00  0.00     0.136 A 
ATOM      8  C   UNL     1     -16.660  14.253 -34.510  1.00  0.00     0.125 A 
ATOM      9  C   UNL     1     -17.157  14.432 -35.811  1.00  0.00     0.078 A 
ATOM     10  C   UNL     1     -18.084  13.528 -36.338  1.00  0.00     0.223 A 
ENDROOT
BRANCH   1  11
ATOM     11  C   UNL     1     -19.513  11.467 -36.017  1.00  0.00     0.087 A 
ATOM     12  C   UNL     1     -19.069  10.245 -36.547  1.00  0.00     0.022 A 
ATOM     13  C   UNL     1     -19.989   9.289 -36.987  1.00  0.00     0.051 A 
ATOM     14  C   UNL     1     -21.362   9.532 -36.889  1.00  0.00     0.157 A 
ATOM     15  C   UNL     1     -20.894  11.702 -35.901  1.00  0.00     0.068 A 
ATOM     16  C   UNL     1     -21.819  10.742 -36.340  1.00  0.00     0.158 A 
BRANCH  14  17
ATOM     17  O   UNL     1     -22.255   8.560 -37.339  1.00  0.00    -0.504 OA
ATOM     18  H   UNL     1     -22.778   7.974 -36.699  1.00  0.00     0.293 HD
ENDBRANCH  14  17
BRANCH  16  19
ATOM     19  O   UNL     1     -23.187  10.984 -36.228  1.00  0.00    -0.504 OA
ATOM     20  H   UNL     1     -23.604  11.843 -36.568  1.00  0.00     0.293 HD
ENDBRANCH  16  19
ENDBRANCH   1  11
BRANCH  10  21
ATOM     21  O   UNL     1     -18.540  13.678 -37.648  1.00  0.00    -0.500 OA
ATOM     22  H   UNL     1     -18.609  14.588 -38.088  1.00  0.00     0.294 HD
ENDBRANCH  10  21
BRANCH   5  23
ATOM     23  O   UNL     1     -15.281  13.492 -30.607  1.00  0.00    -0.507 OA
ATOM     24  H   UNL     1     -15.358  14.183 -29.870  1.00  0.00     0.293 HD
ENDBRANCH   5  23
BRANCH   7  25
ATOM     25  O   UNL     1     -15.200  16.255 -34.551  1.00  0.00    -0.507 OA
ATOM     26  H   UNL     1     -14.371  16.255 -35.128  1.00  0.00     0.293 HD
ENDBRANCH   7  25
TORSDOF 6
ENDMDL
