MODEL 1
REMARK VINA RESULT:    -4.690      0.000      0.000
REMARK INTER + INTRA:         -11.902
REMARK INTER:                 -10.173
REMARK INTRA:                  -1.729
REMARK UNBOUND:                -1.729
REMARK SMILES CCCCCCCCCCCCCCCCCCCCCC(=O)[O-]
REMARK SMILES IDX 12 1 11 2 10 3 9 4 8 5 7 6 6 7 5 8 4 9 3 10 2 11 1 12 13 13
REMARK SMILES IDX 14 14 15 15 16 16 17 17 18 18 19 19 20 20 21 21 22 22 23 23
REMARK SMILES IDX 24 24
REMARK H PARENT
REMARK Flexibility Score: inf
ROOT
ATOM      1  C   UNL     1       0.542  -1.790   5.350  1.00  0.00     0.000 C 
ENDROOT
BRANCH   1   2
ATOM      2  C   UNL     1      -0.206  -2.710   6.330  1.00  0.00     0.000 C 
BRANCH   2   3
ATOM      3  C   UNL     1      -1.704  -2.823   6.007  1.00  0.00     0.000 C 
BRANCH   3   4
ATOM      4  C   UNL     1      -1.987  -3.775   4.831  1.00  0.00    -0.000 C 
BRANCH   4   5
ATOM      5  C   UNL     1      -2.803  -3.093   3.713  1.00  0.00    -0.000 C 
BRANCH   5   6
ATOM      6  C   UNL     1      -2.808  -1.558   3.802  1.00  0.00    -0.000 C 
BRANCH   6   7
ATOM      7  C   UNL     1      -4.198  -0.981   4.120  1.00  0.00    -0.000 C 
BRANCH   7   8
ATOM      8  C   UNL     1      -5.309  -2.038   4.020  1.00  0.00    -0.000 C 
BRANCH   8   9
ATOM      9  C   UNL     1      -6.271  -1.996   5.219  1.00  0.00    -0.000 C 
BRANCH   9  10
ATOM     10  C   UNL     1      -5.593  -1.495   6.505  1.00  0.00    -0.000 C 
BRANCH  10  11
ATOM     11  C   UNL     1      -6.563  -0.745   7.430  1.00  0.00    -0.003 C 
ATOM     12  C   UNL     1      -6.433   0.766   7.258  1.00  0.00     0.004 C 
ENDBRANCH  10  11
ENDBRANCH   9  10
ENDBRANCH   8   9
ENDBRANCH   7   8
ENDBRANCH   6   7
ENDBRANCH   5   6
ENDBRANCH   4   5
ENDBRANCH   3   4
ENDBRANCH   2   3
ENDBRANCH   1   2
BRANCH   1  13
ATOM     13  C   UNL     1       2.056  -1.735   5.619  1.00  0.00     0.000 C 
BRANCH  13  14
ATOM     14  C   UNL     1       2.455  -1.817   7.105  1.00  0.00     0.000 C 
BRANCH  14  15
ATOM     15  C   UNL     1       2.025  -0.615   7.972  1.00  0.00     0.000 C 
BRANCH  15  16
ATOM     16  C   UNL     1       2.416   0.765   7.409  1.00  0.00     0.000 C 
BRANCH  16  17
ATOM     17  C   UNL     1       1.259   1.779   7.334  1.00  0.00     0.000 C 
BRANCH  17  18
ATOM     18  C   UNL     1       1.240   2.781   8.510  1.00  0.00     0.000 C 
BRANCH  18  19
ATOM     19  C   UNL     1       0.376   4.016   8.211  1.00  0.00     0.000 C 
BRANCH  19  20
ATOM     20  C   UNL     1       0.431   4.437   6.735  1.00  0.00     0.006 C 
BRANCH  20  21
ATOM     21  C   UNL     1      -0.267   5.777   6.473  1.00  0.00     0.053 C 
BRANCH  21  22
ATOM     22  C   UNL     1      -0.466   5.982   5.004  1.00  0.00     0.041 C 
ATOM     23  O   UNL     1       0.036   5.175   4.178  1.00  0.00    -0.550 OA
ATOM     24  O   UNL     1      -1.245   7.038   4.549  1.00  0.00    -0.550 OA
ENDBRANCH  21  22
ENDBRANCH  20  21
ENDBRANCH  19  20
ENDBRANCH  18  19
ENDBRANCH  17  18
ENDBRANCH  16  17
ENDBRANCH  15  16
ENDBRANCH  14  15
ENDBRANCH  13  14
ENDBRANCH   1  13
TORSDOF 20
ENDMDL
MODEL 2
REMARK VINA RESULT:    -4.649      1.341      3.164
REMARK INTER + INTRA:         -11.814
REMARK INTER:                  -9.415
REMARK INTRA:                  -2.399
REMARK UNBOUND:                -1.729
REMARK SMILES CCCCCCCCCCCCCCCCCCCCCC(=O)[O-]
REMARK SMILES IDX 12 1 11 2 10 3 9 4 8 5 7 6 6 7 5 8 4 9 3 10 2 11 1 12 13 13
REMARK SMILES IDX 14 14 15 15 16 16 17 17 18 18 19 19 20 20 21 21 22 22 23 23
REMARK SMILES IDX 24 24
REMARK H PARENT
REMARK Flexibility Score: inf
ROOT
ATOM      1  C   UNL     1      -0.162  -2.657   7.915  1.00  0.00     0.000 C 
ENDROOT
BRANCH   1   2
ATOM      2  C   UNL     1      -1.687  -2.457   7.926  1.00  0.00     0.000 C 
BRANCH   2   3
ATOM      3  C   UNL     1      -2.440  -3.621   7.263  1.00  0.00     0.000 C 
BRANCH   3   4
ATOM      4  C   UNL     1      -3.967  -3.509   7.427  1.00  0.00    -0.000 C 
BRANCH   4   5
ATOM      5  C   UNL     1      -4.377  -2.247   8.213  1.00  0.00    -0.000 C 
BRANCH   5   6
ATOM      6  C   UNL     1      -5.332  -1.322   7.441  1.00  0.00    -0.000 C 
BRANCH   6   7
ATOM      7  C   UNL     1      -5.391  -1.643   5.938  1.00  0.00    -0.000 C 
BRANCH   7   8
ATOM      8  C   UNL     1      -4.490  -0.717   5.105  1.00  0.00    -0.000 C 
BRANCH   8   9
ATOM      9  C   UNL     1      -4.022  -1.373   3.795  1.00  0.00    -0.000 C 
BRANCH   9  10
ATOM     10  C   UNL     1      -2.633  -2.018   3.919  1.00  0.00    -0.000 C 
BRANCH  10  11
ATOM     11  C   UNL     1      -2.670  -3.543   3.736  1.00  0.00    -0.003 C 
ATOM     12  C   UNL     1      -2.588  -3.923   2.260  1.00  0.00     0.004 C 
ENDBRANCH  10  11
ENDBRANCH   9  10
ENDBRANCH   8   9
ENDBRANCH   7   8
ENDBRANCH   6   7
ENDBRANCH   5   6
ENDBRANCH   4   5
ENDBRANCH   3   4
ENDBRANCH   2   3
ENDBRANCH   1   2
BRANCH   1  13
ATOM     13  C   UNL     1       0.371  -3.122   6.548  1.00  0.00     0.000 C 
BRANCH  13  14
ATOM     14  C   UNL     1       0.536  -2.004   5.500  1.00  0.00     0.000 C 
BRANCH  14  15
ATOM     15  C   UNL     1       1.721  -1.045   5.738  1.00  0.00     0.000 C 
BRANCH  15  16
ATOM     16  C   UNL     1       1.329   0.367   6.213  1.00  0.00     0.000 C 
BRANCH  16  17
ATOM     17  C   UNL     1       2.092   0.861   7.456  1.00  0.00     0.000 C 
BRANCH  17  18
ATOM     18  C   UNL     1       2.246   2.397   7.514  1.00  0.00     0.000 C 
BRANCH  18  19
ATOM     19  C   UNL     1       0.902   3.112   7.725  1.00  0.00     0.000 C 
BRANCH  19  20
ATOM     20  C   UNL     1       0.718   4.319   6.792  1.00  0.00     0.006 C 
BRANCH  20  21
ATOM     21  C   UNL     1       1.409   4.132   5.436  1.00  0.00     0.053 C 
BRANCH  21  22
ATOM     22  C   UNL     1       0.852   5.090   4.430  1.00  0.00     0.041 C 
ATOM     23  O   UNL     1       1.587   5.542   3.514  1.00  0.00    -0.550 OA
ATOM     24  O   UNL     1      -0.489   5.446   4.478  1.00  0.00    -0.550 OA
ENDBRANCH  21  22
ENDBRANCH  20  21
ENDBRANCH  19  20
ENDBRANCH  18  19
ENDBRANCH  17  18
ENDBRANCH  16  17
ENDBRANCH  15  16
ENDBRANCH  14  15
ENDBRANCH  13  14
ENDBRANCH   1  13
TORSDOF 20
ENDMDL
MODEL 3
REMARK VINA RESULT:    -4.630      1.464      3.611
REMARK INTER + INTRA:         -11.772
REMARK INTER:                  -9.747
REMARK INTRA:                  -2.025
REMARK UNBOUND:                -1.729
REMARK SMILES CCCCCCCCCCCCCCCCCCCCCC(=O)[O-]
REMARK SMILES IDX 12 1 11 2 10 3 9 4 8 5 7 6 6 7 5 8 4 9 3 10 2 11 1 12 13 13
REMARK SMILES IDX 14 14 15 15 16 16 17 17 18 18 19 19 20 20 21 21 22 22 23 23
REMARK SMILES IDX 24 24
REMARK H PARENT
REMARK Flexibility Score: inf
ROOT
ATOM      1  C   UNL     1      -1.204  -3.744   6.390  1.00  0.00     0.000 C 
ENDROOT
BRANCH   1   2
ATOM      2  C   UNL     1      -2.732  -3.823   6.547  1.00  0.00     0.000 C 
BRANCH   2   3
ATOM      3  C   UNL     1      -3.319  -2.584   7.240  1.00  0.00     0.000 C 
BRANCH   3   4
ATOM      4  C   UNL     1      -4.748  -2.262   6.768  1.00  0.00    -0.000 C 
BRANCH   4   5
ATOM      5  C   UNL     1      -4.804  -0.977   5.914  1.00  0.00    -0.000 C 
BRANCH   5   6
ATOM      6  C   UNL     1      -4.411  -1.195   4.445  1.00  0.00    -0.000 C 
BRANCH   6   7
ATOM      7  C   UNL     1      -5.325  -2.201   3.724  1.00  0.00    -0.000 C 
BRANCH   7   8
ATOM      8  C   UNL     1      -4.555  -3.425   3.204  1.00  0.00    -0.000 C 
BRANCH   8   9
ATOM      9  C   UNL     1      -3.041  -3.172   3.109  1.00  0.00    -0.000 C 
BRANCH   9  10
ATOM     10  C   UNL     1      -2.343  -4.121   2.120  1.00  0.00    -0.000 C 
BRANCH  10  11
ATOM     11  C   UNL     1      -3.338  -4.973   1.318  1.00  0.00    -0.003 C 
ATOM     12  C   UNL     1      -2.978  -6.455   1.390  1.00  0.00     0.004 C 
ENDBRANCH  10  11
ENDBRANCH   9  10
ENDBRANCH   8   9
ENDBRANCH   7   8
ENDBRANCH   6   7
ENDBRANCH   5   6
ENDBRANCH   4   5
ENDBRANCH   3   4
ENDBRANCH   2   3
ENDBRANCH   1   2
BRANCH   1  13
ATOM     13  C   UNL     1      -0.672  -2.301   6.433  1.00  0.00     0.000 C 
BRANCH  13  14
ATOM     14  C   UNL     1       0.199  -1.894   5.228  1.00  0.00     0.000 C 
BRANCH  14  15
ATOM     15  C   UNL     1       1.537  -1.211   5.579  1.00  0.00     0.000 C 
BRANCH  15  16
ATOM     16  C   UNL     1       1.513  -0.353   6.859  1.00  0.00     0.000 C 
BRANCH  16  17
ATOM     17  C   UNL     1       1.502   1.167   6.614  1.00  0.00     0.000 C 
BRANCH  17  18
ATOM     18  C   UNL     1       1.567   2.001   7.913  1.00  0.00     0.000 C 
BRANCH  18  19
ATOM     19  C   UNL     1       0.677   3.253   7.847  1.00  0.00     0.000 C 
BRANCH  19  20
ATOM     20  C   UNL     1       0.918   4.089   6.581  1.00  0.00     0.006 C 
BRANCH  20  21
ATOM     21  C   UNL     1       0.147   5.414   6.588  1.00  0.00     0.053 C 
BRANCH  21  22
ATOM     22  C   UNL     1      -0.542   5.623   5.276  1.00  0.00     0.041 C 
ATOM     23  O   UNL     1      -1.632   6.251   5.227  1.00  0.00    -0.550 OA
ATOM     24  O   UNL     1       0.043   5.166   4.103  1.00  0.00    -0.550 OA
ENDBRANCH  21  22
ENDBRANCH  20  21
ENDBRANCH  19  20
ENDBRANCH  18  19
ENDBRANCH  17  18
ENDBRANCH  16  17
ENDBRANCH  15  16
ENDBRANCH  14  15
ENDBRANCH  13  14
ENDBRANCH   1  13
TORSDOF 20
ENDMDL
MODEL 4
REMARK VINA RESULT:    -4.589      4.303      7.815
REMARK INTER + INTRA:         -11.683
REMARK INTER:                  -9.242
REMARK INTRA:                  -2.441
REMARK UNBOUND:                -1.729
REMARK SMILES CCCCCCCCCCCCCCCCCCCCCC(=O)[O-]
REMARK SMILES IDX 12 1 11 2 10 3 9 4 8 5 7 6 6 7 5 8 4 9 3 10 2 11 1 12 13 13
REMARK SMILES IDX 14 14 15 15 16 16 17 17 18 18 19 19 20 20 21 21 22 22 23 23
REMARK SMILES IDX 24 24
REMARK H PARENT
REMARK Flexibility Score: inf
ROOT
ATOM      1  C   UNL     1      -2.789  -1.608   3.739  1.00  0.00     0.000 C 
ENDROOT
BRANCH   1   2
ATOM      2  C   UNL     1      -2.234  -2.982   3.324  1.00  0.00     0.000 C 
BRANCH   2   3
ATOM      3  C   UNL     1      -3.345  -3.993   2.998  1.00  0.00     0.000 C 
BRANCH   3   4
ATOM      4  C   UNL     1      -2.848  -5.449   3.025  1.00  0.00    -0.000 C 
BRANCH   4   5
ATOM      5  C   UNL     1      -3.180  -6.203   1.721  1.00  0.00    -0.000 C 
BRANCH   5   6
ATOM      6  C   UNL     1      -3.621  -5.282   0.572  1.00  0.00    -0.000 C 
BRANCH   6   7
ATOM      7  C   UNL     1      -2.741  -5.425  -0.681  1.00  0.00    -0.000 C 
BRANCH   7   8
ATOM      8  C   UNL     1      -1.527  -4.483  -0.657  1.00  0.00    -0.000 C 
BRANCH   8   9
ATOM      9  C   UNL     1      -0.973  -4.199  -2.063  1.00  0.00    -0.000 C 
BRANCH   9  10
ATOM     10  C   UNL     1       0.386  -4.874  -2.311  1.00  0.00    -0.000 C 
BRANCH  10  11
ATOM     11  C   UNL     1       0.386  -5.758  -3.568  1.00  0.00    -0.003 C 
ATOM     12  C   UNL     1      -0.743  -6.784  -3.520  1.00  0.00     0.004 C 
ENDBRANCH  10  11
ENDBRANCH   9  10
ENDBRANCH   8   9
ENDBRANCH   7   8
ENDBRANCH   6   7
ENDBRANCH   5   6
ENDBRANCH   4   5
ENDBRANCH   3   4
ENDBRANCH   2   3
ENDBRANCH   1   2
BRANCH   1  13
ATOM     13  C   UNL     1      -4.286  -1.649   4.092  1.00  0.00     0.000 C 
BRANCH  13  14
ATOM     14  C   UNL     1      -4.682  -0.828   5.334  1.00  0.00     0.000 C 
BRANCH  14  15
ATOM     15  C   UNL     1      -4.937  -1.648   6.615  1.00  0.00     0.000 C 
BRANCH  15  16
ATOM     16  C   UNL     1      -4.071  -2.915   6.759  1.00  0.00     0.000 C 
BRANCH  16  17
ATOM     17  C   UNL     1      -2.740  -2.702   7.503  1.00  0.00     0.000 C 
BRANCH  17  18
ATOM     18  C   UNL     1      -1.757  -3.885   7.358  1.00  0.00     0.000 C 
BRANCH  18  19
ATOM     19  C   UNL     1      -0.618  -3.580   6.371  1.00  0.00     0.000 C 
BRANCH  19  20
ATOM     20  C   UNL     1      -0.062  -2.156   6.527  1.00  0.00     0.006 C 
BRANCH  20  21
ATOM     21  C   UNL     1       0.667  -1.662   5.272  1.00  0.00     0.053 C 
BRANCH  21  22
ATOM     22  C   UNL     1       2.147  -1.677   5.489  1.00  0.00     0.041 C 
ATOM     23  O   UNL     1       2.634  -1.227   6.560  1.00  0.00    -0.550 OA
ATOM     24  O   UNL     1       2.986  -2.230   4.531  1.00  0.00    -0.550 OA
ENDBRANCH  21  22
ENDBRANCH  20  21
ENDBRANCH  19  20
ENDBRANCH  18  19
ENDBRANCH  17  18
ENDBRANCH  16  17
ENDBRANCH  15  16
ENDBRANCH  14  15
ENDBRANCH  13  14
ENDBRANCH   1  13
TORSDOF 20
ENDMDL
MODEL 5
REMARK VINA RESULT:    -4.566      1.103      1.790
REMARK INTER + INTRA:         -11.633
REMARK INTER:                  -9.269
REMARK INTRA:                  -2.365
REMARK UNBOUND:                -1.729
REMARK SMILES CCCCCCCCCCCCCCCCCCCCCC(=O)[O-]
REMARK SMILES IDX 12 1 11 2 10 3 9 4 8 5 7 6 6 7 5 8 4 9 3 10 2 11 1 12 13 13
REMARK SMILES IDX 14 14 15 15 16 16 17 17 18 18 19 19 20 20 21 21 22 22 23 23
REMARK SMILES IDX 24 24
REMARK H PARENT
REMARK Flexibility Score: inf
ROOT
ATOM      1  C   UNL     1       0.483  -1.949   5.254  1.00  0.00     0.000 C 
ENDROOT
BRANCH   1   2
ATOM      2  C   UNL     1      -0.282  -2.617   6.409  1.00  0.00     0.000 C 
BRANCH   2   3
ATOM      3  C   UNL     1      -1.789  -2.730   6.131  1.00  0.00     0.000 C 
BRANCH   3   4
ATOM      4  C   UNL     1      -2.111  -3.728   5.004  1.00  0.00    -0.000 C 
BRANCH   4   5
ATOM      5  C   UNL     1      -2.645  -3.023   3.738  1.00  0.00    -0.000 C 
BRANCH   5   6
ATOM      6  C   UNL     1      -2.853  -1.511   3.916  1.00  0.00    -0.000 C 
BRANCH   6   7
ATOM      7  C   UNL     1      -4.337  -1.117   4.003  1.00  0.00    -0.000 C 
BRANCH   7   8
ATOM      8  C   UNL     1      -4.784  -0.828   5.445  1.00  0.00    -0.000 C 
BRANCH   8   9
ATOM      9  C   UNL     1      -5.981  -1.692   5.875  1.00  0.00    -0.000 C 
BRANCH   9  10
ATOM     10  C   UNL     1      -5.566  -3.111   6.296  1.00  0.00    -0.000 C 
BRANCH  10  11
ATOM     11  C   UNL     1      -6.431  -4.199   5.640  1.00  0.00    -0.003 C 
ATOM     12  C   UNL     1      -6.003  -4.448   4.197  1.00  0.00     0.004 C 
ENDBRANCH  10  11
ENDBRANCH   9  10
ENDBRANCH   8   9
ENDBRANCH   7   8
ENDBRANCH   6   7
ENDBRANCH   5   6
ENDBRANCH   4   5
ENDBRANCH   3   4
ENDBRANCH   2   3
ENDBRANCH   1   2
BRANCH   1  13
ATOM     13  C   UNL     1       1.757  -1.222   5.721  1.00  0.00     0.000 C 
BRANCH  13  14
ATOM     14  C   UNL     1       1.519   0.163   6.352  1.00  0.00     0.000 C 
BRANCH  14  15
ATOM     15  C   UNL     1       1.504   0.193   7.895  1.00  0.00     0.000 C 
BRANCH  15  16
ATOM     16  C   UNL     1       2.634   1.018   8.540  1.00  0.00     0.000 C 
BRANCH  16  17
ATOM     17  C   UNL     1       2.260   2.475   8.870  1.00  0.00     0.000 C 
BRANCH  17  18
ATOM     18  C   UNL     1       0.738   2.705   9.002  1.00  0.00     0.000 C 
BRANCH  18  19
ATOM     19  C   UNL     1       0.235   3.829   8.081  1.00  0.00     0.000 C 
BRANCH  19  20
ATOM     20  C   UNL     1       0.983   3.878   6.740  1.00  0.00     0.006 C 
BRANCH  20  21
ATOM     21  C   UNL     1       1.036   5.289   6.141  1.00  0.00     0.053 C 
BRANCH  21  22
ATOM     22  C   UNL     1       0.034   5.425   5.038  1.00  0.00     0.041 C 
ATOM     23  O   UNL     1       0.324   5.052   3.871  1.00  0.00    -0.550 OA
ATOM     24  O   UNL     1      -1.235   5.918   5.309  1.00  0.00    -0.550 OA
ENDBRANCH  21  22
ENDBRANCH  20  21
ENDBRANCH  19  20
ENDBRANCH  18  19
ENDBRANCH  17  18
ENDBRANCH  16  17
ENDBRANCH  15  16
ENDBRANCH  14  15
ENDBRANCH  13  14
ENDBRANCH   1  13
TORSDOF 20
ENDMDL
MODEL 6
REMARK VINA RESULT:    -4.559      5.138      9.307
REMARK INTER + INTRA:         -11.618
REMARK INTER:                  -9.227
REMARK INTRA:                  -2.391
REMARK UNBOUND:                -1.729
REMARK SMILES CCCCCCCCCCCCCCCCCCCCCC(=O)[O-]
REMARK SMILES IDX 12 1 11 2 10 3 9 4 8 5 7 6 6 7 5 8 4 9 3 10 2 11 1 12 13 13
REMARK SMILES IDX 14 14 15 15 16 16 17 17 18 18 19 19 20 20 21 21 22 22 23 23
REMARK SMILES IDX 24 24
REMARK H PARENT
REMARK Flexibility Score: inf
ROOT
ATOM      1  C   UNL     1      -3.625  -1.475   3.892  1.00  0.00     0.000 C 
ENDROOT
BRANCH   1   2
ATOM      2  C   UNL     1      -4.481  -1.100   5.114  1.00  0.00     0.000 C 
BRANCH   2   3
ATOM      3  C   UNL     1      -4.807  -2.312   6.000  1.00  0.00     0.000 C 
BRANCH   3   4
ATOM      4  C   UNL     1      -4.311  -2.140   7.448  1.00  0.00    -0.000 C 
BRANCH   4   5
ATOM      5  C   UNL     1      -2.807  -2.453   7.589  1.00  0.00    -0.000 C 
BRANCH   5   6
ATOM      6  C   UNL     1      -2.319  -3.570   6.654  1.00  0.00    -0.000 C 
BRANCH   6   7
ATOM      7  C   UNL     1      -0.807  -3.504   6.380  1.00  0.00    -0.000 C 
BRANCH   7   8
ATOM      8  C   UNL     1      -0.445  -2.433   5.339  1.00  0.00    -0.000 C 
BRANCH   8   9
ATOM      9  C   UNL     1       0.825  -1.651   5.716  1.00  0.00    -0.000 C 
BRANCH   9  10
ATOM     10  C   UNL     1       1.771  -2.459   6.617  1.00  0.00    -0.000 C 
BRANCH  10  11
ATOM     11  C   UNL     1       2.940  -3.082   5.838  1.00  0.00    -0.003 C 
ATOM     12  C   UNL     1       3.678  -2.029   5.016  1.00  0.00     0.004 C 
ENDBRANCH  10  11
ENDBRANCH   9  10
ENDBRANCH   8   9
ENDBRANCH   7   8
ENDBRANCH   6   7
ENDBRANCH   5   6
ENDBRANCH   4   5
ENDBRANCH   3   4
ENDBRANCH   2   3
ENDBRANCH   1   2
BRANCH   1  13
ATOM     13  C   UNL     1      -3.907  -2.898   3.377  1.00  0.00     0.000 C 
BRANCH  13  14
ATOM     14  C   UNL     1      -2.720  -3.578   2.668  1.00  0.00     0.000 C 
BRANCH  14  15
ATOM     15  C   UNL     1      -2.665  -5.114   2.797  1.00  0.00     0.000 C 
BRANCH  15  16
ATOM     16  C   UNL     1      -3.929  -5.853   2.316  1.00  0.00     0.000 C 
BRANCH  16  17
ATOM     17  C   UNL     1      -4.059  -5.975   0.786  1.00  0.00     0.000 C 
BRANCH  17  18
ATOM     18  C   UNL     1      -2.701  -6.080   0.058  1.00  0.00     0.000 C 
BRANCH  18  19
ATOM     19  C   UNL     1      -2.585  -5.084  -1.108  1.00  0.00     0.000 C 
BRANCH  19  20
ATOM     20  C   UNL     1      -1.283  -4.269  -1.066  1.00  0.00     0.006 C 
BRANCH  20  21
ATOM     21  C   UNL     1      -0.737  -3.953  -2.464  1.00  0.00     0.053 C 
BRANCH  21  22
ATOM     22  C   UNL     1       0.368  -4.898  -2.818  1.00  0.00     0.041 C 
ATOM     23  O   UNL     1       0.419  -5.409  -3.967  1.00  0.00    -0.550 OA
ATOM     24  O   UNL     1       1.367  -5.177  -1.894  1.00  0.00    -0.550 OA
ENDBRANCH  21  22
ENDBRANCH  20  21
ENDBRANCH  19  20
ENDBRANCH  18  19
ENDBRANCH  17  18
ENDBRANCH  16  17
ENDBRANCH  15  16
ENDBRANCH  14  15
ENDBRANCH  13  14
ENDBRANCH   1  13
TORSDOF 20
ENDMDL
MODEL 7
REMARK VINA RESULT:    -4.487      1.517      3.093
REMARK INTER + INTRA:         -11.463
REMARK INTER:                  -8.851
REMARK INTRA:                  -2.612
REMARK UNBOUND:                -1.729
REMARK SMILES CCCCCCCCCCCCCCCCCCCCCC(=O)[O-]
REMARK SMILES IDX 12 1 11 2 10 3 9 4 8 5 7 6 6 7 5 8 4 9 3 10 2 11 1 12 13 13
REMARK SMILES IDX 14 14 15 15 16 16 17 17 18 18 19 19 20 20 21 21 22 22 23 23
REMARK SMILES IDX 24 24
REMARK H PARENT
REMARK Flexibility Score: inf
ROOT
ATOM      1  C   UNL     1       2.346  -2.627   6.099  1.00  0.00     0.000 C 
ENDROOT
BRANCH   1   2
ATOM      2  C   UNL     1       1.695  -3.640   7.056  1.00  0.00     0.000 C 
BRANCH   2   3
ATOM      3  C   UNL     1       1.397  -3.038   8.438  1.00  0.00     0.000 C 
BRANCH   3   4
ATOM      4  C   UNL     1       0.002  -2.390   8.515  1.00  0.00    -0.000 C 
BRANCH   4   5
ATOM      5  C   UNL     1      -1.062  -3.363   9.064  1.00  0.00    -0.000 C 
BRANCH   5   6
ATOM      6  C   UNL     1      -2.047  -3.867   7.996  1.00  0.00    -0.000 C 
BRANCH   6   7
ATOM      7  C   UNL     1      -2.015  -3.027   6.709  1.00  0.00    -0.000 C 
BRANCH   7   8
ATOM      8  C   UNL     1      -1.722  -3.875   5.461  1.00  0.00    -0.000 C 
BRANCH   8   9
ATOM      9  C   UNL     1      -2.153  -3.178   4.160  1.00  0.00    -0.000 C 
BRANCH   9  10
ATOM     10  C   UNL     1      -2.384  -1.670   4.345  1.00  0.00    -0.000 C 
BRANCH  10  11
ATOM     11  C   UNL     1      -3.809  -1.239   3.965  1.00  0.00    -0.003 C 
ATOM     12  C   UNL     1      -4.680  -1.061   5.206  1.00  0.00     0.004 C 
ENDBRANCH  10  11
ENDBRANCH   9  10
ENDBRANCH   8   9
ENDBRANCH   7   8
ENDBRANCH   6   7
ENDBRANCH   5   6
ENDBRANCH   4   5
ENDBRANCH   3   4
ENDBRANCH   2   3
ENDBRANCH   1   2
BRANCH   1  13
ATOM     13  C   UNL     1       1.319  -1.867   5.241  1.00  0.00     0.000 C 
BRANCH  13  14
ATOM     14  C   UNL     1       1.132  -0.384   5.615  1.00  0.00     0.000 C 
BRANCH  14  15
ATOM     15  C   UNL     1       2.174   0.186   6.599  1.00  0.00     0.000 C 
BRANCH  15  16
ATOM     16  C   UNL     1       1.588   0.790   7.889  1.00  0.00     0.000 C 
BRANCH  16  17
ATOM     17  C   UNL     1       2.183   2.152   8.290  1.00  0.00     0.000 C 
BRANCH  17  18
ATOM     18  C   UNL     1       2.221   3.174   7.132  1.00  0.00     0.000 C 
BRANCH  18  19
ATOM     19  C   UNL     1       0.815   3.632   6.712  1.00  0.00     0.000 C 
BRANCH  19  20
ATOM     20  C   UNL     1       0.766   5.117   6.320  1.00  0.00     0.006 C 
BRANCH  20  21
ATOM     21  C   UNL     1      -0.034   5.365   5.035  1.00  0.00     0.053 C 
BRANCH  21  22
ATOM     22  C   UNL     1      -1.041   6.451   5.251  1.00  0.00     0.041 C 
ATOM     23  O   UNL     1      -1.705   6.494   6.320  1.00  0.00    -0.550 OA
ATOM     24  O   UNL     1      -1.212   7.441   4.292  1.00  0.00    -0.550 OA
ENDBRANCH  21  22
ENDBRANCH  20  21
ENDBRANCH  19  20
ENDBRANCH  18  19
ENDBRANCH  17  18
ENDBRANCH  16  17
ENDBRANCH  15  16
ENDBRANCH  14  15
ENDBRANCH  13  14
ENDBRANCH   1  13
TORSDOF 20
ENDMDL
MODEL 8
REMARK VINA RESULT:    -4.443      4.294      8.727
REMARK INTER + INTRA:         -11.366
REMARK INTER:                  -9.082
REMARK INTRA:                  -2.284
REMARK UNBOUND:                -1.729
REMARK SMILES CCCCCCCCCCCCCCCCCCCCCC(=O)[O-]
REMARK SMILES IDX 12 1 11 2 10 3 9 4 8 5 7 6 6 7 5 8 4 9 3 10 2 11 1 12 13 13
REMARK SMILES IDX 14 14 15 15 16 16 17 17 18 18 19 19 20 20 21 21 22 22 23 23
REMARK SMILES IDX 24 24
REMARK H PARENT
REMARK Flexibility Score: inf
ROOT
ATOM      1  C   UNL     1      -4.591  -0.824   5.302  1.00  0.00     0.000 C 
ENDROOT
BRANCH   1   2
ATOM      2  C   UNL     1      -5.106  -1.957   6.206  1.00  0.00     0.000 C 
BRANCH   2   3
ATOM      3  C   UNL     1      -4.050  -2.433   7.216  1.00  0.00     0.000 C 
BRANCH   3   4
ATOM      4  C   UNL     1      -3.377  -3.752   6.793  1.00  0.00    -0.000 C 
BRANCH   4   5
ATOM      5  C   UNL     1      -1.965  -3.905   7.396  1.00  0.00    -0.000 C 
BRANCH   5   6
ATOM      6  C   UNL     1      -1.183  -2.585   7.478  1.00  0.00    -0.000 C 
BRANCH   6   7
ATOM      7  C   UNL     1       0.255  -2.707   6.947  1.00  0.00    -0.000 C 
BRANCH   7   8
ATOM      8  C   UNL     1       0.434  -2.037   5.575  1.00  0.00    -0.000 C 
BRANCH   8   9
ATOM      9  C   UNL     1       1.840  -1.441   5.390  1.00  0.00    -0.000 C 
BRANCH   9  10
ATOM     10  C   UNL     1       2.271  -0.563   6.575  1.00  0.00    -0.000 C 
BRANCH  10  11
ATOM     11  C   UNL     1       1.558   0.798   6.593  1.00  0.00    -0.003 C 
ATOM     12  C   UNL     1       1.613   1.432   7.980  1.00  0.00     0.004 C 
ENDBRANCH  10  11
ENDBRANCH   9  10
ENDBRANCH   8   9
ENDBRANCH   7   8
ENDBRANCH   6   7
ENDBRANCH   5   6
ENDBRANCH   4   5
ENDBRANCH   3   4
ENDBRANCH   2   3
ENDBRANCH   1   2
BRANCH   1  13
ATOM     13  C   UNL     1      -4.125  -1.323   3.923  1.00  0.00     0.000 C 
BRANCH  13  14
ATOM     14  C   UNL     1      -2.626  -1.667   3.830  1.00  0.00     0.000 C 
BRANCH  14  15
ATOM     15  C   UNL     1      -2.305  -3.118   3.416  1.00  0.00     0.000 C 
BRANCH  15  16
ATOM     16  C   UNL     1      -3.420  -3.830   2.625  1.00  0.00     0.000 C 
BRANCH  16  17
ATOM     17  C   UNL     1      -3.377  -5.367   2.696  1.00  0.00     0.000 C 
BRANCH  17  18
ATOM     18  C   UNL     1      -2.881  -6.032   1.393  1.00  0.00     0.000 C 
BRANCH  18  19
ATOM     19  C   UNL     1      -3.122  -5.148   0.158  1.00  0.00     0.000 C 
BRANCH  19  20
ATOM     20  C   UNL     1      -2.062  -5.352  -0.935  1.00  0.00     0.006 C 
BRANCH  20  21
ATOM     21  C   UNL     1      -1.181  -4.115  -1.146  1.00  0.00     0.053 C 
BRANCH  21  22
ATOM     22  C   UNL     1      -0.526  -4.165  -2.490  1.00  0.00     0.041 C 
ATOM     23  O   UNL     1       0.032  -5.223  -2.883  1.00  0.00    -0.550 OA
ATOM     24  O   UNL     1      -0.572  -3.058  -3.328  1.00  0.00    -0.550 OA
ENDBRANCH  21  22
ENDBRANCH  20  21
ENDBRANCH  19  20
ENDBRANCH  18  19
ENDBRANCH  17  18
ENDBRANCH  16  17
ENDBRANCH  15  16
ENDBRANCH  14  15
ENDBRANCH  13  14
ENDBRANCH   1  13
TORSDOF 20
ENDMDL
MODEL 9
REMARK VINA RESULT:    -4.442      1.247      2.447
REMARK INTER + INTRA:         -11.365
REMARK INTER:                  -9.379
REMARK INTRA:                  -1.986
REMARK UNBOUND:                -1.729
REMARK SMILES CCCCCCCCCCCCCCCCCCCCCC(=O)[O-]
REMARK SMILES IDX 12 1 11 2 10 3 9 4 8 5 7 6 6 7 5 8 4 9 3 10 2 11 1 12 13 13
REMARK SMILES IDX 14 14 15 15 16 16 17 17 18 18 19 19 20 20 21 21 22 22 23 23
REMARK SMILES IDX 24 24
REMARK H PARENT
REMARK Flexibility Score: inf
ROOT
ATOM      1  C   UNL     1       0.244  -1.770   5.218  1.00  0.00     0.000 C 
ENDROOT
BRANCH   1   2
ATOM      2  C   UNL     1      -0.750  -2.627   6.021  1.00  0.00     0.000 C 
BRANCH   2   3
ATOM      3  C   UNL     1      -2.134  -2.704   5.357  1.00  0.00     0.000 C 
BRANCH   3   4
ATOM      4  C   UNL     1      -2.297  -1.693   4.207  1.00  0.00    -0.000 C 
BRANCH   4   5
ATOM      5  C   UNL     1      -3.773  -1.307   3.977  1.00  0.00    -0.000 C 
BRANCH   5   6
ATOM      6  C   UNL     1      -4.511  -0.898   5.261  1.00  0.00    -0.000 C 
BRANCH   6   7
ATOM      7  C   UNL     1      -5.877  -1.589   5.413  1.00  0.00    -0.000 C 
BRANCH   7   8
ATOM      8  C   UNL     1      -5.756  -3.006   5.996  1.00  0.00    -0.000 C 
BRANCH   8   9
ATOM      9  C   UNL     1      -5.792  -4.095   4.910  1.00  0.00    -0.000 C 
BRANCH   9  10
ATOM     10  C   UNL     1      -6.763  -3.759   3.767  1.00  0.00    -0.000 C 
BRANCH  10  11
ATOM     11  C   UNL     1      -6.088  -3.797   2.387  1.00  0.00    -0.003 C 
ATOM     12  C   UNL     1      -4.739  -4.507   2.454  1.00  0.00     0.004 C 
ENDBRANCH  10  11
ENDBRANCH   9  10
ENDBRANCH   8   9
ENDBRANCH   7   8
ENDBRANCH   6   7
ENDBRANCH   5   6
ENDBRANCH   4   5
ENDBRANCH   3   4
ENDBRANCH   2   3
ENDBRANCH   1   2
BRANCH   1  13
ATOM     13  C   UNL     1       1.709  -2.024   5.615  1.00  0.00     0.000 C 
BRANCH  13  14
ATOM     14  C   UNL     1       2.481  -0.774   6.082  1.00  0.00     0.000 C 
BRANCH  14  15
ATOM     15  C   UNL     1       2.276  -0.384   7.560  1.00  0.00     0.000 C 
BRANCH  15  16
ATOM     16  C   UNL     1       1.464   0.905   7.786  1.00  0.00     0.000 C 
BRANCH  16  17
ATOM     17  C   UNL     1       2.205   2.204   7.419  1.00  0.00     0.000 C 
BRANCH  17  18
ATOM     18  C   UNL     1       1.292   3.277   6.784  1.00  0.00     0.000 C 
BRANCH  18  19
ATOM     19  C   UNL     1       0.454   4.026   7.833  1.00  0.00     0.000 C 
BRANCH  19  20
ATOM     20  C   UNL     1      -0.309   5.221   7.241  1.00  0.00     0.006 C 
BRANCH  20  21
ATOM     21  C   UNL     1       0.546   6.052   6.278  1.00  0.00     0.053 C 
BRANCH  21  22
ATOM     22  C   UNL     1      -0.117   6.144   4.939  1.00  0.00     0.041 C 
ATOM     23  O   UNL     1      -0.070   5.171   4.142  1.00  0.00    -0.550 OA
ATOM     24  O   UNL     1      -0.827   7.286   4.592  1.00  0.00    -0.550 OA
ENDBRANCH  21  22
ENDBRANCH  20  21
ENDBRANCH  19  20
ENDBRANCH  18  19
ENDBRANCH  17  18
ENDBRANCH  16  17
ENDBRANCH  15  16
ENDBRANCH  14  15
ENDBRANCH  13  14
ENDBRANCH   1  13
TORSDOF 20
ENDMDL
