MODEL 1
REMARK VINA RESULT:    -4.327      0.000      0.000
REMARK INTER + INTRA:         -11.156
REMARK INTER:                  -8.374
REMARK INTRA:                  -2.782
REMARK UNBOUND:                -2.782
REMARK SMILES CCCCCCCCCCCCCCCCCC(=O)[O-]
REMARK SMILES IDX 10 1 11 2 12 3 13 4 14 5 15 6 16 7 17 8 18 9 19 10 20 11
REMARK SMILES IDX 9 12 8 13 7 14 6 15 5 16 4 17 3 18 2 19 1 20
REMARK H PARENT
REMARK Flexibility Score: inf
ROOT
ATOM      1  C   UNL     1     137.143  98.612  92.135  1.00  0.00     0.000 C 
ENDROOT
BRANCH   1   2
ATOM      2  C   UNL     1     136.538  99.966  91.721  1.00  0.00     0.000 C 
BRANCH   2   3
ATOM      3  C   UNL     1     135.229 100.340  92.443  1.00  0.00     0.000 C 
BRANCH   3   4
ATOM      4  C   UNL     1     135.187 101.770  93.016  1.00  0.00     0.000 C 
BRANCH   4   5
ATOM      5  C   UNL     1     134.879 101.825  94.528  1.00  0.00     0.000 C 
BRANCH   5   6
ATOM      6  C   UNL     1     134.831 103.263  95.065  1.00  0.00     0.000 C 
BRANCH   6   7
ATOM      7  C   UNL     1     133.584 103.483  95.935  1.00  0.00     0.006 C 
BRANCH   7   8
ATOM      8  C   UNL     1     132.486 102.450  95.647  1.00  0.00     0.053 C 
BRANCH   8   9
ATOM      9  C   UNL     1     131.321 103.063  94.933  1.00  0.00     0.041 C 
ATOM     10  O   UNL     1     130.728 102.425  94.024  1.00  0.00    -0.550 OA
ATOM     11  O   UNL     1     130.869 104.326  95.294  1.00  0.00    -0.550 OA
ENDBRANCH   8   9
ENDBRANCH   7   8
ENDBRANCH   6   7
ENDBRANCH   5   6
ENDBRANCH   4   5
ENDBRANCH   3   4
ENDBRANCH   2   3
ENDBRANCH   1   2
BRANCH   1  12
ATOM     12  C   UNL     1     136.685  98.156  93.531  1.00  0.00     0.000 C 
BRANCH  12  13
ATOM     13  C   UNL     1     137.823  97.493  94.329  1.00  0.00    -0.000 C 
BRANCH  13  14
ATOM     14  C   UNL     1     138.578  98.477  95.250  1.00  0.00    -0.000 C 
BRANCH  14  15
ATOM     15  C   UNL     1     137.765  99.735  95.615  1.00  0.00    -0.000 C 
BRANCH  15  16
ATOM     16  C   UNL     1     138.429 101.069  95.238  1.00  0.00    -0.000 C 
BRANCH  16  17
ATOM     17  C   UNL     1     139.314 100.963  93.983  1.00  0.00    -0.000 C 
BRANCH  17  18
ATOM     18  C   UNL     1     139.220 102.205  93.079  1.00  0.00    -0.000 C 
BRANCH  18  19
ATOM     19  C   UNL     1     138.673 103.469  93.767  1.00  0.00    -0.003 C 
ATOM     20  C   UNL     1     137.746 104.286  92.867  1.00  0.00     0.004 C 
ENDBRANCH  18  19
ENDBRANCH  17  18
ENDBRANCH  16  17
ENDBRANCH  15  16
ENDBRANCH  14  15
ENDBRANCH  13  14
ENDBRANCH  12  13
ENDBRANCH   1  12
TORSDOF 16
ENDMDL
MODEL 2
REMARK VINA RESULT:    -4.203      1.995      4.683
REMARK INTER + INTRA:         -10.915
REMARK INTER:                  -8.500
REMARK INTRA:                  -2.415
REMARK UNBOUND:                -2.782
REMARK SMILES CCCCCCCCCCCCCCCCCC(=O)[O-]
REMARK SMILES IDX 10 1 11 2 12 3 13 4 14 5 15 6 16 7 17 8 18 9 19 10 20 11
REMARK SMILES IDX 9 12 8 13 7 14 6 15 5 16 4 17 3 18 2 19 1 20
REMARK H PARENT
REMARK Flexibility Score: inf
ROOT
ATOM      1  C   UNL     1     137.661  99.546  95.636  1.00  0.00     0.000 C 
ENDROOT
BRANCH   1   2
ATOM      2  C   UNL     1     138.386 100.903  95.593  1.00  0.00     0.000 C 
BRANCH   2   3
ATOM      3  C   UNL     1     139.323 101.101  94.386  1.00  0.00     0.000 C 
BRANCH   3   4
ATOM      4  C   UNL     1     138.643 101.640  93.113  1.00  0.00     0.000 C 
BRANCH   4   5
ATOM      5  C   UNL     1     137.435 102.560  93.394  1.00  0.00     0.000 C 
BRANCH   5   6
ATOM      6  C   UNL     1     136.198 102.174  92.571  1.00  0.00     0.000 C 
BRANCH   6   7
ATOM      7  C   UNL     1     135.142 101.490  93.452  1.00  0.00     0.006 C 
BRANCH   7   8
ATOM      8  C   UNL     1     134.974 102.192  94.806  1.00  0.00     0.053 C 
BRANCH   8   9
ATOM      9  C   UNL     1     133.568 102.664  95.016  1.00  0.00     0.041 C 
ATOM     10  O   UNL     1     132.678 102.403  94.165  1.00  0.00    -0.550 OA
ATOM     11  O   UNL     1     133.235 103.365  96.168  1.00  0.00    -0.550 OA
ENDBRANCH   8   9
ENDBRANCH   7   8
ENDBRANCH   6   7
ENDBRANCH   5   6
ENDBRANCH   4   5
ENDBRANCH   3   4
ENDBRANCH   2   3
ENDBRANCH   1   2
BRANCH   1  12
ATOM     12  C   UNL     1     138.518  98.394  95.083  1.00  0.00     0.000 C 
BRANCH  12  13
ATOM     13  C   UNL     1     137.712  97.456  94.167  1.00  0.00    -0.000 C 
BRANCH  13  14
ATOM     14  C   UNL     1     136.581  98.176  93.398  1.00  0.00    -0.000 C 
BRANCH  14  15
ATOM     15  C   UNL     1     136.978  98.610  91.973  1.00  0.00    -0.000 C 
BRANCH  15  16
ATOM     16  C   UNL     1     136.055  98.093  90.857  1.00  0.00    -0.000 C 
BRANCH  16  17
ATOM     17  C   UNL     1     134.741  97.500  91.395  1.00  0.00    -0.000 C 
BRANCH  17  18
ATOM     18  C   UNL     1     133.516  98.374  91.075  1.00  0.00    -0.000 C 
BRANCH  18  19
ATOM     19  C   UNL     1     132.176  97.618  91.014  1.00  0.00    -0.003 C 
ATOM     20  C   UNL     1     130.963  98.546  91.060  1.00  0.00     0.004 C 
ENDBRANCH  18  19
ENDBRANCH  17  18
ENDBRANCH  16  17
ENDBRANCH  15  16
ENDBRANCH  14  15
ENDBRANCH  13  14
ENDBRANCH  12  13
ENDBRANCH   1  12
TORSDOF 16
ENDMDL
MODEL 3
REMARK VINA RESULT:    -4.195      3.759      6.543
REMARK INTER + INTRA:         -10.901
REMARK INTER:                  -8.383
REMARK INTRA:                  -2.518
REMARK UNBOUND:                -2.782
REMARK SMILES CCCCCCCCCCCCCCCCCC(=O)[O-]
REMARK SMILES IDX 10 1 11 2 12 3 13 4 14 5 15 6 16 7 17 8 18 9 19 10 20 11
REMARK SMILES IDX 9 12 8 13 7 14 6 15 5 16 4 17 3 18 2 19 1 20
REMARK H PARENT
REMARK Flexibility Score: inf
ROOT
ATOM      1  C   UNL     1     136.485  99.622  92.300  1.00  0.00     0.000 C 
ENDROOT
BRANCH   1   2
ATOM      2  C   UNL     1     136.289  98.203  92.865  1.00  0.00     0.000 C 
BRANCH   2   3
ATOM      3  C   UNL     1     137.232  97.830  94.025  1.00  0.00     0.000 C 
BRANCH   3   4
ATOM      4  C   UNL     1     137.233  98.817  95.208  1.00  0.00     0.000 C 
BRANCH   4   5
ATOM      5  C   UNL     1     138.639  99.327  95.592  1.00  0.00     0.000 C 
BRANCH   5   6
ATOM      6  C   UNL     1     138.665 100.842  95.843  1.00  0.00     0.000 C 
BRANCH   6   7
ATOM      7  C   UNL     1     139.013 101.607  94.557  1.00  0.00     0.006 C 
BRANCH   7   8
ATOM      8  C   UNL     1     140.147 100.935  93.772  1.00  0.00     0.053 C 
BRANCH   8   9
ATOM      9  C   UNL     1     141.478 101.547  94.084  1.00  0.00     0.041 C 
ATOM     10  O   UNL     1     141.544 102.621  94.738  1.00  0.00    -0.550 OA
ATOM     11  O   UNL     1     142.646 100.915  93.680  1.00  0.00    -0.550 OA
ENDBRANCH   8   9
ENDBRANCH   7   8
ENDBRANCH   6   7
ENDBRANCH   5   6
ENDBRANCH   4   5
ENDBRANCH   3   4
ENDBRANCH   2   3
ENDBRANCH   1   2
BRANCH   1  12
ATOM     12  C   UNL     1     135.214 100.483  92.399  1.00  0.00     0.000 C 
BRANCH  12  13
ATOM     13  C   UNL     1     135.497 101.873  92.998  1.00  0.00    -0.000 C 
BRANCH  13  14
ATOM     14  C   UNL     1     135.343 101.920  94.534  1.00  0.00    -0.000 C 
BRANCH  14  15
ATOM     15  C   UNL     1     135.386 103.346  95.118  1.00  0.00    -0.000 C 
BRANCH  15  16
ATOM     16  C   UNL     1     134.011 103.990  95.360  1.00  0.00    -0.000 C 
BRANCH  16  17
ATOM     17  C   UNL     1     133.023 103.042  96.062  1.00  0.00    -0.000 C 
BRANCH  17  18
ATOM     18  C   UNL     1     131.782 102.733  95.207  1.00  0.00    -0.000 C 
BRANCH  18  19
ATOM     19  C   UNL     1     131.878 103.179  93.736  1.00  0.00    -0.003 C 
ATOM     20  C   UNL     1     131.730 102.022  92.749  1.00  0.00     0.004 C 
ENDBRANCH  18  19
ENDBRANCH  17  18
ENDBRANCH  16  17
ENDBRANCH  15  16
ENDBRANCH  14  15
ENDBRANCH  13  14
ENDBRANCH  12  13
ENDBRANCH   1  12
TORSDOF 16
ENDMDL
MODEL 4
REMARK VINA RESULT:    -4.161      3.552      5.603
REMARK INTER + INTRA:         -10.834
REMARK INTER:                  -8.942
REMARK INTRA:                  -1.892
REMARK UNBOUND:                -2.782
REMARK SMILES CCCCCCCCCCCCCCCCCC(=O)[O-]
REMARK SMILES IDX 10 1 11 2 12 3 13 4 14 5 15 6 16 7 17 8 18 9 19 10 20 11
REMARK SMILES IDX 9 12 8 13 7 14 6 15 5 16 4 17 3 18 2 19 1 20
REMARK H PARENT
REMARK Flexibility Score: inf
ROOT
ATOM      1  C   UNL     1     137.143  98.402  95.124  1.00  0.00     0.000 C 
ENDROOT
BRANCH   1   2
ATOM      2  C   UNL     1     136.688  97.829  93.769  1.00  0.00     0.000 C 
BRANCH   2   3
ATOM      3  C   UNL     1     137.203  98.593  92.534  1.00  0.00     0.000 C 
BRANCH   3   4
ATOM      4  C   UNL     1     136.139  98.889  91.460  1.00  0.00     0.000 C 
BRANCH   4   5
ATOM      5  C   UNL     1     134.938  97.919  91.489  1.00  0.00     0.000 C 
BRANCH   5   6
ATOM      6  C   UNL     1     133.618  98.607  91.110  1.00  0.00     0.000 C 
BRANCH   6   7
ATOM      7  C   UNL     1     132.461  97.597  91.078  1.00  0.00     0.006 C 
BRANCH   7   8
ATOM      8  C   UNL     1     132.959  96.146  91.051  1.00  0.00     0.053 C 
BRANCH   8   9
ATOM      9  C   UNL     1     131.869  95.192  90.667  1.00  0.00     0.041 C 
ATOM     10  O   UNL     1     132.021  94.417  89.687  1.00  0.00    -0.550 OA
ATOM     11  O   UNL     1     130.700  95.137  91.414  1.00  0.00    -0.550 OA
ENDBRANCH   8   9
ENDBRANCH   7   8
ENDBRANCH   6   7
ENDBRANCH   5   6
ENDBRANCH   4   5
ENDBRANCH   3   4
ENDBRANCH   2   3
ENDBRANCH   1   2
BRANCH   1  12
ATOM     12  C   UNL     1     138.572  98.970  95.081  1.00  0.00     0.000 C 
BRANCH  12  13
ATOM     13  C   UNL     1     138.679 100.328  95.796  1.00  0.00    -0.000 C 
BRANCH  13  14
ATOM     14  C   UNL     1     138.938 101.508  94.833  1.00  0.00    -0.000 C 
BRANCH  14  15
ATOM     15  C   UNL     1     137.714 101.892  93.978  1.00  0.00    -0.000 C 
BRANCH  15  16
ATOM     16  C   UNL     1     136.403 102.064  94.763  1.00  0.00    -0.000 C 
BRANCH  16  17
ATOM     17  C   UNL     1     135.214 101.340  94.107  1.00  0.00    -0.000 C 
BRANCH  17  18
ATOM     18  C   UNL     1     133.877 102.069  94.325  1.00  0.00    -0.000 C 
BRANCH  18  19
ATOM     19  C   UNL     1     133.989 103.436  95.023  1.00  0.00    -0.003 C 
ATOM     20  C   UNL     1     133.284 103.474  96.379  1.00  0.00     0.004 C 
ENDBRANCH  18  19
ENDBRANCH  17  18
ENDBRANCH  16  17
ENDBRANCH  15  16
ENDBRANCH  14  15
ENDBRANCH  13  14
ENDBRANCH  12  13
ENDBRANCH   1  12
TORSDOF 16
ENDMDL
MODEL 5
REMARK VINA RESULT:    -4.138      3.231      6.791
REMARK INTER + INTRA:         -10.789
REMARK INTER:                  -8.676
REMARK INTRA:                  -2.113
REMARK UNBOUND:                -2.782
REMARK SMILES CCCCCCCCCCCCCCCCCC(=O)[O-]
REMARK SMILES IDX 10 1 11 2 12 3 13 4 14 5 15 6 16 7 17 8 18 9 19 10 20 11
REMARK SMILES IDX 9 12 8 13 7 14 6 15 5 16 4 17 3 18 2 19 1 20
REMARK H PARENT
REMARK Flexibility Score: inf
ROOT
ATOM      1  C   UNL     1     134.637 101.535  94.255  1.00  0.00     0.000 C 
ENDROOT
BRANCH   1   2
ATOM      2  C   UNL     1     135.516 101.388  92.999  1.00  0.00     0.000 C 
BRANCH   2   3
ATOM      3  C   UNL     1     135.549  99.973  92.391  1.00  0.00     0.000 C 
BRANCH   3   4
ATOM      4  C   UNL     1     136.888  99.226  92.550  1.00  0.00     0.000 C 
BRANCH   4   5
ATOM      5  C   UNL     1     136.844  98.081  93.584  1.00  0.00     0.000 C 
BRANCH   5   6
ATOM      6  C   UNL     1     137.862  98.273  94.717  1.00  0.00     0.000 C 
BRANCH   6   7
ATOM      7  C   UNL     1     137.439  99.418  95.648  1.00  0.00     0.006 C 
BRANCH   7   8
ATOM      8  C   UNL     1     138.623 100.307  96.051  1.00  0.00     0.053 C 
BRANCH   8   9
ATOM      9  C   UNL     1     139.117 101.130  94.901  1.00  0.00     0.041 C 
ATOM     10  O   UNL     1     138.496 102.167  94.552  1.00  0.00    -0.550 OA
ATOM     11  O   UNL     1     140.281 100.768  94.237  1.00  0.00    -0.550 OA
ENDBRANCH   8   9
ENDBRANCH   7   8
ENDBRANCH   6   7
ENDBRANCH   5   6
ENDBRANCH   4   5
ENDBRANCH   3   4
ENDBRANCH   2   3
ENDBRANCH   1   2
BRANCH   1  12
ATOM     12  C   UNL     1     134.453 103.001  94.685  1.00  0.00     0.000 C 
BRANCH  12  13
ATOM     13  C   UNL     1     133.469 103.143  95.859  1.00  0.00    -0.000 C 
BRANCH  13  14
ATOM     14  C   UNL     1     132.048 102.631  95.532  1.00  0.00    -0.000 C 
BRANCH  14  15
ATOM     15  C   UNL     1     131.118 103.712  94.946  1.00  0.00    -0.000 C 
BRANCH  15  16
ATOM     16  C   UNL     1     130.405 103.318  93.642  1.00  0.00    -0.000 C 
BRANCH  16  17
ATOM     17  C   UNL     1     130.799 101.915  93.147  1.00  0.00    -0.000 C 
BRANCH  17  18
ATOM     18  C   UNL     1     131.744 101.954  91.933  1.00  0.00    -0.000 C 
BRANCH  18  19
ATOM     19  C   UNL     1     132.144 100.575  91.377  1.00  0.00    -0.003 C 
ATOM     20  C   UNL     1     130.959  99.621  91.233  1.00  0.00     0.004 C 
ENDBRANCH  18  19
ENDBRANCH  17  18
ENDBRANCH  16  17
ENDBRANCH  15  16
ENDBRANCH  14  15
ENDBRANCH  13  14
ENDBRANCH  12  13
ENDBRANCH   1  12
TORSDOF 16
ENDMDL
MODEL 6
REMARK VINA RESULT:    -4.130      1.142      1.717
REMARK INTER + INTRA:         -10.774
REMARK INTER:                  -8.438
REMARK INTRA:                  -2.336
REMARK UNBOUND:                -2.782
REMARK SMILES CCCCCCCCCCCCCCCCCC(=O)[O-]
REMARK SMILES IDX 10 1 11 2 12 3 13 4 14 5 15 6 16 7 17 8 18 9 19 10 20 11
REMARK SMILES IDX 9 12 8 13 7 14 6 15 5 16 4 17 3 18 2 19 1 20
REMARK H PARENT
REMARK Flexibility Score: inf
ROOT
ATOM      1  C   UNL     1     135.180  98.761  91.882  1.00  0.00     0.000 C 
ENDROOT
BRANCH   1   2
ATOM      2  C   UNL     1     134.623 100.196  91.859  1.00  0.00     0.000 C 
BRANCH   2   3
ATOM      3  C   UNL     1     135.381 101.202  92.745  1.00  0.00     0.000 C 
BRANCH   3   4
ATOM      4  C   UNL     1     134.744 101.465  94.124  1.00  0.00     0.000 C 
BRANCH   4   5
ATOM      5  C   UNL     1     134.916 102.917  94.622  1.00  0.00     0.000 C 
BRANCH   5   6
ATOM      6  C   UNL     1     133.780 103.354  95.558  1.00  0.00     0.000 C 
BRANCH   6   7
ATOM      7  C   UNL     1     132.589 102.389  95.467  1.00  0.00     0.006 C 
BRANCH   7   8
ATOM      8  C   UNL     1     131.285 103.108  95.097  1.00  0.00     0.053 C 
BRANCH   8   9
ATOM      9  C   UNL     1     130.767 102.669  93.762  1.00  0.00     0.041 C 
ATOM     10  O   UNL     1     129.592 102.953  93.413  1.00  0.00    -0.550 OA
ATOM     11  O   UNL     1     131.595 101.973  92.890  1.00  0.00    -0.550 OA
ENDBRANCH   8   9
ENDBRANCH   7   8
ENDBRANCH   6   7
ENDBRANCH   5   6
ENDBRANCH   4   5
ENDBRANCH   3   4
ENDBRANCH   2   3
ENDBRANCH   1   2
BRANCH   1  12
ATOM     12  C   UNL     1     136.631  98.693  92.388  1.00  0.00     0.000 C 
BRANCH  12  13
ATOM     13  C   UNL     1     136.761  97.856  93.674  1.00  0.00    -0.000 C 
BRANCH  13  14
ATOM     14  C   UNL     1     137.897  98.336  94.604  1.00  0.00    -0.000 C 
BRANCH  14  15
ATOM     15  C   UNL     1     137.475  99.459  95.571  1.00  0.00    -0.000 C 
BRANCH  15  16
ATOM     16  C   UNL     1     138.638 100.248  96.196  1.00  0.00    -0.000 C 
BRANCH  16  17
ATOM     17  C   UNL     1     139.424 101.073  95.162  1.00  0.00    -0.000 C 
BRANCH  17  18
ATOM     18  C   UNL     1     138.548 102.106  94.431  1.00  0.00    -0.000 C 
BRANCH  18  19
ATOM     19  C   UNL     1     138.700 102.119  92.899  1.00  0.00    -0.003 C 
ATOM     20  C   UNL     1     139.850 101.242  92.405  1.00  0.00     0.004 C 
ENDBRANCH  18  19
ENDBRANCH  17  18
ENDBRANCH  16  17
ENDBRANCH  15  16
ENDBRANCH  14  15
ENDBRANCH  13  14
ENDBRANCH  12  13
ENDBRANCH   1  12
TORSDOF 16
ENDMDL
MODEL 7
REMARK VINA RESULT:    -4.119      3.422      6.561
REMARK INTER + INTRA:         -10.753
REMARK INTER:                  -9.181
REMARK INTRA:                  -1.573
REMARK UNBOUND:                -2.782
REMARK SMILES CCCCCCCCCCCCCCCCCC(=O)[O-]
REMARK SMILES IDX 10 1 11 2 12 3 13 4 14 5 15 6 16 7 17 8 18 9 19 10 20 11
REMARK SMILES IDX 9 12 8 13 7 14 6 15 5 16 4 17 3 18 2 19 1 20
REMARK H PARENT
REMARK Flexibility Score: inf
ROOT
ATOM      1  C   UNL     1     131.586  98.974  91.128  1.00  0.00     0.000 C 
ENDROOT
BRANCH   1   2
ATOM      2  C   UNL     1     132.777  98.007  90.998  1.00  0.00     0.000 C 
BRANCH   2   3
ATOM      3  C   UNL     1     134.161  98.649  91.213  1.00  0.00     0.000 C 
BRANCH   3   4
ATOM      4  C   UNL     1     135.212  97.729  91.863  1.00  0.00     0.000 C 
BRANCH   4   5
ATOM      5  C   UNL     1     136.274  98.485  92.692  1.00  0.00     0.000 C 
BRANCH   5   6
ATOM      6  C   UNL     1     136.714  97.701  93.938  1.00  0.00     0.000 C 
BRANCH   6   7
ATOM      7  C   UNL     1     137.859  98.422  94.664  1.00  0.00     0.006 C 
BRANCH   7   8
ATOM      8  C   UNL     1     137.590  99.924  94.825  1.00  0.00     0.053 C 
BRANCH   8   9
ATOM      9  C   UNL     1     138.679 100.605  95.595  1.00  0.00     0.041 C 
ATOM     10  O   UNL     1     138.882 100.310  96.802  1.00  0.00    -0.550 OA
ATOM     11  O   UNL     1     139.493 101.541  94.970  1.00  0.00    -0.550 OA
ENDBRANCH   8   9
ENDBRANCH   7   8
ENDBRANCH   6   7
ENDBRANCH   5   6
ENDBRANCH   4   5
ENDBRANCH   3   4
ENDBRANCH   2   3
ENDBRANCH   1   2
BRANCH   1  12
ATOM     12  C   UNL     1     132.020 100.414  91.455  1.00  0.00     0.000 C 
BRANCH  12  13
ATOM     13  C   UNL     1     130.834 101.295  91.887  1.00  0.00    -0.000 C 
BRANCH  13  14
ATOM     14  C   UNL     1     131.267 102.602  92.588  1.00  0.00    -0.000 C 
BRANCH  14  15
ATOM     15  C   UNL     1     130.376 102.989  93.784  1.00  0.00    -0.000 C 
BRANCH  15  16
ATOM     16  C   UNL     1     131.138 103.450  95.038  1.00  0.00    -0.000 C 
BRANCH  16  17
ATOM     17  C   UNL     1     132.238 102.462  95.465  1.00  0.00    -0.000 C 
BRANCH  17  18
ATOM     18  C   UNL     1     133.596 103.147  95.702  1.00  0.00    -0.000 C 
BRANCH  18  19
ATOM     19  C   UNL     1     134.599 103.018  94.542  1.00  0.00    -0.003 C 
ATOM     20  C   UNL     1     134.592 101.633  93.897  1.00  0.00     0.004 C 
ENDBRANCH  18  19
ENDBRANCH  17  18
ENDBRANCH  16  17
ENDBRANCH  15  16
ENDBRANCH  14  15
ENDBRANCH  13  14
ENDBRANCH  12  13
ENDBRANCH   1  12
TORSDOF 16
ENDMDL
MODEL 8
REMARK VINA RESULT:    -4.052      3.392      6.035
REMARK INTER + INTRA:         -10.624
REMARK INTER:                  -9.156
REMARK INTRA:                  -1.468
REMARK UNBOUND:                -2.782
REMARK SMILES CCCCCCCCCCCCCCCCCC(=O)[O-]
REMARK SMILES IDX 10 1 11 2 12 3 13 4 14 5 15 6 16 7 17 8 18 9 19 10 20 11
REMARK SMILES IDX 9 12 8 13 7 14 6 15 5 16 4 17 3 18 2 19 1 20
REMARK H PARENT
REMARK Flexibility Score: inf
ROOT
ATOM      1  C   UNL     1     136.437  97.814  93.379  1.00  0.00     0.000 C 
ENDROOT
BRANCH   1   2
ATOM      2  C   UNL     1     137.536  98.215  94.381  1.00  0.00     0.000 C 
BRANCH   2   3
ATOM      3  C   UNL     1     137.132  99.314  95.382  1.00  0.00     0.000 C 
BRANCH   3   4
ATOM      4  C   UNL     1     137.795 100.685  95.147  1.00  0.00     0.000 C 
BRANCH   4   5
ATOM      5  C   UNL     1     136.879 101.706  94.439  1.00  0.00     0.000 C 
BRANCH   5   6
ATOM      6  C   UNL     1     135.394 101.324  94.528  1.00  0.00     0.000 C 
BRANCH   6   7
ATOM      7  C   UNL     1     134.498 102.561  94.371  1.00  0.00     0.006 C 
BRANCH   7   8
ATOM      8  C   UNL     1     133.342 102.572  95.381  1.00  0.00     0.053 C 
BRANCH   8   9
ATOM      9  C   UNL     1     132.024 102.823  94.714  1.00  0.00     0.041 C 
ATOM     10  O   UNL     1     131.115 103.446  95.321  1.00  0.00    -0.550 OA
ATOM     11  O   UNL     1     131.813 102.395  93.410  1.00  0.00    -0.550 OA
ENDBRANCH   8   9
ENDBRANCH   7   8
ENDBRANCH   6   7
ENDBRANCH   5   6
ENDBRANCH   4   5
ENDBRANCH   3   4
ENDBRANCH   2   3
ENDBRANCH   1   2
BRANCH   1  12
ATOM     12  C   UNL     1     136.471  98.654  92.091  1.00  0.00     0.000 C 
BRANCH  12  13
ATOM     13  C   UNL     1     135.118  98.646  91.356  1.00  0.00    -0.000 C 
BRANCH  13  14
ATOM     14  C   UNL     1     134.505  97.235  91.219  1.00  0.00    -0.000 C 
BRANCH  14  15
ATOM     15  C   UNL     1     133.056  97.236  90.694  1.00  0.00    -0.000 C 
BRANCH  15  16
ATOM     16  C   UNL     1     132.200  98.427  91.156  1.00  0.00    -0.000 C 
BRANCH  16  17
ATOM     17  C   UNL     1     130.881  98.554  90.373  1.00  0.00    -0.000 C 
BRANCH  17  18
ATOM     18  C   UNL     1     129.678  97.961  91.128  1.00  0.00    -0.000 C 
BRANCH  18  19
ATOM     19  C   UNL     1     129.212  96.582  90.626  1.00  0.00    -0.003 C 
ATOM     20  C   UNL     1     129.716  95.429  91.493  1.00  0.00     0.004 C 
ENDBRANCH  18  19
ENDBRANCH  17  18
ENDBRANCH  16  17
ENDBRANCH  15  16
ENDBRANCH  14  15
ENDBRANCH  13  14
ENDBRANCH  12  13
ENDBRANCH   1  12
TORSDOF 16
ENDMDL
MODEL 9
REMARK VINA RESULT:    -4.006      1.825      2.868
REMARK INTER + INTRA:         -10.536
REMARK INTER:                  -7.770
REMARK INTRA:                  -2.765
REMARK UNBOUND:                -2.782
REMARK SMILES CCCCCCCCCCCCCCCCCC(=O)[O-]
REMARK SMILES IDX 10 1 11 2 12 3 13 4 14 5 15 6 16 7 17 8 18 9 19 10 20 11
REMARK SMILES IDX 9 12 8 13 7 14 6 15 5 16 4 17 3 18 2 19 1 20
REMARK H PARENT
REMARK Flexibility Score: inf
ROOT
ATOM      1  C   UNL     1     135.796  98.383  90.564  1.00  0.00     0.000 C 
ENDROOT
BRANCH   1   2
ATOM      2  C   UNL     1     134.595  97.678  91.222  1.00  0.00     0.000 C 
BRANCH   2   3
ATOM      3  C   UNL     1     133.262  98.443  91.130  1.00  0.00     0.000 C 
BRANCH   3   4
ATOM      4  C   UNL     1     133.386  99.925  90.725  1.00  0.00     0.000 C 
BRANCH   4   5
ATOM      5  C   UNL     1     133.333 100.903  91.918  1.00  0.00     0.000 C 
BRANCH   5   6
ATOM      6  C   UNL     1     134.333 102.060  91.775  1.00  0.00     0.000 C 
BRANCH   6   7
ATOM      7  C   UNL     1     135.402 102.001  92.876  1.00  0.00     0.006 C 
BRANCH   7   8
ATOM      8  C   UNL     1     134.819 101.572  94.229  1.00  0.00     0.053 C 
BRANCH   8   9
ATOM      9  C   UNL     1     134.379 102.749  95.043  1.00  0.00     0.041 C 
ATOM     10  O   UNL     1     135.133 103.749  95.171  1.00  0.00    -0.550 OA
ATOM     11  O   UNL     1     133.122 102.755  95.635  1.00  0.00    -0.550 OA
ENDBRANCH   8   9
ENDBRANCH   7   8
ENDBRANCH   6   7
ENDBRANCH   5   6
ENDBRANCH   4   5
ENDBRANCH   3   4
ENDBRANCH   2   3
ENDBRANCH   1   2
BRANCH   1  12
ATOM     12  C   UNL     1     136.954  98.628  91.546  1.00  0.00     0.000 C 
BRANCH  12  13
ATOM     13  C   UNL     1     136.493  98.574  93.014  1.00  0.00    -0.000 C 
BRANCH  13  14
ATOM     14  C   UNL     1     137.298  97.572  93.872  1.00  0.00    -0.000 C 
BRANCH  14  15
ATOM     15  C   UNL     1     138.228  98.243  94.902  1.00  0.00    -0.000 C 
BRANCH  15  16
ATOM     16  C   UNL     1     137.587  99.387  95.706  1.00  0.00    -0.000 C 
BRANCH  16  17
ATOM     17  C   UNL     1     138.558 100.552  95.966  1.00  0.00    -0.000 C 
BRANCH  17  18
ATOM     18  C   UNL     1     138.507 101.628  94.867  1.00  0.00    -0.000 C 
BRANCH  18  19
ATOM     19  C   UNL     1     139.706 101.627  93.901  1.00  0.00    -0.003 C 
ATOM     20  C   UNL     1     139.311 101.313  92.458  1.00  0.00     0.004 C 
ENDBRANCH  18  19
ENDBRANCH  17  18
ENDBRANCH  16  17
ENDBRANCH  15  16
ENDBRANCH  14  15
ENDBRANCH  13  14
ENDBRANCH  12  13
ENDBRANCH   1  12
TORSDOF 16
ENDMDL
