MODEL 1
REMARK VINA RESULT:    -5.519      0.000      0.000
REMARK INTER + INTRA:          -6.852
REMARK INTER:                  -6.648
REMARK INTRA:                  -0.204
REMARK UNBOUND:                -0.204
REMARK SMILES O=c1c(O)c(-c2ccc(O)c(O)c2)oc2cc(O)cc(O)c12
REMARK SMILES IDX 5 1 3 2 2 3 1 4 22 5 20 6 19 7 17 8 16 9 15 10 14 11 6 12
REMARK SMILES IDX 7 13 8 14 9 15 13 16 11 17 10 18 12 20 4 22 21 24 18 26
REMARK H PARENT 10 19 12 21 4 23 21 25 18 27
REMARK Flexibility Score: inf
ROOT
ATOM      1  C   UNL     1      -4.625  91.158 -14.842  1.00  0.00     0.180 A 
ATOM      2  C   UNL     1      -5.204  90.050 -14.197  1.00  0.00     0.208 A 
ATOM      3  C   UNL     1      -5.336  90.069 -12.800  1.00  0.00     0.238 A 
ATOM      4  O   UNL     1      -5.903  89.099 -12.234  1.00  0.00    -0.285 OA
ATOM      5  C   UNL     1      -4.874  91.187 -12.064  1.00  0.00     0.111 A 
ATOM      6  C   UNL     1      -4.921  91.295 -10.641  1.00  0.00     0.134 A 
ATOM      7  C   UNL     1      -4.556  92.500 -10.028  1.00  0.00     0.093 A 
ATOM      8  C   UNL     1      -4.084  93.576 -10.778  1.00  0.00     0.123 A 
ATOM      9  C   UNL     1      -3.978  93.461 -12.166  1.00  0.00     0.094 A 
ATOM     10  C   UNL     1      -4.369  92.283 -12.809  1.00  0.00     0.146 A 
ATOM     11  O   UNL     1      -4.262  92.217 -14.131  1.00  0.00    -0.452 OA
ENDROOT
BRANCH   1  12
ATOM     12  C   UNL     1      -4.430  91.200 -16.310  1.00  0.00     0.025 A 
ATOM     13  C   UNL     1      -3.133  91.094 -16.837  1.00  0.00     0.016 A 
ATOM     14  C   UNL     1      -2.927  91.110 -18.219  1.00  0.00     0.051 A 
ATOM     15  C   UNL     1      -4.013  91.217 -19.094  1.00  0.00     0.157 A 
ATOM     16  C   UNL     1      -5.522  91.288 -17.192  1.00  0.00     0.062 A 
ATOM     17  C   UNL     1      -5.318  91.302 -18.579  1.00  0.00     0.158 A 
BRANCH  15  18
ATOM     18  O   UNL     1      -3.777  91.234 -20.468  1.00  0.00    -0.504 OA
ATOM     19  H   UNL     1      -3.030  91.779 -20.879  1.00  0.00     0.293 HD
ENDBRANCH  15  18
BRANCH  17  20
ATOM     20  O   UNL     1      -6.405  91.395 -19.447  1.00  0.00    -0.504 OA
ATOM     21  H   UNL     1      -6.728  90.595 -19.979  1.00  0.00     0.293 HD
ENDBRANCH  17  20
ENDBRANCH   1  12
BRANCH   2  22
ATOM     22  O   UNL     1      -5.673  88.967 -14.945  1.00  0.00    -0.502 OA
ATOM     23  H   UNL     1      -5.770  89.003 -15.953  1.00  0.00     0.293 HD
ENDBRANCH   2  22
BRANCH   6  24
ATOM     24  O   UNL     1      -5.289  90.249  -9.790  1.00  0.00    -0.507 OA
ATOM     25  H   UNL     1      -5.552  90.361  -8.822  1.00  0.00     0.293 HD
ENDBRANCH   6  24
BRANCH   8  26
ATOM     26  O   UNL     1      -3.715  94.755 -10.134  1.00  0.00    -0.508 OA
ATOM     27  H   UNL     1      -3.685  95.640 -10.626  1.00  0.00     0.293 HD
ENDBRANCH   8  26
TORSDOF 6
ENDMDL
MODEL 2
REMARK VINA RESULT:    -5.398     10.260     11.837
REMARK INTER + INTRA:          -6.706
REMARK INTER:                  -6.384
REMARK INTRA:                  -0.322
REMARK UNBOUND:                -0.204
REMARK SMILES O=c1c(O)c(-c2ccc(O)c(O)c2)oc2cc(O)cc(O)c12
REMARK SMILES IDX 5 1 3 2 2 3 1 4 22 5 20 6 19 7 17 8 16 9 15 10 14 11 6 12
REMARK SMILES IDX 7 13 8 14 9 15 13 16 11 17 10 18 12 20 4 22 21 24 18 26
REMARK H PARENT 10 19 12 21 4 23 21 25 18 27
REMARK Flexibility Score: inf
ROOT
ATOM      1  C   UNL     1      -9.644  83.545  -8.894  1.00  0.00     0.180 A 
ATOM      2  C   UNL     1     -10.478  82.413  -8.917  1.00  0.00     0.208 A 
ATOM      3  C   UNL     1     -11.848  82.583  -9.175  1.00  0.00     0.238 A 
ATOM      4  O   UNL     1     -12.580  81.562  -9.247  1.00  0.00    -0.285 OA
ATOM      5  C   UNL     1     -12.369  83.882  -9.389  1.00  0.00     0.111 A 
ATOM      6  C   UNL     1     -13.748  84.174  -9.618  1.00  0.00     0.134 A 
ATOM      7  C   UNL     1     -14.130  85.480  -9.949  1.00  0.00     0.093 A 
ATOM      8  C   UNL     1     -13.198  86.514  -9.993  1.00  0.00     0.123 A 
ATOM      9  C   UNL     1     -11.856  86.252  -9.713  1.00  0.00     0.094 A 
ATOM     10  C   UNL     1     -11.437  84.951  -9.415  1.00  0.00     0.146 A 
ATOM     11  O   UNL     1     -10.151  84.741  -9.164  1.00  0.00    -0.452 OA
ENDROOT
BRANCH   1  12
ATOM     12  C   UNL     1      -8.194  83.448  -8.605  1.00  0.00     0.025 A 
ATOM     13  C   UNL     1      -7.754  83.457  -7.273  1.00  0.00     0.016 A 
ATOM     14  C   UNL     1      -6.393  83.346  -6.976  1.00  0.00     0.051 A 
ATOM     15  C   UNL     1      -5.455  83.208  -8.004  1.00  0.00     0.157 A 
ATOM     16  C   UNL     1      -7.251  83.290  -9.636  1.00  0.00     0.062 A 
ATOM     17  C   UNL     1      -5.885  83.176  -9.341  1.00  0.00     0.158 A 
BRANCH  15  18
ATOM     18  O   UNL     1      -4.104  83.102  -7.678  1.00  0.00    -0.504 OA
ATOM     19  H   UNL     1      -3.550  83.905  -7.409  1.00  0.00     0.293 HD
ENDBRANCH  15  18
BRANCH  17  20
ATOM     20  O   UNL     1      -4.955  83.025 -10.369  1.00  0.00    -0.504 OA
ATOM     21  H   UNL     1      -5.206  82.594 -11.252  1.00  0.00     0.293 HD
ENDBRANCH  17  20
ENDBRANCH   1  12
BRANCH   2  22
ATOM     22  O   UNL     1      -9.940  81.138  -8.723  1.00  0.00    -0.502 OA
ATOM     23  H   UNL     1     -10.083  80.382  -9.381  1.00  0.00     0.293 HD
ENDBRANCH   2  22
BRANCH   6  24
ATOM     24  O   UNL     1     -14.774  83.232  -9.508  1.00  0.00    -0.507 OA
ATOM     25  H   UNL     1     -14.663  82.303  -9.128  1.00  0.00     0.293 HD
ENDBRANCH   6  24
BRANCH   8  26
ATOM     26  O   UNL     1     -13.616  87.805 -10.309  1.00  0.00    -0.508 OA
ATOM     27  H   UNL     1     -13.667  88.533  -9.606  1.00  0.00     0.293 HD
ENDBRANCH   8  26
TORSDOF 6
ENDMDL
MODEL 3
REMARK VINA RESULT:    -5.358     10.168     12.848
REMARK INTER + INTRA:          -6.658
REMARK INTER:                  -6.382
REMARK INTRA:                  -0.276
REMARK UNBOUND:                -0.204
REMARK SMILES O=c1c(O)c(-c2ccc(O)c(O)c2)oc2cc(O)cc(O)c12
REMARK SMILES IDX 5 1 3 2 2 3 1 4 22 5 20 6 19 7 17 8 16 9 15 10 14 11 6 12
REMARK SMILES IDX 7 13 8 14 9 15 13 16 11 17 10 18 12 20 4 22 21 24 18 26
REMARK H PARENT 10 19 12 21 4 23 21 25 18 27
REMARK Flexibility Score: inf
ROOT
ATOM      1  C   UNL     1      -9.459  83.138  -8.489  1.00  0.00     0.180 A 
ATOM      2  C   UNL     1     -10.245  84.156  -9.058  1.00  0.00     0.208 A 
ATOM      3  C   UNL     1     -11.634  83.973  -9.145  1.00  0.00     0.238 A 
ATOM      4  O   UNL     1     -12.338  84.908  -9.606  1.00  0.00    -0.285 OA
ATOM      5  C   UNL     1     -12.217  82.770  -8.678  1.00  0.00     0.111 A 
ATOM      6  C   UNL     1     -13.610  82.462  -8.755  1.00  0.00     0.134 A 
ATOM      7  C   UNL     1     -14.093  81.299  -8.143  1.00  0.00     0.093 A 
ATOM      8  C   UNL     1     -13.230  80.402  -7.517  1.00  0.00     0.123 A 
ATOM      9  C   UNL     1     -11.859  80.664  -7.488  1.00  0.00     0.094 A 
ATOM     10  C   UNL     1     -11.350  81.834  -8.058  1.00  0.00     0.146 A 
ATOM     11  O   UNL     1     -10.042  82.051  -8.001  1.00  0.00    -0.452 OA
ENDROOT
BRANCH   1  12
ATOM     12  C   UNL     1      -7.985  83.248  -8.385  1.00  0.00     0.025 A 
ATOM     13  C   UNL     1      -7.395  83.452  -7.128  1.00  0.00     0.016 A 
ATOM     14  C   UNL     1      -6.006  83.537  -7.003  1.00  0.00     0.051 A 
ATOM     15  C   UNL     1      -5.186  83.404  -8.128  1.00  0.00     0.157 A 
ATOM     16  C   UNL     1      -7.158  83.094  -9.512  1.00  0.00     0.062 A 
ATOM     17  C   UNL     1      -5.763  83.177  -9.389  1.00  0.00     0.158 A 
BRANCH  15  18
ATOM     18  O   UNL     1      -3.803  83.496  -7.973  1.00  0.00    -0.504 OA
ATOM     19  H   UNL     1      -3.179  83.601  -8.763  1.00  0.00     0.293 HD
ENDBRANCH  15  18
BRANCH  17  20
ATOM     20  O   UNL     1      -4.950  83.029 -10.512  1.00  0.00    -0.504 OA
ATOM     21  H   UNL     1      -5.305  82.636 -11.375  1.00  0.00     0.293 HD
ENDBRANCH  17  20
ENDBRANCH   1  12
BRANCH   2  22
ATOM     22  O   UNL     1      -9.651  85.343  -9.493  1.00  0.00    -0.502 OA
ATOM     23  H   UNL     1      -9.971  86.255  -9.188  1.00  0.00     0.293 HD
ENDBRANCH   2  22
BRANCH   6  24
ATOM     24  O   UNL     1     -14.546  83.244  -9.436  1.00  0.00    -0.507 OA
ATOM     25  H   UNL     1     -14.555  83.391 -10.435  1.00  0.00     0.293 HD
ENDBRANCH   6  24
BRANCH   8  26
ATOM     26  O   UNL     1     -13.744  79.246  -6.932  1.00  0.00    -0.508 OA
ATOM     27  H   UNL     1     -13.614  79.048  -5.947  1.00  0.00     0.293 HD
ENDBRANCH   8  26
TORSDOF 6
ENDMDL
MODEL 4
REMARK VINA RESULT:    -5.164      1.656      3.549
REMARK INTER + INTRA:          -6.424
REMARK INTER:                  -6.121
REMARK INTRA:                  -0.304
REMARK UNBOUND:                -0.204
REMARK SMILES O=c1c(O)c(-c2ccc(O)c(O)c2)oc2cc(O)cc(O)c12
REMARK SMILES IDX 5 1 3 2 2 3 1 4 22 5 20 6 19 7 17 8 16 9 15 10 14 11 6 12
REMARK SMILES IDX 7 13 8 14 9 15 13 16 11 17 10 18 12 20 4 22 21 24 18 26
REMARK H PARENT 10 19 12 21 4 23 21 25 18 27
REMARK Flexibility Score: inf
ROOT
ATOM      1  C   UNL     1      -5.659  91.498 -14.834  1.00  0.00     0.180 A 
ATOM      2  C   UNL     1      -4.854  92.249 -13.960  1.00  0.00     0.208 A 
ATOM      3  C   UNL     1      -4.771  91.865 -12.612  1.00  0.00     0.238 A 
ATOM      4  O   UNL     1      -4.007  92.509 -11.847  1.00  0.00    -0.285 OA
ATOM      5  C   UNL     1      -5.506  90.746 -12.152  1.00  0.00     0.111 A 
ATOM      6  C   UNL     1      -5.528  90.293 -10.798  1.00  0.00     0.134 A 
ATOM      7  C   UNL     1      -6.185  89.098 -10.482  1.00  0.00     0.093 A 
ATOM      8  C   UNL     1      -6.876  88.376 -11.454  1.00  0.00     0.123 A 
ATOM      9  C   UNL     1      -6.911  88.841 -12.770  1.00  0.00     0.094 A 
ATOM     10  C   UNL     1      -6.234  90.012 -13.124  1.00  0.00     0.146 A 
ATOM     11  O   UNL     1      -6.283  90.416 -14.387  1.00  0.00    -0.452 OA
ENDROOT
BRANCH   1  12
ATOM     12  C   UNL     1      -5.816  91.856 -16.263  1.00  0.00     0.025 A 
ATOM     13  C   UNL     1      -6.715  92.870 -16.626  1.00  0.00     0.016 A 
ATOM     14  C   UNL     1      -6.864  93.239 -17.965  1.00  0.00     0.051 A 
ATOM     15  C   UNL     1      -6.106  92.611 -18.959  1.00  0.00     0.157 A 
ATOM     16  C   UNL     1      -5.040  91.240 -17.262  1.00  0.00     0.062 A 
ATOM     17  C   UNL     1      -5.186  91.610 -18.606  1.00  0.00     0.158 A 
BRANCH  15  18
ATOM     18  O   UNL     1      -6.277  92.998 -20.288  1.00  0.00    -0.504 OA
ATOM     19  H   UNL     1      -5.961  92.426 -21.060  1.00  0.00     0.293 HD
ENDBRANCH  15  18
BRANCH  17  20
ATOM     20  O   UNL     1      -4.417  90.991 -19.591  1.00  0.00    -0.504 OA
ATOM     21  H   UNL     1      -4.483  91.263 -20.565  1.00  0.00     0.293 HD
ENDBRANCH  17  20
ENDBRANCH   1  12
BRANCH   2  22
ATOM     22  O   UNL     1      -4.120  93.338 -14.440  1.00  0.00    -0.502 OA
ATOM     23  H   UNL     1      -3.765  93.379 -15.387  1.00  0.00     0.293 HD
ENDBRANCH   2  22
BRANCH   6  24
ATOM     24  O   UNL     1      -4.948  90.986  -9.733  1.00  0.00    -0.507 OA
ATOM     25  H   UNL     1      -4.176  91.631  -9.819  1.00  0.00     0.293 HD
ENDBRANCH   6  24
BRANCH   8  26
ATOM     26  O   UNL     1      -7.533  87.199 -11.101  1.00  0.00    -0.508 OA
ATOM     27  H   UNL     1      -8.488  87.206 -10.763  1.00  0.00     0.293 HD
ENDBRANCH   8  26
TORSDOF 6
ENDMDL
MODEL 5
REMARK VINA RESULT:    -5.153      4.314      6.198
REMARK INTER + INTRA:          -6.411
REMARK INTER:                  -6.382
REMARK INTRA:                  -0.029
REMARK UNBOUND:                -0.204
REMARK SMILES O=c1c(O)c(-c2ccc(O)c(O)c2)oc2cc(O)cc(O)c12
REMARK SMILES IDX 5 1 3 2 2 3 1 4 22 5 20 6 19 7 17 8 16 9 15 10 14 11 6 12
REMARK SMILES IDX 7 13 8 14 9 15 13 16 11 17 10 18 12 20 4 22 21 24 18 26
REMARK H PARENT 10 19 12 21 4 23 21 25 18 27
REMARK Flexibility Score: inf
ROOT
ATOM      1  C   UNL     1      -8.505  90.542 -13.208  1.00  0.00     0.180 A 
ATOM      2  C   UNL     1      -7.634  89.472 -13.481  1.00  0.00     0.208 A 
ATOM      3  C   UNL     1      -6.251  89.711 -13.510  1.00  0.00     0.238 A 
ATOM      4  O   UNL     1      -5.474  88.740 -13.702  1.00  0.00    -0.285 OA
ATOM      5  C   UNL     1      -5.757  91.019 -13.281  1.00  0.00     0.111 A 
ATOM      6  C   UNL     1      -4.377  91.382 -13.326  1.00  0.00     0.134 A 
ATOM      7  C   UNL     1      -3.993  92.676 -12.954  1.00  0.00     0.093 A 
ATOM      8  C   UNL     1      -4.940  93.637 -12.604  1.00  0.00     0.123 A 
ATOM      9  C   UNL     1      -6.297  93.309 -12.614  1.00  0.00     0.094 A 
ATOM     10  C   UNL     1      -6.709  92.015 -12.945  1.00  0.00     0.146 A 
ATOM     11  O   UNL     1      -8.008  91.741 -12.933  1.00  0.00    -0.452 OA
ENDROOT
BRANCH   1  12
ATOM     12  C   UNL     1      -9.977  90.373 -13.185  1.00  0.00     0.025 A 
ATOM     13  C   UNL     1     -10.775  91.163 -14.027  1.00  0.00     0.016 A 
ATOM     14  C   UNL     1     -12.163  91.006 -14.038  1.00  0.00     0.051 A 
ATOM     15  C   UNL     1     -12.772  90.048 -13.221  1.00  0.00     0.157 A 
ATOM     16  C   UNL     1     -10.589  89.397 -12.380  1.00  0.00     0.062 A 
ATOM     17  C   UNL     1     -11.982  89.236 -12.391  1.00  0.00     0.158 A 
BRANCH  15  18
ATOM     18  O   UNL     1     -14.160  89.916 -13.251  1.00  0.00    -0.504 OA
ATOM     19  H   UNL     1     -14.770  90.692 -13.472  1.00  0.00     0.293 HD
ENDBRANCH  15  18
BRANCH  17  20
ATOM     20  O   UNL     1     -12.583  88.269 -11.585  1.00  0.00    -0.504 OA
ATOM     21  H   UNL     1     -13.188  87.556 -11.974  1.00  0.00     0.293 HD
ENDBRANCH  17  20
ENDBRANCH   1  12
BRANCH   2  22
ATOM     22  O   UNL     1      -8.142  88.186 -13.684  1.00  0.00    -0.502 OA
ATOM     23  H   UNL     1      -8.023  87.442 -13.007  1.00  0.00     0.293 HD
ENDBRANCH   2  22
BRANCH   6  24
ATOM     24  O   UNL     1      -3.358  90.526 -13.751  1.00  0.00    -0.507 OA
ATOM     25  H   UNL     1      -3.366  89.523 -13.639  1.00  0.00     0.293 HD
ENDBRANCH   6  24
BRANCH   8  26
ATOM     26  O   UNL     1      -4.523  94.920 -12.255  1.00  0.00    -0.508 OA
ATOM     27  H   UNL     1      -4.545  95.242 -11.295  1.00  0.00     0.293 HD
ENDBRANCH   8  26
TORSDOF 6
ENDMDL
MODEL 6
REMARK VINA RESULT:    -5.064     16.677     19.369
REMARK INTER + INTRA:          -6.304
REMARK INTER:                  -6.228
REMARK INTRA:                  -0.076
REMARK UNBOUND:                -0.204
REMARK SMILES O=c1c(O)c(-c2ccc(O)c(O)c2)oc2cc(O)cc(O)c12
REMARK SMILES IDX 5 1 3 2 2 3 1 4 22 5 20 6 19 7 17 8 16 9 15 10 14 11 6 12
REMARK SMILES IDX 7 13 8 14 9 15 13 16 11 17 10 18 12 20 4 22 21 24 18 26
REMARK H PARENT 10 19 12 21 4 23 21 25 18 27
REMARK Flexibility Score: inf
ROOT
ATOM      1  C   UNL     1     -16.431  79.561  -6.733  1.00  0.00     0.180 A 
ATOM      2  C   UNL     1     -16.720  80.757  -6.052  1.00  0.00     0.208 A 
ATOM      3  C   UNL     1     -18.021  81.281  -6.119  1.00  0.00     0.238 A 
ATOM      4  O   UNL     1     -18.288  82.322  -5.465  1.00  0.00    -0.285 OA
ATOM      5  C   UNL     1     -19.011  80.613  -6.880  1.00  0.00     0.111 A 
ATOM      6  C   UNL     1     -20.351  81.076  -7.051  1.00  0.00     0.134 A 
ATOM      7  C   UNL     1     -21.281  80.267  -7.715  1.00  0.00     0.093 A 
ATOM      8  C   UNL     1     -20.905  79.046  -8.272  1.00  0.00     0.123 A 
ATOM      9  C   UNL     1     -19.584  78.610  -8.162  1.00  0.00     0.094 A 
ATOM     10  C   UNL     1     -18.641  79.378  -7.473  1.00  0.00     0.146 A 
ATOM     11  O   UNL     1     -17.397  78.924  -7.382  1.00  0.00    -0.452 OA
ENDROOT
BRANCH   1  12
ATOM     12  C   UNL     1     -15.077  78.961  -6.728  1.00  0.00     0.025 A 
ATOM     13  C   UNL     1     -14.922  77.612  -6.372  1.00  0.00     0.016 A 
ATOM     14  C   UNL     1     -13.656  77.019  -6.381  1.00  0.00     0.051 A 
ATOM     15  C   UNL     1     -12.532  77.759  -6.761  1.00  0.00     0.157 A 
ATOM     16  C   UNL     1     -13.948  79.697  -7.130  1.00  0.00     0.062 A 
ATOM     17  C   UNL     1     -12.678  79.103  -7.142  1.00  0.00     0.158 A 
BRANCH  15  18
ATOM     18  O   UNL     1     -11.282  77.141  -6.758  1.00  0.00    -0.504 OA
ATOM     19  H   UNL     1     -10.936  76.622  -7.555  1.00  0.00     0.293 HD
ENDBRANCH  15  18
BRANCH  17  20
ATOM     20  O   UNL     1     -11.562  79.842  -7.535  1.00  0.00    -0.504 OA
ATOM     21  H   UNL     1     -11.088  79.659  -8.412  1.00  0.00     0.293 HD
ENDBRANCH  17  20
ENDBRANCH   1  12
BRANCH   2  22
ATOM     22  O   UNL     1     -15.734  81.389  -5.290  1.00  0.00    -0.502 OA
ATOM     23  H   UNL     1     -14.947  81.869  -5.709  1.00  0.00     0.293 HD
ENDBRANCH   2  22
BRANCH   6  24
ATOM     24  O   UNL     1     -20.808  82.323  -6.614  1.00  0.00    -0.507 OA
ATOM     25  H   UNL     1     -20.212  83.079  -6.311  1.00  0.00     0.293 HD
ENDBRANCH   6  24
BRANCH   8  26
ATOM     26  O   UNL     1     -21.853  78.274  -8.941  1.00  0.00    -0.508 OA
ATOM     27  H   UNL     1     -21.598  77.418  -9.419  1.00  0.00     0.293 HD
ENDBRANCH   8  26
TORSDOF 6
ENDMDL
MODEL 7
REMARK VINA RESULT:    -5.037      9.484     12.261
REMARK INTER + INTRA:          -6.272
REMARK INTER:                  -5.973
REMARK INTRA:                  -0.299
REMARK UNBOUND:                -0.204
REMARK SMILES O=c1c(O)c(-c2ccc(O)c(O)c2)oc2cc(O)cc(O)c12
REMARK SMILES IDX 5 1 3 2 2 3 1 4 22 5 20 6 19 7 17 8 16 9 15 10 14 11 6 12
REMARK SMILES IDX 7 13 8 14 9 15 13 16 11 17 10 18 12 20 4 22 21 24 18 26
REMARK H PARENT 10 19 12 21 4 23 21 25 18 27
REMARK Flexibility Score: inf
ROOT
ATOM      1  C   UNL     1      -9.012  83.305  -8.139  1.00  0.00     0.180 A 
ATOM      2  C   UNL     1      -9.269  82.554  -6.979  1.00  0.00     0.208 A 
ATOM      3  C   UNL     1     -10.587  82.155  -6.705  1.00  0.00     0.238 A 
ATOM      4  O   UNL     1     -10.803  81.438  -5.694  1.00  0.00    -0.285 OA
ATOM      5  C   UNL     1     -11.632  82.525  -7.586  1.00  0.00     0.111 A 
ATOM      6  C   UNL     1     -13.010  82.210  -7.385  1.00  0.00     0.134 A 
ATOM      7  C   UNL     1     -13.940  82.513  -8.386  1.00  0.00     0.093 A 
ATOM      8  C   UNL     1     -13.556  83.178  -9.549  1.00  0.00     0.123 A 
ATOM      9  C   UNL     1     -12.221  83.544  -9.730  1.00  0.00     0.094 A 
ATOM     10  C   UNL     1     -11.262  83.223  -8.764  1.00  0.00     0.146 A 
ATOM     11  O   UNL     1     -10.002  83.580  -8.978  1.00  0.00    -0.452 OA
ENDROOT
BRANCH   1  12
ATOM     12  C   UNL     1      -7.652  83.783  -8.482  1.00  0.00     0.025 A 
ATOM     13  C   UNL     1      -7.142  84.926  -7.848  1.00  0.00     0.016 A 
ATOM     14  C   UNL     1      -5.854  85.383  -8.140  1.00  0.00     0.051 A 
ATOM     15  C   UNL     1      -5.052  84.696  -9.057  1.00  0.00     0.157 A 
ATOM     16  C   UNL     1      -6.836  83.082  -9.388  1.00  0.00     0.062 A 
ATOM     17  C   UNL     1      -5.542  83.537  -9.682  1.00  0.00     0.158 A 
BRANCH  15  18
ATOM     18  O   UNL     1      -3.772  85.176  -9.330  1.00  0.00    -0.504 OA
ATOM     19  H   UNL     1      -3.597  86.149  -9.550  1.00  0.00     0.293 HD
ENDBRANCH  15  18
BRANCH  17  20
ATOM     20  O   UNL     1      -4.742  82.840 -10.586  1.00  0.00    -0.504 OA
ATOM     21  H   UNL     1      -4.917  82.872 -11.583  1.00  0.00     0.293 HD
ENDBRANCH  17  20
ENDBRANCH   1  12
BRANCH   2  22
ATOM     22  O   UNL     1      -8.219  82.182  -6.135  1.00  0.00    -0.502 OA
ATOM     23  H   UNL     1      -7.793  81.264  -6.169  1.00  0.00     0.293 HD
ENDBRANCH   2  22
BRANCH   6  24
ATOM     24  O   UNL     1     -13.516  81.628  -6.219  1.00  0.00    -0.507 OA
ATOM     25  H   UNL     1     -14.130  82.092  -5.565  1.00  0.00     0.293 HD
ENDBRANCH   6  24
BRANCH   8  26
ATOM     26  O   UNL     1     -14.511  83.478 -10.518  1.00  0.00    -0.508 OA
ATOM     27  H   UNL     1     -14.253  83.638 -11.485  1.00  0.00     0.293 HD
ENDBRANCH   8  26
TORSDOF 6
ENDMDL
MODEL 8
REMARK VINA RESULT:    -5.026     10.401     11.798
REMARK INTER + INTRA:          -6.258
REMARK INTER:                  -6.042
REMARK INTRA:                  -0.216
REMARK UNBOUND:                -0.204
REMARK SMILES O=c1c(O)c(-c2ccc(O)c(O)c2)oc2cc(O)cc(O)c12
REMARK SMILES IDX 5 1 3 2 2 3 1 4 22 5 20 6 19 7 17 8 16 9 15 10 14 11 6 12
REMARK SMILES IDX 7 13 8 14 9 15 13 16 11 17 10 18 12 20 4 22 21 24 18 26
REMARK H PARENT 10 19 12 21 4 23 21 25 18 27
REMARK Flexibility Score: inf
ROOT
ATOM      1  C   UNL     1      -9.105  83.606  -8.292  1.00  0.00     0.180 A 
ATOM      2  C   UNL     1      -8.799  84.019  -6.983  1.00  0.00     0.208 A 
ATOM      3  C   UNL     1      -7.459  84.019  -6.566  1.00  0.00     0.238 A 
ATOM      4  O   UNL     1      -7.186  84.440  -5.412  1.00  0.00    -0.285 OA
ATOM      5  C   UNL     1      -6.444  83.591  -7.456  1.00  0.00     0.111 A 
ATOM      6  C   UNL     1      -5.057  83.512  -7.125  1.00  0.00     0.134 A 
ATOM      7  C   UNL     1      -4.127  83.201  -8.124  1.00  0.00     0.093 A 
ATOM      8  C   UNL     1      -4.536  82.901  -9.422  1.00  0.00     0.123 A 
ATOM      9  C   UNL     1      -5.894  82.917  -9.743  1.00  0.00     0.094 A 
ATOM     10  C   UNL     1      -6.845  83.260  -8.776  1.00  0.00     0.146 A 
ATOM     11  O   UNL     1      -8.126  83.273  -9.123  1.00  0.00    -0.452 OA
ENDROOT
BRANCH   1  12
ATOM     12  C   UNL     1     -10.498  83.555  -8.796  1.00  0.00     0.025 A 
ATOM     13  C   UNL     1     -11.174  84.753  -9.074  1.00  0.00     0.016 A 
ATOM     14  C   UNL     1     -12.481  84.728  -9.570  1.00  0.00     0.051 A 
ATOM     15  C   UNL     1     -13.123  83.509  -9.811  1.00  0.00     0.157 A 
ATOM     16  C   UNL     1     -11.138  82.331  -9.058  1.00  0.00     0.062 A 
ATOM     17  C   UNL     1     -12.448  82.304  -9.557  1.00  0.00     0.158 A 
BRANCH  15  18
ATOM     18  O   UNL     1     -14.427  83.517 -10.304  1.00  0.00    -0.504 OA
ATOM     19  H   UNL     1     -14.631  83.391 -11.287  1.00  0.00     0.293 HD
ENDBRANCH  15  18
BRANCH  17  20
ATOM     20  O   UNL     1     -13.078  81.085  -9.809  1.00  0.00    -0.504 OA
ATOM     21  H   UNL     1     -12.937  80.585 -10.678  1.00  0.00     0.293 HD
ENDBRANCH  17  20
ENDBRANCH   1  12
BRANCH   2  22
ATOM     22  O   UNL     1      -9.814  84.457  -6.129  1.00  0.00    -0.502 OA
ATOM     23  H   UNL     1     -10.369  85.281  -6.322  1.00  0.00     0.293 HD
ENDBRANCH   2  22
BRANCH   6  24
ATOM     24  O   UNL     1      -4.550  83.702  -5.837  1.00  0.00    -0.507 OA
ATOM     25  H   UNL     1      -3.679  83.320  -5.500  1.00  0.00     0.293 HD
ENDBRANCH   6  24
BRANCH   8  26
ATOM     26  O   UNL     1      -3.583  82.580 -10.387  1.00  0.00    -0.508 OA
ATOM     27  H   UNL     1      -3.834  82.472 -11.363  1.00  0.00     0.293 HD
ENDBRANCH   8  26
TORSDOF 6
ENDMDL
MODEL 9
REMARK VINA RESULT:    -5.020      8.494     11.561
REMARK INTER + INTRA:          -6.251
REMARK INTER:                  -6.043
REMARK INTRA:                  -0.207
REMARK UNBOUND:                -0.204
REMARK SMILES O=c1c(O)c(-c2ccc(O)c(O)c2)oc2cc(O)cc(O)c12
REMARK SMILES IDX 5 1 3 2 2 3 1 4 22 5 20 6 19 7 17 8 16 9 15 10 14 11 6 12
REMARK SMILES IDX 7 13 8 14 9 15 13 16 11 17 10 18 12 20 4 22 21 24 18 26
REMARK H PARENT 10 19 12 21 4 23 21 25 18 27
REMARK Flexibility Score: inf
ROOT
ATOM      1  C   UNL     1      -9.921  84.264  -8.965  1.00  0.00     0.180 A 
ATOM      2  C   UNL     1      -9.784  85.655  -8.817  1.00  0.00     0.208 A 
ATOM      3  C   UNL     1      -8.510  86.231  -8.947  1.00  0.00     0.238 A 
ATOM      4  O   UNL     1      -8.402  87.482  -8.866  1.00  0.00    -0.285 OA
ATOM      5  C   UNL     1      -7.388  85.407  -9.205  1.00  0.00     0.111 A 
ATOM      6  C   UNL     1      -6.045  85.879  -9.314  1.00  0.00     0.134 A 
ATOM      7  C   UNL     1      -5.032  84.994  -9.702  1.00  0.00     0.093 A 
ATOM      8  C   UNL     1      -5.299  83.644  -9.920  1.00  0.00     0.123 A 
ATOM      9  C   UNL     1      -6.598  83.159  -9.758  1.00  0.00     0.094 A 
ATOM     10  C   UNL     1      -7.638  84.026  -9.407  1.00  0.00     0.146 A 
ATOM     11  O   UNL     1      -8.861  83.527  -9.272  1.00  0.00    -0.452 OA
ENDROOT
BRANCH   1  12
ATOM     12  C   UNL     1     -11.228  83.581  -8.819  1.00  0.00     0.025 A 
ATOM     13  C   UNL     1     -11.471  82.793  -7.684  1.00  0.00     0.016 A 
ATOM     14  C   UNL     1     -12.704  82.157  -7.515  1.00  0.00     0.051 A 
ATOM     15  C   UNL     1     -13.716  82.313  -8.467  1.00  0.00     0.157 A 
ATOM     16  C   UNL     1     -12.254  83.753  -9.765  1.00  0.00     0.062 A 
ATOM     17  C   UNL     1     -13.492  83.118  -9.597  1.00  0.00     0.158 A 
BRANCH  15  18
ATOM     18  O   UNL     1     -14.935  81.665  -8.273  1.00  0.00    -0.504 OA
ATOM     19  H   UNL     1     -15.673  81.686  -8.965  1.00  0.00     0.293 HD
ENDBRANCH  15  18
BRANCH  17  20
ATOM     20  O   UNL     1     -14.503  83.288 -10.542  1.00  0.00    -0.504 OA
ATOM     21  H   UNL     1     -14.696  82.584 -11.244  1.00  0.00     0.293 HD
ENDBRANCH  17  20
ENDBRANCH   1  12
BRANCH   2  22
ATOM     22  O   UNL     1     -10.908  86.452  -8.583  1.00  0.00    -0.502 OA
ATOM     23  H   UNL     1     -10.926  87.172  -7.872  1.00  0.00     0.293 HD
ENDBRANCH   2  22
BRANCH   6  24
ATOM     24  O   UNL     1      -5.652  87.190  -9.029  1.00  0.00    -0.507 OA
ATOM     25  H   UNL     1      -6.020  88.012  -9.485  1.00  0.00     0.293 HD
ENDBRANCH   6  24
BRANCH   8  26
ATOM     26  O   UNL     1      -4.264  82.787 -10.289  1.00  0.00    -0.508 OA
ATOM     27  H   UNL     1      -4.195  81.848  -9.917  1.00  0.00     0.293 HD
ENDBRANCH   8  26
TORSDOF 6
ENDMDL
