MODEL 1
REMARK VINA RESULT:    -3.673      0.000      0.000
REMARK INTER + INTRA:         -10.627
REMARK INTER:                  -7.968
REMARK INTRA:                  -2.659
REMARK UNBOUND:                -2.659
REMARK SMILES CCCCCCCCCCCCCCCCCCCCCC(=O)[O-]
REMARK SMILES IDX 12 1 11 2 10 3 9 4 8 5 7 6 6 7 5 8 4 9 3 10 2 11 1 12 13 13
REMARK SMILES IDX 14 14 15 15 16 16 17 17 18 18 19 19 20 20 21 21 22 22 23 23
REMARK SMILES IDX 24 24
REMARK H PARENT
REMARK Flexibility Score: inf
ROOT
ATOM      1  C   UNL     1      22.924 -15.802  -2.375  1.00  0.00     0.000 C 
ENDROOT
BRANCH   1   2
ATOM      2  C   UNL     1      23.858 -16.934  -2.830  1.00  0.00     0.000 C 
BRANCH   2   3
ATOM      3  C   UNL     1      24.702 -16.552  -4.055  1.00  0.00     0.000 C 
BRANCH   3   4
ATOM      4  C   UNL     1      26.198 -16.533  -3.705  1.00  0.00    -0.000 C 
BRANCH   4   5
ATOM      5  C   UNL     1      26.887 -15.224  -4.125  1.00  0.00    -0.000 C 
BRANCH   5   6
ATOM      6  C   UNL     1      28.361 -15.169  -3.689  1.00  0.00    -0.000 C 
BRANCH   6   7
ATOM      7  C   UNL     1      28.779 -16.390  -2.849  1.00  0.00    -0.000 C 
BRANCH   7   8
ATOM      8  C   UNL     1      30.169 -16.971  -3.181  1.00  0.00    -0.000 C 
BRANCH   8   9
ATOM      9  C   UNL     1      31.110 -17.133  -1.976  1.00  0.00    -0.000 C 
BRANCH   9  10
ATOM     10  C   UNL     1      30.790 -18.379  -1.133  1.00  0.00    -0.000 C 
BRANCH  10  11
ATOM     11  C   UNL     1      31.049 -18.158   0.366  1.00  0.00    -0.003 C 
ATOM     12  C   UNL     1      31.016 -16.681   0.758  1.00  0.00     0.004 C 
ENDBRANCH  10  11
ENDBRANCH   9  10
ENDBRANCH   8   9
ENDBRANCH   7   8
ENDBRANCH   6   7
ENDBRANCH   5   6
ENDBRANCH   4   5
ENDBRANCH   3   4
ENDBRANCH   2   3
ENDBRANCH   1   2
BRANCH   1  13
ATOM     13  C   UNL     1      23.549 -14.409  -2.561  1.00  0.00     0.000 C 
BRANCH  13  14
ATOM     14  C   UNL     1      24.186 -13.864  -1.270  1.00  0.00     0.000 C 
BRANCH  14  15
ATOM     15  C   UNL     1      25.704 -13.609  -1.389  1.00  0.00     0.000 C 
BRANCH  15  16
ATOM     16  C   UNL     1      26.374 -13.451  -0.015  1.00  0.00     0.000 C 
BRANCH  16  17
ATOM     17  C   UNL     1      27.768 -14.090  -0.004  1.00  0.00     0.000 C 
BRANCH  17  18
ATOM     18  C   UNL     1      28.771 -13.232  -0.790  1.00  0.00     0.000 C 
BRANCH  18  19
ATOM     19  C   UNL     1      30.231 -13.670  -0.582  1.00  0.00     0.000 C 
BRANCH  19  20
ATOM     20  C   UNL     1      31.036 -12.809   0.410  1.00  0.00     0.006 C 
BRANCH  20  21
ATOM     21  C   UNL     1      30.283 -11.551   0.861  1.00  0.00     0.053 C 
BRANCH  21  22
ATOM     22  C   UNL     1      29.906 -11.653   2.305  1.00  0.00     0.041 C 
ATOM     23  O   UNL     1      29.433 -12.727   2.761  1.00  0.00    -0.550 OA
ATOM     24  O   UNL     1      30.057 -10.555   3.143  1.00  0.00    -0.550 OA
ENDBRANCH  21  22
ENDBRANCH  20  21
ENDBRANCH  19  20
ENDBRANCH  18  19
ENDBRANCH  17  18
ENDBRANCH  16  17
ENDBRANCH  15  16
ENDBRANCH  14  15
ENDBRANCH  13  14
ENDBRANCH   1  13
TORSDOF 20
ENDMDL
MODEL 2
REMARK VINA RESULT:    -3.538      1.238      3.480
REMARK INTER + INTRA:         -10.334
REMARK INTER:                  -7.157
REMARK INTRA:                  -3.176
REMARK UNBOUND:                -2.659
REMARK SMILES CCCCCCCCCCCCCCCCCCCCCC(=O)[O-]
REMARK SMILES IDX 12 1 11 2 10 3 9 4 8 5 7 6 6 7 5 8 4 9 3 10 2 11 1 12 13 13
REMARK SMILES IDX 14 14 15 15 16 16 17 17 18 18 19 19 20 20 21 21 22 22 23 23
REMARK SMILES IDX 24 24
REMARK H PARENT
REMARK Flexibility Score: inf
ROOT
ATOM      1  C   UNL     1      26.301 -16.159  -3.155  1.00  0.00     0.000 C 
ENDROOT
BRANCH   1   2
ATOM      2  C   UNL     1      25.022 -16.076  -4.002  1.00  0.00     0.000 C 
BRANCH   2   3
ATOM      3  C   UNL     1      23.778 -15.737  -3.166  1.00  0.00     0.000 C 
BRANCH   3   4
ATOM      4  C   UNL     1      23.695 -14.227  -2.894  1.00  0.00    -0.000 C 
BRANCH   4   5
ATOM      5  C   UNL     1      24.105 -13.860  -1.458  1.00  0.00    -0.000 C 
BRANCH   5   6
ATOM      6  C   UNL     1      25.513 -13.245  -1.387  1.00  0.00    -0.000 C 
BRANCH   6   7
ATOM      7  C   UNL     1      26.200 -13.488  -0.031  1.00  0.00    -0.000 C 
BRANCH   7   8
ATOM      8  C   UNL     1      27.740 -13.563  -0.079  1.00  0.00    -0.000 C 
BRANCH   8   9
ATOM      9  C   UNL     1      28.317 -14.980  -0.233  1.00  0.00    -0.000 C 
BRANCH   9  10
ATOM     10  C   UNL     1      29.469 -15.264   0.745  1.00  0.00    -0.000 C 
BRANCH  10  11
ATOM     11  C   UNL     1      30.686 -15.898   0.054  1.00  0.00    -0.003 C 
ATOM     12  C   UNL     1      30.779 -17.405   0.288  1.00  0.00     0.004 C 
ENDBRANCH  10  11
ENDBRANCH   9  10
ENDBRANCH   8   9
ENDBRANCH   7   8
ENDBRANCH   6   7
ENDBRANCH   5   6
ENDBRANCH   4   5
ENDBRANCH   3   4
ENDBRANCH   2   3
ENDBRANCH   1   2
BRANCH   1  13
ATOM     13  C   UNL     1      27.467 -15.361  -3.763  1.00  0.00     0.000 C 
BRANCH  13  14
ATOM     14  C   UNL     1      28.775 -16.170  -3.827  1.00  0.00     0.000 C 
BRANCH  14  15
ATOM     15  C   UNL     1      30.041 -15.317  -3.597  1.00  0.00     0.000 C 
BRANCH  15  16
ATOM     16  C   UNL     1      29.714 -13.823  -3.450  1.00  0.00     0.000 C 
BRANCH  16  17
ATOM     17  C   UNL     1      30.977 -13.008  -3.151  1.00  0.00     0.000 C 
BRANCH  17  18
ATOM     18  C   UNL     1      31.124 -12.757  -1.643  1.00  0.00     0.000 C 
BRANCH  18  19
ATOM     19  C   UNL     1      30.672 -11.348  -1.220  1.00  0.00     0.000 C 
BRANCH  19  20
ATOM     20  C   UNL     1      31.116 -10.916   0.191  1.00  0.00     0.006 C 
BRANCH  20  21
ATOM     21  C   UNL     1      30.899 -12.007   1.248  1.00  0.00     0.053 C 
BRANCH  21  22
ATOM     22  C   UNL     1      30.280 -11.429   2.481  1.00  0.00     0.041 C 
ATOM     23  O   UNL     1      29.375 -12.057   3.090  1.00  0.00    -0.550 OA
ATOM     24  O   UNL     1      30.689 -10.186   2.948  1.00  0.00    -0.550 OA
ENDBRANCH  21  22
ENDBRANCH  20  21
ENDBRANCH  19  20
ENDBRANCH  18  19
ENDBRANCH  17  18
ENDBRANCH  16  17
ENDBRANCH  15  16
ENDBRANCH  14  15
ENDBRANCH  13  14
ENDBRANCH   1  13
TORSDOF 20
ENDMDL
MODEL 3
REMARK VINA RESULT:    -3.419      2.426      5.579
REMARK INTER + INTRA:         -10.075
REMARK INTER:                  -7.448
REMARK INTRA:                  -2.628
REMARK UNBOUND:                -2.659
REMARK SMILES CCCCCCCCCCCCCCCCCCCCCC(=O)[O-]
REMARK SMILES IDX 12 1 11 2 10 3 9 4 8 5 7 6 6 7 5 8 4 9 3 10 2 11 1 12 13 13
REMARK SMILES IDX 14 14 15 15 16 16 17 17 18 18 19 19 20 20 21 21 22 22 23 23
REMARK SMILES IDX 24 24
REMARK H PARENT
REMARK Flexibility Score: inf
ROOT
ATOM      1  C   UNL     1      24.371 -13.656  -1.174  1.00  0.00     0.000 C 
ENDROOT
BRANCH   1   2
ATOM      2  C   UNL     1      25.680 -12.863  -1.038  1.00  0.00     0.000 C 
BRANCH   2   3
ATOM      3  C   UNL     1      26.914 -13.771  -0.920  1.00  0.00     0.000 C 
BRANCH   3   4
ATOM      4  C   UNL     1      27.171 -14.159   0.543  1.00  0.00    -0.000 C 
BRANCH   4   5
ATOM      5  C   UNL     1      28.668 -14.296   0.865  1.00  0.00    -0.000 C 
BRANCH   5   6
ATOM      6  C   UNL     1      29.068 -13.536   2.140  1.00  0.00    -0.000 C 
BRANCH   6   7
ATOM      7  C   UNL     1      30.214 -12.535   1.902  1.00  0.00    -0.000 C 
BRANCH   7   8
ATOM      8  C   UNL     1      29.857 -11.327   1.012  1.00  0.00    -0.000 C 
BRANCH   8   9
ATOM      9  C   UNL     1      31.045 -10.693   0.269  1.00  0.00    -0.000 C 
BRANCH   9  10
ATOM     10  C   UNL     1      31.124 -11.125  -1.205  1.00  0.00    -0.000 C 
BRANCH  10  11
ATOM     11  C   UNL     1      30.440 -12.478  -1.459  1.00  0.00    -0.003 C 
ATOM     12  C   UNL     1      30.490 -12.896  -2.929  1.00  0.00     0.004 C 
ENDBRANCH  10  11
ENDBRANCH   9  10
ENDBRANCH   8   9
ENDBRANCH   7   8
ENDBRANCH   6   7
ENDBRANCH   5   6
ENDBRANCH   4   5
ENDBRANCH   3   4
ENDBRANCH   2   3
ENDBRANCH   1   2
BRANCH   1  13
ATOM     13  C   UNL     1      23.650 -13.387  -2.506  1.00  0.00     0.000 C 
BRANCH  13  14
ATOM     14  C   UNL     1      23.894 -14.490  -3.550  1.00  0.00     0.000 C 
BRANCH  14  15
ATOM     15  C   UNL     1      24.096 -15.891  -2.934  1.00  0.00     0.000 C 
BRANCH  15  16
ATOM     16  C   UNL     1      24.825 -16.846  -3.893  1.00  0.00     0.000 C 
BRANCH  16  17
ATOM     17  C   UNL     1      26.288 -17.035  -3.479  1.00  0.00     0.000 C 
BRANCH  17  18
ATOM     18  C   UNL     1      27.124 -15.797  -3.837  1.00  0.00     0.000 C 
BRANCH  18  19
ATOM     19  C   UNL     1      28.627 -15.985  -3.565  1.00  0.00     0.000 C 
BRANCH  19  20
ATOM     20  C   UNL     1      28.983 -16.408  -2.128  1.00  0.00     0.006 C 
BRANCH  20  21
ATOM     21  C   UNL     1      30.492 -16.577  -1.909  1.00  0.00     0.053 C 
BRANCH  21  22
ATOM     22  C   UNL     1      30.801 -17.954  -1.413  1.00  0.00     0.041 C 
ATOM     23  O   UNL     1      31.117 -18.864  -2.225  1.00  0.00    -0.550 OA
ATOM     24  O   UNL     1      30.721 -18.240  -0.056  1.00  0.00    -0.550 OA
ENDBRANCH  21  22
ENDBRANCH  20  21
ENDBRANCH  19  20
ENDBRANCH  18  19
ENDBRANCH  17  18
ENDBRANCH  16  17
ENDBRANCH  15  16
ENDBRANCH  14  15
ENDBRANCH  13  14
ENDBRANCH   1  13
TORSDOF 20
ENDMDL
MODEL 4
REMARK VINA RESULT:    -3.393      2.442      5.343
REMARK INTER + INTRA:         -10.018
REMARK INTER:                  -7.647
REMARK INTRA:                  -2.371
REMARK UNBOUND:                -2.659
REMARK SMILES CCCCCCCCCCCCCCCCCCCCCC(=O)[O-]
REMARK SMILES IDX 12 1 11 2 10 3 9 4 8 5 7 6 6 7 5 8 4 9 3 10 2 11 1 12 13 13
REMARK SMILES IDX 14 14 15 15 16 16 17 17 18 18 19 19 20 20 21 21 22 22 23 23
REMARK SMILES IDX 24 24
REMARK H PARENT
REMARK Flexibility Score: inf
ROOT
ATOM      1  C   UNL     1      24.089 -14.940  -1.944  1.00  0.00     0.000 C 
ENDROOT
BRANCH   1   2
ATOM      2  C   UNL     1      24.366 -13.445  -1.726  1.00  0.00     0.000 C 
BRANCH   2   3
ATOM      3  C   UNL     1      25.109 -13.165  -0.410  1.00  0.00     0.000 C 
BRANCH   3   4
ATOM      4  C   UNL     1      26.628 -13.271  -0.605  1.00  0.00    -0.000 C 
BRANCH   4   5
ATOM      5  C   UNL     1      27.347 -13.833   0.633  1.00  0.00    -0.000 C 
BRANCH   5   6
ATOM      6  C   UNL     1      28.300 -14.989   0.287  1.00  0.00    -0.000 C 
BRANCH   6   7
ATOM      7  C   UNL     1      29.616 -14.934   1.084  1.00  0.00    -0.000 C 
BRANCH   7   8
ATOM      8  C   UNL     1      30.291 -13.548   1.142  1.00  0.00    -0.000 C 
BRANCH   8   9
ATOM      9  C   UNL     1      31.106 -13.169  -0.106  1.00  0.00    -0.000 C 
BRANCH   9  10
ATOM     10  C   UNL     1      30.552 -11.926  -0.823  1.00  0.00    -0.000 C 
BRANCH  10  11
ATOM     11  C   UNL     1      30.808 -10.630  -0.037  1.00  0.00    -0.003 C 
ATOM     12  C   UNL     1      30.971  -9.412  -0.946  1.00  0.00     0.004 C 
ENDBRANCH  10  11
ENDBRANCH   9  10
ENDBRANCH   8   9
ENDBRANCH   7   8
ENDBRANCH   6   7
ENDBRANCH   5   6
ENDBRANCH   4   5
ENDBRANCH   3   4
ENDBRANCH   2   3
ENDBRANCH   1   2
BRANCH   1  13
ATOM     13  C   UNL     1      23.313 -15.215  -3.244  1.00  0.00     0.000 C 
BRANCH  13  14
ATOM     14  C   UNL     1      23.757 -16.513  -3.941  1.00  0.00     0.000 C 
BRANCH  14  15
ATOM     15  C   UNL     1      25.214 -16.915  -3.630  1.00  0.00     0.000 C 
BRANCH  15  16
ATOM     16  C   UNL     1      26.216 -15.825  -4.040  1.00  0.00     0.000 C 
BRANCH  16  17
ATOM     17  C   UNL     1      27.421 -15.796  -3.093  1.00  0.00     0.000 C 
BRANCH  17  18
ATOM     18  C   UNL     1      28.737 -15.724  -3.881  1.00  0.00     0.000 C 
BRANCH  18  19
ATOM     19  C   UNL     1      29.839 -14.943  -3.144  1.00  0.00     0.000 C 
BRANCH  19  20
ATOM     20  C   UNL     1      31.105 -15.755  -2.811  1.00  0.00     0.006 C 
BRANCH  20  21
ATOM     21  C   UNL     1      30.963 -17.247  -3.141  1.00  0.00     0.053 C 
BRANCH  21  22
ATOM     22  C   UNL     1      30.897 -18.059  -1.886  1.00  0.00     0.041 C 
ATOM     23  O   UNL     1      30.995 -17.497  -0.763  1.00  0.00    -0.550 OA
ATOM     24  O   UNL     1      30.746 -19.438  -1.956  1.00  0.00    -0.550 OA
ENDBRANCH  21  22
ENDBRANCH  20  21
ENDBRANCH  19  20
ENDBRANCH  18  19
ENDBRANCH  17  18
ENDBRANCH  16  17
ENDBRANCH  15  16
ENDBRANCH  14  15
ENDBRANCH  13  14
ENDBRANCH   1  13
TORSDOF 20
ENDMDL
MODEL 5
REMARK VINA RESULT:    -3.372      1.413      2.220
REMARK INTER + INTRA:          -9.973
REMARK INTER:                  -7.173
REMARK INTRA:                  -2.801
REMARK UNBOUND:                -2.659
REMARK SMILES CCCCCCCCCCCCCCCCCCCCCC(=O)[O-]
REMARK SMILES IDX 12 1 11 2 10 3 9 4 8 5 7 6 6 7 5 8 4 9 3 10 2 11 1 12 13 13
REMARK SMILES IDX 14 14 15 15 16 16 17 17 18 18 19 19 20 20 21 21 22 22 23 23
REMARK SMILES IDX 24 24
REMARK H PARENT
REMARK Flexibility Score: inf
ROOT
ATOM      1  C   UNL     1      23.903 -13.968  -2.268  1.00  0.00     0.000 C 
ENDROOT
BRANCH   1   2
ATOM      2  C   UNL     1      23.494 -15.431  -2.040  1.00  0.00     0.000 C 
BRANCH   2   3
ATOM      3  C   UNL     1      23.634 -16.291  -3.305  1.00  0.00     0.000 C 
BRANCH   3   4
ATOM      4  C   UNL     1      24.882 -15.890  -4.105  1.00  0.00    -0.000 C 
BRANCH   4   5
ATOM      5  C   UNL     1      26.040 -16.887  -3.937  1.00  0.00    -0.000 C 
BRANCH   5   6
ATOM      6  C   UNL     1      27.069 -16.424  -2.893  1.00  0.00    -0.000 C 
BRANCH   6   7
ATOM      7  C   UNL     1      27.747 -15.095  -3.274  1.00  0.00    -0.000 C 
BRANCH   7   8
ATOM      8  C   UNL     1      29.139 -15.231  -3.924  1.00  0.00    -0.000 C 
BRANCH   8   9
ATOM      9  C   UNL     1      29.796 -16.613  -3.772  1.00  0.00    -0.000 C 
BRANCH   9  10
ATOM     10  C   UNL     1      31.082 -16.571  -2.929  1.00  0.00    -0.000 C 
BRANCH  10  11
ATOM     11  C   UNL     1      30.912 -17.254  -1.562  1.00  0.00    -0.003 C 
ATOM     12  C   UNL     1      30.905 -18.779  -1.663  1.00  0.00     0.004 C 
ENDBRANCH  10  11
ENDBRANCH   9  10
ENDBRANCH   8   9
ENDBRANCH   7   8
ENDBRANCH   6   7
ENDBRANCH   5   6
ENDBRANCH   4   5
ENDBRANCH   3   4
ENDBRANCH   2   3
ENDBRANCH   1   2
BRANCH   1  13
ATOM     13  C   UNL     1      24.417 -13.290  -0.988  1.00  0.00     0.000 C 
BRANCH  13  14
ATOM     14  C   UNL     1      25.954 -13.263  -0.902  1.00  0.00     0.000 C 
BRANCH  14  15
ATOM     15  C   UNL     1      26.502 -13.633   0.492  1.00  0.00     0.000 C 
BRANCH  15  16
ATOM     16  C   UNL     1      27.778 -14.485   0.405  1.00  0.00     0.000 C 
BRANCH  16  17
ATOM     17  C   UNL     1      28.872 -13.937   1.329  1.00  0.00     0.000 C 
BRANCH  17  18
ATOM     18  C   UNL     1      30.268 -14.294   0.798  1.00  0.00     0.000 C 
BRANCH  18  19
ATOM     19  C   UNL     1      30.455 -13.941  -0.689  1.00  0.00     0.000 C 
BRANCH  19  20
ATOM     20  C   UNL     1      29.938 -12.550  -1.100  1.00  0.00     0.006 C 
BRANCH  20  21
ATOM     21  C   UNL     1      31.056 -11.505  -1.213  1.00  0.00     0.053 C 
BRANCH  21  22
ATOM     22  C   UNL     1      30.939 -10.489  -0.121  1.00  0.00     0.041 C 
ATOM     23  O   UNL     1      30.985 -10.848   1.085  1.00  0.00    -0.550 OA
ATOM     24  O   UNL     1      30.759  -9.147  -0.434  1.00  0.00    -0.550 OA
ENDBRANCH  21  22
ENDBRANCH  20  21
ENDBRANCH  19  20
ENDBRANCH  18  19
ENDBRANCH  17  18
ENDBRANCH  16  17
ENDBRANCH  15  16
ENDBRANCH  14  15
ENDBRANCH  13  14
ENDBRANCH   1  13
TORSDOF 20
ENDMDL
MODEL 6
REMARK VINA RESULT:    -2.789      1.288      2.352
REMARK INTER + INTRA:          -8.708
REMARK INTER:                  -6.780
REMARK INTRA:                  -1.928
REMARK UNBOUND:                -2.659
REMARK SMILES CCCCCCCCCCCCCCCCCCCCCC(=O)[O-]
REMARK SMILES IDX 12 1 11 2 10 3 9 4 8 5 7 6 6 7 5 8 4 9 3 10 2 11 1 12 13 13
REMARK SMILES IDX 14 14 15 15 16 16 17 17 18 18 19 19 20 20 21 21 22 22 23 23
REMARK SMILES IDX 24 24
REMARK H PARENT
REMARK Flexibility Score: inf
ROOT
ATOM      1  C   UNL     1      25.757 -15.150  -3.384  1.00  0.00     0.000 C 
ENDROOT
BRANCH   1   2
ATOM      2  C   UNL     1      26.338 -16.570  -3.463  1.00  0.00     0.000 C 
BRANCH   2   3
ATOM      3  C   UNL     1      27.776 -16.654  -2.926  1.00  0.00     0.000 C 
BRANCH   3   4
ATOM      4  C   UNL     1      28.707 -15.715  -3.707  1.00  0.00    -0.000 C 
BRANCH   4   5
ATOM      5  C   UNL     1      28.874 -14.346  -3.028  1.00  0.00    -0.000 C 
BRANCH   5   6
ATOM      6  C   UNL     1      30.334 -14.052  -2.645  1.00  0.00    -0.000 C 
BRANCH   6   7
ATOM      7  C   UNL     1      31.077 -15.298  -2.131  1.00  0.00    -0.000 C 
BRANCH   7   8
ATOM      8  C   UNL     1      31.045 -15.499  -0.602  1.00  0.00    -0.000 C 
BRANCH   8   9
ATOM      9  C   UNL     1      30.286 -16.750  -0.127  1.00  0.00    -0.000 C 
BRANCH   9  10
ATOM     10  C   UNL     1      31.039 -18.055  -0.434  1.00  0.00    -0.000 C 
BRANCH  10  11
ATOM     11  C   UNL     1      30.281 -18.953  -1.425  1.00  0.00    -0.003 C 
ATOM     12  C   UNL     1      31.125 -19.331  -2.642  1.00  0.00     0.004 C 
ENDBRANCH  10  11
ENDBRANCH   9  10
ENDBRANCH   8   9
ENDBRANCH   7   8
ENDBRANCH   6   7
ENDBRANCH   5   6
ENDBRANCH   4   5
ENDBRANCH   3   4
ENDBRANCH   2   3
ENDBRANCH   1   2
BRANCH   1  13
ATOM     13  C   UNL     1      24.231 -15.124  -3.577  1.00  0.00     0.000 C 
BRANCH  13  14
ATOM     14  C   UNL     1      23.532 -14.099  -2.666  1.00  0.00     0.000 C 
BRANCH  14  15
ATOM     15  C   UNL     1      24.087 -14.073  -1.225  1.00  0.00     0.000 C 
BRANCH  15  16
ATOM     16  C   UNL     1      25.161 -12.990  -1.038  1.00  0.00     0.000 C 
BRANCH  16  17
ATOM     17  C   UNL     1      26.555 -13.613  -0.904  1.00  0.00     0.000 C 
BRANCH  17  18
ATOM     18  C   UNL     1      27.304 -13.027   0.302  1.00  0.00     0.000 C 
BRANCH  18  19
ATOM     19  C   UNL     1      27.960 -14.103   1.184  1.00  0.00     0.000 C 
BRANCH  19  20
ATOM     20  C   UNL     1      29.231 -13.651   1.929  1.00  0.00     0.006 C 
BRANCH  20  21
ATOM     21  C   UNL     1      30.066 -12.640   1.131  1.00  0.00     0.053 C 
BRANCH  21  22
ATOM     22  C   UNL     1      30.190 -11.352   1.881  1.00  0.00     0.041 C 
ATOM     23  O   UNL     1      30.901 -10.419   1.424  1.00  0.00    -0.550 OA
ATOM     24  O   UNL     1      29.535 -11.187   3.096  1.00  0.00    -0.550 OA
ENDBRANCH  21  22
ENDBRANCH  20  21
ENDBRANCH  19  20
ENDBRANCH  18  19
ENDBRANCH  17  18
ENDBRANCH  16  17
ENDBRANCH  15  16
ENDBRANCH  14  15
ENDBRANCH  13  14
ENDBRANCH   1  13
TORSDOF 20
ENDMDL
MODEL 7
REMARK VINA RESULT:    -2.696      1.311      5.250
REMARK INTER + INTRA:          -8.506
REMARK INTER:                  -5.123
REMARK INTRA:                  -3.383
REMARK UNBOUND:                -2.659
REMARK SMILES CCCCCCCCCCCCCCCCCCCCCC(=O)[O-]
REMARK SMILES IDX 12 1 11 2 10 3 9 4 8 5 7 6 6 7 5 8 4 9 3 10 2 11 1 12 13 13
REMARK SMILES IDX 14 14 15 15 16 16 17 17 18 18 19 19 20 20 21 21 22 22 23 23
REMARK SMILES IDX 24 24
REMARK H PARENT
REMARK Flexibility Score: inf
ROOT
ATOM      1  C   UNL     1      28.763 -14.251  -3.286  1.00  0.00     0.000 C 
ENDROOT
BRANCH   1   2
ATOM      2  C   UNL     1      27.669 -15.071  -3.986  1.00  0.00     0.000 C 
BRANCH   2   3
ATOM      3  C   UNL     1      27.250 -16.312  -3.183  1.00  0.00     0.000 C 
BRANCH   3   4
ATOM      4  C   UNL     1      26.040 -17.001  -3.830  1.00  0.00    -0.000 C 
BRANCH   4   5
ATOM      5  C   UNL     1      24.752 -16.831  -3.009  1.00  0.00    -0.000 C 
BRANCH   5   6
ATOM      6  C   UNL     1      23.503 -16.686  -3.895  1.00  0.00    -0.000 C 
BRANCH   6   7
ATOM      7  C   UNL     1      22.837 -15.304  -3.763  1.00  0.00    -0.000 C 
BRANCH   7   8
ATOM      8  C   UNL     1      23.738 -14.104  -4.117  1.00  0.00    -0.000 C 
BRANCH   8   9
ATOM      9  C   UNL     1      23.889 -13.054  -3.003  1.00  0.00    -0.000 C 
BRANCH   9  10
ATOM     10  C   UNL     1      25.140 -13.280  -2.137  1.00  0.00    -0.000 C 
BRANCH  10  11
ATOM     11  C   UNL     1      24.796 -13.802  -0.733  1.00  0.00    -0.003 C 
ATOM     12  C   UNL     1      24.594 -12.676   0.281  1.00  0.00     0.004 C 
ENDBRANCH  10  11
ENDBRANCH   9  10
ENDBRANCH   8   9
ENDBRANCH   7   8
ENDBRANCH   6   7
ENDBRANCH   5   6
ENDBRANCH   4   5
ENDBRANCH   3   4
ENDBRANCH   2   3
ENDBRANCH   1   2
BRANCH   1  13
ATOM     13  C   UNL     1      30.181 -14.722  -3.653  1.00  0.00     0.000 C 
BRANCH  13  14
ATOM     14  C   UNL     1      30.978 -15.220  -2.434  1.00  0.00     0.000 C 
BRANCH  14  15
ATOM     15  C   UNL     1      31.069 -16.758  -2.342  1.00  0.00     0.000 C 
BRANCH  15  16
ATOM     16  C   UNL     1      30.088 -17.336  -1.310  1.00  0.00     0.000 C 
BRANCH  16  17
ATOM     17  C   UNL     1      30.617 -17.156   0.117  1.00  0.00     0.000 C 
BRANCH  17  18
ATOM     18  C   UNL     1      30.053 -15.877   0.754  1.00  0.00     0.000 C 
BRANCH  18  19
ATOM     19  C   UNL     1      28.584 -15.614   0.377  1.00  0.00     0.000 C 
BRANCH  19  20
ATOM     20  C   UNL     1      28.047 -14.226   0.775  1.00  0.00     0.006 C 
BRANCH  20  21
ATOM     21  C   UNL     1      28.847 -13.073   0.155  1.00  0.00     0.053 C 
BRANCH  21  22
ATOM     22  C   UNL     1      29.551 -12.290   1.218  1.00  0.00     0.041 C 
ATOM     23  O   UNL     1      30.308 -11.333   0.903  1.00  0.00    -0.550 OA
ATOM     24  O   UNL     1      29.388 -12.628   2.555  1.00  0.00    -0.550 OA
ENDBRANCH  21  22
ENDBRANCH  20  21
ENDBRANCH  19  20
ENDBRANCH  18  19
ENDBRANCH  17  18
ENDBRANCH  16  17
ENDBRANCH  15  16
ENDBRANCH  14  15
ENDBRANCH  13  14
ENDBRANCH   1  13
TORSDOF 20
ENDMDL
MODEL 8
REMARK VINA RESULT:    -2.662      2.838      6.274
REMARK INTER + INTRA:          -8.433
REMARK INTER:                  -6.564
REMARK INTRA:                  -1.869
REMARK UNBOUND:                -2.659
REMARK SMILES CCCCCCCCCCCCCCCCCCCCCC(=O)[O-]
REMARK SMILES IDX 12 1 11 2 10 3 9 4 8 5 7 6 6 7 5 8 4 9 3 10 2 11 1 12 13 13
REMARK SMILES IDX 14 14 15 15 16 16 17 17 18 18 19 19 20 20 21 21 22 22 23 23
REMARK SMILES IDX 24 24
REMARK H PARENT
REMARK Flexibility Score: inf
ROOT
ATOM      1  C   UNL     1      29.098 -15.201   1.117  1.00  0.00     0.000 C 
ENDROOT
BRANCH   1   2
ATOM      2  C   UNL     1      30.543 -15.496   0.688  1.00  0.00     0.000 C 
BRANCH   2   3
ATOM      3  C   UNL     1      30.912 -16.982   0.826  1.00  0.00     0.000 C 
BRANCH   3   4
ATOM      4  C   UNL     1      30.974 -17.661  -0.551  1.00  0.00    -0.000 C 
BRANCH   4   5
ATOM      5  C   UNL     1      29.942 -17.093  -1.539  1.00  0.00    -0.000 C 
BRANCH   5   6
ATOM      6  C   UNL     1      30.477 -15.878  -2.316  1.00  0.00    -0.000 C 
BRANCH   6   7
ATOM      7  C   UNL     1      29.463 -14.721  -2.384  1.00  0.00    -0.000 C 
BRANCH   7   8
ATOM      8  C   UNL     1      29.910 -13.505  -3.220  1.00  0.00    -0.000 C 
BRANCH   8   9
ATOM      9  C   UNL     1      31.122 -12.742  -2.659  1.00  0.00    -0.000 C 
BRANCH   9  10
ATOM     10  C   UNL     1      31.016 -12.484  -1.147  1.00  0.00    -0.000 C 
BRANCH  10  11
ATOM     11  C   UNL     1      30.572 -11.048  -0.824  1.00  0.00    -0.003 C 
ATOM     12  C   UNL     1      30.849 -10.658   0.627  1.00  0.00     0.004 C 
ENDBRANCH  10  11
ENDBRANCH   9  10
ENDBRANCH   8   9
ENDBRANCH   7   8
ENDBRANCH   6   7
ENDBRANCH   5   6
ENDBRANCH   4   5
ENDBRANCH   3   4
ENDBRANCH   2   3
ENDBRANCH   1   2
BRANCH   1  13
ATOM     13  C   UNL     1      28.901 -13.745   1.572  1.00  0.00     0.000 C 
BRANCH  13  14
ATOM     14  C   UNL     1      27.518 -13.184   1.198  1.00  0.00     0.000 C 
BRANCH  14  15
ATOM     15  C   UNL     1      27.321 -12.987  -0.320  1.00  0.00     0.000 C 
BRANCH  15  16
ATOM     16  C   UNL     1      26.294 -13.970  -0.904  1.00  0.00     0.000 C 
BRANCH  16  17
ATOM     17  C   UNL     1      24.874 -13.396  -0.827  1.00  0.00     0.000 C 
BRANCH  17  18
ATOM     18  C   UNL     1      24.211 -13.388  -2.212  1.00  0.00     0.000 C 
BRANCH  18  19
ATOM     19  C   UNL     1      23.324 -14.621  -2.462  1.00  0.00     0.000 C 
BRANCH  19  20
ATOM     20  C   UNL     1      23.671 -15.429  -3.727  1.00  0.00     0.006 C 
BRANCH  20  21
ATOM     21  C   UNL     1      25.152 -15.328  -4.116  1.00  0.00     0.053 C 
BRANCH  21  22
ATOM     22  C   UNL     1      25.852 -16.625  -3.862  1.00  0.00     0.041 C 
ATOM     23  O   UNL     1      25.246 -17.716  -4.033  1.00  0.00    -0.550 OA
ATOM     24  O   UNL     1      27.168 -16.630  -3.416  1.00  0.00    -0.550 OA
ENDBRANCH  21  22
ENDBRANCH  20  21
ENDBRANCH  19  20
ENDBRANCH  18  19
ENDBRANCH  17  18
ENDBRANCH  16  17
ENDBRANCH  15  16
ENDBRANCH  14  15
ENDBRANCH  13  14
ENDBRANCH   1  13
TORSDOF 20
ENDMDL
