MODEL 1
REMARK VINA RESULT:    -7.031      0.000      0.000
REMARK INTER + INTRA:          -8.573
REMARK INTER:                  -8.265
REMARK INTRA:                  -0.308
REMARK UNBOUND:                -0.308
REMARK SMILES O=c1cc(-c2ccc(O)c(O)c2)oc2cc(O)cc(O)c12
REMARK SMILES IDX 4 1 3 2 2 3 1 4 21 5 19 6 18 7 16 8 15 9 14 10 13 11 5 12
REMARK SMILES IDX 6 13 7 14 8 15 12 16 10 17 9 18 11 20 20 22 17 24
REMARK H PARENT 9 19 11 21 20 23 17 25
REMARK Flexibility Score: inf
ROOT
ATOM      1  C   UNL     1       2.043   3.861 -22.723  1.00  0.00     0.138 A 
ATOM      2  C   UNL     1       1.197   2.745 -22.664  1.00  0.00     0.100 A 
ATOM      3  C   UNL     1       0.724   2.301 -21.429  1.00  0.00     0.197 A 
ATOM      4  O   UNL     1      -0.083   1.336 -21.415  1.00  0.00    -0.289 OA
ATOM      5  C   UNL     1       1.127   2.960 -20.243  1.00  0.00     0.107 A 
ATOM      6  C   UNL     1       0.741   2.571 -18.926  1.00  0.00     0.134 A 
ATOM      7  C   UNL     1       1.108   3.369 -17.835  1.00  0.00     0.093 A 
ATOM      8  C   UNL     1       1.895   4.507 -18.007  1.00  0.00     0.123 A 
ATOM      9  C   UNL     1       2.324   4.867 -19.286  1.00  0.00     0.094 A 
ATOM     10  C   UNL     1       1.946   4.111 -20.397  1.00  0.00     0.146 A 
ATOM     11  O   UNL     1       2.362   4.495 -21.599  1.00  0.00    -0.456 OA
ENDROOT
BRANCH   1  12
ATOM     12  C   UNL     1       2.576   4.375 -24.010  1.00  0.00     0.021 A 
ATOM     13  C   UNL     1       2.781   3.529 -25.117  1.00  0.00     0.016 A 
ATOM     14  C   UNL     1       3.293   4.038 -26.312  1.00  0.00     0.051 A 
ATOM     15  C   UNL     1       3.617   5.392 -26.425  1.00  0.00     0.157 A 
ATOM     16  C   UNL     1       2.916   5.735 -24.125  1.00  0.00     0.062 A 
ATOM     17  C   UNL     1       3.429   6.246 -25.326  1.00  0.00     0.158 A 
BRANCH  15  18
ATOM     18  O   UNL     1       4.125   5.871 -27.632  1.00  0.00    -0.504 OA
ATOM     19  H   UNL     1       4.012   5.364 -28.502  1.00  0.00     0.293 HD
ENDBRANCH  15  18
BRANCH  17  20
ATOM     20  O   UNL     1       3.754   7.598 -25.429  1.00  0.00    -0.504 OA
ATOM     21  H   UNL     1       4.609   7.907 -25.877  1.00  0.00     0.293 HD
ENDBRANCH  17  20
ENDBRANCH   1  12
BRANCH   6  22
ATOM     22  O   UNL     1       0.025   1.406 -18.634  1.00  0.00    -0.507 OA
ATOM     23  H   UNL     1       0.371   0.467 -18.766  1.00  0.00     0.293 HD
ENDBRANCH   6  22
BRANCH   8  24
ATOM     24  O   UNL     1       2.253   5.268 -16.897  1.00  0.00    -0.508 OA
ATOM     25  H   UNL     1       2.180   6.279 -16.903  1.00  0.00     0.293 HD
ENDBRANCH   8  24
TORSDOF 5
ENDMDL
MODEL 2
REMARK VINA RESULT:    -6.987      1.283      3.062
REMARK INTER + INTRA:          -8.521
REMARK INTER:                  -8.223
REMARK INTRA:                  -0.298
REMARK UNBOUND:                -0.308
REMARK SMILES O=c1cc(-c2ccc(O)c(O)c2)oc2cc(O)cc(O)c12
REMARK SMILES IDX 4 1 3 2 2 3 1 4 21 5 19 6 18 7 16 8 15 9 14 10 13 11 5 12
REMARK SMILES IDX 6 13 7 14 8 15 12 16 10 17 9 18 11 20 20 22 17 24
REMARK H PARENT 9 19 11 21 20 23 17 25
REMARK Flexibility Score: inf
ROOT
ATOM      1  C   UNL     1       2.430   4.593 -22.205  1.00  0.00     0.138 A 
ATOM      2  C   UNL     1       2.877   5.132 -20.992  1.00  0.00     0.100 A 
ATOM      3  C   UNL     1       2.424   4.591 -19.787  1.00  0.00     0.197 A 
ATOM      4  O   UNL     1       2.892   5.055 -18.716  1.00  0.00    -0.289 OA
ATOM      5  C   UNL     1       1.494   3.525 -19.801  1.00  0.00     0.107 A 
ATOM      6  C   UNL     1       0.932   2.922 -18.636  1.00  0.00     0.134 A 
ATOM      7  C   UNL     1       0.110   1.796 -18.769  1.00  0.00     0.093 A 
ATOM      8  C   UNL     1      -0.219   1.290 -20.026  1.00  0.00     0.123 A 
ATOM      9  C   UNL     1       0.281   1.904 -21.175  1.00  0.00     0.094 A 
ATOM     10  C   UNL     1       1.131   3.007 -21.072  1.00  0.00     0.146 A 
ATOM     11  O   UNL     1       1.599   3.556 -22.190  1.00  0.00    -0.456 OA
ENDROOT
BRANCH   1  12
ATOM     12  C   UNL     1       2.878   5.130 -23.515  1.00  0.00     0.021 A 
ATOM     13  C   UNL     1       2.997   6.514 -23.745  1.00  0.00     0.016 A 
ATOM     14  C   UNL     1       3.412   6.991 -24.990  1.00  0.00     0.051 A 
ATOM     15  C   UNL     1       3.706   6.103 -26.028  1.00  0.00     0.157 A 
ATOM     16  C   UNL     1       3.163   4.241 -24.567  1.00  0.00     0.062 A 
ATOM     17  C   UNL     1       3.580   4.720 -25.817  1.00  0.00     0.158 A 
BRANCH  15  18
ATOM     18  O   UNL     1       4.119   6.611 -27.259  1.00  0.00    -0.504 OA
ATOM     19  H   UNL     1       3.486   6.697 -28.045  1.00  0.00     0.293 HD
ENDBRANCH  15  18
BRANCH  17  20
ATOM     20  O   UNL     1       3.869   3.828 -26.849  1.00  0.00    -0.504 OA
ATOM     21  H   UNL     1       4.548   3.084 -26.734  1.00  0.00     0.293 HD
ENDBRANCH  17  20
ENDBRANCH   1  12
BRANCH   6  22
ATOM     22  O   UNL     1       1.128   3.400 -17.336  1.00  0.00    -0.507 OA
ATOM     23  H   UNL     1       1.046   2.845 -16.498  1.00  0.00     0.293 HD
ENDBRANCH   6  22
BRANCH   8  24
ATOM     24  O   UNL     1      -1.052   0.177 -20.120  1.00  0.00    -0.508 OA
ATOM     25  H   UNL     1      -0.832  -0.691 -19.646  1.00  0.00     0.293 HD
ENDBRANCH   8  24
TORSDOF 5
ENDMDL
MODEL 3
REMARK VINA RESULT:    -6.696      1.766      6.913
REMARK INTER + INTRA:          -8.178
REMARK INTER:                  -7.894
REMARK INTRA:                  -0.284
REMARK UNBOUND:                -0.308
REMARK SMILES O=c1cc(-c2ccc(O)c(O)c2)oc2cc(O)cc(O)c12
REMARK SMILES IDX 4 1 3 2 2 3 1 4 21 5 19 6 18 7 16 8 15 9 14 10 13 11 5 12
REMARK SMILES IDX 6 13 7 14 8 15 12 16 10 17 9 18 11 20 20 22 17 24
REMARK H PARENT 9 19 11 21 20 23 17 25
REMARK Flexibility Score: inf
ROOT
ATOM      1  C   UNL     1       1.259   3.393 -22.253  1.00  0.00     0.138 A 
ATOM      2  C   UNL     1       0.527   2.835 -23.309  1.00  0.00     0.100 A 
ATOM      3  C   UNL     1       0.590   3.414 -24.578  1.00  0.00     0.197 A 
ATOM      4  O   UNL     1      -0.028   2.853 -25.518  1.00  0.00    -0.289 OA
ATOM      5  C   UNL     1       1.369   4.578 -24.780  1.00  0.00     0.107 A 
ATOM      6  C   UNL     1       1.476   5.279 -26.019  1.00  0.00     0.134 A 
ATOM      7  C   UNL     1       2.368   6.353 -26.129  1.00  0.00     0.093 A 
ATOM      8  C   UNL     1       3.110   6.789 -25.032  1.00  0.00     0.123 A 
ATOM      9  C   UNL     1       2.973   6.145 -23.802  1.00  0.00     0.094 A 
ATOM     10  C   UNL     1       2.117   5.050 -23.669  1.00  0.00     0.146 A 
ATOM     11  O   UNL     1       2.025   4.455 -22.483  1.00  0.00    -0.456 OA
ENDROOT
BRANCH   1  12
ATOM     12  C   UNL     1       1.227   2.818 -20.885  1.00  0.00     0.021 A 
ATOM     13  C   UNL     1       1.407   3.620 -19.741  1.00  0.00     0.016 A 
ATOM     14  C   UNL     1       1.382   3.050 -18.466  1.00  0.00     0.051 A 
ATOM     15  C   UNL     1       1.188   1.676 -18.308  1.00  0.00     0.157 A 
ATOM     16  C   UNL     1       1.044   1.434 -20.719  1.00  0.00     0.062 A 
ATOM     17  C   UNL     1       1.019   0.862 -19.439  1.00  0.00     0.158 A 
BRANCH  15  18
ATOM     18  O   UNL     1       1.166   1.137 -17.021  1.00  0.00    -0.504 OA
ATOM     19  H   UNL     1       1.724   1.521 -16.268  1.00  0.00     0.293 HD
ENDBRANCH  15  18
BRANCH  17  20
ATOM     20  O   UNL     1       0.827  -0.511 -19.289  1.00  0.00    -0.504 OA
ATOM     21  H   UNL     1       1.132  -1.003 -18.457  1.00  0.00     0.293 HD
ENDBRANCH  17  20
ENDBRANCH   1  12
BRANCH   6  22
ATOM     22  O   UNL     1       0.717   4.978 -27.154  1.00  0.00    -0.507 OA
ATOM     23  H   UNL     1       1.018   5.126 -28.105  1.00  0.00     0.293 HD
ENDBRANCH   6  22
BRANCH   8  24
ATOM     24  O   UNL     1       3.976   7.870 -25.177  1.00  0.00    -0.508 OA
ATOM     25  H   UNL     1       4.259   8.203 -26.091  1.00  0.00     0.293 HD
ENDBRANCH   8  24
TORSDOF 5
ENDMDL
MODEL 4
REMARK VINA RESULT:    -6.679      1.640      2.443
REMARK INTER + INTRA:          -8.159
REMARK INTER:                  -7.867
REMARK INTRA:                  -0.292
REMARK UNBOUND:                -0.308
REMARK SMILES O=c1cc(-c2ccc(O)c(O)c2)oc2cc(O)cc(O)c12
REMARK SMILES IDX 4 1 3 2 2 3 1 4 21 5 19 6 18 7 16 8 15 9 14 10 13 11 5 12
REMARK SMILES IDX 6 13 7 14 8 15 12 16 10 17 9 18 11 20 20 22 17 24
REMARK H PARENT 9 19 11 21 20 23 17 25
REMARK Flexibility Score: inf
ROOT
ATOM      1  C   UNL     1       1.415   3.925 -22.901  1.00  0.00     0.138 A 
ATOM      2  C   UNL     1       0.487   3.101 -23.552  1.00  0.00     0.100 A 
ATOM      3  C   UNL     1      -0.160   2.090 -22.839  1.00  0.00     0.197 A 
ATOM      4  O   UNL     1      -1.033   1.409 -23.436  1.00  0.00    -0.289 OA
ATOM      5  C   UNL     1       0.150   1.885 -21.474  1.00  0.00     0.107 A 
ATOM      6  C   UNL     1      -0.416   0.860 -20.658  1.00  0.00     0.134 A 
ATOM      7  C   UNL     1      -0.121   0.825 -19.290  1.00  0.00     0.093 A 
ATOM      8  C   UNL     1       0.765   1.739 -18.720  1.00  0.00     0.123 A 
ATOM      9  C   UNL     1       1.366   2.713 -19.519  1.00  0.00     0.094 A 
ATOM     10  C   UNL     1       1.065   2.795 -20.880  1.00  0.00     0.146 A 
ATOM     11  O   UNL     1       1.647   3.746 -21.605  1.00  0.00    -0.456 OA
ENDROOT
BRANCH   1  12
ATOM     12  C   UNL     1       2.132   5.015 -23.611  1.00  0.00     0.021 A 
ATOM     13  C   UNL     1       2.769   6.059 -22.913  1.00  0.00     0.016 A 
ATOM     14  C   UNL     1       3.427   7.076 -23.607  1.00  0.00     0.051 A 
ATOM     15  C   UNL     1       3.455   7.078 -25.004  1.00  0.00     0.157 A 
ATOM     16  C   UNL     1       2.152   5.029 -25.017  1.00  0.00     0.062 A 
ATOM     17  C   UNL     1       2.814   6.050 -25.714  1.00  0.00     0.158 A 
BRANCH  15  18
ATOM     18  O   UNL     1       4.121   8.107 -25.668  1.00  0.00    -0.504 OA
ATOM     19  H   UNL     1       3.880   9.081 -25.531  1.00  0.00     0.293 HD
ENDBRANCH  15  18
BRANCH  17  20
ATOM     20  O   UNL     1       2.835   6.047 -27.108  1.00  0.00    -0.504 OA
ATOM     21  H   UNL     1       2.900   6.906 -27.641  1.00  0.00     0.293 HD
ENDBRANCH  17  20
ENDBRANCH   1  12
BRANCH   6  22
ATOM     22  O   UNL     1      -1.246  -0.156 -21.143  1.00  0.00    -0.507 OA
ATOM     23  H   UNL     1      -1.514  -0.979 -20.625  1.00  0.00     0.293 HD
ENDBRANCH   6  22
BRANCH   8  24
ATOM     24  O   UNL     1       1.045   1.665 -17.358  1.00  0.00    -0.508 OA
ATOM     25  H   UNL     1       0.841   0.831 -16.820  1.00  0.00     0.293 HD
ENDBRANCH   8  24
TORSDOF 5
ENDMDL
MODEL 5
REMARK VINA RESULT:    -6.482      2.256      7.010
REMARK INTER + INTRA:          -7.927
REMARK INTER:                  -7.634
REMARK INTRA:                  -0.292
REMARK UNBOUND:                -0.308
REMARK SMILES O=c1cc(-c2ccc(O)c(O)c2)oc2cc(O)cc(O)c12
REMARK SMILES IDX 4 1 3 2 2 3 1 4 21 5 19 6 18 7 16 8 15 9 14 10 13 11 5 12
REMARK SMILES IDX 6 13 7 14 8 15 12 16 10 17 9 18 11 20 20 22 17 24
REMARK H PARENT 9 19 11 21 20 23 17 25
REMARK Flexibility Score: inf
ROOT
ATOM      1  C   UNL     1       2.671   4.972 -23.554  1.00  0.00     0.138 A 
ATOM      2  C   UNL     1       2.019   3.747 -23.752  1.00  0.00     0.100 A 
ATOM      3  C   UNL     1       1.873   3.243 -25.045  1.00  0.00     0.197 A 
ATOM      4  O   UNL     1       1.340   2.113 -25.184  1.00  0.00    -0.289 OA
ATOM      5  C   UNL     1       2.355   3.988 -26.148  1.00  0.00     0.107 A 
ATOM      6  C   UNL     1       2.225   3.592 -27.513  1.00  0.00     0.134 A 
ATOM      7  C   UNL     1       2.844   4.353 -28.513  1.00  0.00     0.093 A 
ATOM      8  C   UNL     1       3.534   5.524 -28.204  1.00  0.00     0.123 A 
ATOM      9  C   UNL     1       3.622   5.949 -26.878  1.00  0.00     0.094 A 
ATOM     10  C   UNL     1       3.045   5.194 -25.855  1.00  0.00     0.146 A 
ATOM     11  O   UNL     1       3.163   5.624 -24.603  1.00  0.00    -0.456 OA
ENDROOT
BRANCH   1  12
ATOM     12  C   UNL     1       2.854   5.555 -22.200  1.00  0.00     0.021 A 
ATOM     13  C   UNL     1       3.264   6.889 -22.019  1.00  0.00     0.016 A 
ATOM     14  C   UNL     1       3.438   7.408 -20.734  1.00  0.00     0.051 A 
ATOM     15  C   UNL     1       3.216   6.608 -19.610  1.00  0.00     0.157 A 
ATOM     16  C   UNL     1       2.644   4.750 -21.066  1.00  0.00     0.062 A 
ATOM     17  C   UNL     1       2.818   5.271 -19.775  1.00  0.00     0.158 A 
BRANCH  15  18
ATOM     18  O   UNL     1       3.396   7.155 -18.340  1.00  0.00    -0.504 OA
ATOM     19  H   UNL     1       2.969   6.752 -17.515  1.00  0.00     0.293 HD
ENDBRANCH  15  18
BRANCH  17  20
ATOM     20  O   UNL     1       2.598   4.465 -18.659  1.00  0.00    -0.504 OA
ATOM     21  H   UNL     1       2.267   3.511 -18.749  1.00  0.00     0.293 HD
ENDBRANCH  17  20
ENDBRANCH   1  12
BRANCH   6  22
ATOM     22  O   UNL     1       1.485   2.485 -27.939  1.00  0.00    -0.507 OA
ATOM     23  H   UNL     1       1.067   1.800 -27.327  1.00  0.00     0.293 HD
ENDBRANCH   6  22
BRANCH   8  24
ATOM     24  O   UNL     1       4.125   6.262 -29.228  1.00  0.00    -0.508 OA
ATOM     25  H   UNL     1       4.210   5.891 -30.167  1.00  0.00     0.293 HD
ENDBRANCH   8  24
TORSDOF 5
ENDMDL
MODEL 6
REMARK VINA RESULT:    -6.451      1.162      1.413
REMARK INTER + INTRA:          -7.891
REMARK INTER:                  -7.579
REMARK INTRA:                  -0.312
REMARK UNBOUND:                -0.308
REMARK SMILES O=c1cc(-c2ccc(O)c(O)c2)oc2cc(O)cc(O)c12
REMARK SMILES IDX 4 1 3 2 2 3 1 4 21 5 19 6 18 7 16 8 15 9 14 10 13 11 5 12
REMARK SMILES IDX 6 13 7 14 8 15 12 16 10 17 9 18 11 20 20 22 17 24
REMARK H PARENT 9 19 11 21 20 23 17 25
REMARK Flexibility Score: inf
ROOT
ATOM      1  C   UNL     1       1.493   3.183 -23.382  1.00  0.00     0.138 A 
ATOM      2  C   UNL     1       0.621   2.112 -23.619  1.00  0.00     0.100 A 
ATOM      3  C   UNL     1       0.012   1.466 -22.542  1.00  0.00     0.197 A 
ATOM      4  O   UNL     1      -0.813   0.549 -22.789  1.00  0.00    -0.289 OA
ATOM      5  C   UNL     1       0.304   1.877 -21.219  1.00  0.00     0.107 A 
ATOM      6  C   UNL     1      -0.226   1.266 -20.043  1.00  0.00     0.134 A 
ATOM      7  C   UNL     1       0.043   1.832 -18.791  1.00  0.00     0.093 A 
ATOM      8  C   UNL     1       0.869   2.948 -18.667  1.00  0.00     0.123 A 
ATOM      9  C   UNL     1       1.436   3.522 -19.806  1.00  0.00     0.094 A 
ATOM     10  C   UNL     1       1.159   3.001 -21.072  1.00  0.00     0.146 A 
ATOM     11  O   UNL     1       1.707   3.584 -22.133  1.00  0.00    -0.456 OA
ENDROOT
BRANCH   1  12
ATOM     12  C   UNL     1       2.168   3.905 -24.491  1.00  0.00     0.021 A 
ATOM     13  C   UNL     1       2.358   3.310 -25.753  1.00  0.00     0.016 A 
ATOM     14  C   UNL     1       3.005   4.009 -26.774  1.00  0.00     0.051 A 
ATOM     15  C   UNL     1       3.482   5.304 -26.556  1.00  0.00     0.157 A 
ATOM     16  C   UNL     1       2.662   5.203 -24.272  1.00  0.00     0.062 A 
ATOM     17  C   UNL     1       3.312   5.905 -25.298  1.00  0.00     0.158 A 
BRANCH  15  18
ATOM     18  O   UNL     1       4.123   5.976 -27.596  1.00  0.00    -0.504 OA
ATOM     19  H   UNL     1       3.692   6.754 -28.080  1.00  0.00     0.293 HD
ENDBRANCH  15  18
BRANCH  17  20
ATOM     20  O   UNL     1       3.788   7.196 -25.071  1.00  0.00    -0.504 OA
ATOM     21  H   UNL     1       4.575   7.372 -24.456  1.00  0.00     0.293 HD
ENDBRANCH  17  20
ENDBRANCH   1  12
BRANCH   6  22
ATOM     22  O   UNL     1      -0.994   0.097 -20.048  1.00  0.00    -0.507 OA
ATOM     23  H   UNL     1      -1.993   0.063 -19.909  1.00  0.00     0.293 HD
ENDBRANCH   6  22
BRANCH   8  24
ATOM     24  O   UNL     1       1.125   3.475 -17.403  1.00  0.00    -0.508 OA
ATOM     25  H   UNL     1       1.238   2.877 -16.593  1.00  0.00     0.293 HD
ENDBRANCH   8  24
TORSDOF 5
ENDMDL
MODEL 7
REMARK VINA RESULT:    -6.356      1.393      7.430
REMARK INTER + INTRA:          -7.780
REMARK INTER:                  -7.465
REMARK INTRA:                  -0.315
REMARK UNBOUND:                -0.308
REMARK SMILES O=c1cc(-c2ccc(O)c(O)c2)oc2cc(O)cc(O)c12
REMARK SMILES IDX 4 1 3 2 2 3 1 4 21 5 19 6 18 7 16 8 15 9 14 10 13 11 5 12
REMARK SMILES IDX 6 13 7 14 8 15 12 16 10 17 9 18 11 20 20 22 17 24
REMARK H PARENT 9 19 11 21 20 23 17 25
REMARK Flexibility Score: inf
ROOT
ATOM      1  C   UNL     1       2.147   4.158 -22.424  1.00  0.00     0.138 A 
ATOM      2  C   UNL     1       2.643   5.467 -22.497  1.00  0.00     0.100 A 
ATOM      3  C   UNL     1       3.061   5.980 -23.726  1.00  0.00     0.197 A 
ATOM      4  O   UNL     1       3.442   7.177 -23.771  1.00  0.00    -0.289 OA
ATOM      5  C   UNL     1       3.010   5.164 -24.882  1.00  0.00     0.107 A 
ATOM      6  C   UNL     1       3.448   5.565 -26.179  1.00  0.00     0.134 A 
ATOM      7  C   UNL     1       3.241   4.713 -27.272  1.00  0.00     0.093 A 
ATOM      8  C   UNL     1       2.670   3.453 -27.104  1.00  0.00     0.123 A 
ATOM      9  C   UNL     1       2.288   3.028 -25.830  1.00  0.00     0.094 A 
ATOM     10  C   UNL     1       2.449   3.868 -24.727  1.00  0.00     0.146 A 
ATOM     11  O   UNL     1       2.059   3.432 -23.533  1.00  0.00    -0.456 OA
ENDROOT
BRANCH   1  12
ATOM     12  C   UNL     1       1.690   3.563 -21.142  1.00  0.00     0.021 A 
ATOM     13  C   UNL     1       2.021   4.139 -19.900  1.00  0.00     0.016 A 
ATOM     14  C   UNL     1       1.585   3.552 -18.710  1.00  0.00     0.051 A 
ATOM     15  C   UNL     1       0.824   2.381 -18.734  1.00  0.00     0.157 A 
ATOM     16  C   UNL     1       0.935   2.377 -21.160  1.00  0.00     0.062 A 
ATOM     17  C   UNL     1       0.497   1.788 -19.964  1.00  0.00     0.158 A 
BRANCH  15  18
ATOM     18  O   UNL     1       0.404   1.820 -17.529  1.00  0.00    -0.504 OA
ATOM     19  H   UNL     1       0.743   0.922 -17.205  1.00  0.00     0.293 HD
ENDBRANCH  15  18
BRANCH  17  20
ATOM     20  O   UNL     1      -0.259   0.617 -19.996  1.00  0.00    -0.504 OA
ATOM     21  H   UNL     1      -0.088  -0.108 -20.684  1.00  0.00     0.293 HD
ENDBRANCH  17  20
ENDBRANCH   1  12
BRANCH   6  22
ATOM     22  O   UNL     1       4.107   6.770 -26.443  1.00  0.00    -0.507 OA
ATOM     23  H   UNL     1       4.171   7.545 -25.801  1.00  0.00     0.293 HD
ENDBRANCH   6  22
BRANCH   8  24
ATOM     24  O   UNL     1       2.494   2.627 -28.212  1.00  0.00    -0.508 OA
ATOM     25  H   UNL     1       3.262   2.405 -28.834  1.00  0.00     0.293 HD
ENDBRANCH   8  24
TORSDOF 5
ENDMDL
MODEL 8
REMARK VINA RESULT:    -6.300      2.996      7.424
REMARK INTER + INTRA:          -7.713
REMARK INTER:                  -7.451
REMARK INTRA:                  -0.263
REMARK UNBOUND:                -0.308
REMARK SMILES O=c1cc(-c2ccc(O)c(O)c2)oc2cc(O)cc(O)c12
REMARK SMILES IDX 4 1 3 2 2 3 1 4 21 5 19 6 18 7 16 8 15 9 14 10 13 11 5 12
REMARK SMILES IDX 6 13 7 14 8 15 12 16 10 17 9 18 11 20 20 22 17 24
REMARK H PARENT 9 19 11 21 20 23 17 25
REMARK Flexibility Score: inf
ROOT
ATOM      1  C   UNL     1       0.737   2.522 -22.537  1.00  0.00     0.138 A 
ATOM      2  C   UNL     1       1.814   2.597 -23.430  1.00  0.00     0.100 A 
ATOM      3  C   UNL     1       1.592   2.992 -24.750  1.00  0.00     0.197 A 
ATOM      4  O   UNL     1       2.587   3.110 -25.510  1.00  0.00    -0.289 OA
ATOM      5  C   UNL     1       0.277   3.282 -25.184  1.00  0.00     0.107 A 
ATOM      6  C   UNL     1      -0.075   3.655 -26.516  1.00  0.00     0.134 A 
ATOM      7  C   UNL     1      -1.394   4.032 -26.802  1.00  0.00     0.093 A 
ATOM      8  C   UNL     1      -2.383   3.992 -25.820  1.00  0.00     0.123 A 
ATOM      9  C   UNL     1      -2.061   3.577 -24.527  1.00  0.00     0.094 A 
ATOM     10  C   UNL     1      -0.749   3.228 -24.203  1.00  0.00     0.146 A 
ATOM     11  O   UNL     1      -0.480   2.853 -22.956  1.00  0.00    -0.456 OA
ENDROOT
BRANCH   1  12
ATOM     12  C   UNL     1       0.918   2.106 -21.123  1.00  0.00     0.021 A 
ATOM     13  C   UNL     1       1.109   3.049 -20.094  1.00  0.00     0.016 A 
ATOM     14  C   UNL     1       1.286   2.630 -18.774  1.00  0.00     0.051 A 
ATOM     15  C   UNL     1       1.286   1.270 -18.456  1.00  0.00     0.157 A 
ATOM     16  C   UNL     1       0.931   0.738 -20.799  1.00  0.00     0.062 A 
ATOM     17  C   UNL     1       1.109   0.317 -19.473  1.00  0.00     0.158 A 
BRANCH  15  18
ATOM     18  O   UNL     1       1.464   0.883 -17.128  1.00  0.00    -0.504 OA
ATOM     19  H   UNL     1       1.803   1.524 -16.422  1.00  0.00     0.293 HD
ENDBRANCH  15  18
BRANCH  17  20
ATOM     20  O   UNL     1       1.110  -1.042 -19.164  1.00  0.00    -0.504 OA
ATOM     21  H   UNL     1       1.956  -1.598 -19.216  1.00  0.00     0.293 HD
ENDBRANCH  17  20
ENDBRANCH   1  12
BRANCH   6  22
ATOM     22  O   UNL     1       0.818   3.648 -27.591  1.00  0.00    -0.507 OA
ATOM     23  H   UNL     1       0.615   4.005 -28.513  1.00  0.00     0.293 HD
ENDBRANCH   6  22
BRANCH   8  24
ATOM     24  O   UNL     1      -3.687   4.360 -26.145  1.00  0.00    -0.508 OA
ATOM     25  H   UNL     1      -4.160   5.115 -25.661  1.00  0.00     0.293 HD
ENDBRANCH   8  24
TORSDOF 5
ENDMDL
MODEL 9
REMARK VINA RESULT:    -6.046      2.685      3.969
REMARK INTER + INTRA:          -7.415
REMARK INTER:                  -7.120
REMARK INTRA:                  -0.295
REMARK UNBOUND:                -0.308
REMARK SMILES O=c1cc(-c2ccc(O)c(O)c2)oc2cc(O)cc(O)c12
REMARK SMILES IDX 4 1 3 2 2 3 1 4 21 5 19 6 18 7 16 8 15 9 14 10 13 11 5 12
REMARK SMILES IDX 6 13 7 14 8 15 12 16 10 17 9 18 11 20 20 22 17 24
REMARK H PARENT 9 19 11 21 20 23 17 25
REMARK Flexibility Score: inf
ROOT
ATOM      1  C   UNL     1       0.934   3.128 -23.432  1.00  0.00     0.138 A 
ATOM      2  C   UNL     1       1.511   2.350 -22.419  1.00  0.00     0.100 A 
ATOM      3  C   UNL     1       0.710   1.494 -21.663  1.00  0.00     0.197 A 
ATOM      4  O   UNL     1       1.267   0.764 -20.804  1.00  0.00    -0.289 OA
ATOM      5  C   UNL     1      -0.684   1.443 -21.902  1.00  0.00     0.107 A 
ATOM      6  C   UNL     1      -1.606   0.639 -21.167  1.00  0.00     0.134 A 
ATOM      7  C   UNL     1      -2.946   0.581 -21.569  1.00  0.00     0.093 A 
ATOM      8  C   UNL     1      -3.409   1.343 -22.641  1.00  0.00     0.123 A 
ATOM      9  C   UNL     1      -2.528   2.174 -23.334  1.00  0.00     0.094 A 
ATOM     10  C   UNL     1      -1.179   2.227 -22.978  1.00  0.00     0.146 A 
ATOM     11  O   UNL     1      -0.368   3.020 -23.672  1.00  0.00    -0.456 OA
ENDROOT
BRANCH   1  12
ATOM     12  C   UNL     1       1.741   4.055 -24.266  1.00  0.00     0.021 A 
ATOM     13  C   UNL     1       3.014   3.697 -24.749  1.00  0.00     0.016 A 
ATOM     14  C   UNL     1       3.755   4.593 -25.523  1.00  0.00     0.051 A 
ATOM     15  C   UNL     1       3.248   5.860 -25.821  1.00  0.00     0.157 A 
ATOM     16  C   UNL     1       1.241   5.337 -24.558  1.00  0.00     0.062 A 
ATOM     17  C   UNL     1       1.985   6.236 -25.336  1.00  0.00     0.158 A 
BRANCH  15  18
ATOM     18  O   UNL     1       4.011   6.731 -26.597  1.00  0.00    -0.504 OA
ATOM     19  H   UNL     1       4.807   7.231 -26.220  1.00  0.00     0.293 HD
ENDBRANCH  15  18
BRANCH  17  20
ATOM     20  O   UNL     1       1.473   7.500 -25.626  1.00  0.00    -0.504 OA
ATOM     21  H   UNL     1       0.993   8.053 -24.925  1.00  0.00     0.293 HD
ENDBRANCH  17  20
ENDBRANCH   1  12
BRANCH   6  22
ATOM     22  O   UNL     1      -1.265  -0.096 -20.027  1.00  0.00    -0.507 OA
ATOM     23  H   UNL     1      -1.571   0.118 -19.090  1.00  0.00     0.293 HD
ENDBRANCH   6  22
BRANCH   8  24
ATOM     24  O   UNL     1      -4.753   1.271 -23.004  1.00  0.00    -0.508 OA
ATOM     25  H   UNL     1      -5.076   1.604 -23.905  1.00  0.00     0.293 HD
ENDBRANCH   8  24
TORSDOF 5
ENDMDL
