MODEL 1
REMARK VINA RESULT:    -5.713      0.000      0.000
REMARK INTER + INTRA:          -7.307
REMARK INTER:                  -6.882
REMARK INTRA:                  -0.425
REMARK UNBOUND:                -0.425
REMARK SMILES O=c1c(O)c(-c2ccc(O)cc2O)oc2cc(O)cc(O)c12
REMARK SMILES IDX 5 1 3 2 2 3 1 4 22 5 20 6 19 7 17 8 16 9 15 10 14 11 6 12
REMARK SMILES IDX 8 13 7 14 9 15 11 16 12 17 10 18 13 20 4 22 21 24 18 26
REMARK H PARENT 10 19 13 21 4 23 21 25 18 27
REMARK Flexibility Score: inf
ROOT
ATOM      1  C   UNL     1      43.780  12.917  22.795  1.00  0.00     0.184 A 
ATOM      2  C   UNL     1      44.553  12.835  23.966  1.00  0.00     0.208 A 
ATOM      3  C   UNL     1      45.088  11.592  24.339  1.00  0.00     0.238 A 
ATOM      4  O   UNL     1      45.775  11.503  25.393  1.00  0.00    -0.285 OA
ATOM      5  C   UNL     1      44.856  10.462  23.526  1.00  0.00     0.111 A 
ATOM      6  C   UNL     1      45.362   9.175  23.829  1.00  0.00     0.134 A 
ATOM      7  C   UNL     1      45.096   8.103  22.965  1.00  0.00     0.093 A 
ATOM      8  C   UNL     1      44.336   8.291  21.807  1.00  0.00     0.123 A 
ATOM      9  C   UNL     1      43.833   9.561  21.504  1.00  0.00     0.094 A 
ATOM     10  C   UNL     1      44.087  10.643  22.352  1.00  0.00     0.146 A 
ATOM     11  O   UNL     1      43.593  11.837  22.044  1.00  0.00    -0.451 OA
ENDROOT
BRANCH   1  12
ATOM     12  C   UNL     1      43.178  14.192  22.352  1.00  0.00     0.063 A 
ATOM     13  C   UNL     1      43.446  16.341  21.247  1.00  0.00     0.047 A 
ATOM     14  C   UNL     1      43.983  15.128  21.685  1.00  0.00     0.020 A 
ATOM     15  C   UNL     1      42.092  16.627  21.459  1.00  0.00     0.119 A 
ATOM     16  C   UNL     1      41.276  15.690  22.100  1.00  0.00     0.093 A 
ATOM     17  C   UNL     1      41.808  14.468  22.537  1.00  0.00     0.130 A 
BRANCH  15  18
ATOM     18  O   UNL     1      41.546  17.835  21.029  1.00  0.00    -0.508 OA
ATOM     19  H   UNL     1      40.694  17.866  20.482  1.00  0.00     0.293 HD
ENDBRANCH  15  18
BRANCH  17  20
ATOM     20  O   UNL     1      40.973  13.522  23.134  1.00  0.00    -0.507 OA
ATOM     21  H   UNL     1      39.972  13.668  23.210  1.00  0.00     0.293 HD
ENDBRANCH  17  20
ENDBRANCH   1  12
BRANCH   2  22
ATOM     22  O   UNL     1      44.802  13.981  24.725  1.00  0.00    -0.502 OA
ATOM     23  H   UNL     1      44.955  13.946  25.726  1.00  0.00     0.293 HD
ENDBRANCH   2  22
BRANCH   6  24
ATOM     24  O   UNL     1      46.125   8.954  24.976  1.00  0.00    -0.507 OA
ATOM     25  H   UNL     1      47.116   9.160  25.005  1.00  0.00     0.293 HD
ENDBRANCH   6  24
BRANCH   8  26
ATOM     26  O   UNL     1      44.087   7.209  20.966  1.00  0.00    -0.508 OA
ATOM     27  H   UNL     1      44.287   7.253  19.973  1.00  0.00     0.293 HD
ENDBRANCH   8  26
TORSDOF 6
ENDMDL
MODEL 2
REMARK VINA RESULT:    -5.681      3.119      6.803
REMARK INTER + INTRA:          -7.268
REMARK INTER:                  -6.851
REMARK INTRA:                  -0.417
REMARK UNBOUND:                -0.425
REMARK SMILES O=c1c(O)c(-c2ccc(O)cc2O)oc2cc(O)cc(O)c12
REMARK SMILES IDX 5 1 3 2 2 3 1 4 22 5 20 6 19 7 17 8 16 9 15 10 14 11 6 12
REMARK SMILES IDX 8 13 7 14 9 15 11 16 12 17 10 18 13 20 4 22 21 24 18 26
REMARK H PARENT 10 19 13 21 4 23 21 25 18 27
REMARK Flexibility Score: inf
ROOT
ATOM      1  C   UNL     1      45.075  14.126  22.894  1.00  0.00     0.184 A 
ATOM      2  C   UNL     1      45.162  15.226  22.023  1.00  0.00     0.208 A 
ATOM      3  C   UNL     1      45.375  16.503  22.564  1.00  0.00     0.238 A 
ATOM      4  O   UNL     1      45.444  17.500  21.794  1.00  0.00    -0.285 OA
ATOM      5  C   UNL     1      45.518  16.654  23.960  1.00  0.00     0.111 A 
ATOM      6  C   UNL     1      45.739  17.904  24.584  1.00  0.00     0.134 A 
ATOM      7  C   UNL     1      45.880  17.970  25.978  1.00  0.00     0.093 A 
ATOM      8  C   UNL     1      45.804  16.813  26.758  1.00  0.00     0.123 A 
ATOM      9  C   UNL     1      45.585  15.574  26.146  1.00  0.00     0.094 A 
ATOM     10  C   UNL     1      45.441  15.487  24.758  1.00  0.00     0.146 A 
ATOM     11  O   UNL     1      45.229  14.300  24.203  1.00  0.00    -0.451 OA
ENDROOT
BRANCH   1  12
ATOM     12  C   UNL     1      44.840  12.756  22.392  1.00  0.00     0.063 A 
ATOM     13  C   UNL     1      45.691  10.794  21.235  1.00  0.00     0.047 A 
ATOM     14  C   UNL     1      45.877  12.091  21.719  1.00  0.00     0.020 A 
ATOM     15  C   UNL     1      44.469  10.139  21.431  1.00  0.00     0.119 A 
ATOM     16  C   UNL     1      43.439  10.784  22.121  1.00  0.00     0.093 A 
ATOM     17  C   UNL     1      43.620  12.085  22.615  1.00  0.00     0.130 A 
BRANCH  15  18
ATOM     18  O   UNL     1      44.272   8.847  20.951  1.00  0.00    -0.508 OA
ATOM     19  H   UNL     1      43.588   8.226  21.367  1.00  0.00     0.293 HD
ENDBRANCH  15  18
BRANCH  17  20
ATOM     20  O   UNL     1      42.601  12.699  23.344  1.00  0.00    -0.507 OA
ATOM     21  H   UNL     1      42.561  13.705  23.460  1.00  0.00     0.293 HD
ENDBRANCH  17  20
ENDBRANCH   1  12
BRANCH   2  22
ATOM     22  O   UNL     1      45.062  15.038  20.643  1.00  0.00    -0.502 OA
ATOM     23  H   UNL     1      45.606  15.578  19.981  1.00  0.00     0.293 HD
ENDBRANCH   2  22
BRANCH   6  24
ATOM     24  O   UNL     1      45.821  19.078  23.834  1.00  0.00    -0.507 OA
ATOM     25  H   UNL     1      45.012  19.467  23.364  1.00  0.00     0.293 HD
ENDBRANCH   6  24
BRANCH   8  26
ATOM     26  O   UNL     1      45.948  16.906  28.141  1.00  0.00    -0.508 OA
ATOM     27  H   UNL     1      45.252  17.366  28.716  1.00  0.00     0.293 HD
ENDBRANCH   8  26
TORSDOF 6
ENDMDL
MODEL 3
REMARK VINA RESULT:    -5.638      7.050      9.276
REMARK INTER + INTRA:          -7.216
REMARK INTER:                  -7.135
REMARK INTRA:                  -0.081
REMARK UNBOUND:                -0.425
REMARK SMILES O=c1c(O)c(-c2ccc(O)cc2O)oc2cc(O)cc(O)c12
REMARK SMILES IDX 5 1 3 2 2 3 1 4 22 5 20 6 19 7 17 8 16 9 15 10 14 11 6 12
REMARK SMILES IDX 8 13 7 14 9 15 11 16 12 17 10 18 13 20 4 22 21 24 18 26
REMARK H PARENT 10 19 13 21 4 23 21 25 18 27
REMARK Flexibility Score: inf
ROOT
ATOM      1  C   UNL     1      38.687  11.261  26.973  1.00  0.00     0.184 A 
ATOM      2  C   UNL     1      37.990  10.049  27.121  1.00  0.00     0.208 A 
ATOM      3  C   UNL     1      36.764  10.051  27.804  1.00  0.00     0.238 A 
ATOM      4  O   UNL     1      36.134   8.968  27.952  1.00  0.00    -0.285 OA
ATOM      5  C   UNL     1      36.250  11.264  28.309  1.00  0.00     0.111 A 
ATOM      6  C   UNL     1      35.021  11.354  29.005  1.00  0.00     0.134 A 
ATOM      7  C   UNL     1      34.574  12.600  29.468  1.00  0.00     0.093 A 
ATOM      8  C   UNL     1      35.328  13.755  29.248  1.00  0.00     0.123 A 
ATOM      9  C   UNL     1      36.543  13.673  28.561  1.00  0.00     0.094 A 
ATOM     10  C   UNL     1      37.008  12.441  28.092  1.00  0.00     0.146 A 
ATOM     11  O   UNL     1      38.168  12.389  27.447  1.00  0.00    -0.451 OA
ENDROOT
BRANCH   1  12
ATOM     12  C   UNL     1      39.988  11.326  26.275  1.00  0.00     0.063 A 
ATOM     13  C   UNL     1      41.370  12.340  24.551  1.00  0.00     0.047 A 
ATOM     14  C   UNL     1      40.152  12.247  25.228  1.00  0.00     0.020 A 
ATOM     15  C   UNL     1      42.444  11.522  24.920  1.00  0.00     0.119 A 
ATOM     16  C   UNL     1      42.298  10.619  25.977  1.00  0.00     0.093 A 
ATOM     17  C   UNL     1      41.080  10.525  26.667  1.00  0.00     0.130 A 
BRANCH  15  18
ATOM     18  O   UNL     1      43.662  11.604  24.249  1.00  0.00    -0.508 OA
ATOM     19  H   UNL     1      44.334  10.846  24.277  1.00  0.00     0.293 HD
ENDBRANCH  15  18
BRANCH  17  20
ATOM     20  O   UNL     1      40.962   9.654  27.751  1.00  0.00    -0.507 OA
ATOM     21  H   UNL     1      41.319   8.706  27.713  1.00  0.00     0.293 HD
ENDBRANCH  17  20
ENDBRANCH   1  12
BRANCH   2  22
ATOM     22  O   UNL     1      38.503   8.872  26.571  1.00  0.00    -0.502 OA
ATOM     23  H   UNL     1      38.880   8.832  25.632  1.00  0.00     0.293 HD
ENDBRANCH   2  22
BRANCH   6  24
ATOM     24  O   UNL     1      34.244  10.219  29.240  1.00  0.00    -0.507 OA
ATOM     25  H   UNL     1      33.881  10.004  30.161  1.00  0.00     0.293 HD
ENDBRANCH   6  24
BRANCH   8  26
ATOM     26  O   UNL     1      34.860  14.981  29.717  1.00  0.00    -0.508 OA
ATOM     27  H   UNL     1      33.868  15.172  29.802  1.00  0.00     0.293 HD
ENDBRANCH   8  26
TORSDOF 6
ENDMDL
MODEL 4
REMARK VINA RESULT:    -5.586      3.821      5.319
REMARK INTER + INTRA:          -7.154
REMARK INTER:                  -6.742
REMARK INTRA:                  -0.412
REMARK UNBOUND:                -0.425
REMARK SMILES O=c1c(O)c(-c2ccc(O)cc2O)oc2cc(O)cc(O)c12
REMARK SMILES IDX 5 1 3 2 2 3 1 4 22 5 20 6 19 7 17 8 16 9 15 10 14 11 6 12
REMARK SMILES IDX 8 13 7 14 9 15 11 16 12 17 10 18 13 20 4 22 21 24 18 26
REMARK H PARENT 10 19 13 21 4 23 21 25 18 27
REMARK Flexibility Score: inf
ROOT
ATOM      1  C   UNL     1      41.683  14.539  24.391  1.00  0.00     0.184 A 
ATOM      2  C   UNL     1      41.201  15.417  25.378  1.00  0.00     0.208 A 
ATOM      3  C   UNL     1      40.447  14.895  26.440  1.00  0.00     0.238 A 
ATOM      4  O   UNL     1      40.001  15.674  27.326  1.00  0.00    -0.285 OA
ATOM      5  C   UNL     1      40.207  13.506  26.507  1.00  0.00     0.111 A 
ATOM      6  C   UNL     1      39.462  12.900  27.546  1.00  0.00     0.134 A 
ATOM      7  C   UNL     1      39.275  11.510  27.547  1.00  0.00     0.093 A 
ATOM      8  C   UNL     1      39.817  10.716  26.533  1.00  0.00     0.123 A 
ATOM      9  C   UNL     1      40.555  11.311  25.504  1.00  0.00     0.094 A 
ATOM     10  C   UNL     1      40.752  12.694  25.484  1.00  0.00     0.146 A 
ATOM     11  O   UNL     1      41.452  13.234  24.493  1.00  0.00    -0.451 OA
ENDROOT
BRANCH   1  12
ATOM     12  C   UNL     1      42.472  15.024  23.240  1.00  0.00     0.063 A 
ATOM     13  C   UNL     1      42.541  16.237  21.134  1.00  0.00     0.047 A 
ATOM     14  C   UNL     1      41.825  15.758  22.233  1.00  0.00     0.020 A 
ATOM     15  C   UNL     1      43.918  16.000  21.034  1.00  0.00     0.119 A 
ATOM     16  C   UNL     1      44.575  15.292  22.044  1.00  0.00     0.093 A 
ATOM     17  C   UNL     1      43.863  14.813  23.154  1.00  0.00     0.130 A 
BRANCH  15  18
ATOM     18  O   UNL     1      44.641  16.470  19.941  1.00  0.00    -0.508 OA
ATOM     19  H   UNL     1      45.437  15.961  19.573  1.00  0.00     0.293 HD
ENDBRANCH  15  18
BRANCH  17  20
ATOM     20  O   UNL     1      44.540  14.149  24.178  1.00  0.00    -0.507 OA
ATOM     21  H   UNL     1      44.072  13.872  25.033  1.00  0.00     0.293 HD
ENDBRANCH  17  20
ENDBRANCH   1  12
BRANCH   2  22
ATOM     22  O   UNL     1      41.494  16.781  25.307  1.00  0.00    -0.502 OA
ATOM     23  H   UNL     1      42.194  17.153  24.677  1.00  0.00     0.293 HD
ENDBRANCH   2  22
BRANCH   6  24
ATOM     24  O   UNL     1      38.907  13.664  28.574  1.00  0.00    -0.507 OA
ATOM     25  H   UNL     1      38.664  14.638  28.442  1.00  0.00     0.293 HD
ENDBRANCH   6  24
BRANCH   8  26
ATOM     26  O   UNL     1      39.617   9.338  26.558  1.00  0.00    -0.508 OA
ATOM     27  H   UNL     1      40.210   8.707  26.031  1.00  0.00     0.293 HD
ENDBRANCH   8  26
TORSDOF 6
ENDMDL
MODEL 5
REMARK VINA RESULT:    -5.569      1.947      3.191
REMARK INTER + INTRA:          -7.133
REMARK INTER:                  -6.830
REMARK INTRA:                  -0.303
REMARK UNBOUND:                -0.425
REMARK SMILES O=c1c(O)c(-c2ccc(O)cc2O)oc2cc(O)cc(O)c12
REMARK SMILES IDX 5 1 3 2 2 3 1 4 22 5 20 6 19 7 17 8 16 9 15 10 14 11 6 12
REMARK SMILES IDX 8 13 7 14 9 15 11 16 12 17 10 18 13 20 4 22 21 24 18 26
REMARK H PARENT 10 19 13 21 4 23 21 25 18 27
REMARK Flexibility Score: inf
ROOT
ATOM      1  C   UNL     1      43.749  11.819  23.303  1.00  0.00     0.184 A 
ATOM      2  C   UNL     1      44.649  11.103  22.495  1.00  0.00     0.208 A 
ATOM      3  C   UNL     1      45.159   9.883  22.964  1.00  0.00     0.238 A 
ATOM      4  O   UNL     1      45.976   9.237  22.251  1.00  0.00    -0.285 OA
ATOM      5  C   UNL     1      44.746   9.392  24.220  1.00  0.00     0.111 A 
ATOM      6  C   UNL     1      45.209   8.170  24.763  1.00  0.00     0.134 A 
ATOM      7  C   UNL     1      44.743   7.746  26.017  1.00  0.00     0.093 A 
ATOM      8  C   UNL     1      43.826   8.517  26.735  1.00  0.00     0.123 A 
ATOM      9  C   UNL     1      43.365   9.726  26.203  1.00  0.00     0.094 A 
ATOM     10  C   UNL     1      43.817  10.167  24.956  1.00  0.00     0.146 A 
ATOM     11  O   UNL     1      43.368  11.321  24.476  1.00  0.00    -0.451 OA
ENDROOT
BRANCH   1  12
ATOM     12  C   UNL     1      43.183  13.115  22.875  1.00  0.00     0.063 A 
ATOM     13  C   UNL     1      41.234  14.422  22.242  1.00  0.00     0.047 A 
ATOM     14  C   UNL     1      41.802  13.211  22.642  1.00  0.00     0.020 A 
ATOM     15  C   UNL     1      42.037  15.558  22.083  1.00  0.00     0.119 A 
ATOM     16  C   UNL     1      43.409  15.478  22.336  1.00  0.00     0.093 A 
ATOM     17  C   UNL     1      43.987  14.266  22.745  1.00  0.00     0.130 A 
BRANCH  15  18
ATOM     18  O   UNL     1      41.481  16.770  21.681  1.00  0.00    -0.508 OA
ATOM     19  H   UNL     1      42.036  17.479  21.217  1.00  0.00     0.293 HD
ENDBRANCH  15  18
BRANCH  17  20
ATOM     20  O   UNL     1      45.349  14.212  23.041  1.00  0.00    -0.507 OA
ATOM     21  H   UNL     1      45.684  13.956  23.963  1.00  0.00     0.293 HD
ENDBRANCH  17  20
ENDBRANCH   1  12
BRANCH   2  22
ATOM     22  O   UNL     1      45.003  11.594  21.236  1.00  0.00    -0.502 OA
ATOM     23  H   UNL     1      44.410  11.481  20.423  1.00  0.00     0.293 HD
ENDBRANCH   2  22
BRANCH   6  24
ATOM     24  O   UNL     1      46.125   7.377  24.071  1.00  0.00    -0.507 OA
ATOM     25  H   UNL     1      46.770   6.763  24.554  1.00  0.00     0.293 HD
ENDBRANCH   6  24
BRANCH   8  26
ATOM     26  O   UNL     1      43.379   8.072  27.977  1.00  0.00    -0.508 OA
ATOM     27  H   UNL     1      43.471   7.102  28.258  1.00  0.00     0.293 HD
ENDBRANCH   8  26
TORSDOF 6
ENDMDL
MODEL 6
REMARK VINA RESULT:    -5.505      2.880      3.491
REMARK INTER + INTRA:          -7.057
REMARK INTER:                  -6.644
REMARK INTRA:                  -0.413
REMARK UNBOUND:                -0.425
REMARK SMILES O=c1c(O)c(-c2ccc(O)cc2O)oc2cc(O)cc(O)c12
REMARK SMILES IDX 5 1 3 2 2 3 1 4 22 5 20 6 19 7 17 8 16 9 15 10 14 11 6 12
REMARK SMILES IDX 8 13 7 14 9 15 11 16 12 17 10 18 13 20 4 22 21 24 18 26
REMARK H PARENT 10 19 13 21 4 23 21 25 18 27
REMARK Flexibility Score: inf
ROOT
ATOM      1  C   UNL     1      43.227  11.759  25.066  1.00  0.00     0.184 A 
ATOM      2  C   UNL     1      43.833  10.850  25.952  1.00  0.00     0.208 A 
ATOM      3  C   UNL     1      44.590   9.792  25.426  1.00  0.00     0.238 A 
ATOM      4  O   UNL     1      45.129   8.965  26.211  1.00  0.00    -0.285 OA
ATOM      5  C   UNL     1      44.743   9.674  24.028  1.00  0.00     0.111 A 
ATOM      6  C   UNL     1      45.493   8.640  23.418  1.00  0.00     0.134 A 
ATOM      7  C   UNL     1      45.606   8.596  22.021  1.00  0.00     0.093 A 
ATOM      8  C   UNL     1      44.987   9.563  21.224  1.00  0.00     0.123 A 
ATOM      9  C   UNL     1      44.245  10.586  21.822  1.00  0.00     0.094 A 
ATOM     10  C   UNL     1      44.119  10.648  23.213  1.00  0.00     0.146 A 
ATOM     11  O   UNL     1      43.405  11.627  23.756  1.00  0.00    -0.451 OA
ENDROOT
BRANCH   1  12
ATOM     12  C   UNL     1      42.408  12.887  25.554  1.00  0.00     0.063 A 
ATOM     13  C   UNL     1      40.341  13.665  26.570  1.00  0.00     0.047 A 
ATOM     14  C   UNL     1      41.140  12.623  26.095  1.00  0.00     0.020 A 
ATOM     15  C   UNL     1      40.805  14.985  26.523  1.00  0.00     0.119 A 
ATOM     16  C   UNL     1      42.077  15.255  26.008  1.00  0.00     0.093 A 
ATOM     17  C   UNL     1      42.887  14.213  25.535  1.00  0.00     0.130 A 
BRANCH  15  18
ATOM     18  O   UNL     1      40.016  16.033  26.991  1.00  0.00    -0.508 OA
ATOM     19  H   UNL     1      39.277  15.878  27.667  1.00  0.00     0.293 HD
ENDBRANCH  15  18
BRANCH  17  20
ATOM     20  O   UNL     1      44.173  14.491  25.068  1.00  0.00    -0.507 OA
ATOM     21  H   UNL     1      44.348  15.237  24.405  1.00  0.00     0.293 HD
ENDBRANCH  17  20
ENDBRANCH   1  12
BRANCH   2  22
ATOM     22  O   UNL     1      43.699  11.021  27.332  1.00  0.00    -0.502 OA
ATOM     23  H   UNL     1      43.830  10.260  27.988  1.00  0.00     0.293 HD
ENDBRANCH   2  22
BRANCH   6  24
ATOM     24  O   UNL     1      46.123   7.659  24.185  1.00  0.00    -0.507 OA
ATOM     25  H   UNL     1      46.046   7.642  25.195  1.00  0.00     0.293 HD
ENDBRANCH   6  24
BRANCH   8  26
ATOM     26  O   UNL     1      45.116   9.496  19.838  1.00  0.00    -0.508 OA
ATOM     27  H   UNL     1      45.873   8.984  19.400  1.00  0.00     0.293 HD
ENDBRANCH   8  26
TORSDOF 6
ENDMDL
MODEL 7
REMARK VINA RESULT:    -5.458      6.001      7.495
REMARK INTER + INTRA:          -6.999
REMARK INTER:                  -6.597
REMARK INTRA:                  -0.402
REMARK UNBOUND:                -0.425
REMARK SMILES O=c1c(O)c(-c2ccc(O)cc2O)oc2cc(O)cc(O)c12
REMARK SMILES IDX 5 1 3 2 2 3 1 4 22 5 20 6 19 7 17 8 16 9 15 10 14 11 6 12
REMARK SMILES IDX 8 13 7 14 9 15 11 16 12 17 10 18 13 20 4 22 21 24 18 26
REMARK H PARENT 10 19 13 21 4 23 21 25 18 27
REMARK Flexibility Score: inf
ROOT
ATOM      1  C   UNL     1      39.645  12.014  26.068  1.00  0.00     0.184 A 
ATOM      2  C   UNL     1      39.368  13.019  27.011  1.00  0.00     0.208 A 
ATOM      3  C   UNL     1      38.285  12.847  27.887  1.00  0.00     0.238 A 
ATOM      4  O   UNL     1      38.021  13.746  28.731  1.00  0.00    -0.285 OA
ATOM      5  C   UNL     1      37.513  11.668  27.817  1.00  0.00     0.111 A 
ATOM      6  C   UNL     1      36.409  11.415  28.665  1.00  0.00     0.134 A 
ATOM      7  C   UNL     1      35.696  10.213  28.538  1.00  0.00     0.093 A 
ATOM      8  C   UNL     1      36.066   9.262  27.585  1.00  0.00     0.123 A 
ATOM      9  C   UNL     1      37.156   9.507  26.743  1.00  0.00     0.094 A 
ATOM     10  C   UNL     1      37.879  10.698  26.852  1.00  0.00     0.146 A 
ATOM     11  O   UNL     1      38.907  10.909  26.038  1.00  0.00    -0.451 OA
ENDROOT
BRANCH   1  12
ATOM     12  C   UNL     1      40.762  12.137  25.109  1.00  0.00     0.063 A 
ATOM     13  C   UNL     1      41.723  13.250  23.173  1.00  0.00     0.047 A 
ATOM     14  C   UNL     1      40.683  13.102  24.093  1.00  0.00     0.020 A 
ATOM     15  C   UNL     1      42.864  12.444  23.266  1.00  0.00     0.119 A 
ATOM     16  C   UNL     1      42.963  11.497  24.289  1.00  0.00     0.093 A 
ATOM     17  C   UNL     1      41.925  11.347  25.221  1.00  0.00     0.130 A 
BRANCH  15  18
ATOM     18  O   UNL     1      43.906  12.580  22.352  1.00  0.00    -0.508 OA
ATOM     19  H   UNL     1      44.712  11.966  22.372  1.00  0.00     0.293 HD
ENDBRANCH  15  18
BRANCH  17  20
ATOM     20  O   UNL     1      42.057  10.431  26.265  1.00  0.00    -0.507 OA
ATOM     21  H   UNL     1      41.326   9.764  26.484  1.00  0.00     0.293 HD
ENDBRANCH  17  20
ENDBRANCH   1  12
BRANCH   2  22
ATOM     22  O   UNL     1      40.179  14.154  27.086  1.00  0.00    -0.502 OA
ATOM     23  H   UNL     1      39.834  15.082  26.872  1.00  0.00     0.293 HD
ENDBRANCH   2  22
BRANCH   6  24
ATOM     24  O   UNL     1      36.014  12.344  29.628  1.00  0.00    -0.507 OA
ATOM     25  H   UNL     1      35.091  12.321  30.045  1.00  0.00     0.293 HD
ENDBRANCH   6  24
BRANCH   8  26
ATOM     26  O   UNL     1      35.342   8.076  27.480  1.00  0.00    -0.508 OA
ATOM     27  H   UNL     1      35.155   7.646  26.582  1.00  0.00     0.293 HD
ENDBRANCH   8  26
TORSDOF 6
ENDMDL
MODEL 8
REMARK VINA RESULT:    -5.421      3.676      4.341
REMARK INTER + INTRA:          -6.955
REMARK INTER:                  -6.648
REMARK INTRA:                  -0.307
REMARK UNBOUND:                -0.425
REMARK SMILES O=c1c(O)c(-c2ccc(O)cc2O)oc2cc(O)cc(O)c12
REMARK SMILES IDX 5 1 3 2 2 3 1 4 22 5 20 6 19 7 17 8 16 9 15 10 14 11 6 12
REMARK SMILES IDX 8 13 7 14 9 15 11 16 12 17 10 18 13 20 4 22 21 24 18 26
REMARK H PARENT 10 19 13 21 4 23 21 25 18 27
REMARK Flexibility Score: inf
ROOT
ATOM      1  C   UNL     1      42.635  10.595  25.383  1.00  0.00     0.184 A 
ATOM      2  C   UNL     1      43.311   9.627  26.146  1.00  0.00     0.208 A 
ATOM      3  C   UNL     1      44.238   8.787  25.510  1.00  0.00     0.238 A 
ATOM      4  O   UNL     1      44.843   7.908  26.183  1.00  0.00    -0.285 OA
ATOM      5  C   UNL     1      44.486   8.943  24.130  1.00  0.00     0.111 A 
ATOM      6  C   UNL     1      45.406   8.141  23.414  1.00  0.00     0.134 A 
ATOM      7  C   UNL     1      45.603   8.365  22.043  1.00  0.00     0.093 A 
ATOM      8  C   UNL     1      44.901   9.372  21.376  1.00  0.00     0.123 A 
ATOM      9  C   UNL     1      43.990  10.167  22.079  1.00  0.00     0.094 A 
ATOM     10  C   UNL     1      43.778   9.960  23.445  1.00  0.00     0.146 A 
ATOM     11  O   UNL     1      42.903  10.726  24.088  1.00  0.00    -0.451 OA
ENDROOT
BRANCH   1  12
ATOM     12  C   UNL     1      41.639  11.503  25.988  1.00  0.00     0.063 A 
ATOM     13  C   UNL     1      40.992  13.766  26.598  1.00  0.00     0.047 A 
ATOM     14  C   UNL     1      41.914  12.879  26.038  1.00  0.00     0.020 A 
ATOM     15  C   UNL     1      39.776  13.291  27.103  1.00  0.00     0.119 A 
ATOM     16  C   UNL     1      39.483  11.926  27.036  1.00  0.00     0.093 A 
ATOM     17  C   UNL     1      40.401  11.029  26.469  1.00  0.00     0.130 A 
BRANCH  15  18
ATOM     18  O   UNL     1      38.851  14.166  27.667  1.00  0.00    -0.508 OA
ATOM     19  H   UNL     1      37.857  13.968  27.653  1.00  0.00     0.293 HD
ENDBRANCH  15  18
BRANCH  17  20
ATOM     20  O   UNL     1      40.076   9.676  26.365  1.00  0.00    -0.507 OA
ATOM     21  H   UNL     1      40.787   8.965  26.241  1.00  0.00     0.293 HD
ENDBRANCH  17  20
ENDBRANCH   1  12
BRANCH   2  22
ATOM     22  O   UNL     1      43.077   9.528  27.520  1.00  0.00    -0.502 OA
ATOM     23  H   UNL     1      42.809   8.658  27.963  1.00  0.00     0.293 HD
ENDBRANCH   2  22
BRANCH   6  24
ATOM     24  O   UNL     1      46.124   7.128  24.051  1.00  0.00    -0.507 OA
ATOM     25  H   UNL     1      45.665   6.427  24.619  1.00  0.00     0.293 HD
ENDBRANCH   6  24
BRANCH   8  26
ATOM     26  O   UNL     1      45.117   9.573  20.015  1.00  0.00    -0.508 OA
ATOM     27  H   UNL     1      45.755  10.286  19.679  1.00  0.00     0.293 HD
ENDBRANCH   8  26
TORSDOF 6
ENDMDL
MODEL 9
REMARK VINA RESULT:    -5.345      7.489      8.779
REMARK INTER + INTRA:          -6.864
REMARK INTER:                  -6.449
REMARK INTRA:                  -0.415
REMARK UNBOUND:                -0.425
REMARK SMILES O=c1c(O)c(-c2ccc(O)cc2O)oc2cc(O)cc(O)c12
REMARK SMILES IDX 5 1 3 2 2 3 1 4 22 5 20 6 19 7 17 8 16 9 15 10 14 11 6 12
REMARK SMILES IDX 8 13 7 14 9 15 11 16 12 17 10 18 13 20 4 22 21 24 18 26
REMARK H PARENT 10 19 13 21 4 23 21 25 18 27
REMARK Flexibility Score: inf
ROOT
ATOM      1  C   UNL     1      37.993  10.535  28.111  1.00  0.00     0.184 A 
ATOM      2  C   UNL     1      39.026   9.834  28.758  1.00  0.00     0.208 A 
ATOM      3  C   UNL     1      40.331   9.930  28.250  1.00  0.00     0.238 A 
ATOM      4  O   UNL     1      41.265   9.298  28.815  1.00  0.00    -0.285 OA
ATOM      5  C   UNL     1      40.581  10.738  27.121  1.00  0.00     0.111 A 
ATOM      6  C   UNL     1      41.867  10.892  26.550  1.00  0.00     0.134 A 
ATOM      7  C   UNL     1      42.036  11.721  25.431  1.00  0.00     0.093 A 
ATOM      8  C   UNL     1      40.948  12.399  24.875  1.00  0.00     0.123 A 
ATOM      9  C   UNL     1      39.675  12.250  25.435  1.00  0.00     0.094 A 
ATOM     10  C   UNL     1      39.485  11.428  26.549  1.00  0.00     0.146 A 
ATOM     11  O   UNL     1      38.265  11.300  27.059  1.00  0.00    -0.451 OA
ENDROOT
BRANCH   1  12
ATOM     12  C   UNL     1      36.595  10.468  28.587  1.00  0.00     0.063 A 
ATOM     13  C   UNL     1      34.807  11.435  29.920  1.00  0.00     0.047 A 
ATOM     14  C   UNL     1      36.124  11.464  29.456  1.00  0.00     0.020 A 
ATOM     15  C   UNL     1      33.940  10.416  29.510  1.00  0.00     0.119 A 
ATOM     16  C   UNL     1      34.393   9.433  28.625  1.00  0.00     0.093 A 
ATOM     17  C   UNL     1      35.712   9.459  28.150  1.00  0.00     0.130 A 
BRANCH  15  18
ATOM     18  O   UNL     1      32.625  10.375  29.969  1.00  0.00    -0.508 OA
ATOM     19  H   UNL     1      32.082  11.221  30.096  1.00  0.00     0.293 HD
ENDBRANCH  15  18
BRANCH  17  20
ATOM     20  O   UNL     1      36.138   8.500  27.230  1.00  0.00    -0.507 OA
ATOM     21  H   UNL     1      37.057   8.077  27.289  1.00  0.00     0.293 HD
ENDBRANCH  17  20
ENDBRANCH   1  12
BRANCH   2  22
ATOM     22  O   UNL     1      38.754   9.079  29.901  1.00  0.00    -0.502 OA
ATOM     23  H   UNL     1      38.636   9.501  30.814  1.00  0.00     0.293 HD
ENDBRANCH   2  22
BRANCH   6  24
ATOM     24  O   UNL     1      42.974  10.230  27.082  1.00  0.00    -0.507 OA
ATOM     25  H   UNL     1      42.998   9.222  27.176  1.00  0.00     0.293 HD
ENDBRANCH   6  24
BRANCH   8  26
ATOM     26  O   UNL     1      41.144  13.217  23.764  1.00  0.00    -0.508 OA
ATOM     27  H   UNL     1      41.324  12.829  22.845  1.00  0.00     0.293 HD
ENDBRANCH   8  26
TORSDOF 6
ENDMDL
