MODEL 1
REMARK VINA RESULT:    -6.201      0.000      0.000
REMARK INTER + INTRA:          -9.316
REMARK INTER:                  -8.195
REMARK INTRA:                  -1.122
REMARK UNBOUND:                -1.122
REMARK SMILES CC[C@@H](C=C[C@H](C)[C@@H]1CC[C@@H]2C3=CC[C@@H]4C[C@@H](O)CC[C@@]4(C)[C@H]3CC[C@]21C)C(C)C
REMARK SMILES IDX 6 1 7 2 5 3 4 4 3 5 2 6 1 7 28 8 29 9 30 10 8 11 9 12 26 13
REMARK SMILES IDX 10 14 11 15 25 16 27 17 12 18 24 19 23 20 13 21 21 22 14 23
REMARK SMILES IDX 15 24 20 25 22 26 16 27 19 28 17 29 18 30
REMARK H PARENT 18 31
REMARK Flexibility Score: inf
ROOT
ATOM      1  C   UNL     1     134.102 129.515 137.126  1.00  0.00     0.012 C 
ATOM      2  C   UNL     1     134.896 129.941 138.372  1.00  0.00     0.012 C 
ENDROOT
BRANCH   1   3
ATOM      3  C   UNL     1     134.867 129.905 135.876  1.00  0.00    -0.028 C 
ATOM      4  C   UNL     1     135.976 130.668 135.907  1.00  0.00    -0.027 C 
BRANCH   4   5
ATOM      5  C   UNL     1     136.737 131.053 134.651  1.00  0.00     0.014 C 
BRANCH   5   6
ATOM      6  C   UNL     1     137.785 129.953 134.311  1.00  0.00     0.004 C 
ATOM      7  C   UNL     1     138.747 129.670 135.466  1.00  0.00     0.004 C 
ENDBRANCH   5   6
BRANCH   5   8
ATOM      8  C   UNL     1     137.346 132.484 134.803  1.00  0.00    -0.011 C 
ATOM      9  C   UNL     1     136.486 133.352 135.741  1.00  0.00     0.008 C 
ATOM     10  C   UNL     1     137.491 133.217 133.460  1.00  0.00     0.008 C 
ENDBRANCH   5   8
ENDBRANCH   4   5
ENDBRANCH   1   3
BRANCH   1  11
ATOM     11  C   UNL     1     133.753 127.992 137.098  1.00  0.00     0.002 C 
ATOM     12  C   UNL     1     133.751 127.432 135.649  1.00  0.00     0.005 C 
ATOM     13  C   UNL     1     132.374 127.540 137.666  1.00  0.00    -0.023 C 
ATOM     14  C   UNL     1     132.670 126.347 135.580  1.00  0.00     0.009 C 
ATOM     15  C   UNL     1     132.255 126.152 137.031  1.00  0.00     0.021 C 
ATOM     16  C   UNL     1     132.329 127.320 139.198  1.00  0.00     0.008 C 
ATOM     17  C   UNL     1     131.234 128.501 137.201  1.00  0.00     0.012 C 
ATOM     18  C   UNL     1     130.947 125.471 137.349  1.00  0.00    -0.067 C 
ATOM     19  C   UNL     1     130.968 126.750 139.651  1.00  0.00     0.009 C 
ATOM     20  C   UNL     1     130.367 125.601 138.763  1.00  0.00     0.021 C 
ATOM     21  C   UNL     1     130.438 124.522 136.528  1.00  0.00    -0.027 C 
ATOM     22  C   UNL     1     130.157 124.201 139.496  1.00  0.00    -0.023 C 
ATOM     23  C   UNL     1     129.547 123.451 137.109  1.00  0.00     0.031 C 
ATOM     24  C   UNL     1     130.188 123.039 138.444  1.00  0.00     0.002 C 
ATOM     25  C   UNL     1     131.257 123.866 140.557  1.00  0.00     0.010 C 
ATOM     26  C   UNL     1     128.777 124.284 140.219  1.00  0.00     0.012 C 
ATOM     27  C   UNL     1     129.701 121.704 139.030  1.00  0.00     0.036 C 
ATOM     28  C   UNL     1     131.545 122.347 140.749  1.00  0.00     0.032 C 
ATOM     29  C   UNL     1     130.354 121.407 140.411  1.00  0.00     0.114 C 
BRANCH  29  30
ATOM     30  O   UNL     1     130.796 120.073 140.430  1.00  0.00    -0.393 OA
ATOM     31  H   UNL     1     131.779 120.095 140.568  1.00  0.00     0.210 HD
ENDBRANCH  29  30
ENDBRANCH   1  11
TORSDOF 6
ENDMDL
MODEL 2
REMARK VINA RESULT:    -6.089      3.391      5.983
REMARK INTER + INTRA:          -9.168
REMARK INTER:                  -7.932
REMARK INTRA:                  -1.236
REMARK UNBOUND:                -1.122
REMARK SMILES CC[C@@H](C=C[C@H](C)[C@@H]1CC[C@@H]2C3=CC[C@@H]4C[C@@H](O)CC[C@@]4(C)[C@H]3CC[C@]21C)C(C)C
REMARK SMILES IDX 6 1 7 2 5 3 4 4 3 5 2 6 1 7 28 8 29 9 30 10 8 11 9 12 26 13
REMARK SMILES IDX 10 14 11 15 25 16 27 17 12 18 24 19 23 20 13 21 21 22 14 23
REMARK SMILES IDX 15 24 20 25 22 26 16 27 19 28 17 29 18 30
REMARK H PARENT 18 31
REMARK Flexibility Score: inf
ROOT
ATOM      1  C   UNL     1     130.288 126.522 138.218  1.00  0.00     0.012 C 
ATOM      2  C   UNL     1     129.235 126.924 137.172  1.00  0.00     0.012 C 
ENDROOT
BRANCH   1   3
ATOM      3  C   UNL     1     131.452 127.493 138.170  1.00  0.00    -0.028 C 
ATOM      4  C   UNL     1     132.622 127.201 137.573  1.00  0.00    -0.027 C 
BRANCH   4   5
ATOM      5  C   UNL     1     133.782 128.179 137.529  1.00  0.00     0.014 C 
BRANCH   5   6
ATOM      6  C   UNL     1     133.738 129.107 138.778  1.00  0.00     0.004 C 
ATOM      7  C   UNL     1     134.470 128.515 139.984  1.00  0.00     0.004 C 
ENDBRANCH   5   6
BRANCH   5   8
ATOM      8  C   UNL     1     133.792 128.948 136.168  1.00  0.00    -0.011 C 
ATOM      9  C   UNL     1     133.051 128.149 135.078  1.00  0.00     0.008 C 
ATOM     10  C   UNL     1     135.211 129.255 135.664  1.00  0.00     0.008 C 
ENDBRANCH   5   8
ENDBRANCH   4   5
ENDBRANCH   1   3
BRANCH   1  11
ATOM     11  C   UNL     1     129.720 126.423 139.670  1.00  0.00     0.002 C 
ATOM     12  C   UNL     1     130.446 127.399 140.637  1.00  0.00     0.005 C 
ATOM     13  C   UNL     1     129.803 125.052 140.404  1.00  0.00    -0.023 C 
ATOM     14  C   UNL     1     130.502 126.722 142.012  1.00  0.00     0.009 C 
ATOM     15  C   UNL     1     129.607 125.502 141.854  1.00  0.00     0.021 C 
ATOM     16  C   UNL     1     128.650 124.065 140.098  1.00  0.00     0.008 C 
ATOM     17  C   UNL     1     131.195 124.379 140.180  1.00  0.00     0.012 C 
ATOM     18  C   UNL     1     129.713 124.366 142.842  1.00  0.00    -0.067 C 
ATOM     19  C   UNL     1     128.745 122.791 140.965  1.00  0.00     0.009 C 
ATOM     20  C   UNL     1     129.092 123.010 142.482  1.00  0.00     0.021 C 
ATOM     21  C   UNL     1     130.067 124.591 144.129  1.00  0.00    -0.027 C 
ATOM     22  C   UNL     1     127.985 122.522 143.521  1.00  0.00    -0.023 C 
ATOM     23  C   UNL     1     129.580 123.647 145.200  1.00  0.00     0.031 C 
ATOM     24  C   UNL     1     128.115 123.329 144.858  1.00  0.00     0.002 C 
ATOM     25  C   UNL     1     126.515 122.722 143.025  1.00  0.00     0.010 C 
ATOM     26  C   UNL     1     128.231 120.998 143.744  1.00  0.00     0.012 C 
ATOM     27  C   UNL     1     127.286 122.716 145.997  1.00  0.00     0.036 C 
ATOM     28  C   UNL     1     125.469 122.971 144.153  1.00  0.00     0.032 C 
ATOM     29  C   UNL     1     125.841 122.367 145.536  1.00  0.00     0.114 C 
BRANCH  29  30
ATOM     30  O   UNL     1     124.929 122.826 146.501  1.00  0.00    -0.393 OA
ATOM     31  H   UNL     1     124.838 122.107 147.179  1.00  0.00     0.210 HD
ENDBRANCH  29  30
ENDBRANCH   1  11
TORSDOF 6
ENDMDL
MODEL 3
REMARK VINA RESULT:    -6.053      7.007     11.349
REMARK INTER + INTRA:          -9.121
REMARK INTER:                  -8.486
REMARK INTRA:                  -0.635
REMARK UNBOUND:                -1.122
REMARK SMILES CC[C@@H](C=C[C@H](C)[C@@H]1CC[C@@H]2C3=CC[C@@H]4C[C@@H](O)CC[C@@]4(C)[C@H]3CC[C@]21C)C(C)C
REMARK SMILES IDX 6 1 7 2 5 3 4 4 3 5 2 6 1 7 28 8 29 9 30 10 8 11 9 12 26 13
REMARK SMILES IDX 10 14 11 15 25 16 27 17 12 18 24 19 23 20 13 21 21 22 14 23
REMARK SMILES IDX 15 24 20 25 22 26 16 27 19 28 17 29 18 30
REMARK H PARENT 18 31
REMARK Flexibility Score: inf
ROOT
ATOM      1  C   UNL     1     134.111 129.018 143.261  1.00  0.00     0.012 C 
ATOM      2  C   UNL     1     132.577 129.113 143.279  1.00  0.00     0.012 C 
ENDROOT
BRANCH   1   3
ATOM      3  C   UNL     1     134.594 128.828 141.836  1.00  0.00    -0.028 C 
ATOM      4  C   UNL     1     133.764 128.843 140.776  1.00  0.00    -0.027 C 
BRANCH   4   5
ATOM      5  C   UNL     1     134.256 128.654 139.352  1.00  0.00     0.014 C 
BRANCH   5   6
ATOM      6  C   UNL     1     134.584 130.038 138.719  1.00  0.00     0.004 C 
ATOM      7  C   UNL     1     136.071 130.389 138.796  1.00  0.00     0.004 C 
ENDBRANCH   5   6
BRANCH   5   8
ATOM      8  C   UNL     1     133.228 127.809 138.531  1.00  0.00    -0.011 C 
ATOM      9  C   UNL     1     132.743 128.584 137.291  1.00  0.00     0.008 C 
ATOM     10  C   UNL     1     131.999 127.396 139.357  1.00  0.00     0.008 C 
ENDBRANCH   5   8
ENDBRANCH   4   5
ENDBRANCH   1   3
BRANCH   1  11
ATOM     11  C   UNL     1     134.821 130.245 143.918  1.00  0.00     0.002 C 
ATOM     12  C   UNL     1     134.409 130.415 145.406  1.00  0.00     0.005 C 
ATOM     13  C   UNL     1     134.574 131.656 143.306  1.00  0.00    -0.023 C 
ATOM     14  C   UNL     1     134.395 131.920 145.707  1.00  0.00     0.009 C 
ATOM     15  C   UNL     1     135.023 132.545 144.470  1.00  0.00     0.021 C 
ATOM     16  C   UNL     1     135.479 132.026 142.106  1.00  0.00     0.008 C 
ATOM     17  C   UNL     1     133.065 131.860 142.958  1.00  0.00     0.012 C 
ATOM     18  C   UNL     1     134.827 134.015 144.196  1.00  0.00    -0.067 C 
ATOM     19  C   UNL     1     135.255 133.485 141.651  1.00  0.00     0.009 C 
ATOM     20  C   UNL     1     135.139 134.557 142.794  1.00  0.00     0.021 C 
ATOM     21  C   UNL     1     134.678 134.900 145.210  1.00  0.00    -0.027 C 
ATOM     22  C   UNL     1     136.252 135.698 142.786  1.00  0.00    -0.023 C 
ATOM     23  C   UNL     1     135.106 136.332 145.003  1.00  0.00     0.031 C 
ATOM     24  C   UNL     1     136.436 136.275 144.232  1.00  0.00     0.002 C 
ATOM     25  C   UNL     1     137.664 135.205 142.325  1.00  0.00     0.010 C 
ATOM     26  C   UNL     1     135.757 136.791 141.790  1.00  0.00     0.012 C 
ATOM     27  C   UNL     1     137.268 137.566 144.247  1.00  0.00     0.036 C 
ATOM     28  C   UNL     1     138.865 135.972 142.955  1.00  0.00     0.032 C 
ATOM     29  C   UNL     1     138.557 137.433 143.386  1.00  0.00     0.114 C 
BRANCH  29  30
ATOM     30  O   UNL     1     139.647 137.941 144.112  1.00  0.00    -0.393 OA
ATOM     31  H   UNL     1     139.799 137.327 144.876  1.00  0.00     0.210 HD
ENDBRANCH  29  30
ENDBRANCH   1  11
TORSDOF 6
ENDMDL
MODEL 4
REMARK VINA RESULT:    -6.016      5.083     10.906
REMARK INTER + INTRA:          -9.073
REMARK INTER:                  -8.104
REMARK INTRA:                  -0.968
REMARK UNBOUND:                -1.122
REMARK SMILES CC[C@@H](C=C[C@H](C)[C@@H]1CC[C@@H]2C3=CC[C@@H]4C[C@@H](O)CC[C@@]4(C)[C@H]3CC[C@]21C)C(C)C
REMARK SMILES IDX 6 1 7 2 5 3 4 4 3 5 2 6 1 7 28 8 29 9 30 10 8 11 9 12 26 13
REMARK SMILES IDX 10 14 11 15 25 16 27 17 12 18 24 19 23 20 13 21 21 22 14 23
REMARK SMILES IDX 15 24 20 25 22 26 16 27 19 28 17 29 18 30
REMARK H PARENT 18 31
REMARK Flexibility Score: inf
ROOT
ATOM      1  C   UNL     1     128.300 122.508 145.025  1.00  0.00     0.012 C 
ATOM      2  C   UNL     1     127.927 121.040 144.768  1.00  0.00     0.012 C 
ENDROOT
BRANCH   1   3
ATOM      3  C   UNL     1     128.859 122.655 146.427  1.00  0.00    -0.028 C 
ATOM      4  C   UNL     1     129.548 121.677 147.044  1.00  0.00    -0.027 C 
BRANCH   4   5
ATOM      5  C   UNL     1     130.105 121.832 148.448  1.00  0.00     0.014 C 
BRANCH   5   6
ATOM      6  C   UNL     1     131.105 123.025 148.489  1.00  0.00     0.004 C 
ATOM      7  C   UNL     1     130.717 124.091 149.516  1.00  0.00     0.004 C 
ENDBRANCH   5   6
BRANCH   5   8
ATOM      8  C   UNL     1     130.711 120.479 148.944  1.00  0.00    -0.011 C 
ATOM      9  C   UNL     1     129.900 119.913 150.125  1.00  0.00     0.008 C 
ATOM     10  C   UNL     1     132.180 120.606 149.379  1.00  0.00     0.008 C 
ENDBRANCH   5   8
ENDBRANCH   4   5
ENDBRANCH   1   3
BRANCH   1  11
ATOM     11  C   UNL     1     129.300 123.092 143.976  1.00  0.00     0.002 C 
ATOM     12  C   UNL     1     129.871 124.464 144.430  1.00  0.00     0.005 C 
ATOM     13  C   UNL     1     128.780 123.371 142.535  1.00  0.00    -0.023 C 
ATOM     14  C   UNL     1     130.087 125.309 143.168  1.00  0.00     0.009 C 
ATOM     15  C   UNL     1     129.865 124.325 142.029  1.00  0.00     0.021 C 
ATOM     16  C   UNL     1     128.794 122.154 141.578  1.00  0.00     0.008 C 
ATOM     17  C   UNL     1     127.371 124.046 142.568  1.00  0.00     0.012 C 
ATOM     18  C   UNL     1     129.591 124.844 140.639  1.00  0.00    -0.067 C 
ATOM     19  C   UNL     1     128.388 122.553 140.142  1.00  0.00     0.009 C 
ATOM     20  C   UNL     1     129.015 123.884 139.589  1.00  0.00     0.021 C 
ATOM     21  C   UNL     1     130.108 126.022 140.219  1.00  0.00    -0.027 C 
ATOM     22  C   UNL     1     129.936 123.727 138.297  1.00  0.00    -0.023 C 
ATOM     23  C   UNL     1     130.372 126.225 138.747  1.00  0.00     0.031 C 
ATOM     24  C   UNL     1     130.969 124.904 138.233  1.00  0.00     0.002 C 
ATOM     25  C   UNL     1     130.772 122.404 138.268  1.00  0.00     0.010 C 
ATOM     26  C   UNL     1     128.976 123.736 137.068  1.00  0.00     0.012 C 
ATOM     27  C   UNL     1     131.684 124.984 136.874  1.00  0.00     0.036 C 
ATOM     28  C   UNL     1     132.134 122.504 137.518  1.00  0.00     0.032 C 
ATOM     29  C   UNL     1     132.192 123.590 136.407  1.00  0.00     0.114 C 
BRANCH  29  30
ATOM     30  O   UNL     1     133.515 123.714 135.951  1.00  0.00    -0.393 OA
ATOM     31  H   UNL     1     134.057 123.046 136.446  1.00  0.00     0.210 HD
ENDBRANCH  29  30
ENDBRANCH   1  11
TORSDOF 6
ENDMDL
MODEL 5
REMARK VINA RESULT:    -5.954      6.352      9.799
REMARK INTER + INTRA:          -8.991
REMARK INTER:                  -7.596
REMARK INTRA:                  -1.395
REMARK UNBOUND:                -1.122
REMARK SMILES CC[C@@H](C=C[C@H](C)[C@@H]1CC[C@@H]2C3=CC[C@@H]4C[C@@H](O)CC[C@@]4(C)[C@H]3CC[C@]21C)C(C)C
REMARK SMILES IDX 6 1 7 2 5 3 4 4 3 5 2 6 1 7 28 8 29 9 30 10 8 11 9 12 26 13
REMARK SMILES IDX 10 14 11 15 25 16 27 17 12 18 24 19 23 20 13 21 21 22 14 23
REMARK SMILES IDX 15 24 20 25 22 26 16 27 19 28 17 29 18 30
REMARK H PARENT 18 31
REMARK Flexibility Score: inf
ROOT
ATOM      1  C   UNL     1     135.689 129.777 135.035  1.00  0.00     0.012 C 
ATOM      2  C   UNL     1     134.238 129.275 135.109  1.00  0.00     0.012 C 
ENDROOT
BRANCH   1   3
ATOM      3  C   UNL     1     136.152 129.789 133.591  1.00  0.00    -0.028 C 
ATOM      4  C   UNL     1     137.296 129.205 133.186  1.00  0.00    -0.027 C 
BRANCH   4   5
ATOM      5  C   UNL     1     137.752 129.221 131.738  1.00  0.00     0.014 C 
BRANCH   5   6
ATOM      6  C   UNL     1     138.468 130.567 131.425  1.00  0.00     0.004 C 
ATOM      7  C   UNL     1     139.489 130.960 132.494  1.00  0.00     0.004 C 
ENDBRANCH   5   6
BRANCH   5   8
ATOM      8  C   UNL     1     136.552 128.905 130.789  1.00  0.00    -0.011 C 
ATOM      9  C   UNL     1     136.872 127.705 129.876  1.00  0.00     0.008 C 
ATOM     10  C   UNL     1     136.160 130.098 129.902  1.00  0.00     0.008 C 
ENDBRANCH   5   8
ENDBRANCH   4   5
ENDBRANCH   1   3
BRANCH   1  11
ATOM     11  C   UNL     1     135.898 131.182 135.687  1.00  0.00     0.002 C 
ATOM     12  C   UNL     1     136.492 132.200 134.674  1.00  0.00     0.005 C 
ATOM     13  C   UNL     1     136.849 131.293 136.915  1.00  0.00    -0.023 C 
ATOM     14  C   UNL     1     137.407 133.146 135.461  1.00  0.00     0.009 C 
ATOM     15  C   UNL     1     137.127 132.798 136.915  1.00  0.00     0.021 C 
ATOM     16  C   UNL     1     136.201 130.973 138.285  1.00  0.00     0.008 C 
ATOM     17  C   UNL     1     138.148 130.453 136.697  1.00  0.00     0.012 C 
ATOM     18  C   UNL     1     138.108 133.215 137.984  1.00  0.00    -0.067 C 
ATOM     19  C   UNL     1     137.178 131.235 139.452  1.00  0.00     0.009 C 
ATOM     20  C   UNL     1     138.017 132.561 139.369  1.00  0.00     0.021 C 
ATOM     21  C   UNL     1     138.851 134.338 137.849  1.00  0.00    -0.027 C 
ATOM     22  C   UNL     1     137.777 133.604 140.551  1.00  0.00    -0.023 C 
ATOM     23  C   UNL     1     139.312 135.066 139.088  1.00  0.00     0.031 C 
ATOM     24  C   UNL     1     138.121 135.053 140.060  1.00  0.00     0.002 C 
ATOM     25  C   UNL     1     136.301 133.651 141.068  1.00  0.00     0.010 C 
ATOM     26  C   UNL     1     138.702 133.160 141.725  1.00  0.00     0.012 C 
ATOM     27  C   UNL     1     138.199 136.061 141.218  1.00  0.00     0.036 C 
ATOM     28  C   UNL     1     135.844 135.033 141.623  1.00  0.00     0.032 C 
ATOM     29  C   UNL     1     136.986 135.925 142.184  1.00  0.00     0.114 C 
BRANCH  29  30
ATOM     30  O   UNL     1     136.479 137.206 142.464  1.00  0.00    -0.393 OA
ATOM     31  H   UNL     1     136.854 137.822 141.783  1.00  0.00     0.210 HD
ENDBRANCH  29  30
ENDBRANCH   1  11
TORSDOF 6
ENDMDL
MODEL 6
REMARK VINA RESULT:    -5.942      6.524     10.968
REMARK INTER + INTRA:          -8.974
REMARK INTER:                  -7.764
REMARK INTRA:                  -1.210
REMARK UNBOUND:                -1.122
REMARK SMILES CC[C@@H](C=C[C@H](C)[C@@H]1CC[C@@H]2C3=CC[C@@H]4C[C@@H](O)CC[C@@]4(C)[C@H]3CC[C@]21C)C(C)C
REMARK SMILES IDX 6 1 7 2 5 3 4 4 3 5 2 6 1 7 28 8 29 9 30 10 8 11 9 12 26 13
REMARK SMILES IDX 10 14 11 15 25 16 27 17 12 18 24 19 23 20 13 21 21 22 14 23
REMARK SMILES IDX 15 24 20 25 22 26 16 27 19 28 17 29 18 30
REMARK H PARENT 18 31
REMARK Flexibility Score: inf
ROOT
ATOM      1  C   UNL     1     137.776 131.480 137.815  1.00  0.00     0.012 C 
ATOM      2  C   UNL     1     139.193 131.158 137.316  1.00  0.00     0.012 C 
ENDROOT
BRANCH   1   3
ATOM      3  C   UNL     1     136.845 130.329 137.488  1.00  0.00    -0.028 C 
ATOM      4  C   UNL     1     135.774 130.463 136.682  1.00  0.00    -0.027 C 
BRANCH   4   5
ATOM      5  C   UNL     1     134.848 129.304 136.358  1.00  0.00     0.014 C 
BRANCH   5   6
ATOM      6  C   UNL     1     134.394 129.392 134.871  1.00  0.00     0.004 C 
ATOM      7  C   UNL     1     134.895 130.656 134.170  1.00  0.00     0.004 C 
ENDBRANCH   5   6
BRANCH   5   8
ATOM      8  C   UNL     1     133.666 129.253 137.379  1.00  0.00    -0.011 C 
ATOM      9  C   UNL     1     134.115 128.619 138.710  1.00  0.00     0.008 C 
ATOM     10  C   UNL     1     132.454 128.468 136.852  1.00  0.00     0.008 C 
ENDBRANCH   5   8
ENDBRANCH   4   5
ENDBRANCH   1   3
BRANCH   1  11
ATOM     11  C   UNL     1     137.712 131.816 139.340  1.00  0.00     0.002 C 
ATOM     12  C   UNL     1     136.832 130.796 140.114  1.00  0.00     0.005 C 
ATOM     13  C   UNL     1     137.133 133.197 139.769  1.00  0.00    -0.023 C 
ATOM     14  C   UNL     1     136.140 131.560 141.250  1.00  0.00     0.009 C 
ATOM     15  C   UNL     1     136.820 132.920 141.242  1.00  0.00     0.021 C 
ATOM     16  C   UNL     1     138.143 134.371 139.755  1.00  0.00     0.008 C 
ATOM     17  C   UNL     1     135.851 133.547 138.950  1.00  0.00     0.012 C 
ATOM     18  C   UNL     1     136.160 134.089 141.932  1.00  0.00    -0.067 C 
ATOM     19  C   UNL     1     137.518 135.666 140.318  1.00  0.00     0.009 C 
ATOM     20  C   UNL     1     136.649 135.509 141.617  1.00  0.00     0.021 C 
ATOM     21  C   UNL     1     135.375 133.904 143.019  1.00  0.00    -0.027 C 
ATOM     22  C   UNL     1     137.173 136.300 142.898  1.00  0.00    -0.023 C 
ATOM     23  C   UNL     1     135.251 135.015 144.032  1.00  0.00     0.031 C 
ATOM     24  C   UNL     1     136.664 135.598 144.204  1.00  0.00     0.002 C 
ATOM     25  C   UNL     1     138.732 136.365 143.012  1.00  0.00     0.010 C 
ATOM     26  C   UNL     1     136.621 137.753 142.775  1.00  0.00     0.012 C 
ATOM     27  C   UNL     1     136.877 136.462 145.457  1.00  0.00     0.036 C 
ATOM     28  C   UNL     1     139.283 136.433 144.467  1.00  0.00     0.032 C 
ATOM     29  C   UNL     1     138.312 137.061 145.507  1.00  0.00     0.114 C 
BRANCH  29  30
ATOM     30  O   UNL     1     138.838 136.883 146.798  1.00  0.00    -0.393 OA
ATOM     31  H   UNL     1     138.765 137.756 147.263  1.00  0.00     0.210 HD
ENDBRANCH  29  30
ENDBRANCH   1  11
TORSDOF 6
ENDMDL
MODEL 7
REMARK VINA RESULT:    -5.866      6.402      9.086
REMARK INTER + INTRA:          -8.874
REMARK INTER:                  -7.512
REMARK INTRA:                  -1.362
REMARK UNBOUND:                -1.122
REMARK SMILES CC[C@@H](C=C[C@H](C)[C@@H]1CC[C@@H]2C3=CC[C@@H]4C[C@@H](O)CC[C@@]4(C)[C@H]3CC[C@]21C)C(C)C
REMARK SMILES IDX 6 1 7 2 5 3 4 4 3 5 2 6 1 7 28 8 29 9 30 10 8 11 9 12 26 13
REMARK SMILES IDX 10 14 11 15 25 16 27 17 12 18 24 19 23 20 13 21 21 22 14 23
REMARK SMILES IDX 15 24 20 25 22 26 16 27 19 28 17 29 18 30
REMARK H PARENT 18 31
REMARK Flexibility Score: inf
ROOT
ATOM      1  C   UNL     1     138.189 134.402 140.468  1.00  0.00     0.012 C 
ATOM      2  C   UNL     1     138.589 134.250 138.992  1.00  0.00     0.012 C 
ENDROOT
BRANCH   1   3
ATOM      3  C   UNL     1     138.476 135.818 140.931  1.00  0.00    -0.028 C 
ATOM      4  C   UNL     1     139.128 136.093 142.077  1.00  0.00    -0.027 C 
BRANCH   4   5
ATOM      5  C   UNL     1     139.412 137.513 142.532  1.00  0.00     0.014 C 
BRANCH   5   6
ATOM      6  C   UNL     1     140.936 137.686 142.800  1.00  0.00     0.004 C 
ATOM      7  C   UNL     1     141.745 137.884 141.517  1.00  0.00     0.004 C 
ENDBRANCH   5   6
BRANCH   5   8
ATOM      8  C   UNL     1     138.508 137.882 143.753  1.00  0.00    -0.011 C 
ATOM      9  C   UNL     1     138.526 136.762 144.811  1.00  0.00     0.008 C 
ATOM     10  C   UNL     1     137.047 138.150 143.355  1.00  0.00     0.008 C 
ENDBRANCH   5   8
ENDBRANCH   4   5
ENDBRANCH   1   3
BRANCH   1  11
ATOM     11  C   UNL     1     136.700 134.026 140.754  1.00  0.00     0.002 C 
ATOM     12  C   UNL     1     135.871 135.265 141.192  1.00  0.00     0.005 C 
ATOM     13  C   UNL     1     136.403 132.977 141.866  1.00  0.00    -0.023 C 
ATOM     14  C   UNL     1     134.822 134.780 142.201  1.00  0.00     0.009 C 
ATOM     15  C   UNL     1     134.923 133.263 142.130  1.00  0.00     0.021 C 
ATOM     16  C   UNL     1     136.485 131.497 141.419  1.00  0.00     0.008 C 
ATOM     17  C   UNL     1     137.287 133.232 143.129  1.00  0.00     0.012 C 
ATOM     18  C   UNL     1     134.351 132.425 143.246  1.00  0.00    -0.067 C 
ATOM     19  C   UNL     1     136.049 130.536 142.547  1.00  0.00     0.009 C 
ATOM     20  C   UNL     1     134.768 130.952 143.355  1.00  0.00     0.021 C 
ATOM     21  C   UNL     1     133.277 132.845 143.954  1.00  0.00    -0.027 C 
ATOM     22  C   UNL     1     133.541 129.936 143.274  1.00  0.00    -0.023 C 
ATOM     23  C   UNL     1     132.362 131.819 144.577  1.00  0.00     0.031 C 
ATOM     24  C   UNL     1     132.198 130.701 143.534  1.00  0.00     0.002 C 
ATOM     25  C   UNL     1     133.388 129.233 141.885  1.00  0.00     0.010 C 
ATOM     26  C   UNL     1     133.800 128.845 144.358  1.00  0.00     0.012 C 
ATOM     27  C   UNL     1     131.015 129.747 143.764  1.00  0.00     0.036 C 
ATOM     28  C   UNL     1     131.927 128.855 141.498  1.00  0.00     0.032 C 
ATOM     29  C   UNL     1     130.972 128.613 142.700  1.00  0.00     0.114 C 
BRANCH  29  30
ATOM     30  O   UNL     1     129.656 128.479 142.226  1.00  0.00    -0.393 OA
ATOM     31  H   UNL     1     129.435 127.512 142.252  1.00  0.00     0.210 HD
ENDBRANCH  29  30
ENDBRANCH   1  11
TORSDOF 6
ENDMDL
MODEL 8
REMARK VINA RESULT:    -5.841      7.307     12.431
REMARK INTER + INTRA:          -8.841
REMARK INTER:                  -7.363
REMARK INTRA:                  -1.478
REMARK UNBOUND:                -1.122
REMARK SMILES CC[C@@H](C=C[C@H](C)[C@@H]1CC[C@@H]2C3=CC[C@@H]4C[C@@H](O)CC[C@@]4(C)[C@H]3CC[C@]21C)C(C)C
REMARK SMILES IDX 6 1 7 2 5 3 4 4 3 5 2 6 1 7 28 8 29 9 30 10 8 11 9 12 26 13
REMARK SMILES IDX 10 14 11 15 25 16 27 17 12 18 24 19 23 20 13 21 21 22 14 23
REMARK SMILES IDX 15 24 20 25 22 26 16 27 19 28 17 29 18 30
REMARK H PARENT 18 31
REMARK Flexibility Score: inf
ROOT
ATOM      1  C   UNL     1     134.598 129.757 141.510  1.00  0.00     0.012 C 
ATOM      2  C   UNL     1     135.168 128.882 140.382  1.00  0.00     0.012 C 
ENDROOT
BRANCH   1   3
ATOM      3  C   UNL     1     133.902 128.881 142.533  1.00  0.00    -0.028 C 
ATOM      4  C   UNL     1     132.602 129.027 142.856  1.00  0.00    -0.027 C 
BRANCH   4   5
ATOM      5  C   UNL     1     131.912 128.146 143.881  1.00  0.00     0.014 C 
BRANCH   5   6
ATOM      6  C   UNL     1     130.491 127.762 143.374  1.00  0.00     0.004 C 
ATOM      7  C   UNL     1     130.236 128.196 141.930  1.00  0.00     0.004 C 
ENDBRANCH   5   6
BRANCH   5   8
ATOM      8  C   UNL     1     131.921 128.835 145.283  1.00  0.00    -0.011 C 
ATOM      9  C   UNL     1     131.778 130.363 145.147  1.00  0.00     0.008 C 
ATOM     10  C   UNL     1     133.196 128.536 146.088  1.00  0.00     0.008 C 
ENDBRANCH   5   8
ENDBRANCH   4   5
ENDBRANCH   1   3
BRANCH   1  11
ATOM     11  C   UNL     1     135.670 130.658 142.203  1.00  0.00     0.002 C 
ATOM     12  C   UNL     1     135.964 130.186 143.654  1.00  0.00     0.005 C 
ATOM     13  C   UNL     1     135.364 132.176 142.368  1.00  0.00    -0.023 C 
ATOM     14  C   UNL     1     136.269 131.436 144.488  1.00  0.00     0.009 C 
ATOM     15  C   UNL     1     136.377 132.547 143.453  1.00  0.00     0.021 C 
ATOM     16  C   UNL     1     135.703 133.058 141.141  1.00  0.00     0.008 C 
ATOM     17  C   UNL     1     133.891 132.404 142.834  1.00  0.00     0.012 C 
ATOM     18  C   UNL     1     136.270 133.987 143.892  1.00  0.00    -0.067 C 
ATOM     19  C   UNL     1     135.491 134.558 141.441  1.00  0.00     0.009 C 
ATOM     20  C   UNL     1     136.014 135.067 142.832  1.00  0.00     0.021 C 
ATOM     21  C   UNL     1     136.684 134.375 145.120  1.00  0.00    -0.027 C 
ATOM     22  C   UNL     1     137.150 136.184 142.775  1.00  0.00    -0.023 C 
ATOM     23  C   UNL     1     137.159 135.793 145.321  1.00  0.00     0.031 C 
ATOM     24  C   UNL     1     138.008 136.139 144.087  1.00  0.00     0.002 C 
ATOM     25  C   UNL     1     138.152 136.014 141.585  1.00  0.00     0.010 C 
ATOM     26  C   UNL     1     136.416 137.551 142.616  1.00  0.00     0.012 C 
ATOM     27  C   UNL     1     138.922 137.367 144.232  1.00  0.00     0.036 C 
ATOM     28  C   UNL     1     139.593 136.538 141.860  1.00  0.00     0.032 C 
ATOM     29  C   UNL     1     139.687 137.677 142.913  1.00  0.00     0.114 C 
BRANCH  29  30
ATOM     30  O   UNL     1     141.038 137.919 143.214  1.00  0.00    -0.393 OA
ATOM     31  H   UNL     1     141.503 137.043 143.189  1.00  0.00     0.210 HD
ENDBRANCH  29  30
ENDBRANCH   1  11
TORSDOF 6
ENDMDL
MODEL 9
REMARK VINA RESULT:    -5.812      7.481     11.034
REMARK INTER + INTRA:          -8.802
REMARK INTER:                  -7.575
REMARK INTRA:                  -1.226
REMARK UNBOUND:                -1.122
REMARK SMILES CC[C@@H](C=C[C@H](C)[C@@H]1CC[C@@H]2C3=CC[C@@H]4C[C@@H](O)CC[C@@]4(C)[C@H]3CC[C@]21C)C(C)C
REMARK SMILES IDX 6 1 7 2 5 3 4 4 3 5 2 6 1 7 28 8 29 9 30 10 8 11 9 12 26 13
REMARK SMILES IDX 10 14 11 15 25 16 27 17 12 18 24 19 23 20 13 21 21 22 14 23
REMARK SMILES IDX 15 24 20 25 22 26 16 27 19 28 17 29 18 30
REMARK H PARENT 18 31
REMARK Flexibility Score: inf
ROOT
ATOM      1  C   UNL     1     137.524 130.954 136.659  1.00  0.00     0.012 C 
ATOM      2  C   UNL     1     136.057 130.566 136.409  1.00  0.00     0.012 C 
ENDROOT
BRANCH   1   3
ATOM      3  C   UNL     1     138.312 130.826 135.369  1.00  0.00    -0.028 C 
ATOM      4  C   UNL     1     137.829 130.206 134.276  1.00  0.00    -0.027 C 
BRANCH   4   5
ATOM      5  C   UNL     1     138.624 130.084 132.989  1.00  0.00     0.014 C 
BRANCH   5   6
ATOM      6  C   UNL     1     139.782 131.125 132.984  1.00  0.00     0.004 C 
ATOM      7  C   UNL     1     140.261 131.474 131.574  1.00  0.00     0.004 C 
ENDBRANCH   5   6
BRANCH   5   8
ATOM      8  C   UNL     1     137.674 130.187 131.753  1.00  0.00    -0.011 C 
ATOM      9  C   UNL     1     136.298 130.750 132.160  1.00  0.00     0.008 C 
ATOM     10  C   UNL     1     137.457 128.836 131.052  1.00  0.00     0.008 C 
ENDBRANCH   5   8
ENDBRANCH   4   5
ENDBRANCH   1   3
BRANCH   1  11
ATOM     11  C   UNL     1     137.698 132.384 137.264  1.00  0.00     0.002 C 
ATOM     12  C   UNL     1     138.755 133.212 136.483  1.00  0.00     0.005 C 
ATOM     13  C   UNL     1     138.160 132.506 138.747  1.00  0.00    -0.023 C 
ATOM     14  C   UNL     1     139.466 134.117 137.497  1.00  0.00     0.009 C 
ATOM     15  C   UNL     1     138.643 133.959 138.767  1.00  0.00     0.021 C 
ATOM     16  C   UNL     1     137.032 132.411 139.803  1.00  0.00     0.008 C 
ATOM     17  C   UNL     1     139.311 131.498 139.061  1.00  0.00     0.012 C 
ATOM     18  C   UNL     1     139.235 134.364 140.094  1.00  0.00    -0.067 C 
ATOM     19  C   UNL     1     137.562 132.674 141.229  1.00  0.00     0.009 C 
ATOM     20  C   UNL     1     138.565 133.874 141.385  1.00  0.00     0.021 C 
ATOM     21  C   UNL     1     140.137 135.369 140.178  1.00  0.00    -0.027 C 
ATOM     22  C   UNL     1     138.084 135.056 142.341  1.00  0.00    -0.023 C 
ATOM     23  C   UNL     1     140.235 136.161 141.459  1.00  0.00     0.031 C 
ATOM     24  C   UNL     1     138.791 136.394 141.932  1.00  0.00     0.002 C 
ATOM     25  C   UNL     1     136.545 135.334 142.283  1.00  0.00     0.010 C 
ATOM     26  C   UNL     1     138.458 134.629 143.793  1.00  0.00     0.012 C 
ATOM     27  C   UNL     1     138.606 137.500 142.982  1.00  0.00     0.036 C 
ATOM     28  C   UNL     1     136.134 136.811 142.558  1.00  0.00     0.032 C 
ATOM     29  C   UNL     1     137.125 137.613 143.447  1.00  0.00     0.114 C 
BRANCH  29  30
ATOM     30  O   UNL     1     136.750 138.967 143.455  1.00  0.00    -0.393 OA
ATOM     31  H   UNL     1     136.589 139.229 142.511  1.00  0.00     0.210 HD
ENDBRANCH  29  30
ENDBRANCH   1  11
TORSDOF 6
ENDMDL
