MODEL 1
REMARK VINA RESULT:    -2.706      0.000      0.000
REMARK INTER + INTRA:         -12.146
REMARK INTER:                  -6.818
REMARK INTRA:                  -5.328
REMARK UNBOUND:                -5.328
REMARK SMILES CCCCCCCCCCCCCCCCCCCCCCCCCCCC(=O)[O-]
REMARK SMILES IDX 15 1 16 2 17 3 18 4 19 5 20 6 21 7 22 8 23 9 24 10 25 11
REMARK SMILES IDX 26 12 27 13 28 14 29 15 30 16 14 17 13 18 12 19 11 20 10 21
REMARK SMILES IDX 9 22 8 23 7 24 6 25 5 26 4 27 3 28 2 29 1 30
REMARK H PARENT
REMARK Flexibility Score: inf
ROOT
ATOM      1  C   UNL     1       0.097   6.521  14.647  1.00  0.00     0.000 C 
ENDROOT
BRANCH   1   2
ATOM      2  C   UNL     1       1.180   7.417  15.269  1.00  0.00     0.000 C 
BRANCH   2   3
ATOM      3  C   UNL     1       1.300   7.223  16.791  1.00  0.00     0.000 C 
BRANCH   3   4
ATOM      4  C   UNL     1       0.121   6.426  17.380  1.00  0.00     0.000 C 
BRANCH   4   5
ATOM      5  C   UNL     1       0.491   5.721  18.696  1.00  0.00     0.000 C 
BRANCH   5   6
ATOM      6  C   UNL     1       2.004   5.706  18.959  1.00  0.00     0.000 C 
BRANCH   6   7
ATOM      7  C   UNL     1       2.405   4.444  19.738  1.00  0.00     0.000 C 
BRANCH   7   8
ATOM      8  C   UNL     1       1.339   3.334  19.667  1.00  0.00     0.000 C 
BRANCH   8   9
ATOM      9  C   UNL     1       1.856   1.913  19.969  1.00  0.00     0.000 C 
BRANCH   9  10
ATOM     10  C   UNL     1       2.533   1.195  18.787  1.00  0.00     0.000 C 
BRANCH  10  11
ATOM     11  C   UNL     1       4.066   1.234  18.859  1.00  0.00     0.000 C 
BRANCH  11  12
ATOM     12  C   UNL     1       4.691   0.218  17.894  1.00  0.00     0.006 C 
BRANCH  12  13
ATOM     13  C   UNL     1       4.663  -1.193  18.489  1.00  0.00     0.053 C 
BRANCH  13  14
ATOM     14  C   UNL     1       5.885  -1.962  18.093  1.00  0.00     0.041 C 
ATOM     15  O   UNL     1       6.615  -1.550  17.153  1.00  0.00    -0.550 OA
ATOM     16  O   UNL     1       6.228  -3.126  18.773  1.00  0.00    -0.550 OA
ENDBRANCH  13  14
ENDBRANCH  12  13
ENDBRANCH  11  12
ENDBRANCH  10  11
ENDBRANCH   9  10
ENDBRANCH   8   9
ENDBRANCH   7   8
ENDBRANCH   6   7
ENDBRANCH   5   6
ENDBRANCH   4   5
ENDBRANCH   3   4
ENDBRANCH   2   3
ENDBRANCH   1   2
BRANCH   1  17
ATOM     17  C   UNL     1       0.289   6.386  13.131  1.00  0.00     0.000 C 
BRANCH  17  18
ATOM     18  C   UNL     1       1.126   5.141  12.798  1.00  0.00     0.000 C 
BRANCH  18  19
ATOM     19  C   UNL     1       2.072   5.353  11.602  1.00  0.00     0.000 C 
BRANCH  19  20
ATOM     20  C   UNL     1       3.576   5.257  11.931  1.00  0.00     0.000 C 
BRANCH  20  21
ATOM     21  C   UNL     1       3.996   5.874  13.278  1.00  0.00     0.000 C 
BRANCH  21  22
ATOM     22  C   UNL     1       4.633   4.890  14.277  1.00  0.00    -0.000 C 
BRANCH  22  23
ATOM     23  C   UNL     1       4.044   4.973  15.703  1.00  0.00    -0.000 C 
BRANCH  23  24
ATOM     24  C   UNL     1       3.446   3.635  16.177  1.00  0.00    -0.000 C 
BRANCH  24  25
ATOM     25  C   UNL     1       1.934   3.534  15.915  1.00  0.00    -0.000 C 
BRANCH  25  26
ATOM     26  C   UNL     1       1.507   2.129  15.456  1.00  0.00    -0.000 C 
BRANCH  26  27
ATOM     27  C   UNL     1       2.607   1.412  14.655  1.00  0.00    -0.000 C 
BRANCH  27  28
ATOM     28  C   UNL     1       2.594   1.793  13.165  1.00  0.00    -0.000 C 
BRANCH  28  29
ATOM     29  C   UNL     1       2.740   0.570  12.245  1.00  0.00    -0.003 C 
ATOM     30  C   UNL     1       1.734  -0.535  12.570  1.00  0.00     0.004 C 
ENDBRANCH  28  29
ENDBRANCH  27  28
ENDBRANCH  26  27
ENDBRANCH  25  26
ENDBRANCH  24  25
ENDBRANCH  23  24
ENDBRANCH  22  23
ENDBRANCH  21  22
ENDBRANCH  20  21
ENDBRANCH  19  20
ENDBRANCH  18  19
ENDBRANCH  17  18
ENDBRANCH   1  17
TORSDOF 26
ENDMDL
MODEL 2
REMARK VINA RESULT:    -2.682      2.313      5.433
REMARK INTER + INTRA:         -12.085
REMARK INTER:                  -7.410
REMARK INTRA:                  -4.676
REMARK UNBOUND:                -5.328
REMARK SMILES CCCCCCCCCCCCCCCCCCCCCCCCCCCC(=O)[O-]
REMARK SMILES IDX 15 1 16 2 17 3 18 4 19 5 20 6 21 7 22 8 23 9 24 10 25 11
REMARK SMILES IDX 26 12 27 13 28 14 29 15 30 16 14 17 13 18 12 19 11 20 10 21
REMARK SMILES IDX 9 22 8 23 7 24 6 25 5 26 4 27 3 28 2 29 1 30
REMARK H PARENT
REMARK Flexibility Score: inf
ROOT
ATOM      1  C   UNL     1       2.291   4.449  12.345  1.00  0.00     0.000 C 
ENDROOT
BRANCH   1   2
ATOM      2  C   UNL     1       1.064   5.365  12.476  1.00  0.00     0.000 C 
BRANCH   2   3
ATOM      3  C   UNL     1       1.449   6.850  12.597  1.00  0.00     0.000 C 
BRANCH   3   4
ATOM      4  C   UNL     1       0.935   7.490  13.900  1.00  0.00     0.000 C 
BRANCH   4   5
ATOM      5  C   UNL     1      -0.188   6.667  14.553  1.00  0.00     0.000 C 
BRANCH   5   6
ATOM      6  C   UNL     1       0.119   6.291  16.010  1.00  0.00     0.000 C 
BRANCH   6   7
ATOM      7  C   UNL     1       1.604   5.932  16.174  1.00  0.00     0.000 C 
BRANCH   7   8
ATOM      8  C   UNL     1       1.822   4.467  16.594  1.00  0.00     0.000 C 
BRANCH   8   9
ATOM      9  C   UNL     1       1.236   3.417  15.628  1.00  0.00     0.000 C 
BRANCH   9  10
ATOM     10  C   UNL     1       1.904   2.031  15.680  1.00  0.00     0.000 C 
BRANCH  10  11
ATOM     11  C   UNL     1       2.069   1.391  14.294  1.00  0.00     0.000 C 
BRANCH  11  12
ATOM     12  C   UNL     1       3.413   0.660  14.179  1.00  0.00     0.006 C 
BRANCH  12  13
ATOM     13  C   UNL     1       3.863   0.563  12.718  1.00  0.00     0.053 C 
BRANCH  13  14
ATOM     14  C   UNL     1       3.990  -0.867  12.294  1.00  0.00     0.041 C 
ATOM     15  O   UNL     1       4.832  -1.194  11.416  1.00  0.00    -0.550 OA
ATOM     16  O   UNL     1       3.189  -1.842  12.878  1.00  0.00    -0.550 OA
ENDBRANCH  13  14
ENDBRANCH  12  13
ENDBRANCH  11  12
ENDBRANCH  10  11
ENDBRANCH   9  10
ENDBRANCH   8   9
ENDBRANCH   7   8
ENDBRANCH   6   7
ENDBRANCH   5   6
ENDBRANCH   4   5
ENDBRANCH   3   4
ENDBRANCH   2   3
ENDBRANCH   1   2
BRANCH   1  17
ATOM     17  C   UNL     1       3.564   5.149  12.840  1.00  0.00     0.000 C 
BRANCH  17  18
ATOM     18  C   UNL     1       4.359   4.231  13.781  1.00  0.00     0.000 C 
BRANCH  18  19
ATOM     19  C   UNL     1       5.223   5.007  14.791  1.00  0.00     0.000 C 
BRANCH  19  20
ATOM     20  C   UNL     1       5.350   4.352  16.183  1.00  0.00     0.000 C 
BRANCH  20  21
ATOM     21  C   UNL     1       5.514   2.821  16.178  1.00  0.00     0.000 C 
BRANCH  21  22
ATOM     22  C   UNL     1       5.509   2.159  17.568  1.00  0.00    -0.000 C 
BRANCH  22  23
ATOM     23  C   UNL     1       4.463   1.033  17.724  1.00  0.00    -0.000 C 
BRANCH  23  24
ATOM     24  C   UNL     1       4.983  -0.149  18.564  1.00  0.00    -0.000 C 
BRANCH  24  25
ATOM     25  C   UNL     1       5.112  -1.447  17.748  1.00  0.00    -0.000 C 
BRANCH  25  26
ATOM     26  C   UNL     1       6.302  -1.416  16.773  1.00  0.00    -0.000 C 
BRANCH  26  27
ATOM     27  C   UNL     1       7.163  -2.688  16.856  1.00  0.00    -0.000 C 
BRANCH  27  28
ATOM     28  C   UNL     1       8.320  -2.551  17.860  1.00  0.00    -0.000 C 
BRANCH  28  29
ATOM     29  C   UNL     1       8.130  -3.440  19.100  1.00  0.00    -0.003 C 
ATOM     30  C   UNL     1       8.209  -2.652  20.408  1.00  0.00     0.004 C 
ENDBRANCH  28  29
ENDBRANCH  27  28
ENDBRANCH  26  27
ENDBRANCH  25  26
ENDBRANCH  24  25
ENDBRANCH  23  24
ENDBRANCH  22  23
ENDBRANCH  21  22
ENDBRANCH  20  21
ENDBRANCH  19  20
ENDBRANCH  18  19
ENDBRANCH  17  18
ENDBRANCH   1  17
TORSDOF 26
ENDMDL
MODEL 3
REMARK VINA RESULT:    -2.680      7.988     12.003
REMARK INTER + INTRA:         -12.082
REMARK INTER:                  -7.578
REMARK INTRA:                  -4.503
REMARK UNBOUND:                -5.328
REMARK SMILES CCCCCCCCCCCCCCCCCCCCCCCCCCCC(=O)[O-]
REMARK SMILES IDX 15 1 16 2 17 3 18 4 19 5 20 6 21 7 22 8 23 9 24 10 25 11
REMARK SMILES IDX 26 12 27 13 28 14 29 15 30 16 14 17 13 18 12 19 11 20 10 21
REMARK SMILES IDX 9 22 8 23 7 24 6 25 5 26 4 27 3 28 2 29 1 30
REMARK H PARENT
REMARK Flexibility Score: inf
ROOT
ATOM      1  C   UNL     1      -1.933  -1.024  21.392  1.00  0.00     0.000 C 
ENDROOT
BRANCH   1   2
ATOM      2  C   UNL     1      -0.469  -1.285  21.001  1.00  0.00     0.000 C 
BRANCH   2   3
ATOM      3  C   UNL     1       0.420  -0.044  21.192  1.00  0.00     0.000 C 
BRANCH   3   4
ATOM      4  C   UNL     1      -0.221   1.007  22.117  1.00  0.00     0.000 C 
BRANCH   4   5
ATOM      5  C   UNL     1      -0.401   2.367  21.421  1.00  0.00     0.000 C 
BRANCH   5   6
ATOM      6  C   UNL     1      -1.840   2.897  21.511  1.00  0.00     0.000 C 
BRANCH   6   7
ATOM      7  C   UNL     1      -2.536   2.360  22.770  1.00  0.00     0.000 C 
BRANCH   7   8
ATOM      8  C   UNL     1      -3.958   2.921  22.952  1.00  0.00     0.000 C 
BRANCH   8   9
ATOM      9  C   UNL     1      -4.968   2.508  21.861  1.00  0.00     0.000 C 
BRANCH   9  10
ATOM     10  C   UNL     1      -4.960   1.013  21.493  1.00  0.00     0.000 C 
BRANCH  10  11
ATOM     11  C   UNL     1      -5.075   0.767  19.982  1.00  0.00     0.000 C 
BRANCH  11  12
ATOM     12  C   UNL     1      -5.488  -0.681  19.687  1.00  0.00     0.006 C 
BRANCH  12  13
ATOM     13  C   UNL     1      -5.692  -1.469  20.985  1.00  0.00     0.053 C 
BRANCH  13  14
ATOM     14  C   UNL     1      -5.554  -2.940  20.742  1.00  0.00     0.041 C 
ATOM     15  O   UNL     1      -5.965  -3.764  21.601  1.00  0.00    -0.550 OA
ATOM     16  O   UNL     1      -4.986  -3.401  19.559  1.00  0.00    -0.550 OA
ENDBRANCH  13  14
ENDBRANCH  12  13
ENDBRANCH  11  12
ENDBRANCH  10  11
ENDBRANCH   9  10
ENDBRANCH   8   9
ENDBRANCH   7   8
ENDBRANCH   6   7
ENDBRANCH   5   6
ENDBRANCH   4   5
ENDBRANCH   3   4
ENDBRANCH   2   3
ENDBRANCH   1   2
BRANCH   1  17
ATOM     17  C   UNL     1      -2.399  -1.994  22.485  1.00  0.00     0.000 C 
BRANCH  17  18
ATOM     18  C   UNL     1      -3.010  -1.228  23.667  1.00  0.00     0.000 C 
BRANCH  18  19
ATOM     19  C   UNL     1      -1.959  -0.756  24.688  1.00  0.00     0.000 C 
BRANCH  19  20
ATOM     20  C   UNL     1      -0.957  -1.837  25.145  1.00  0.00     0.000 C 
BRANCH  20  21
ATOM     21  C   UNL     1       0.507  -1.590  24.737  1.00  0.00     0.000 C 
BRANCH  21  22
ATOM     22  C   UNL     1       1.325  -2.861  24.438  1.00  0.00    -0.000 C 
BRANCH  22  23
ATOM     23  C   UNL     1       0.585  -3.890  23.554  1.00  0.00    -0.000 C 
BRANCH  23  24
ATOM     24  C   UNL     1       0.604  -5.308  24.154  1.00  0.00    -0.000 C 
BRANCH  24  25
ATOM     25  C   UNL     1      -0.343  -5.458  25.357  1.00  0.00    -0.000 C 
BRANCH  25  26
ATOM     26  C   UNL     1      -0.585  -6.928  25.740  1.00  0.00    -0.000 C 
BRANCH  26  27
ATOM     27  C   UNL     1       0.396  -7.886  25.043  1.00  0.00    -0.000 C 
BRANCH  27  28
ATOM     28  C   UNL     1       1.220  -8.715  26.043  1.00  0.00    -0.000 C 
BRANCH  28  29
ATOM     29  C   UNL     1       0.805  -8.457  27.501  1.00  0.00    -0.003 C 
ATOM     30  C   UNL     1       1.233  -9.581  28.444  1.00  0.00     0.004 C 
ENDBRANCH  28  29
ENDBRANCH  27  28
ENDBRANCH  26  27
ENDBRANCH  25  26
ENDBRANCH  24  25
ENDBRANCH  23  24
ENDBRANCH  22  23
ENDBRANCH  21  22
ENDBRANCH  20  21
ENDBRANCH  19  20
ENDBRANCH  18  19
ENDBRANCH  17  18
ENDBRANCH   1  17
TORSDOF 26
ENDMDL
MODEL 4
REMARK VINA RESULT:    -2.675     10.773     13.313
REMARK INTER + INTRA:         -12.068
REMARK INTER:                  -8.177
REMARK INTRA:                  -3.891
REMARK UNBOUND:                -5.328
REMARK SMILES CCCCCCCCCCCCCCCCCCCCCCCCCCCC(=O)[O-]
REMARK SMILES IDX 15 1 16 2 17 3 18 4 19 5 20 6 21 7 22 8 23 9 24 10 25 11
REMARK SMILES IDX 26 12 27 13 28 14 29 15 30 16 14 17 13 18 12 19 11 20 10 21
REMARK SMILES IDX 9 22 8 23 7 24 6 25 5 26 4 27 3 28 2 29 1 30
REMARK H PARENT
REMARK Flexibility Score: inf
ROOT
ATOM      1  C   UNL     1       3.456  -2.105  25.689  1.00  0.00     0.000 C 
ENDROOT
BRANCH   1   2
ATOM      2  C   UNL     1       4.085  -1.534  26.970  1.00  0.00     0.000 C 
BRANCH   2   3
ATOM      3  C   UNL     1       5.224  -2.417  27.509  1.00  0.00     0.000 C 
BRANCH   3   4
ATOM      4  C   UNL     1       5.925  -3.222  26.399  1.00  0.00     0.000 C 
BRANCH   4   5
ATOM      5  C   UNL     1       7.033  -4.136  26.949  1.00  0.00     0.000 C 
BRANCH   5   6
ATOM      6  C   UNL     1       7.226  -3.992  28.466  1.00  0.00     0.000 C 
BRANCH   6   7
ATOM      7  C   UNL     1       8.556  -3.290  28.777  1.00  0.00     0.000 C 
BRANCH   7   8
ATOM      8  C   UNL     1       8.373  -2.001  29.599  1.00  0.00     0.000 C 
BRANCH   8   9
ATOM      9  C   UNL     1       8.160  -0.720  28.766  1.00  0.00     0.000 C 
BRANCH   9  10
ATOM     10  C   UNL     1       8.745  -0.759  27.342  1.00  0.00     0.000 C 
BRANCH  10  11
ATOM     11  C   UNL     1       7.889   0.005  26.321  1.00  0.00     0.000 C 
BRANCH  11  12
ATOM     12  C   UNL     1       8.027  -0.602  24.919  1.00  0.00     0.006 C 
BRANCH  12  13
ATOM     13  C   UNL     1       9.049  -1.743  24.912  1.00  0.00     0.053 C 
BRANCH  13  14
ATOM     14  C   UNL     1      10.243  -1.385  24.083  1.00  0.00     0.041 C 
ATOM     15  O   UNL     1      10.767  -2.242  23.324  1.00  0.00    -0.550 OA
ATOM     16  O   UNL     1      10.768  -0.098  24.137  1.00  0.00    -0.550 OA
ENDBRANCH  13  14
ENDBRANCH  12  13
ENDBRANCH  11  12
ENDBRANCH  10  11
ENDBRANCH   9  10
ENDBRANCH   8   9
ENDBRANCH   7   8
ENDBRANCH   6   7
ENDBRANCH   5   6
ENDBRANCH   4   5
ENDBRANCH   3   4
ENDBRANCH   2   3
ENDBRANCH   1   2
BRANCH   1  17
ATOM     17  C   UNL     1       2.214  -1.306  25.275  1.00  0.00     0.000 C 
BRANCH  17  18
ATOM     18  C   UNL     1       1.212  -1.218  26.435  1.00  0.00     0.000 C 
BRANCH  18  19
ATOM     19  C   UNL     1      -0.149  -0.635  26.013  1.00  0.00     0.000 C 
BRANCH  19  20
ATOM     20  C   UNL     1      -1.328  -1.630  26.051  1.00  0.00     0.000 C 
BRANCH  20  21
ATOM     21  C   UNL     1      -1.030  -3.025  25.471  1.00  0.00     0.000 C 
BRANCH  21  22
ATOM     22  C   UNL     1      -0.959  -3.093  23.934  1.00  0.00    -0.000 C 
BRANCH  22  23
ATOM     23  C   UNL     1       0.382  -3.635  23.391  1.00  0.00    -0.000 C 
BRANCH  23  24
ATOM     24  C   UNL     1       0.982  -4.735  24.285  1.00  0.00    -0.000 C 
BRANCH  24  25
ATOM     25  C   UNL     1       0.728  -6.151  23.738  1.00  0.00    -0.000 C 
BRANCH  25  26
ATOM     26  C   UNL     1       0.545  -7.192  24.856  1.00  0.00    -0.000 C 
BRANCH  26  27
ATOM     27  C   UNL     1      -0.187  -6.618  26.081  1.00  0.00    -0.000 C 
BRANCH  27  28
ATOM     28  C   UNL     1      -1.716  -6.634  25.914  1.00  0.00    -0.000 C 
BRANCH  28  29
ATOM     29  C   UNL     1      -2.351  -7.924  26.459  1.00  0.00    -0.003 C 
ATOM     30  C   UNL     1      -1.521  -8.567  27.570  1.00  0.00     0.004 C 
ENDBRANCH  28  29
ENDBRANCH  27  28
ENDBRANCH  26  27
ENDBRANCH  25  26
ENDBRANCH  24  25
ENDBRANCH  23  24
ENDBRANCH  22  23
ENDBRANCH  21  22
ENDBRANCH  20  21
ENDBRANCH  19  20
ENDBRANCH  18  19
ENDBRANCH  17  18
ENDBRANCH   1  17
TORSDOF 26
ENDMDL
MODEL 5
REMARK VINA RESULT:    -2.661      2.059      5.055
REMARK INTER + INTRA:         -12.033
REMARK INTER:                  -6.554
REMARK INTRA:                  -5.480
REMARK UNBOUND:                -5.328
REMARK SMILES CCCCCCCCCCCCCCCCCCCCCCCCCCCC(=O)[O-]
REMARK SMILES IDX 15 1 16 2 17 3 18 4 19 5 20 6 21 7 22 8 23 9 24 10 25 11
REMARK SMILES IDX 26 12 27 13 28 14 29 15 30 16 14 17 13 18 12 19 11 20 10 21
REMARK SMILES IDX 9 22 8 23 7 24 6 25 5 26 4 27 3 28 2 29 1 30
REMARK H PARENT
REMARK Flexibility Score: inf
ROOT
ATOM      1  C   UNL     1       3.298   4.065  14.588  1.00  0.00     0.000 C 
ENDROOT
BRANCH   1   2
ATOM      2  C   UNL     1       1.964   3.329  14.381  1.00  0.00     0.000 C 
BRANCH   2   3
ATOM      3  C   UNL     1       1.776   2.165  15.369  1.00  0.00     0.000 C 
BRANCH   3   4
ATOM      4  C   UNL     1       1.164   2.619  16.708  1.00  0.00     0.000 C 
BRANCH   4   5
ATOM      5  C   UNL     1       1.979   2.132  17.919  1.00  0.00     0.000 C 
BRANCH   5   6
ATOM      6  C   UNL     1       3.377   2.764  17.989  1.00  0.00     0.000 C 
BRANCH   6   7
ATOM      7  C   UNL     1       4.321   1.896  18.835  1.00  0.00     0.000 C 
BRANCH   7   8
ATOM      8  C   UNL     1       4.332   0.421  18.393  1.00  0.00     0.000 C 
BRANCH   8   9
ATOM      9  C   UNL     1       4.790   0.178  16.940  1.00  0.00     0.000 C 
BRANCH   9  10
ATOM     10  C   UNL     1       5.988   1.028  16.479  1.00  0.00     0.000 C 
BRANCH  10  11
ATOM     11  C   UNL     1       5.858   1.510  15.027  1.00  0.00     0.000 C 
BRANCH  11  12
ATOM     12  C   UNL     1       5.596   0.336  14.075  1.00  0.00     0.006 C 
BRANCH  12  13
ATOM     13  C   UNL     1       4.351   0.588  13.220  1.00  0.00     0.053 C 
BRANCH  13  14
ATOM     14  C   UNL     1       3.443  -0.602  13.237  1.00  0.00     0.041 C 
ATOM     15  O   UNL     1       3.918  -1.759  13.384  1.00  0.00    -0.550 OA
ATOM     16  O   UNL     1       2.069  -0.433  13.107  1.00  0.00    -0.550 OA
ENDBRANCH  13  14
ENDBRANCH  12  13
ENDBRANCH  11  12
ENDBRANCH  10  11
ENDBRANCH   9  10
ENDBRANCH   8   9
ENDBRANCH   7   8
ENDBRANCH   6   7
ENDBRANCH   5   6
ENDBRANCH   4   5
ENDBRANCH   3   4
ENDBRANCH   2   3
ENDBRANCH   1   2
BRANCH   1  17
ATOM     17  C   UNL     1       3.986   4.358  13.249  1.00  0.00     0.000 C 
BRANCH  17  18
ATOM     18  C   UNL     1       4.522   5.797  13.216  1.00  0.00     0.000 C 
BRANCH  18  19
ATOM     19  C   UNL     1       3.416   6.848  13.015  1.00  0.00     0.000 C 
BRANCH  19  20
ATOM     20  C   UNL     1       2.425   6.547  11.872  1.00  0.00     0.000 C 
BRANCH  20  21
ATOM     21  C   UNL     1       0.944   6.474  12.287  1.00  0.00     0.000 C 
BRANCH  21  22
ATOM     22  C   UNL     1       0.610   7.137  13.636  1.00  0.00    -0.000 C 
BRANCH  22  23
ATOM     23  C   UNL     1      -0.301   6.284  14.547  1.00  0.00    -0.000 C 
BRANCH  23  24
ATOM     24  C   UNL     1       0.194   6.238  16.005  1.00  0.00    -0.000 C 
BRANCH  24  25
ATOM     25  C   UNL     1       1.593   6.853  16.177  1.00  0.00    -0.000 C 
BRANCH  25  26
ATOM     26  C   UNL     1       2.341   6.287  17.396  1.00  0.00    -0.000 C 
BRANCH  26  27
ATOM     27  C   UNL     1       1.677   6.677  18.728  1.00  0.00    -0.000 C 
BRANCH  27  28
ATOM     28  C   UNL     1       1.461   5.469  19.655  1.00  0.00    -0.000 C 
BRANCH  28  29
ATOM     29  C   UNL     1       0.069   4.840  19.484  1.00  0.00    -0.003 C 
ATOM     30  C   UNL     1      -0.483   4.265  20.789  1.00  0.00     0.004 C 
ENDBRANCH  28  29
ENDBRANCH  27  28
ENDBRANCH  26  27
ENDBRANCH  25  26
ENDBRANCH  24  25
ENDBRANCH  23  24
ENDBRANCH  22  23
ENDBRANCH  21  22
ENDBRANCH  20  21
ENDBRANCH  19  20
ENDBRANCH  18  19
ENDBRANCH  17  18
ENDBRANCH   1  17
TORSDOF 26
ENDMDL
MODEL 6
REMARK VINA RESULT:    -2.659      7.932     10.754
REMARK INTER + INTRA:         -12.028
REMARK INTER:                  -7.544
REMARK INTRA:                  -4.483
REMARK UNBOUND:                -5.328
REMARK SMILES CCCCCCCCCCCCCCCCCCCCCCCCCCCC(=O)[O-]
REMARK SMILES IDX 15 1 16 2 17 3 18 4 19 5 20 6 21 7 22 8 23 9 24 10 25 11
REMARK SMILES IDX 26 12 27 13 28 14 29 15 30 16 14 17 13 18 12 19 11 20 10 21
REMARK SMILES IDX 9 22 8 23 7 24 6 25 5 26 4 27 3 28 2 29 1 30
REMARK H PARENT
REMARK Flexibility Score: inf
ROOT
ATOM      1  C   UNL     1      -3.483   0.399  21.985  1.00  0.00     0.000 C 
ENDROOT
BRANCH   1   2
ATOM      2  C   UNL     1      -3.039   1.841  21.692  1.00  0.00     0.000 C 
BRANCH   2   3
ATOM      3  C   UNL     1      -3.577   2.844  22.727  1.00  0.00     0.000 C 
BRANCH   3   4
ATOM      4  C   UNL     1      -4.980   3.367  22.370  1.00  0.00     0.000 C 
BRANCH   4   5
ATOM      5  C   UNL     1      -5.043   3.955  20.950  1.00  0.00     0.000 C 
BRANCH   5   6
ATOM      6  C   UNL     1      -6.207   3.391  20.122  1.00  0.00     0.000 C 
BRANCH   6   7
ATOM      7  C   UNL     1      -5.717   2.270  19.194  1.00  0.00     0.000 C 
BRANCH   7   8
ATOM      8  C   UNL     1      -6.694   1.083  19.122  1.00  0.00     0.000 C 
BRANCH   8   9
ATOM      9  C   UNL     1      -6.651   0.128  20.332  1.00  0.00     0.000 C 
BRANCH   9  10
ATOM     10  C   UNL     1      -6.749  -1.370  19.990  1.00  0.00     0.000 C 
BRANCH  10  11
ATOM     11  C   UNL     1      -6.736  -2.273  21.232  1.00  0.00     0.000 C 
BRANCH  11  12
ATOM     12  C   UNL     1      -5.616  -3.317  21.145  1.00  0.00     0.006 C 
BRANCH  12  13
ATOM     13  C   UNL     1      -5.215  -3.573  19.690  1.00  0.00     0.053 C 
BRANCH  13  14
ATOM     14  C   UNL     1      -5.790  -4.865  19.199  1.00  0.00     0.041 C 
ATOM     15  O   UNL     1      -5.469  -5.951  19.750  1.00  0.00    -0.550 OA
ATOM     16  O   UNL     1      -6.695  -4.870  18.142  1.00  0.00    -0.550 OA
ENDBRANCH  13  14
ENDBRANCH  12  13
ENDBRANCH  11  12
ENDBRANCH  10  11
ENDBRANCH   9  10
ENDBRANCH   8   9
ENDBRANCH   7   8
ENDBRANCH   6   7
ENDBRANCH   5   6
ENDBRANCH   4   5
ENDBRANCH   3   4
ENDBRANCH   2   3
ENDBRANCH   1   2
BRANCH   1  17
ATOM     17  C   UNL     1      -3.083  -0.549  20.847  1.00  0.00     0.000 C 
BRANCH  17  18
ATOM     18  C   UNL     1      -1.739  -1.228  21.152  1.00  0.00     0.000 C 
BRANCH  18  19
ATOM     19  C   UNL     1      -0.568  -0.634  20.348  1.00  0.00     0.000 C 
BRANCH  19  20
ATOM     20  C   UNL     1       0.328   0.352  21.127  1.00  0.00     0.000 C 
BRANCH  20  21
ATOM     21  C   UNL     1       0.564  -0.002  22.607  1.00  0.00     0.000 C 
BRANCH  21  22
ATOM     22  C   UNL     1      -0.015   1.004  23.619  1.00  0.00    -0.000 C 
BRANCH  22  23
ATOM     23  C   UNL     1      -0.310   0.398  25.009  1.00  0.00    -0.000 C 
BRANCH  23  24
ATOM     24  C   UNL     1      -1.483  -0.600  24.984  1.00  0.00    -0.000 C 
BRANCH  24  25
ATOM     25  C   UNL     1      -1.049  -2.036  25.325  1.00  0.00    -0.000 C 
BRANCH  25  26
ATOM     26  C   UNL     1      -1.307  -3.021  24.172  1.00  0.00    -0.000 C 
BRANCH  26  27
ATOM     27  C   UNL     1      -0.019  -3.394  23.417  1.00  0.00    -0.000 C 
BRANCH  27  28
ATOM     28  C   UNL     1       0.992  -4.133  24.310  1.00  0.00    -0.000 C 
BRANCH  28  29
ATOM     29  C   UNL     1       1.060  -5.638  23.998  1.00  0.00    -0.003 C 
ATOM     30  C   UNL     1       0.130  -6.466  24.884  1.00  0.00     0.004 C 
ENDBRANCH  28  29
ENDBRANCH  27  28
ENDBRANCH  26  27
ENDBRANCH  25  26
ENDBRANCH  24  25
ENDBRANCH  23  24
ENDBRANCH  22  23
ENDBRANCH  21  22
ENDBRANCH  20  21
ENDBRANCH  19  20
ENDBRANCH  18  19
ENDBRANCH  17  18
ENDBRANCH   1  17
TORSDOF 26
ENDMDL
MODEL 7
REMARK VINA RESULT:    -2.642      3.390      8.381
REMARK INTER + INTRA:         -11.985
REMARK INTER:                  -7.643
REMARK INTRA:                  -4.343
REMARK UNBOUND:                -5.328
REMARK SMILES CCCCCCCCCCCCCCCCCCCCCCCCCCCC(=O)[O-]
REMARK SMILES IDX 15 1 16 2 17 3 18 4 19 5 20 6 21 7 22 8 23 9 24 10 25 11
REMARK SMILES IDX 26 12 27 13 28 14 29 15 30 16 14 17 13 18 12 19 11 20 10 21
REMARK SMILES IDX 9 22 8 23 7 24 6 25 5 26 4 27 3 28 2 29 1 30
REMARK H PARENT
REMARK Flexibility Score: inf
ROOT
ATOM      1  C   UNL     1       7.191  -0.450  15.669  1.00  0.00     0.000 C 
ENDROOT
BRANCH   1   2
ATOM      2  C   UNL     1       5.977   0.128  16.414  1.00  0.00     0.000 C 
BRANCH   2   3
ATOM      3  C   UNL     1       5.160  -0.956  17.137  1.00  0.00     0.000 C 
BRANCH   3   4
ATOM      4  C   UNL     1       4.572  -0.462  18.472  1.00  0.00     0.000 C 
BRANCH   4   5
ATOM      5  C   UNL     1       5.054   0.953  18.836  1.00  0.00     0.000 C 
BRANCH   5   6
ATOM      6  C   UNL     1       3.897   1.939  19.056  1.00  0.00     0.000 C 
BRANCH   6   7
ATOM      7  C   UNL     1       2.559   1.191  19.147  1.00  0.00     0.000 C 
BRANCH   7   8
ATOM      8  C   UNL     1       1.390   1.980  18.529  1.00  0.00     0.000 C 
BRANCH   8   9
ATOM      9  C   UNL     1       1.759   2.842  17.305  1.00  0.00     0.000 C 
BRANCH   9  10
ATOM     10  C   UNL     1       1.273   2.298  15.949  1.00  0.00     0.000 C 
BRANCH  10  11
ATOM     11  C   UNL     1       2.364   2.315  14.869  1.00  0.00     0.000 C 
BRANCH  11  12
ATOM     12  C   UNL     1       3.048   0.947  14.751  1.00  0.00     0.006 C 
BRANCH  12  13
ATOM     13  C   UNL     1       3.014   0.438  13.307  1.00  0.00     0.053 C 
BRANCH  13  14
ATOM     14  C   UNL     1       4.041  -0.631  13.094  1.00  0.00     0.041 C 
ATOM     15  O   UNL     1       5.216  -0.322  12.765  1.00  0.00    -0.550 OA
ATOM     16  O   UNL     1       3.704  -1.968  13.276  1.00  0.00    -0.550 OA
ENDBRANCH  13  14
ENDBRANCH  12  13
ENDBRANCH  11  12
ENDBRANCH  10  11
ENDBRANCH   9  10
ENDBRANCH   8   9
ENDBRANCH   7   8
ENDBRANCH   6   7
ENDBRANCH   5   6
ENDBRANCH   4   5
ENDBRANCH   3   4
ENDBRANCH   2   3
ENDBRANCH   1   2
BRANCH   1  17
ATOM     17  C   UNL     1       8.263   0.622  15.434  1.00  0.00     0.000 C 
BRANCH  17  18
ATOM     18  C   UNL     1       9.626   0.154  15.964  1.00  0.00     0.000 C 
BRANCH  18  19
ATOM     19  C   UNL     1       9.528  -0.591  17.307  1.00  0.00     0.000 C 
BRANCH  19  20
ATOM     20  C   UNL     1       9.142   0.287  18.516  1.00  0.00     0.000 C 
BRANCH  20  21
ATOM     21  C   UNL     1       9.025  -0.457  19.859  1.00  0.00     0.000 C 
BRANCH  21  22
ATOM     22  C   UNL     1       7.775  -1.346  20.006  1.00  0.00    -0.000 C 
BRANCH  22  23
ATOM     23  C   UNL     1       8.042  -2.849  19.762  1.00  0.00    -0.000 C 
BRANCH  23  24
ATOM     24  C   UNL     1       7.040  -3.476  18.775  1.00  0.00    -0.000 C 
BRANCH  24  25
ATOM     25  C   UNL     1       7.604  -3.590  17.348  1.00  0.00    -0.000 C 
BRANCH  25  26
ATOM     26  C   UNL     1       8.872  -4.460  17.282  1.00  0.00    -0.000 C 
BRANCH  26  27
ATOM     27  C   UNL     1       8.550  -5.962  17.200  1.00  0.00    -0.000 C 
BRANCH  27  28
ATOM     28  C   UNL     1       9.172  -6.760  18.359  1.00  0.00    -0.000 C 
BRANCH  28  29
ATOM     29  C   UNL     1      10.204  -5.939  19.149  1.00  0.00    -0.003 C 
ATOM     30  C   UNL     1      10.285  -6.351  20.619  1.00  0.00     0.004 C 
ENDBRANCH  28  29
ENDBRANCH  27  28
ENDBRANCH  26  27
ENDBRANCH  25  26
ENDBRANCH  24  25
ENDBRANCH  23  24
ENDBRANCH  22  23
ENDBRANCH  21  22
ENDBRANCH  20  21
ENDBRANCH  19  20
ENDBRANCH  18  19
ENDBRANCH  17  18
ENDBRANCH   1  17
TORSDOF 26
ENDMDL
MODEL 8
REMARK VINA RESULT:    -2.626      2.093      5.759
REMARK INTER + INTRA:         -11.944
REMARK INTER:                  -6.464
REMARK INTRA:                  -5.480
REMARK UNBOUND:                -5.328
REMARK SMILES CCCCCCCCCCCCCCCCCCCCCCCCCCCC(=O)[O-]
REMARK SMILES IDX 15 1 16 2 17 3 18 4 19 5 20 6 21 7 22 8 23 9 24 10 25 11
REMARK SMILES IDX 26 12 27 13 28 14 29 15 30 16 14 17 13 18 12 19 11 20 10 21
REMARK SMILES IDX 9 22 8 23 7 24 6 25 5 26 4 27 3 28 2 29 1 30
REMARK H PARENT
REMARK Flexibility Score: inf
ROOT
ATOM      1  C   UNL     1       2.229   2.558  14.032  1.00  0.00     0.000 C 
ENDROOT
BRANCH   1   2
ATOM      2  C   UNL     1       2.252   1.029  14.192  1.00  0.00     0.000 C 
BRANCH   2   3
ATOM      3  C   UNL     1       2.736   0.312  12.920  1.00  0.00     0.000 C 
BRANCH   3   4
ATOM      4  C   UNL     1       3.985  -0.555  13.167  1.00  0.00     0.000 C 
BRANCH   4   5
ATOM      5  C   UNL     1       4.611  -0.299  14.549  1.00  0.00     0.000 C 
BRANCH   5   6
ATOM      6  C   UNL     1       5.958   0.435  14.466  1.00  0.00     0.000 C 
BRANCH   6   7
ATOM      7  C   UNL     1       6.055   1.510  15.559  1.00  0.00     0.000 C 
BRANCH   7   8
ATOM      8  C   UNL     1       4.953   1.378  16.627  1.00  0.00     0.000 C 
BRANCH   8   9
ATOM      9  C   UNL     1       5.399   1.701  18.068  1.00  0.00     0.000 C 
BRANCH   9  10
ATOM     10  C   UNL     1       5.593   0.478  18.983  1.00  0.00     0.000 C 
BRANCH  10  11
ATOM     11  C   UNL     1       4.915  -0.790  18.444  1.00  0.00     0.000 C 
BRANCH  11  12
ATOM     12  C   UNL     1       5.897  -1.968  18.405  1.00  0.00     0.006 C 
BRANCH  12  13
ATOM     13  C   UNL     1       6.261  -2.332  16.962  1.00  0.00     0.053 C 
BRANCH  13  14
ATOM     14  C   UNL     1       7.657  -1.897  16.639  1.00  0.00     0.041 C 
ATOM     15  O   UNL     1       8.194  -2.246  15.555  1.00  0.00    -0.550 OA
ATOM     16  O   UNL     1       8.360  -1.092  17.529  1.00  0.00    -0.550 OA
ENDBRANCH  13  14
ENDBRANCH  12  13
ENDBRANCH  11  12
ENDBRANCH  10  11
ENDBRANCH   9  10
ENDBRANCH   8   9
ENDBRANCH   7   8
ENDBRANCH   6   7
ENDBRANCH   5   6
ENDBRANCH   4   5
ENDBRANCH   3   4
ENDBRANCH   2   3
ENDBRANCH   1   2
BRANCH   1  17
ATOM     17  C   UNL     1       3.439   3.052  13.229  1.00  0.00     0.000 C 
BRANCH  17  18
ATOM     18  C   UNL     1       4.099   4.253  13.923  1.00  0.00     0.000 C 
BRANCH  18  19
ATOM     19  C   UNL     1       3.251   4.824  15.073  1.00  0.00     0.000 C 
BRANCH  19  20
ATOM     20  C   UNL     1       3.981   4.946  16.428  1.00  0.00     0.000 C 
BRANCH  20  21
ATOM     21  C   UNL     1       3.157   4.528  17.659  1.00  0.00     0.000 C 
BRANCH  21  22
ATOM     22  C   UNL     1       1.650   4.340  17.403  1.00  0.00    -0.000 C 
BRANCH  22  23
ATOM     23  C   UNL     1       0.991   3.260  18.290  1.00  0.00    -0.000 C 
BRANCH  23  24
ATOM     24  C   UNL     1       1.585   1.858  18.056  1.00  0.00    -0.000 C 
BRANCH  24  25
ATOM     25  C   UNL     1       1.883   1.112  19.368  1.00  0.00    -0.000 C 
BRANCH  25  26
ATOM     26  C   UNL     1       0.699   0.251  19.841  1.00  0.00    -0.000 C 
BRANCH  26  27
ATOM     27  C   UNL     1       0.476   0.341  21.360  1.00  0.00    -0.000 C 
BRANCH  27  28
ATOM     28  C   UNL     1       0.608   1.779  21.891  1.00  0.00    -0.000 C 
BRANCH  28  29
ATOM     29  C   UNL     1      -0.751   2.396  22.260  1.00  0.00    -0.003 C 
ATOM     30  C   UNL     1      -1.338   3.247  21.134  1.00  0.00     0.004 C 
ENDBRANCH  28  29
ENDBRANCH  27  28
ENDBRANCH  26  27
ENDBRANCH  25  26
ENDBRANCH  24  25
ENDBRANCH  23  24
ENDBRANCH  22  23
ENDBRANCH  21  22
ENDBRANCH  20  21
ENDBRANCH  19  20
ENDBRANCH  18  19
ENDBRANCH  17  18
ENDBRANCH   1  17
TORSDOF 26
ENDMDL
MODEL 9
REMARK VINA RESULT:    -2.610      4.231      8.999
REMARK INTER + INTRA:         -11.904
REMARK INTER:                  -6.457
REMARK INTRA:                  -5.447
REMARK UNBOUND:                -5.328
REMARK SMILES CCCCCCCCCCCCCCCCCCCCCCCCCCCC(=O)[O-]
REMARK SMILES IDX 15 1 16 2 17 3 18 4 19 5 20 6 21 7 22 8 23 9 24 10 25 11
REMARK SMILES IDX 26 12 27 13 28 14 29 15 30 16 14 17 13 18 12 19 11 20 10 21
REMARK SMILES IDX 9 22 8 23 7 24 6 25 5 26 4 27 3 28 2 29 1 30
REMARK H PARENT
REMARK Flexibility Score: inf
ROOT
ATOM      1  C   UNL     1       5.233  -0.026  16.236  1.00  0.00     0.000 C 
ENDROOT
BRANCH   1   2
ATOM      2  C   UNL     1       5.548  -1.524  16.371  1.00  0.00     0.000 C 
BRANCH   2   3
ATOM      3  C   UNL     1       5.498  -2.007  17.831  1.00  0.00     0.000 C 
BRANCH   3   4
ATOM      4  C   UNL     1       5.582  -0.847  18.841  1.00  0.00     0.000 C 
BRANCH   4   5
ATOM      5  C   UNL     1       6.918  -0.831  19.604  1.00  0.00     0.000 C 
BRANCH   5   6
ATOM      6  C   UNL     1       7.770   0.407  19.288  1.00  0.00     0.000 C 
BRANCH   6   7
ATOM      7  C   UNL     1       7.708   1.415  20.446  1.00  0.00     0.000 C 
BRANCH   7   8
ATOM      8  C   UNL     1       6.536   2.405  20.313  1.00  0.00     0.000 C 
BRANCH   8   9
ATOM      9  C   UNL     1       6.224   2.859  18.872  1.00  0.00     0.000 C 
BRANCH   9  10
ATOM     10  C   UNL     1       4.739   2.802  18.473  1.00  0.00     0.000 C 
BRANCH  10  11
ATOM     11  C   UNL     1       3.826   2.344  19.619  1.00  0.00     0.000 C 
BRANCH  11  12
ATOM     12  C   UNL     1       2.506   1.776  19.082  1.00  0.00     0.006 C 
BRANCH  12  13
ATOM     13  C   UNL     1       2.475   1.812  17.551  1.00  0.00     0.053 C 
BRANCH  13  14
ATOM     14  C   UNL     1       1.283   2.574  17.061  1.00  0.00     0.041 C 
ATOM     15  O   UNL     1       0.869   2.411  15.882  1.00  0.00    -0.550 OA
ATOM     16  O   UNL     1       0.619   3.453  17.909  1.00  0.00    -0.550 OA
ENDBRANCH  13  14
ENDBRANCH  12  13
ENDBRANCH  11  12
ENDBRANCH  10  11
ENDBRANCH   9  10
ENDBRANCH   8   9
ENDBRANCH   7   8
ENDBRANCH   6   7
ENDBRANCH   5   6
ENDBRANCH   4   5
ENDBRANCH   3   4
ENDBRANCH   2   3
ENDBRANCH   1   2
BRANCH   1  17
ATOM     17  C   UNL     1       6.447   0.755  15.719  1.00  0.00     0.000 C 
BRANCH  17  18
ATOM     18  C   UNL     1       7.492  -0.199  15.119  1.00  0.00     0.000 C 
BRANCH  18  19
ATOM     19  C   UNL     1       8.882  -0.052  15.763  1.00  0.00     0.000 C 
BRANCH  19  20
ATOM     20  C   UNL     1       9.655  -1.372  15.963  1.00  0.00     0.000 C 
BRANCH  20  21
ATOM     21  C   UNL     1       9.099  -2.302  17.058  1.00  0.00     0.000 C 
BRANCH  21  22
ATOM     22  C   UNL     1       8.901  -3.768  16.631  1.00  0.00    -0.000 C 
BRANCH  22  23
ATOM     23  C   UNL     1       8.240  -4.653  17.712  1.00  0.00    -0.000 C 
BRANCH  23  24
ATOM     24  C   UNL     1       8.441  -4.100  19.135  1.00  0.00    -0.000 C 
BRANCH  24  25
ATOM     25  C   UNL     1       9.574  -4.812  19.894  1.00  0.00    -0.000 C 
BRANCH  25  26
ATOM     26  C   UNL     1      10.655  -3.837  20.393  1.00  0.00    -0.000 C 
BRANCH  26  27
ATOM     27  C   UNL     1      10.108  -2.416  20.616  1.00  0.00    -0.000 C 
BRANCH  27  28
ATOM     28  C   UNL     1      10.208  -1.971  22.085  1.00  0.00    -0.000 C 
BRANCH  28  29
ATOM     29  C   UNL     1       8.889  -1.379  22.608  1.00  0.00    -0.003 C 
ATOM     30  C   UNL     1       8.791  -1.414  24.133  1.00  0.00     0.004 C 
ENDBRANCH  28  29
ENDBRANCH  27  28
ENDBRANCH  26  27
ENDBRANCH  25  26
ENDBRANCH  24  25
ENDBRANCH  23  24
ENDBRANCH  22  23
ENDBRANCH  21  22
ENDBRANCH  20  21
ENDBRANCH  19  20
ENDBRANCH  18  19
ENDBRANCH  17  18
ENDBRANCH   1  17
TORSDOF 26
ENDMDL
