MODEL 1
REMARK VINA RESULT:    -0.183      0.000      0.000
REMARK INTER + INTRA:          -0.632
REMARK INTER:                  -0.220
REMARK INTRA:                  -0.412
REMARK UNBOUND:                -0.412
REMARK SMILES O=c1c(O)c(-c2ccc(O)cc2O)oc2cc(O)cc(O)c12
REMARK SMILES IDX 5 1 3 2 2 3 1 4 22 5 20 6 19 7 17 8 16 9 15 10 14 11 6 12
REMARK SMILES IDX 8 13 7 14 9 15 11 16 12 17 10 18 13 20 4 22 21 24 18 26
REMARK H PARENT 10 19 13 21 4 23 21 25 18 27
REMARK Flexibility Score: inf
ROOT
ATOM      1  C   UNL     1      56.303   5.933  10.416  1.00  0.00     0.184 A 
ATOM      2  C   UNL     1      55.894   4.639  10.059  1.00  0.00     0.208 A 
ATOM      3  C   UNL     1      54.680   4.146  10.562  1.00  0.00     0.238 A 
ATOM      4  O   UNL     1      54.344   2.965  10.281  1.00  0.00    -0.285 OA
ATOM      5  C   UNL     1      53.883   4.960  11.402  1.00  0.00     0.111 A 
ATOM      6  C   UNL     1      52.616   4.579  11.935  1.00  0.00     0.134 A 
ATOM      7  C   UNL     1      51.976   5.414  12.860  1.00  0.00     0.093 A 
ATOM      8  C   UNL     1      52.527   6.646  13.219  1.00  0.00     0.123 A 
ATOM      9  C   UNL     1      53.735   7.055  12.659  1.00  0.00     0.094 A 
ATOM     10  C   UNL     1      54.415   6.227  11.761  1.00  0.00     0.146 A 
ATOM     11  O   UNL     1      55.569   6.650  11.258  1.00  0.00    -0.451 OA
ENDROOT
BRANCH   1  12
ATOM     12  C   UNL     1      57.562   6.518   9.909  1.00  0.00     0.063 A 
ATOM     13  C   UNL     1      59.991   6.578   9.956  1.00  0.00     0.047 A 
ATOM     14  C   UNL     1      58.783   6.043  10.410  1.00  0.00     0.020 A 
ATOM     15  C   UNL     1      59.994   7.603   9.007  1.00  0.00     0.119 A 
ATOM     16  C   UNL     1      58.780   8.102   8.519  1.00  0.00     0.093 A 
ATOM     17  C   UNL     1      57.562   7.574   8.973  1.00  0.00     0.130 A 
BRANCH  15  18
ATOM     18  O   UNL     1      61.206   8.125   8.561  1.00  0.00    -0.508 OA
ATOM     19  H   UNL     1      61.252   9.003   8.059  1.00  0.00     0.293 HD
ENDBRANCH  15  18
BRANCH  17  20
ATOM     20  O   UNL     1      56.359   8.111   8.516  1.00  0.00    -0.507 OA
ATOM     21  H   UNL     1      56.320   8.711   7.700  1.00  0.00     0.293 HD
ENDBRANCH  17  20
ENDBRANCH   1  12
BRANCH   2  22
ATOM     22  O   UNL     1      56.709   3.849   9.242  1.00  0.00    -0.502 OA
ATOM     23  H   UNL     1      56.389   2.978   8.836  1.00  0.00     0.293 HD
ENDBRANCH   2  22
BRANCH   6  24
ATOM     24  O   UNL     1      51.934   3.413  11.572  1.00  0.00    -0.507 OA
ATOM     25  H   UNL     1      52.184   2.483  11.877  1.00  0.00     0.293 HD
ENDBRANCH   6  24
BRANCH   8  26
ATOM     26  O   UNL     1      51.876   7.478  14.128  1.00  0.00    -0.508 OA
ATOM     27  H   UNL     1      51.174   8.145  13.827  1.00  0.00     0.293 HD
ENDBRANCH   8  26
TORSDOF 6
ENDMDL
MODEL 2
REMARK VINA RESULT:    -0.124      5.137      7.060
REMARK INTER + INTRA:          -0.561
REMARK INTER:                  -1.172
REMARK INTRA:                   0.610
REMARK UNBOUND:                -0.412
REMARK SMILES O=c1c(O)c(-c2ccc(O)cc2O)oc2cc(O)cc(O)c12
REMARK SMILES IDX 5 1 3 2 2 3 1 4 22 5 20 6 19 7 17 8 16 9 15 10 14 11 6 12
REMARK SMILES IDX 8 13 7 14 9 15 11 16 12 17 10 18 13 20 4 22 21 24 18 26
REMARK H PARENT 10 19 13 21 4 23 21 25 18 27
REMARK Flexibility Score: inf
ROOT
ATOM      1  C   UNL     1      54.228   7.986   5.656  1.00  0.00     0.184 A 
ATOM      2  C   UNL     1      53.200   7.864   6.604  1.00  0.00     0.208 A 
ATOM      3  C   UNL     1      53.529   7.862   7.969  1.00  0.00     0.238 A 
ATOM      4  O   UNL     1      52.608   7.698   8.812  1.00  0.00    -0.285 OA
ATOM      5  C   UNL     1      54.880   7.999   8.367  1.00  0.00     0.111 A 
ATOM      6  C   UNL     1      55.324   8.052   9.722  1.00  0.00     0.134 A 
ATOM      7  C   UNL     1      56.697   8.058   9.999  1.00  0.00     0.093 A 
ATOM      8  C   UNL     1      57.639   8.081   8.969  1.00  0.00     0.123 A 
ATOM      9  C   UNL     1      57.215   8.091   7.642  1.00  0.00     0.094 A 
ATOM     10  C   UNL     1      55.853   8.047   7.334  1.00  0.00     0.146 A 
ATOM     11  O   UNL     1      55.492   8.047   6.056  1.00  0.00    -0.451 OA
ENDROOT
BRANCH   1  12
ATOM     12  C   UNL     1      53.949   8.011   4.205  1.00  0.00     0.063 A 
ATOM     13  C   UNL     1      52.321   7.919   2.402  1.00  0.00     0.047 A 
ATOM     14  C   UNL     1      52.620   7.905   3.766  1.00  0.00     0.020 A 
ATOM     15  C   UNL     1      53.346   8.027   1.458  1.00  0.00     0.119 A 
ATOM     16  C   UNL     1      54.678   8.111   1.885  1.00  0.00     0.093 A 
ATOM     17  C   UNL     1      54.987   8.090   3.254  1.00  0.00     0.130 A 
BRANCH  15  18
ATOM     18  O   UNL     1      53.034   8.044   0.102  1.00  0.00    -0.508 OA
ATOM     19  H   UNL     1      52.929   8.914  -0.407  1.00  0.00     0.293 HD
ENDBRANCH  15  18
BRANCH  17  20
ATOM     20  O   UNL     1      56.319   8.125   3.665  1.00  0.00    -0.507 OA
ATOM     21  H   UNL     1      56.960   7.368   3.456  1.00  0.00     0.293 HD
ENDBRANCH  17  20
ENDBRANCH   1  12
BRANCH   2  22
ATOM     22  O   UNL     1      51.875   7.711   6.182  1.00  0.00    -0.502 OA
ATOM     23  H   UNL     1      51.294   8.498   5.923  1.00  0.00     0.293 HD
ENDBRANCH   2  22
BRANCH   6  24
ATOM     24  O   UNL     1      54.465   8.125  10.823  1.00  0.00    -0.507 OA
ATOM     25  H   UNL     1      54.624   8.697  11.639  1.00  0.00     0.293 HD
ENDBRANCH   6  24
BRANCH   8  26
ATOM     26  O   UNL     1      59.004   8.105   9.254  1.00  0.00    -0.508 OA
ATOM     27  H   UNL     1      59.484   7.287   9.611  1.00  0.00     0.293 HD
ENDBRANCH   8  26
TORSDOF 6
ENDMDL
MODEL 3
REMARK VINA RESULT:     0.050      2.031      6.630
REMARK INTER + INTRA:          -0.352
REMARK INTER:                   0.036
REMARK INTRA:                  -0.387
REMARK UNBOUND:                -0.412
REMARK SMILES O=c1c(O)c(-c2ccc(O)cc2O)oc2cc(O)cc(O)c12
REMARK SMILES IDX 5 1 3 2 2 3 1 4 22 5 20 6 19 7 17 8 16 9 15 10 14 11 6 12
REMARK SMILES IDX 8 13 7 14 9 15 11 16 12 17 10 18 13 20 4 22 21 24 18 26
REMARK H PARENT 10 19 13 21 4 23 21 25 18 27
REMARK Flexibility Score: inf
ROOT
ATOM      1  C   UNL     1      54.300   4.868  11.024  1.00  0.00     0.184 A 
ATOM      2  C   UNL     1      53.596   5.466   9.968  1.00  0.00     0.208 A 
ATOM      3  C   UNL     1      54.262   6.383   9.139  1.00  0.00     0.238 A 
ATOM      4  O   UNL     1      53.610   6.957   8.226  1.00  0.00    -0.285 OA
ATOM      5  C   UNL     1      55.627   6.677   9.368  1.00  0.00     0.111 A 
ATOM      6  C   UNL     1      56.412   7.558   8.566  1.00  0.00     0.134 A 
ATOM      7  C   UNL     1      57.718   7.875   8.963  1.00  0.00     0.093 A 
ATOM      8  C   UNL     1      58.288   7.289  10.096  1.00  0.00     0.123 A 
ATOM      9  C   UNL     1      57.550   6.381  10.852  1.00  0.00     0.094 A 
ATOM     10  C   UNL     1      56.233   6.074  10.502  1.00  0.00     0.146 A 
ATOM     11  O   UNL     1      55.561   5.211  11.256  1.00  0.00    -0.451 OA
ENDROOT
BRANCH   1  12
ATOM     12  C   UNL     1      53.664   3.883  11.923  1.00  0.00     0.063 A 
ATOM     13  C   UNL     1      53.204   1.558  12.463  1.00  0.00     0.047 A 
ATOM     14  C   UNL     1      53.798   2.515  11.637  1.00  0.00     0.020 A 
ATOM     15  C   UNL     1      52.459   1.954  13.577  1.00  0.00     0.119 A 
ATOM     16  C   UNL     1      52.300   3.317  13.857  1.00  0.00     0.093 A 
ATOM     17  C   UNL     1      52.887   4.286  13.030  1.00  0.00     0.130 A 
BRANCH  15  18
ATOM     18  O   UNL     1      51.876   0.988  14.393  1.00  0.00    -0.508 OA
ATOM     19  H   UNL     1      51.125   1.218  15.034  1.00  0.00     0.293 HD
ENDBRANCH  15  18
BRANCH  17  20
ATOM     20  O   UNL     1      52.682   5.640  13.291  1.00  0.00    -0.507 OA
ATOM     21  H   UNL     1      52.433   5.971  14.217  1.00  0.00     0.293 HD
ENDBRANCH  17  20
ENDBRANCH   1  12
BRANCH   2  22
ATOM     22  O   UNL     1      52.242   5.172   9.775  1.00  0.00    -0.502 OA
ATOM     23  H   UNL     1      51.505   5.665  10.264  1.00  0.00     0.293 HD
ENDBRANCH   2  22
BRANCH   6  24
ATOM     24  O   UNL     1      55.971   8.125   7.366  1.00  0.00    -0.507 OA
ATOM     25  H   UNL     1      55.203   7.775   6.814  1.00  0.00     0.293 HD
ENDBRANCH   6  24
BRANCH   8  26
ATOM     26  O   UNL     1      59.594   7.597  10.474  1.00  0.00    -0.508 OA
ATOM     27  H   UNL     1      60.186   8.187   9.902  1.00  0.00     0.293 HD
ENDBRANCH   8  26
TORSDOF 6
ENDMDL
MODEL 4
REMARK VINA RESULT:     1.769      1.355      2.878
REMARK INTER + INTRA:           1.719
REMARK INTER:                   2.147
REMARK INTRA:                  -0.428
REMARK UNBOUND:                -0.412
REMARK SMILES O=c1c(O)c(-c2ccc(O)cc2O)oc2cc(O)cc(O)c12
REMARK SMILES IDX 5 1 3 2 2 3 1 4 22 5 20 6 19 7 17 8 16 9 15 10 14 11 6 12
REMARK SMILES IDX 8 13 7 14 9 15 11 16 12 17 10 18 13 20 4 22 21 24 18 26
REMARK H PARENT 10 19 13 21 4 23 21 25 18 27
REMARK Flexibility Score: inf
ROOT
ATOM      1  C   UNL     1      56.084   6.043  10.792  1.00  0.00     0.184 A 
ATOM      2  C   UNL     1      55.538   6.447  12.020  1.00  0.00     0.208 A 
ATOM      3  C   UNL     1      54.333   5.870  12.453  1.00  0.00     0.238 A 
ATOM      4  O   UNL     1      53.821   6.275  13.529  1.00  0.00    -0.285 OA
ATOM      5  C   UNL     1      53.700   4.885  11.657  1.00  0.00     0.111 A 
ATOM      6  C   UNL     1      52.498   4.204  12.016  1.00  0.00     0.134 A 
ATOM      7  C   UNL     1      51.891   3.342  11.094  1.00  0.00     0.093 A 
ATOM      8  C   UNL     1      52.478   3.087   9.852  1.00  0.00     0.123 A 
ATOM      9  C   UNL     1      53.682   3.701   9.516  1.00  0.00     0.094 A 
ATOM     10  C   UNL     1      54.293   4.594  10.400  1.00  0.00     0.146 A 
ATOM     11  O   UNL     1      55.435   5.166  10.037  1.00  0.00    -0.451 OA
ENDROOT
BRANCH   1  12
ATOM     12  C   UNL     1      57.357   6.598  10.287  1.00  0.00     0.063 A 
ATOM     13  C   UNL     1      59.785   6.653  10.390  1.00  0.00     0.047 A 
ATOM     14  C   UNL     1      58.564   6.145  10.840  1.00  0.00     0.020 A 
ATOM     15  C   UNL     1      59.815   7.630   9.391  1.00  0.00     0.119 A 
ATOM     16  C   UNL     1      58.614   8.106   8.849  1.00  0.00     0.093 A 
ATOM     17  C   UNL     1      57.383   7.606   9.299  1.00  0.00     0.130 A 
BRANCH  15  18
ATOM     18  O   UNL     1      61.039   8.125   8.949  1.00  0.00    -0.508 OA
ATOM     19  H   UNL     1      61.588   8.762   9.514  1.00  0.00     0.293 HD
ENDBRANCH  15  18
BRANCH  17  20
ATOM     20  O   UNL     1      56.194   8.123   8.787  1.00  0.00    -0.507 OA
ATOM     21  H   UNL     1      55.876   9.056   9.020  1.00  0.00     0.293 HD
ENDBRANCH  17  20
ENDBRANCH   1  12
BRANCH   2  22
ATOM     22  O   UNL     1      56.175   7.436  12.777  1.00  0.00    -0.502 OA
ATOM     23  H   UNL     1      55.802   7.770  13.657  1.00  0.00     0.293 HD
ENDBRANCH   2  22
BRANCH   6  24
ATOM     24  O   UNL     1      51.879   4.316  13.265  1.00  0.00    -0.507 OA
ATOM     25  H   UNL     1      52.320   4.100  14.147  1.00  0.00     0.293 HD
ENDBRANCH   6  24
BRANCH   8  26
ATOM     26  O   UNL     1      51.875   2.215   8.947  1.00  0.00    -0.508 OA
ATOM     27  H   UNL     1      52.403   1.781   8.198  1.00  0.00     0.293 HD
ENDBRANCH   8  26
TORSDOF 6
ENDMDL
MODEL 5
REMARK VINA RESULT:     1.855      2.171      3.206
REMARK INTER + INTRA:           1.823
REMARK INTER:                   1.317
REMARK INTRA:                   0.506
REMARK UNBOUND:                -0.412
REMARK SMILES O=c1c(O)c(-c2ccc(O)cc2O)oc2cc(O)cc(O)c12
REMARK SMILES IDX 5 1 3 2 2 3 1 4 22 5 20 6 19 7 17 8 16 9 15 10 14 11 6 12
REMARK SMILES IDX 8 13 7 14 9 15 11 16 12 17 10 18 13 20 4 22 21 24 18 26
REMARK H PARENT 10 19 13 21 4 23 21 25 18 27
REMARK Flexibility Score: inf
ROOT
ATOM      1  C   UNL     1      56.967   7.607   9.332  1.00  0.00     0.184 A 
ATOM      2  C   UNL     1      56.268   7.889   8.148  1.00  0.00     0.208 A 
ATOM      3  C   UNL     1      54.865   7.907   8.173  1.00  0.00     0.238 A 
ATOM      4  O   UNL     1      54.244   8.108   7.096  1.00  0.00    -0.285 OA
ATOM      5  C   UNL     1      54.180   7.658   9.387  1.00  0.00     0.111 A 
ATOM      6  C   UNL     1      52.761   7.692   9.537  1.00  0.00     0.134 A 
ATOM      7  C   UNL     1      52.187   7.302  10.754  1.00  0.00     0.093 A 
ATOM      8  C   UNL     1      52.983   6.944  11.844  1.00  0.00     0.123 A 
ATOM      9  C   UNL     1      54.370   6.966  11.726  1.00  0.00     0.094 A 
ATOM     10  C   UNL     1      54.972   7.315  10.514  1.00  0.00     0.146 A 
ATOM     11  O   UNL     1      56.298   7.313  10.440  1.00  0.00    -0.451 OA
ENDROOT
BRANCH   1  12
ATOM     12  C   UNL     1      58.444   7.588   9.378  1.00  0.00     0.063 A 
ATOM     13  C   UNL     1      60.561   8.111   8.305  1.00  0.00     0.047 A 
ATOM     14  C   UNL     1      59.165   8.118   8.297  1.00  0.00     0.020 A 
ATOM     15  C   UNL     1      61.256   7.564   9.387  1.00  0.00     0.119 A 
ATOM     16  C   UNL     1      60.546   7.011  10.460  1.00  0.00     0.093 A 
ATOM     17  C   UNL     1      59.143   7.008  10.457  1.00  0.00     0.130 A 
BRANCH  15  18
ATOM     18  O   UNL     1      62.648   7.567   9.383  1.00  0.00    -0.508 OA
ATOM     19  H   UNL     1      63.178   7.020   8.716  1.00  0.00     0.293 HD
ENDBRANCH  15  18
BRANCH  17  20
ATOM     20  O   UNL     1      58.448   6.411  11.509  1.00  0.00    -0.507 OA
ATOM     21  H   UNL     1      57.775   6.929  12.063  1.00  0.00     0.293 HD
ENDBRANCH  17  20
ENDBRANCH   1  12
BRANCH   2  22
ATOM     22  O   UNL     1      56.970   8.113   6.959  1.00  0.00    -0.502 OA
ATOM     23  H   UNL     1      56.604   8.693   6.214  1.00  0.00     0.293 HD
ENDBRANCH   2  22
BRANCH   6  24
ATOM     24  O   UNL     1      51.879   8.121   8.541  1.00  0.00    -0.507 OA
ATOM     25  H   UNL     1      51.043   8.661   8.708  1.00  0.00     0.293 HD
ENDBRANCH   6  24
BRANCH   8  26
ATOM     26  O   UNL     1      52.403   6.573  13.057  1.00  0.00    -0.508 OA
ATOM     27  H   UNL     1      52.602   5.677  13.486  1.00  0.00     0.293 HD
ENDBRANCH   8  26
TORSDOF 6
ENDMDL
MODEL 6
REMARK VINA RESULT:     2.614      3.058      4.735
REMARK INTER + INTRA:           2.737
REMARK INTER:                   2.885
REMARK INTRA:                  -0.147
REMARK UNBOUND:                -0.412
REMARK SMILES O=c1c(O)c(-c2ccc(O)cc2O)oc2cc(O)cc(O)c12
REMARK SMILES IDX 5 1 3 2 2 3 1 4 22 5 20 6 19 7 17 8 16 9 15 10 14 11 6 12
REMARK SMILES IDX 8 13 7 14 9 15 11 16 12 17 10 18 13 20 4 22 21 24 18 26
REMARK H PARENT 10 19 13 21 4 23 21 25 18 27
REMARK Flexibility Score: inf
ROOT
ATOM      1  C   UNL     1      53.465   5.542  11.129  1.00  0.00     0.184 A 
ATOM      2  C   UNL     1      53.439   6.233  12.350  1.00  0.00     0.208 A 
ATOM      3  C   UNL     1      53.164   5.521  13.529  1.00  0.00     0.238 A 
ATOM      4  O   UNL     1      53.088   6.156  14.614  1.00  0.00    -0.285 OA
ATOM      5  C   UNL     1      52.934   4.125  13.471  1.00  0.00     0.111 A 
ATOM      6  C   UNL     1      52.687   3.298  14.607  1.00  0.00     0.134 A 
ATOM      7  C   UNL     1      52.345   1.952  14.419  1.00  0.00     0.093 A 
ATOM      8  C   UNL     1      52.307   1.391  13.141  1.00  0.00     0.123 A 
ATOM      9  C   UNL     1      52.606   2.176  12.030  1.00  0.00     0.094 A 
ATOM     10  C   UNL     1      52.914   3.530  12.182  1.00  0.00     0.146 A 
ATOM     11  O   UNL     1      53.182   4.246  11.096  1.00  0.00    -0.451 OA
ENDROOT
BRANCH   1  12
ATOM     12  C   UNL     1      53.765   6.228   9.855  1.00  0.00     0.063 A 
ATOM     13  C   UNL     1      55.215   6.474   7.920  1.00  0.00     0.047 A 
ATOM     14  C   UNL     1      54.900   5.842   9.125  1.00  0.00     0.020 A 
ATOM     15  C   UNL     1      54.409   7.506   7.434  1.00  0.00     0.119 A 
ATOM     16  C   UNL     1      53.287   7.915   8.167  1.00  0.00     0.093 A 
ATOM     17  C   UNL     1      52.966   7.290   9.381  1.00  0.00     0.130 A 
BRANCH  15  18
ATOM     18  O   UNL     1      54.733   8.124   6.229  1.00  0.00    -0.508 OA
ATOM     19  H   UNL     1      55.475   7.772   5.636  1.00  0.00     0.293 HD
ENDBRANCH  15  18
BRANCH  17  20
ATOM     20  O   UNL     1      51.875   7.738  10.126  1.00  0.00    -0.507 OA
ATOM     21  H   UNL     1      50.976   7.919   9.695  1.00  0.00     0.293 HD
ENDBRANCH  17  20
ENDBRANCH   1  12
BRANCH   2  22
ATOM     22  O   UNL     1      53.650   7.615  12.377  1.00  0.00    -0.502 OA
ATOM     23  H   UNL     1      53.087   8.240  12.941  1.00  0.00     0.293 HD
ENDBRANCH   2  22
BRANCH   6  24
ATOM     24  O   UNL     1      52.789   3.736  15.930  1.00  0.00    -0.507 OA
ATOM     25  H   UNL     1      53.438   3.367  16.610  1.00  0.00     0.293 HD
ENDBRANCH   6  24
BRANCH   8  26
ATOM     26  O   UNL     1      51.982   0.047  12.964  1.00  0.00    -0.508 OA
ATOM     27  H   UNL     1      51.019  -0.267  12.945  1.00  0.00     0.293 HD
ENDBRANCH   8  26
TORSDOF 6
ENDMDL
