MODEL 1
REMARK VINA RESULT:    -4.726      0.000      0.000
REMARK INTER + INTRA:          -6.022
REMARK INTER:                  -5.693
REMARK INTRA:                  -0.329
REMARK UNBOUND:                -0.329
REMARK SMILES O=c1c(O)c(-c2ccc(O)cc2O)oc2cc(O)cc(O)c12
REMARK SMILES IDX 5 1 3 2 2 3 1 4 22 5 20 6 19 7 17 8 16 9 15 10 14 11 6 12
REMARK SMILES IDX 8 13 7 14 9 15 11 16 12 17 10 18 13 20 4 22 21 24 18 26
REMARK H PARENT 10 19 13 21 4 23 21 25 18 27
REMARK Flexibility Score: inf
ROOT
ATOM      1  C   UNL     1      19.158  25.268  52.970  1.00  0.00     0.184 A 
ATOM      2  C   UNL     1      17.765  25.263  53.131  1.00  0.00     0.208 A 
ATOM      3  C   UNL     1      17.139  26.389  53.687  1.00  0.00     0.238 A 
ATOM      4  O   UNL     1      15.883  26.408  53.760  1.00  0.00    -0.285 OA
ATOM      5  C   UNL     1      17.922  27.485  54.126  1.00  0.00     0.111 A 
ATOM      6  C   UNL     1      17.400  28.661  54.745  1.00  0.00     0.134 A 
ATOM      7  C   UNL     1      18.261  29.726  55.041  1.00  0.00     0.093 A 
ATOM      8  C   UNL     1      19.633  29.632  54.800  1.00  0.00     0.123 A 
ATOM      9  C   UNL     1      20.160  28.468  54.248  1.00  0.00     0.094 A 
ATOM     10  C   UNL     1      19.323  27.404  53.906  1.00  0.00     0.146 A 
ATOM     11  O   UNL     1      19.866  26.320  53.361  1.00  0.00    -0.451 OA
ENDROOT
BRANCH   1  12
ATOM     12  C   UNL     1      19.877  24.117  52.386  1.00  0.00     0.063 A 
ATOM     13  C   UNL     1      21.044  23.143  50.488  1.00  0.00     0.047 A 
ATOM     14  C   UNL     1      20.366  24.215  51.073  1.00  0.00     0.020 A 
ATOM     15  C   UNL     1      21.232  21.957  51.201  1.00  0.00     0.119 A 
ATOM     16  C   UNL     1      20.728  21.840  52.503  1.00  0.00     0.093 A 
ATOM     17  C   UNL     1      20.040  22.910  53.095  1.00  0.00     0.130 A 
BRANCH  15  18
ATOM     18  O   UNL     1      21.916  20.899  50.606  1.00  0.00    -0.508 OA
ATOM     19  H   UNL     1      22.390  20.196  51.161  1.00  0.00     0.293 HD
ENDBRANCH  15  18
BRANCH  17  20
ATOM     20  O   UNL     1      19.501  22.764  54.374  1.00  0.00    -0.507 OA
ATOM     21  H   UNL     1      19.457  21.862  54.833  1.00  0.00     0.293 HD
ENDBRANCH  17  20
ENDBRANCH   1  12
BRANCH   2  22
ATOM     22  O   UNL     1      17.021  24.140  52.756  1.00  0.00    -0.502 OA
ATOM     23  H   UNL     1      17.217  23.617  51.911  1.00  0.00     0.293 HD
ENDBRANCH   2  22
BRANCH   6  24
ATOM     24  O   UNL     1      16.060  28.826  55.110  1.00  0.00    -0.507 OA
ATOM     25  H   UNL     1      15.656  28.514  55.979  1.00  0.00     0.293 HD
ENDBRANCH   6  24
BRANCH   8  26
ATOM     26  O   UNL     1      20.484  30.690  55.115  1.00  0.00    -0.508 OA
ATOM     27  H   UNL     1      21.484  30.555  55.209  1.00  0.00     0.293 HD
ENDBRANCH   8  26
TORSDOF 6
ENDMDL
MODEL 2
REMARK VINA RESULT:    -4.455      1.724      7.036
REMARK INTER + INTRA:          -5.697
REMARK INTER:                  -5.804
REMARK INTRA:                   0.108
REMARK UNBOUND:                -0.329
REMARK SMILES O=c1c(O)c(-c2ccc(O)cc2O)oc2cc(O)cc(O)c12
REMARK SMILES IDX 5 1 3 2 2 3 1 4 22 5 20 6 19 7 17 8 16 9 15 10 14 11 6 12
REMARK SMILES IDX 8 13 7 14 9 15 11 16 12 17 10 18 13 20 4 22 21 24 18 26
REMARK H PARENT 10 19 13 21 4 23 21 25 18 27
REMARK Flexibility Score: inf
ROOT
ATOM      1  C   UNL     1      18.625  26.575  53.396  1.00  0.00     0.184 A 
ATOM      2  C   UNL     1      20.009  26.586  53.170  1.00  0.00     0.208 A 
ATOM      3  C   UNL     1      20.642  25.403  52.760  1.00  0.00     0.238 A 
ATOM      4  O   UNL     1      21.869  25.438  52.488  1.00  0.00    -0.285 OA
ATOM      5  C   UNL     1      19.889  24.209  52.635  1.00  0.00     0.111 A 
ATOM      6  C   UNL     1      20.432  22.940  52.269  1.00  0.00     0.134 A 
ATOM      7  C   UNL     1      19.573  21.851  52.072  1.00  0.00     0.093 A 
ATOM      8  C   UNL     1      18.199  21.969  52.292  1.00  0.00     0.123 A 
ATOM      9  C   UNL     1      17.666  23.188  52.703  1.00  0.00     0.094 A 
ATOM     10  C   UNL     1      18.491  24.302  52.869  1.00  0.00     0.146 A 
ATOM     11  O   UNL     1      17.937  25.451  53.242  1.00  0.00    -0.451 OA
ENDROOT
BRANCH   1  12
ATOM     12  C   UNL     1      17.897  27.789  53.823  1.00  0.00     0.063 A 
ATOM     13  C   UNL     1      17.876  29.858  55.098  1.00  0.00     0.047 A 
ATOM     14  C   UNL     1      18.538  28.704  54.671  1.00  0.00     0.020 A 
ATOM     15  C   UNL     1      16.562  30.104  54.695  1.00  0.00     0.119 A 
ATOM     16  C   UNL     1      15.904  29.185  53.867  1.00  0.00     0.093 A 
ATOM     17  C   UNL     1      16.560  28.021  53.439  1.00  0.00     0.130 A 
BRANCH  15  18
ATOM     18  O   UNL     1      15.917  31.261  55.125  1.00  0.00    -0.508 OA
ATOM     19  H   UNL     1      15.404  31.852  54.481  1.00  0.00     0.293 HD
ENDBRANCH  15  18
BRANCH  17  20
ATOM     20  O   UNL     1      15.878  27.090  52.655  1.00  0.00    -0.507 OA
ATOM     21  H   UNL     1      16.046  26.095  52.743  1.00  0.00     0.293 HD
ENDBRANCH  17  20
ENDBRANCH   1  12
BRANCH   2  22
ATOM     22  O   UNL     1      20.741  27.760  53.371  1.00  0.00    -0.502 OA
ATOM     23  H   UNL     1      21.552  27.798  53.975  1.00  0.00     0.293 HD
ENDBRANCH   2  22
BRANCH   6  24
ATOM     24  O   UNL     1      21.799  22.690  52.110  1.00  0.00    -0.507 OA
ATOM     25  H   UNL     1      22.452  22.549  52.864  1.00  0.00     0.293 HD
ENDBRANCH   6  24
BRANCH   8  26
ATOM     26  O   UNL     1      17.355  20.875  52.111  1.00  0.00    -0.508 OA
ATOM     27  H   UNL     1      16.612  20.666  52.768  1.00  0.00     0.293 HD
ENDBRANCH   8  26
TORSDOF 6
ENDMDL
MODEL 3
REMARK VINA RESULT:    -3.968      1.570      6.450
REMARK INTER + INTRA:          -5.110
REMARK INTER:                  -5.130
REMARK INTRA:                   0.021
REMARK UNBOUND:                -0.329
REMARK SMILES O=c1c(O)c(-c2ccc(O)cc2O)oc2cc(O)cc(O)c12
REMARK SMILES IDX 5 1 3 2 2 3 1 4 22 5 20 6 19 7 17 8 16 9 15 10 14 11 6 12
REMARK SMILES IDX 8 13 7 14 9 15 11 16 12 17 10 18 13 20 4 22 21 24 18 26
REMARK H PARENT 10 19 13 21 4 23 21 25 18 27
REMARK Flexibility Score: inf
ROOT
ATOM      1  C   UNL     1      18.299  25.597  53.106  1.00  0.00     0.184 A 
ATOM      2  C   UNL     1      17.162  24.826  52.823  1.00  0.00     0.208 A 
ATOM      3  C   UNL     1      17.328  23.531  52.309  1.00  0.00     0.238 A 
ATOM      4  O   UNL     1      16.307  22.818  52.128  1.00  0.00    -0.285 OA
ATOM      5  C   UNL     1      18.630  23.045  52.031  1.00  0.00     0.111 A 
ATOM      6  C   UNL     1      18.916  21.765  51.468  1.00  0.00     0.134 A 
ATOM      7  C   UNL     1      20.247  21.349  51.337  1.00  0.00     0.093 A 
ATOM      8  C   UNL     1      21.303  22.193  51.689  1.00  0.00     0.123 A 
ATOM      9  C   UNL     1      21.036  23.465  52.188  1.00  0.00     0.094 A 
ATOM     10  C   UNL     1      19.719  23.893  52.367  1.00  0.00     0.146 A 
ATOM     11  O   UNL     1      19.509  25.106  52.866  1.00  0.00    -0.451 OA
ENDROOT
BRANCH   1  12
ATOM     12  C   UNL     1      18.194  26.965  53.656  1.00  0.00     0.063 A 
ATOM     13  C   UNL     1      17.050  29.109  53.686  1.00  0.00     0.047 A 
ATOM     14  C   UNL     1      17.172  27.808  53.192  1.00  0.00     0.020 A 
ATOM     15  C   UNL     1      17.952  29.588  54.638  1.00  0.00     0.119 A 
ATOM     16  C   UNL     1      18.991  28.763  55.090  1.00  0.00     0.093 A 
ATOM     17  C   UNL     1      19.125  27.457  54.594  1.00  0.00     0.130 A 
BRANCH  15  18
ATOM     18  O   UNL     1      17.814  30.886  55.125  1.00  0.00    -0.508 OA
ATOM     19  H   UNL     1      17.114  31.119  55.820  1.00  0.00     0.293 HD
ENDBRANCH  15  18
BRANCH  17  20
ATOM     20  O   UNL     1      20.191  26.662  55.016  1.00  0.00    -0.507 OA
ATOM     21  H   UNL     1      20.101  26.022  55.796  1.00  0.00     0.293 HD
ENDBRANCH  17  20
ENDBRANCH   1  12
BRANCH   2  22
ATOM     22  O   UNL     1      15.887  25.356  53.039  1.00  0.00    -0.502 OA
ATOM     23  H   UNL     1      15.074  24.771  53.190  1.00  0.00     0.293 HD
ENDBRANCH   2  22
BRANCH   6  24
ATOM     24  O   UNL     1      17.940  20.878  51.001  1.00  0.00    -0.507 OA
ATOM     25  H   UNL     1      17.883  20.525  50.059  1.00  0.00     0.293 HD
ENDBRANCH   6  24
BRANCH   8  26
ATOM     26  O   UNL     1      22.625  21.778  51.538  1.00  0.00    -0.508 OA
ATOM     27  H   UNL     1      23.360  22.430  51.289  1.00  0.00     0.293 HD
ENDBRANCH   8  26
TORSDOF 6
ENDMDL
MODEL 4
REMARK VINA RESULT:    -3.282     18.537     21.797
REMARK INTER + INTRA:          -4.283
REMARK INTER:                  -4.893
REMARK INTRA:                   0.610
REMARK UNBOUND:                -0.329
REMARK SMILES O=c1c(O)c(-c2ccc(O)cc2O)oc2cc(O)cc(O)c12
REMARK SMILES IDX 5 1 3 2 2 3 1 4 22 5 20 6 19 7 17 8 16 9 15 10 14 11 6 12
REMARK SMILES IDX 8 13 7 14 9 15 11 16 12 17 10 18 13 20 4 22 21 24 18 26
REMARK H PARENT 10 19 13 21 4 23 21 25 18 27
REMARK Flexibility Score: inf
ROOT
ATOM      1  C   UNL     1      33.477  25.074  37.539  1.00  0.00     0.184 A 
ATOM      2  C   UNL     1      34.698  24.453  37.244  1.00  0.00     0.208 A 
ATOM      3  C   UNL     1      35.042  23.271  37.918  1.00  0.00     0.238 A 
ATOM      4  O   UNL     1      36.103  22.678  37.596  1.00  0.00    -0.285 OA
ATOM      5  C   UNL     1      34.182  22.757  38.921  1.00  0.00     0.111 A 
ATOM      6  C   UNL     1      34.449  21.592  39.701  1.00  0.00     0.134 A 
ATOM      7  C   UNL     1      33.476  21.117  40.590  1.00  0.00     0.093 A 
ATOM      8  C   UNL     1      32.273  21.803  40.775  1.00  0.00     0.123 A 
ATOM      9  C   UNL     1      32.026  22.972  40.060  1.00  0.00     0.094 A 
ATOM     10  C   UNL     1      32.960  23.449  39.137  1.00  0.00     0.146 A 
ATOM     11  O   UNL     1      32.674  24.556  38.461  1.00  0.00    -0.451 OA
ENDROOT
BRANCH   1  12
ATOM     12  C   UNL     1      33.052  26.317  36.860  1.00  0.00     0.063 A 
ATOM     13  C   UNL     1      33.515  28.049  35.219  1.00  0.00     0.047 A 
ATOM     14  C   UNL     1      33.884  26.872  35.875  1.00  0.00     0.020 A 
ATOM     15  C   UNL     1      32.320  28.692  35.546  1.00  0.00     0.119 A 
ATOM     16  C   UNL     1      31.493  28.159  36.545  1.00  0.00     0.093 A 
ATOM     17  C   UNL     1      31.859  26.981  37.213  1.00  0.00     0.130 A 
BRANCH  15  18
ATOM     18  O   UNL     1      31.963  29.862  34.879  1.00  0.00    -0.508 OA
ATOM     19  H   UNL     1      31.878  29.891  33.870  1.00  0.00     0.293 HD
ENDBRANCH  15  18
BRANCH  17  20
ATOM     20  O   UNL     1      31.052  26.487  38.238  1.00  0.00    -0.507 OA
ATOM     21  H   UNL     1      30.058  26.340  38.108  1.00  0.00     0.293 HD
ENDBRANCH  17  20
ENDBRANCH   1  12
BRANCH   2  22
ATOM     22  O   UNL     1      35.562  25.019  36.302  1.00  0.00    -0.502 OA
ATOM     23  H   UNL     1      36.496  24.663  36.138  1.00  0.00     0.293 HD
ENDBRANCH   2  22
BRANCH   6  24
ATOM     24  O   UNL     1      35.652  20.880  39.660  1.00  0.00    -0.507 OA
ATOM     25  H   UNL     1      35.741  19.910  39.402  1.00  0.00     0.293 HD
ENDBRANCH   6  24
BRANCH   8  26
ATOM     26  O   UNL     1      31.318  21.334  41.675  1.00  0.00    -0.508 OA
ATOM     27  H   UNL     1      31.334  21.602  42.652  1.00  0.00     0.293 HD
ENDBRANCH   8  26
TORSDOF 6
ENDMDL
MODEL 5
REMARK VINA RESULT:    -3.192     19.535     22.110
REMARK INTER + INTRA:          -4.175
REMARK INTER:                  -4.096
REMARK INTRA:                  -0.079
REMARK UNBOUND:                -0.329
REMARK SMILES O=c1c(O)c(-c2ccc(O)cc2O)oc2cc(O)cc(O)c12
REMARK SMILES IDX 5 1 3 2 2 3 1 4 22 5 20 6 19 7 17 8 16 9 15 10 14 11 6 12
REMARK SMILES IDX 8 13 7 14 9 15 11 16 12 17 10 18 13 20 4 22 21 24 18 26
REMARK H PARENT 10 19 13 21 4 23 21 25 18 27
REMARK Flexibility Score: inf
ROOT
ATOM      1  C   UNL     1      33.735  25.914  37.419  1.00  0.00     0.184 A 
ATOM      2  C   UNL     1      32.341  25.788  37.502  1.00  0.00     0.208 A 
ATOM      3  C   UNL     1      31.795  24.653  38.121  1.00  0.00     0.238 A 
ATOM      4  O   UNL     1      30.547  24.582  38.258  1.00  0.00    -0.285 OA
ATOM      5  C   UNL     1      32.652  23.631  38.599  1.00  0.00     0.111 A 
ATOM      6  C   UNL     1      32.209  22.416  39.204  1.00  0.00     0.134 A 
ATOM      7  C   UNL     1      33.151  21.526  39.736  1.00  0.00     0.093 A 
ATOM      8  C   UNL     1      34.521  21.776  39.628  1.00  0.00     0.123 A 
ATOM      9  C   UNL     1      34.965  22.932  38.990  1.00  0.00     0.094 A 
ATOM     10  C   UNL     1      34.050  23.857  38.484  1.00  0.00     0.146 A 
ATOM     11  O   UNL     1      34.517  24.957  37.903  1.00  0.00    -0.451 OA
ENDROOT
BRANCH   1  12
ATOM     12  C   UNL     1      34.374  27.087  36.786  1.00  0.00     0.063 A 
ATOM     13  C   UNL     1      34.449  28.668  34.941  1.00  0.00     0.047 A 
ATOM     14  C   UNL     1      33.864  27.565  35.569  1.00  0.00     0.020 A 
ATOM     15  C   UNL     1      35.556  29.298  35.514  1.00  0.00     0.119 A 
ATOM     16  C   UNL     1      36.087  28.814  36.718  1.00  0.00     0.093 A 
ATOM     17  C   UNL     1      35.510  27.704  37.351  1.00  0.00     0.130 A 
BRANCH  15  18
ATOM     18  O   UNL     1      36.124  30.400  34.879  1.00  0.00    -0.508 OA
ATOM     19  H   UNL     1      35.562  31.189  34.583  1.00  0.00     0.293 HD
ENDBRANCH  15  18
BRANCH  17  20
ATOM     20  O   UNL     1      36.076  27.202  38.523  1.00  0.00    -0.507 OA
ATOM     21  H   UNL     1      35.775  26.323  38.925  1.00  0.00     0.293 HD
ENDBRANCH  17  20
ENDBRANCH   1  12
BRANCH   2  22
ATOM     22  O   UNL     1      31.516  26.776  36.958  1.00  0.00    -0.502 OA
ATOM     23  H   UNL     1      31.704  27.765  37.073  1.00  0.00     0.293 HD
ENDBRANCH   2  22
BRANCH   6  24
ATOM     24  O   UNL     1      30.869  22.025  39.287  1.00  0.00    -0.507 OA
ATOM     25  H   UNL     1      30.550  21.119  39.591  1.00  0.00     0.293 HD
ENDBRANCH   6  24
BRANCH   8  26
ATOM     26  O   UNL     1      35.451  20.876  40.144  1.00  0.00    -0.508 OA
ATOM     27  H   UNL     1      36.406  20.849  39.807  1.00  0.00     0.293 HD
ENDBRANCH   8  26
TORSDOF 6
ENDMDL
MODEL 6
REMARK VINA RESULT:    -2.891      1.311      3.018
REMARK INTER + INTRA:          -3.813
REMARK INTER:                  -3.675
REMARK INTRA:                  -0.137
REMARK UNBOUND:                -0.329
REMARK SMILES O=c1c(O)c(-c2ccc(O)cc2O)oc2cc(O)cc(O)c12
REMARK SMILES IDX 5 1 3 2 2 3 1 4 22 5 20 6 19 7 17 8 16 9 15 10 14 11 6 12
REMARK SMILES IDX 8 13 7 14 9 15 11 16 12 17 10 18 13 20 4 22 21 24 18 26
REMARK H PARENT 10 19 13 21 4 23 21 25 18 27
REMARK Flexibility Score: inf
ROOT
ATOM      1  C   UNL     1      20.231  26.045  52.618  1.00  0.00     0.184 A 
ATOM      2  C   UNL     1      21.346  26.845  52.909  1.00  0.00     0.208 A 
ATOM      3  C   UNL     1      21.159  28.041  53.618  1.00  0.00     0.238 A 
ATOM      4  O   UNL     1      22.170  28.716  53.941  1.00  0.00    -0.285 OA
ATOM      5  C   UNL     1      19.850  28.450  53.977  1.00  0.00     0.111 A 
ATOM      6  C   UNL     1      19.536  29.665  54.658  1.00  0.00     0.134 A 
ATOM      7  C   UNL     1      18.216  29.913  55.056  1.00  0.00     0.093 A 
ATOM      8  C   UNL     1      17.189  29.021  54.741  1.00  0.00     0.123 A 
ATOM      9  C   UNL     1      17.476  27.859  54.028  1.00  0.00     0.094 A 
ATOM     10  C   UNL     1      18.788  27.565  53.652  1.00  0.00     0.146 A 
ATOM     11  O   UNL     1      19.019  26.435  52.992  1.00  0.00    -0.451 OA
ENDROOT
BRANCH   1  12
ATOM     12  C   UNL     1      20.361  24.770  51.881  1.00  0.00     0.063 A 
ATOM     13  C   UNL     1      21.261  23.552  49.980  1.00  0.00     0.047 A 
ATOM     14  C   UNL     1      21.125  24.739  50.704  1.00  0.00     0.020 A 
ATOM     15  C   UNL     1      20.627  22.386  50.415  1.00  0.00     0.119 A 
ATOM     16  C   UNL     1      19.842  22.412  51.576  1.00  0.00     0.093 A 
ATOM     17  C   UNL     1      19.695  23.601  52.304  1.00  0.00     0.130 A 
BRANCH  15  18
ATOM     18  O   UNL     1      20.777  21.209  49.685  1.00  0.00    -0.508 OA
ATOM     19  H   UNL     1      20.639  21.186  48.682  1.00  0.00     0.293 HD
ENDBRANCH  15  18
BRANCH  17  20
ATOM     20  O   UNL     1      18.873  23.626  53.431  1.00  0.00    -0.507 OA
ATOM     21  H   UNL     1      17.927  23.265  53.407  1.00  0.00     0.293 HD
ENDBRANCH  17  20
ENDBRANCH   1  12
BRANCH   2  22
ATOM     22  O   UNL     1      22.618  26.455  52.481  1.00  0.00    -0.502 OA
ATOM     23  H   UNL     1      23.253  27.092  52.016  1.00  0.00     0.293 HD
ENDBRANCH   2  22
BRANCH   6  24
ATOM     24  O   UNL     1      20.470  30.666  54.945  1.00  0.00    -0.507 OA
ATOM     25  H   UNL     1      20.408  31.621  54.630  1.00  0.00     0.293 HD
ENDBRANCH   6  24
BRANCH   8  26
ATOM     26  O   UNL     1      15.876  29.284  55.125  1.00  0.00    -0.508 OA
ATOM     27  H   UNL     1      15.334  30.021  54.688  1.00  0.00     0.293 HD
ENDBRANCH   8  26
TORSDOF 6
ENDMDL
MODEL 7
REMARK VINA RESULT:    -2.174     17.968     21.417
REMARK INTER + INTRA:          -2.949
REMARK INTER:                  -2.544
REMARK INTRA:                  -0.405
REMARK UNBOUND:                -0.329
REMARK SMILES O=c1c(O)c(-c2ccc(O)cc2O)oc2cc(O)cc(O)c12
REMARK SMILES IDX 5 1 3 2 2 3 1 4 22 5 20 6 19 7 17 8 16 9 15 10 14 11 6 12
REMARK SMILES IDX 8 13 7 14 9 15 11 16 12 17 10 18 13 20 4 22 21 24 18 26
REMARK H PARENT 10 19 13 21 4 23 21 25 18 27
REMARK Flexibility Score: inf
ROOT
ATOM      1  C   UNL     1      33.010  24.723  38.044  1.00  0.00     0.184 A 
ATOM      2  C   UNL     1      34.357  24.636  37.666  1.00  0.00     0.208 A 
ATOM      3  C   UNL     1      34.898  25.632  36.838  1.00  0.00     0.238 A 
ATOM      4  O   UNL     1      36.125  25.588  36.563  1.00  0.00    -0.285 OA
ATOM      5  C   UNL     1      34.067  26.672  36.353  1.00  0.00     0.111 A 
ATOM      6  C   UNL     1      34.495  27.710  35.472  1.00  0.00     0.134 A 
ATOM      7  C   UNL     1      33.612  28.747  35.144  1.00  0.00     0.093 A 
ATOM      8  C   UNL     1      32.296  28.748  35.613  1.00  0.00     0.123 A 
ATOM      9  C   UNL     1      31.852  27.710  36.429  1.00  0.00     0.094 A 
ATOM     10  C   UNL     1      32.720  26.683  36.805  1.00  0.00     0.146 A 
ATOM     11  O   UNL     1      32.260  25.725  37.602  1.00  0.00    -0.451 OA
ENDROOT
BRANCH   1  12
ATOM     12  C   UNL     1      32.381  23.711  38.920  1.00  0.00     0.063 A 
ATOM     13  C   UNL     1      31.816  22.971  41.165  1.00  0.00     0.047 A 
ATOM     14  C   UNL     1      32.395  23.911  40.309  1.00  0.00     0.020 A 
ATOM     15  C   UNL     1      31.228  21.816  40.646  1.00  0.00     0.119 A 
ATOM     16  C   UNL     1      31.230  21.595  39.262  1.00  0.00     0.093 A 
ATOM     17  C   UNL     1      31.815  22.531  38.396  1.00  0.00     0.130 A 
BRANCH  15  18
ATOM     18  O   UNL     1      30.650  20.891  41.512  1.00  0.00    -0.508 OA
ATOM     19  H   UNL     1      29.675  20.954  41.781  1.00  0.00     0.293 HD
ENDBRANCH  15  18
BRANCH  17  20
ATOM     20  O   UNL     1      31.852  22.277  37.025  1.00  0.00    -0.507 OA
ATOM     21  H   UNL     1      31.386  22.882  36.359  1.00  0.00     0.293 HD
ENDBRANCH  17  20
ENDBRANCH   1  12
BRANCH   2  22
ATOM     22  O   UNL     1      35.138  23.560  38.099  1.00  0.00    -0.502 OA
ATOM     23  H   UNL     1      34.891  23.001  38.906  1.00  0.00     0.293 HD
ENDBRANCH   2  22
BRANCH   6  24
ATOM     24  O   UNL     1      35.759  27.760  34.875  1.00  0.00    -0.507 OA
ATOM     25  H   UNL     1      36.361  28.568  34.863  1.00  0.00     0.293 HD
ENDBRANCH   6  24
BRANCH   8  26
ATOM     26  O   UNL     1      31.419  29.774  35.267  1.00  0.00    -0.508 OA
ATOM     27  H   UNL     1      30.415  29.635  35.267  1.00  0.00     0.293 HD
ENDBRANCH   8  26
TORSDOF 6
ENDMDL
MODEL 8
REMARK VINA RESULT:    -1.949      2.420      3.146
REMARK INTER + INTRA:          -2.677
REMARK INTER:                  -2.303
REMARK INTRA:                  -0.374
REMARK UNBOUND:                -0.329
REMARK SMILES O=c1c(O)c(-c2ccc(O)cc2O)oc2cc(O)cc(O)c12
REMARK SMILES IDX 5 1 3 2 2 3 1 4 22 5 20 6 19 7 17 8 16 9 15 10 14 11 6 12
REMARK SMILES IDX 8 13 7 14 9 15 11 16 12 17 10 18 13 20 4 22 21 24 18 26
REMARK H PARENT 10 19 13 21 4 23 21 25 18 27
REMARK Flexibility Score: inf
ROOT
ATOM      1  C   UNL     1      18.077  25.948  53.327  1.00  0.00     0.184 A 
ATOM      2  C   UNL     1      17.263  26.953  53.869  1.00  0.00     0.208 A 
ATOM      3  C   UNL     1      17.843  28.180  54.225  1.00  0.00     0.238 A 
ATOM      4  O   UNL     1      17.096  29.103  54.641  1.00  0.00    -0.285 OA
ATOM      5  C   UNL     1      19.241  28.366  54.086  1.00  0.00     0.111 A 
ATOM      6  C   UNL     1      19.944  29.551  54.456  1.00  0.00     0.134 A 
ATOM      7  C   UNL     1      21.312  29.660  54.173  1.00  0.00     0.093 A 
ATOM      8  C   UNL     1      22.014  28.602  53.593  1.00  0.00     0.123 A 
ATOM      9  C   UNL     1      21.349  27.420  53.279  1.00  0.00     0.094 A 
ATOM     10  C   UNL     1      19.978  27.295  53.513  1.00  0.00     0.146 A 
ATOM     11  O   UNL     1      19.379  26.157  53.178  1.00  0.00    -0.451 OA
ENDROOT
BRANCH   1  12
ATOM     12  C   UNL     1      17.528  24.635  52.925  1.00  0.00     0.063 A 
ATOM     13  C   UNL     1      16.074  23.353  51.458  1.00  0.00     0.047 A 
ATOM     14  C   UNL     1      16.617  24.577  51.859  1.00  0.00     0.020 A 
ATOM     15  C   UNL     1      16.424  22.177  52.124  1.00  0.00     0.119 A 
ATOM     16  C   UNL     1      17.315  22.227  53.204  1.00  0.00     0.093 A 
ATOM     17  C   UNL     1      17.859  23.452  53.617  1.00  0.00     0.130 A 
BRANCH  15  18
ATOM     18  O   UNL     1      15.879  20.964  51.709  1.00  0.00    -0.508 OA
ATOM     19  H   UNL     1      15.212  20.459  52.281  1.00  0.00     0.293 HD
ENDBRANCH  15  18
BRANCH  17  20
ATOM     20  O   UNL     1      18.707  23.496  54.725  1.00  0.00    -0.507 OA
ATOM     21  H   UNL     1      19.693  23.278  54.648  1.00  0.00     0.293 HD
ENDBRANCH  17  20
ENDBRANCH   1  12
BRANCH   2  22
ATOM     22  O   UNL     1      15.899  26.719  54.064  1.00  0.00    -0.502 OA
ATOM     23  H   UNL     1      15.196  27.427  53.887  1.00  0.00     0.293 HD
ENDBRANCH   2  22
BRANCH   6  24
ATOM     24  O   UNL     1      19.359  30.634  55.120  1.00  0.00    -0.507 OA
ATOM     25  H   UNL     1      19.726  31.573  55.130  1.00  0.00     0.293 HD
ENDBRANCH   6  24
BRANCH   8  26
ATOM     26  O   UNL     1      23.378  28.713  53.331  1.00  0.00    -0.508 OA
ATOM     27  H   UNL     1      23.949  29.417  53.785  1.00  0.00     0.293 HD
ENDBRANCH   8  26
TORSDOF 6
ENDMDL
