MODEL 1
REMARK VINA RESULT:    11.995      0.000      0.000
REMARK INTER + INTRA:          30.162
REMARK INTER:                  31.629
REMARK INTRA:                  -1.467
REMARK UNBOUND:                -1.467
REMARK SMILES CCCCCCCCCCCCCCCCCCCCCCCCCCCCCC(=O)[O-]
REMARK SMILES IDX 16 1 17 2 18 3 19 4 20 5 21 6 22 7 23 8 24 9 25 10 26 11
REMARK SMILES IDX 27 12 28 13 29 14 30 15 31 16 32 17 15 18 14 19 13 20 12 21
REMARK SMILES IDX 11 22 10 23 9 24 8 25 7 26 6 27 5 28 4 29 3 30 2 31 1 32
REMARK H PARENT
REMARK Flexibility Score: inf
ROOT
ATOM      1  C   UNL     1       6.932  29.857  18.326  1.00  0.00     0.000 C 
ENDROOT
BRANCH   1   2
ATOM      2  C   UNL     1       8.052  30.266  19.307  1.00  0.00     0.000 C 
BRANCH   2   3
ATOM      3  C   UNL     1       9.432  30.298  18.628  1.00  0.00     0.000 C 
BRANCH   3   4
ATOM      4  C   UNL     1      10.524  30.909  19.528  1.00  0.00     0.000 C 
BRANCH   4   5
ATOM      5  C   UNL     1      11.932  30.931  18.904  1.00  0.00     0.000 C 
BRANCH   5   6
ATOM      6  C   UNL     1      13.044  31.125  19.952  1.00  0.00     0.000 C 
BRANCH   6   7
ATOM      7  C   UNL     1      14.188  30.109  19.793  1.00  0.00     0.000 C 
BRANCH   7   8
ATOM      8  C   UNL     1      15.122  30.073  21.012  1.00  0.00     0.000 C 
BRANCH   8   9
ATOM      9  C   UNL     1      15.023  28.725  21.742  1.00  0.00     0.000 C 
BRANCH   9  10
ATOM     10  C   UNL     1      13.571  28.251  21.904  1.00  0.00     0.000 C 
BRANCH  10  11
ATOM     11  C   UNL     1      12.706  29.250  22.687  1.00  0.00     0.000 C 
BRANCH  11  12
ATOM     12  C   UNL     1      13.284  29.492  24.088  1.00  0.00     0.000 C 
BRANCH  12  13
ATOM     13  C   UNL     1      13.335  28.190  24.894  1.00  0.00     0.006 C 
BRANCH  13  14
ATOM     14  C   UNL     1      14.500  28.204  25.890  1.00  0.00     0.053 C 
BRANCH  14  15
ATOM     15  C   UNL     1      14.204  29.109  27.045  1.00  0.00     0.041 C 
ATOM     16  O   UNL     1      15.118  29.818  27.547  1.00  0.00    -0.550 OA
ATOM     17  O   UNL     1      12.921  29.162  27.578  1.00  0.00    -0.550 OA
ENDBRANCH  14  15
ENDBRANCH  13  14
ENDBRANCH  12  13
ENDBRANCH  11  12
ENDBRANCH  10  11
ENDBRANCH   9  10
ENDBRANCH   8   9
ENDBRANCH   7   8
ENDBRANCH   6   7
ENDBRANCH   5   6
ENDBRANCH   4   5
ENDBRANCH   3   4
ENDBRANCH   2   3
ENDBRANCH   1   2
BRANCH   1  18
ATOM     18  C   UNL     1       6.074  28.681  18.819  1.00  0.00     0.000 C 
BRANCH  18  19
ATOM     19  C   UNL     1       4.797  29.135  19.548  1.00  0.00     0.000 C 
BRANCH  19  20
ATOM     20  C   UNL     1       3.515  28.597  18.874  1.00  0.00     0.000 C 
BRANCH  20  21
ATOM     21  C   UNL     1       3.634  28.443  17.348  1.00  0.00     0.000 C 
BRANCH  21  22
ATOM     22  C   UNL     1       2.268  28.337  16.649  1.00  0.00     0.000 C 
BRANCH  22  23
ATOM     23  C   UNL     1       2.086  26.995  15.918  1.00  0.00     0.000 C 
BRANCH  23  24
ATOM     24  C   UNL     1       3.351  26.121  15.963  1.00  0.00    -0.000 C 
BRANCH  24  25
ATOM     25  C   UNL     1       4.097  26.078  14.617  1.00  0.00    -0.000 C 
BRANCH  25  26
ATOM     26  C   UNL     1       5.143  24.955  14.497  1.00  0.00    -0.000 C 
BRANCH  26  27
ATOM     27  C   UNL     1       5.332  24.466  13.051  1.00  0.00    -0.000 C 
BRANCH  27  28
ATOM     28  C   UNL     1       5.967  25.532  12.144  1.00  0.00    -0.000 C 
BRANCH  28  29
ATOM     29  C   UNL     1       5.340  25.566  10.741  1.00  0.00    -0.000 C 
BRANCH  29  30
ATOM     30  C   UNL     1       4.370  26.745  10.547  1.00  0.00    -0.000 C 
BRANCH  30  31
ATOM     31  C   UNL     1       4.452  27.389   9.146  1.00  0.00    -0.003 C 
ATOM     32  C   UNL     1       5.869  27.364   8.572  1.00  0.00     0.004 C 
ENDBRANCH  30  31
ENDBRANCH  29  30
ENDBRANCH  28  29
ENDBRANCH  27  28
ENDBRANCH  26  27
ENDBRANCH  25  26
ENDBRANCH  24  25
ENDBRANCH  23  24
ENDBRANCH  22  23
ENDBRANCH  21  22
ENDBRANCH  20  21
ENDBRANCH  19  20
ENDBRANCH  18  19
ENDBRANCH   1  18
TORSDOF 28
ENDMDL
MODEL 2
REMARK VINA RESULT:    12.768      1.895      2.300
REMARK INTER + INTRA:          32.201
REMARK INTER:                  33.474
REMARK INTRA:                  -1.274
REMARK UNBOUND:                -1.467
REMARK SMILES CCCCCCCCCCCCCCCCCCCCCCCCCCCCCC(=O)[O-]
REMARK SMILES IDX 16 1 17 2 18 3 19 4 20 5 21 6 22 7 23 8 24 9 25 10 26 11
REMARK SMILES IDX 27 12 28 13 29 14 30 15 31 16 32 17 15 18 14 19 13 20 12 21
REMARK SMILES IDX 11 22 10 23 9 24 8 25 7 26 6 27 5 28 4 29 3 30 2 31 1 32
REMARK H PARENT
REMARK Flexibility Score: inf
ROOT
ATOM      1  C   UNL     1       6.892  29.914  18.350  1.00  0.00     0.000 C 
ENDROOT
BRANCH   1   2
ATOM      2  C   UNL     1       8.020  30.161  19.375  1.00  0.00     0.000 C 
BRANCH   2   3
ATOM      3  C   UNL     1       9.369  29.594  18.898  1.00  0.00     0.000 C 
BRANCH   3   4
ATOM      4  C   UNL     1      10.476  30.664  18.841  1.00  0.00     0.000 C 
BRANCH   4   5
ATOM      5  C   UNL     1      11.908  30.101  18.761  1.00  0.00     0.000 C 
BRANCH   5   6
ATOM      6  C   UNL     1      12.948  31.026  19.420  1.00  0.00     0.000 C 
BRANCH   6   7
ATOM      7  C   UNL     1      13.774  30.310  20.502  1.00  0.00     0.000 C 
BRANCH   7   8
ATOM      8  C   UNL     1      13.440  30.794  21.921  1.00  0.00     0.000 C 
BRANCH   8   9
ATOM      9  C   UNL     1      13.882  29.766  22.973  1.00  0.00     0.000 C 
BRANCH   9  10
ATOM     10  C   UNL     1      14.019  30.382  24.374  1.00  0.00     0.000 C 
BRANCH  10  11
ATOM     11  C   UNL     1      14.486  29.364  25.425  1.00  0.00     0.000 C 
BRANCH  11  12
ATOM     12  C   UNL     1      13.688  28.059  25.313  1.00  0.00     0.000 C 
BRANCH  12  13
ATOM     13  C   UNL     1      14.581  26.842  25.581  1.00  0.00     0.006 C 
BRANCH  13  14
ATOM     14  C   UNL     1      14.126  25.632  24.757  1.00  0.00     0.053 C 
BRANCH  14  15
ATOM     15  C   UNL     1      14.278  24.366  25.540  1.00  0.00     0.041 C 
ATOM     16  O   UNL     1      15.121  23.498  25.186  1.00  0.00    -0.550 OA
ATOM     17  O   UNL     1      13.480  24.136  26.655  1.00  0.00    -0.550 OA
ENDBRANCH  14  15
ENDBRANCH  13  14
ENDBRANCH  12  13
ENDBRANCH  11  12
ENDBRANCH  10  11
ENDBRANCH   9  10
ENDBRANCH   8   9
ENDBRANCH   7   8
ENDBRANCH   6   7
ENDBRANCH   5   6
ENDBRANCH   4   5
ENDBRANCH   3   4
ENDBRANCH   2   3
ENDBRANCH   1   2
BRANCH   1  18
ATOM     18  C   UNL     1       5.853  28.877  18.808  1.00  0.00     0.000 C 
BRANCH  18  19
ATOM     19  C   UNL     1       4.460  29.488  19.042  1.00  0.00     0.000 C 
BRANCH  19  20
ATOM     20  C   UNL     1       3.333  28.627  18.429  1.00  0.00     0.000 C 
BRANCH  20  21
ATOM     21  C   UNL     1       3.571  28.251  16.955  1.00  0.00     0.000 C 
BRANCH  21  22
ATOM     22  C   UNL     1       2.372  27.525  16.323  1.00  0.00     0.000 C 
BRANCH  22  23
ATOM     23  C   UNL     1       2.796  26.284  15.518  1.00  0.00     0.000 C 
BRANCH  23  24
ATOM     24  C   UNL     1       4.214  26.413  14.935  1.00  0.00    -0.000 C 
BRANCH  24  25
ATOM     25  C   UNL     1       4.930  25.058  14.796  1.00  0.00    -0.000 C 
BRANCH  25  26
ATOM     26  C   UNL     1       5.430  24.737  13.376  1.00  0.00    -0.000 C 
BRANCH  26  27
ATOM     27  C   UNL     1       5.768  25.997  12.562  1.00  0.00    -0.000 C 
BRANCH  27  28
ATOM     28  C   UNL     1       5.912  25.710  11.059  1.00  0.00    -0.000 C 
BRANCH  28  29
ATOM     29  C   UNL     1       5.595  26.937  10.188  1.00  0.00    -0.000 C 
BRANCH  29  30
ATOM     30  C   UNL     1       4.506  26.660   9.137  1.00  0.00    -0.000 C 
BRANCH  30  31
ATOM     31  C   UNL     1       3.370  27.707   9.132  1.00  0.00    -0.003 C 
ATOM     32  C   UNL     1       3.837  29.075   8.636  1.00  0.00     0.004 C 
ENDBRANCH  30  31
ENDBRANCH  29  30
ENDBRANCH  28  29
ENDBRANCH  27  28
ENDBRANCH  26  27
ENDBRANCH  25  26
ENDBRANCH  24  25
ENDBRANCH  23  24
ENDBRANCH  22  23
ENDBRANCH  21  22
ENDBRANCH  20  21
ENDBRANCH  19  20
ENDBRANCH  18  19
ENDBRANCH   1  18
TORSDOF 28
ENDMDL
MODEL 3
REMARK VINA RESULT:    13.257      1.565      2.661
REMARK INTER + INTRA:          33.491
REMARK INTER:                  32.459
REMARK INTRA:                   1.032
REMARK UNBOUND:                -1.467
REMARK SMILES CCCCCCCCCCCCCCCCCCCCCCCCCCCCCC(=O)[O-]
REMARK SMILES IDX 16 1 17 2 18 3 19 4 20 5 21 6 22 7 23 8 24 9 25 10 26 11
REMARK SMILES IDX 27 12 28 13 29 14 30 15 31 16 32 17 15 18 14 19 13 20 12 21
REMARK SMILES IDX 11 22 10 23 9 24 8 25 7 26 6 27 5 28 4 29 3 30 2 31 1 32
REMARK H PARENT
REMARK Flexibility Score: inf
ROOT
ATOM      1  C   UNL     1       4.813  28.671  19.076  1.00  0.00     0.000 C 
ENDROOT
BRANCH   1   2
ATOM      2  C   UNL     1       5.846  29.809  19.218  1.00  0.00     0.000 C 
BRANCH   2   3
ATOM      3  C   UNL     1       7.287  29.274  19.302  1.00  0.00     0.000 C 
BRANCH   3   4
ATOM      4  C   UNL     1       8.318  30.246  18.697  1.00  0.00     0.000 C 
BRANCH   4   5
ATOM      5  C   UNL     1       9.739  30.116  19.278  1.00  0.00     0.000 C 
BRANCH   5   6
ATOM      6  C   UNL     1      10.768  30.986  18.532  1.00  0.00     0.000 C 
BRANCH   6   7
ATOM      7  C   UNL     1      12.093  31.125  19.302  1.00  0.00     0.000 C 
BRANCH   7   8
ATOM      8  C   UNL     1      12.546  29.805  19.944  1.00  0.00     0.000 C 
BRANCH   8   9
ATOM      9  C   UNL     1      13.691  30.042  20.941  1.00  0.00     0.000 C 
BRANCH   9  10
ATOM     10  C   UNL     1      14.534  28.779  21.176  1.00  0.00     0.000 C 
BRANCH  10  11
ATOM     11  C   UNL     1      14.564  28.355  22.653  1.00  0.00     0.000 C 
BRANCH  11  12
ATOM     12  C   UNL     1      14.749  29.573  23.567  1.00  0.00     0.000 C 
BRANCH  12  13
ATOM     13  C   UNL     1      14.045  29.363  24.912  1.00  0.00     0.006 C 
BRANCH  13  14
ATOM     14  C   UNL     1      13.099  28.159  24.856  1.00  0.00     0.053 C 
BRANCH  14  15
ATOM     15  C   UNL     1      13.869  26.879  24.758  1.00  0.00     0.041 C 
ATOM     16  O   UNL     1      15.117  26.902  24.584  1.00  0.00    -0.550 OA
ATOM     17  O   UNL     1      13.208  25.660  24.845  1.00  0.00    -0.550 OA
ENDBRANCH  14  15
ENDBRANCH  13  14
ENDBRANCH  12  13
ENDBRANCH  11  12
ENDBRANCH  10  11
ENDBRANCH   9  10
ENDBRANCH   8   9
ENDBRANCH   7   8
ENDBRANCH   6   7
ENDBRANCH   5   6
ENDBRANCH   4   5
ENDBRANCH   3   4
ENDBRANCH   2   3
ENDBRANCH   1   2
BRANCH   1  18
ATOM     18  C   UNL     1       3.357  29.161  19.005  1.00  0.00     0.000 C 
BRANCH  18  19
ATOM     19  C   UNL     1       2.699  28.887  17.641  1.00  0.00     0.000 C 
BRANCH  19  20
ATOM     20  C   UNL     1       2.786  27.399  17.236  1.00  0.00     0.000 C 
BRANCH  20  21
ATOM     21  C   UNL     1       2.437  27.135  15.760  1.00  0.00     0.000 C 
BRANCH  21  22
ATOM     22  C   UNL     1       2.856  25.733  15.288  1.00  0.00     0.000 C 
BRANCH  22  23
ATOM     23  C   UNL     1       4.380  25.526  15.350  1.00  0.00     0.000 C 
BRANCH  23  24
ATOM     24  C   UNL     1       5.093  26.003  14.072  1.00  0.00    -0.000 C 
BRANCH  24  25
ATOM     25  C   UNL     1       5.050  24.963  12.938  1.00  0.00    -0.000 C 
BRANCH  25  26
ATOM     26  C   UNL     1       4.583  25.512  11.579  1.00  0.00    -0.000 C 
BRANCH  26  27
ATOM     27  C   UNL     1       5.700  25.517  10.521  1.00  0.00    -0.000 C 
BRANCH  27  28
ATOM     28  C   UNL     1       5.402  26.468   9.351  1.00  0.00    -0.000 C 
BRANCH  28  29
ATOM     29  C   UNL     1       5.732  27.934   9.679  1.00  0.00    -0.000 C 
BRANCH  29  30
ATOM     30  C   UNL     1       4.556  28.888   9.408  1.00  0.00    -0.000 C 
BRANCH  30  31
ATOM     31  C   UNL     1       3.513  28.321   8.420  1.00  0.00    -0.003 C 
ATOM     32  C   UNL     1       2.261  29.192   8.328  1.00  0.00     0.004 C 
ENDBRANCH  30  31
ENDBRANCH  29  30
ENDBRANCH  28  29
ENDBRANCH  27  28
ENDBRANCH  26  27
ENDBRANCH  25  26
ENDBRANCH  24  25
ENDBRANCH  23  24
ENDBRANCH  22  23
ENDBRANCH  21  22
ENDBRANCH  20  21
ENDBRANCH  19  20
ENDBRANCH  18  19
ENDBRANCH   1  18
TORSDOF 28
ENDMDL
MODEL 4
REMARK VINA RESULT:    13.643      5.601     13.586
REMARK INTER + INTRA:          34.507
REMARK INTER:                  35.309
REMARK INTRA:                  -0.801
REMARK UNBOUND:                -1.467
REMARK SMILES CCCCCCCCCCCCCCCCCCCCCCCCCCCCCC(=O)[O-]
REMARK SMILES IDX 16 1 17 2 18 3 19 4 20 5 21 6 22 7 23 8 24 9 25 10 26 11
REMARK SMILES IDX 27 12 28 13 29 14 30 15 31 16 32 17 15 18 14 19 13 20 12 21
REMARK SMILES IDX 11 22 10 23 9 24 8 25 7 26 6 27 5 28 4 29 3 30 2 31 1 32
REMARK H PARENT
REMARK Flexibility Score: inf
ROOT
ATOM      1  C   UNL     1       4.192  28.390  18.744  1.00  0.00     0.000 C 
ENDROOT
BRANCH   1   2
ATOM      2  C   UNL     1       2.801  28.851  18.258  1.00  0.00     0.000 C 
BRANCH   2   3
ATOM      3  C   UNL     1       2.247  27.942  17.146  1.00  0.00     0.000 C 
BRANCH   3   4
ATOM      4  C   UNL     1       3.331  27.509  16.139  1.00  0.00     0.000 C 
BRANCH   4   5
ATOM      5  C   UNL     1       3.223  26.044  15.672  1.00  0.00     0.000 C 
BRANCH   5   6
ATOM      6  C   UNL     1       3.947  25.792  14.336  1.00  0.00     0.000 C 
BRANCH   6   7
ATOM      7  C   UNL     1       5.159  24.857  14.489  1.00  0.00     0.000 C 
BRANCH   7   8
ATOM      8  C   UNL     1       5.780  24.465  13.140  1.00  0.00     0.000 C 
BRANCH   8   9
ATOM      9  C   UNL     1       5.100  25.212  11.983  1.00  0.00     0.000 C 
BRANCH   9  10
ATOM     10  C   UNL     1       6.104  25.985  11.114  1.00  0.00     0.000 C 
BRANCH  10  11
ATOM     11  C   UNL     1       5.680  26.052   9.639  1.00  0.00     0.000 C 
BRANCH  11  12
ATOM     12  C   UNL     1       5.329  27.491   9.237  1.00  0.00     0.000 C 
BRANCH  12  13
ATOM     13  C   UNL     1       4.325  27.509   8.079  1.00  0.00     0.006 C 
BRANCH  13  14
ATOM     14  C   UNL     1       3.066  28.300   8.454  1.00  0.00     0.053 C 
BRANCH  14  15
ATOM     15  C   UNL     1       3.300  29.772   8.317  1.00  0.00     0.041 C 
ATOM     16  O   UNL     1       4.406  30.201   7.889  1.00  0.00    -0.550 OA
ATOM     17  O   UNL     1       2.303  30.672   8.672  1.00  0.00    -0.550 OA
ENDBRANCH  14  15
ENDBRANCH  13  14
ENDBRANCH  12  13
ENDBRANCH  11  12
ENDBRANCH  10  11
ENDBRANCH   9  10
ENDBRANCH   8   9
ENDBRANCH   7   8
ENDBRANCH   6   7
ENDBRANCH   5   6
ENDBRANCH   4   5
ENDBRANCH   3   4
ENDBRANCH   2   3
ENDBRANCH   1   2
BRANCH   1  18
ATOM     18  C   UNL     1       5.043  29.520  19.349  1.00  0.00     0.000 C 
BRANCH  18  19
ATOM     19  C   UNL     1       6.090  30.073  18.366  1.00  0.00     0.000 C 
BRANCH  19  20
ATOM     20  C   UNL     1       7.535  29.777  18.824  1.00  0.00     0.000 C 
BRANCH  20  21
ATOM     21  C   UNL     1       8.070  30.768  19.873  1.00  0.00     0.000 C 
BRANCH  21  22
ATOM     22  C   UNL     1       9.605  30.859  19.882  1.00  0.00     0.000 C 
BRANCH  22  23
ATOM     23  C   UNL     1      10.266  29.675  19.156  1.00  0.00     0.000 C 
BRANCH  23  24
ATOM     24  C   UNL     1      11.715  29.976  18.732  1.00  0.00    -0.000 C 
BRANCH  24  25
ATOM     25  C   UNL     1      12.532  30.665  19.840  1.00  0.00    -0.000 C 
BRANCH  25  26
ATOM     26  C   UNL     1      13.937  31.125  19.412  1.00  0.00    -0.000 C 
BRANCH  26  27
ATOM     27  C   UNL     1      15.009  30.841  20.478  1.00  0.00    -0.000 C 
BRANCH  27  28
ATOM     28  C   UNL     1      15.125  29.347  20.817  1.00  0.00    -0.000 C 
BRANCH  28  29
ATOM     29  C   UNL     1      13.940  28.835  21.654  1.00  0.00    -0.000 C 
BRANCH  29  30
ATOM     30  C   UNL     1      14.158  29.007  23.167  1.00  0.00    -0.000 C 
BRANCH  30  31
ATOM     31  C   UNL     1      13.350  28.009  24.026  1.00  0.00    -0.003 C 
ATOM     32  C   UNL     1      14.224  26.898  24.609  1.00  0.00     0.004 C 
ENDBRANCH  30  31
ENDBRANCH  29  30
ENDBRANCH  28  29
ENDBRANCH  27  28
ENDBRANCH  26  27
ENDBRANCH  25  26
ENDBRANCH  24  25
ENDBRANCH  23  24
ENDBRANCH  22  23
ENDBRANCH  21  22
ENDBRANCH  20  21
ENDBRANCH  19  20
ENDBRANCH  18  19
ENDBRANCH   1  18
TORSDOF 28
ENDMDL
MODEL 5
REMARK VINA RESULT:    13.771      1.712      2.367
REMARK INTER + INTRA:          34.845
REMARK INTER:                  35.406
REMARK INTRA:                  -0.561
REMARK UNBOUND:                -1.467
REMARK SMILES CCCCCCCCCCCCCCCCCCCCCCCCCCCCCC(=O)[O-]
REMARK SMILES IDX 16 1 17 2 18 3 19 4 20 5 21 6 22 7 23 8 24 9 25 10 26 11
REMARK SMILES IDX 27 12 28 13 29 14 30 15 31 16 32 17 15 18 14 19 13 20 12 21
REMARK SMILES IDX 11 22 10 23 9 24 8 25 7 26 6 27 5 28 4 29 3 30 2 31 1 32
REMARK H PARENT
REMARK Flexibility Score: inf
ROOT
ATOM      1  C   UNL     1       8.069  29.486  18.584  1.00  0.00     0.000 C 
ENDROOT
BRANCH   1   2
ATOM      2  C   UNL     1       8.601  30.360  19.740  1.00  0.00     0.000 C 
BRANCH   2   3
ATOM      3  C   UNL     1       9.877  31.125  19.345  1.00  0.00     0.000 C 
BRANCH   3   4
ATOM      4  C   UNL     1      11.073  30.189  19.082  1.00  0.00     0.000 C 
BRANCH   4   5
ATOM      5  C   UNL     1      12.445  30.891  19.072  1.00  0.00     0.000 C 
BRANCH   5   6
ATOM      6  C   UNL     1      13.017  31.058  17.652  1.00  0.00     0.000 C 
BRANCH   6   7
ATOM      7  C   UNL     1      13.488  29.726  17.045  1.00  0.00     0.000 C 
BRANCH   7   8
ATOM      8  C   UNL     1      14.728  29.158  17.751  1.00  0.00     0.000 C 
BRANCH   8   9
ATOM      9  C   UNL     1      14.720  27.622  17.731  1.00  0.00     0.000 C 
BRANCH   9  10
ATOM     10  C   UNL     1      15.073  27.016  19.097  1.00  0.00     0.000 C 
BRANCH  10  11
ATOM     11  C   UNL     1      15.125  28.068  20.216  1.00  0.00     0.000 C 
BRANCH  11  12
ATOM     12  C   UNL     1      14.399  27.566  21.471  1.00  0.00     0.000 C 
BRANCH  12  13
ATOM     13  C   UNL     1      15.045  28.129  22.742  1.00  0.00     0.006 C 
BRANCH  13  14
ATOM     14  C   UNL     1      13.993  28.384  23.827  1.00  0.00     0.053 C 
BRANCH  14  15
ATOM     15  C   UNL     1      13.173  29.594  23.502  1.00  0.00     0.041 C 
ATOM     16  O   UNL     1      12.023  29.465  23.001  1.00  0.00    -0.550 OA
ATOM     17  O   UNL     1      13.682  30.865  23.740  1.00  0.00    -0.550 OA
ENDBRANCH  14  15
ENDBRANCH  13  14
ENDBRANCH  12  13
ENDBRANCH  11  12
ENDBRANCH  10  11
ENDBRANCH   9  10
ENDBRANCH   8   9
ENDBRANCH   7   8
ENDBRANCH   6   7
ENDBRANCH   5   6
ENDBRANCH   4   5
ENDBRANCH   3   4
ENDBRANCH   2   3
ENDBRANCH   1   2
BRANCH   1  18
ATOM     18  C   UNL     1       6.839  28.642  18.960  1.00  0.00     0.000 C 
BRANCH  18  19
ATOM     19  C   UNL     1       5.614  29.499  19.327  1.00  0.00     0.000 C 
BRANCH  19  20
ATOM     20  C   UNL     1       4.282  28.771  19.040  1.00  0.00     0.000 C 
BRANCH  20  21
ATOM     21  C   UNL     1       4.261  28.022  17.696  1.00  0.00     0.000 C 
BRANCH  21  22
ATOM     22  C   UNL     1       3.240  28.603  16.704  1.00  0.00     0.000 C 
BRANCH  22  23
ATOM     23  C   UNL     1       1.981  27.727  16.579  1.00  0.00     0.000 C 
BRANCH  23  24
ATOM     24  C   UNL     1       2.234  26.437  15.779  1.00  0.00    -0.000 C 
BRANCH  24  25
ATOM     25  C   UNL     1       3.603  25.803  16.083  1.00  0.00    -0.000 C 
BRANCH  25  26
ATOM     26  C   UNL     1       4.726  26.198  15.107  1.00  0.00    -0.000 C 
BRANCH  26  27
ATOM     27  C   UNL     1       5.223  25.015  14.259  1.00  0.00    -0.000 C 
BRANCH  27  28
ATOM     28  C   UNL     1       4.803  25.126  12.785  1.00  0.00    -0.000 C 
BRANCH  28  29
ATOM     29  C   UNL     1       5.857  25.836  11.919  1.00  0.00    -0.000 C 
BRANCH  29  30
ATOM     30  C   UNL     1       5.605  25.669  10.411  1.00  0.00    -0.000 C 
BRANCH  30  31
ATOM     31  C   UNL     1       4.517  26.615   9.856  1.00  0.00    -0.003 C 
ATOM     32  C   UNL     1       5.081  27.641   8.874  1.00  0.00     0.004 C 
ENDBRANCH  30  31
ENDBRANCH  29  30
ENDBRANCH  28  29
ENDBRANCH  27  28
ENDBRANCH  26  27
ENDBRANCH  25  26
ENDBRANCH  24  25
ENDBRANCH  23  24
ENDBRANCH  22  23
ENDBRANCH  21  22
ENDBRANCH  20  21
ENDBRANCH  19  20
ENDBRANCH  18  19
ENDBRANCH   1  18
TORSDOF 28
ENDMDL
MODEL 6
REMARK VINA RESULT:    13.772      5.682      7.858
REMARK INTER + INTRA:          34.848
REMARK INTER:                  35.573
REMARK INTRA:                  -0.725
REMARK UNBOUND:                -1.467
REMARK SMILES CCCCCCCCCCCCCCCCCCCCCCCCCCCCCC(=O)[O-]
REMARK SMILES IDX 16 1 17 2 18 3 19 4 20 5 21 6 22 7 23 8 24 9 25 10 26 11
REMARK SMILES IDX 27 12 28 13 29 14 30 15 31 16 32 17 15 18 14 19 13 20 12 21
REMARK SMILES IDX 11 22 10 23 9 24 8 25 7 26 6 27 5 28 4 29 3 30 2 31 1 32
REMARK H PARENT
REMARK Flexibility Score: inf
ROOT
ATOM      1  C   UNL     1      12.372  21.920  20.005  1.00  0.00     0.000 C 
ENDROOT
BRANCH   1   2
ATOM      2  C   UNL     1      13.821  22.299  20.378  1.00  0.00     0.000 C 
BRANCH   2   3
ATOM      3  C   UNL     1      14.388  23.394  19.457  1.00  0.00     0.000 C 
BRANCH   3   4
ATOM      4  C   UNL     1      15.125  24.501  20.235  1.00  0.00     0.000 C 
BRANCH   4   5
ATOM      5  C   UNL     1      14.594  25.926  19.980  1.00  0.00     0.000 C 
BRANCH   5   6
ATOM      6  C   UNL     1      14.558  26.784  21.258  1.00  0.00     0.000 C 
BRANCH   6   7
ATOM      7  C   UNL     1      14.450  25.935  22.536  1.00  0.00     0.000 C 
BRANCH   7   8
ATOM      8  C   UNL     1      14.123  26.775  23.780  1.00  0.00     0.000 C 
BRANCH   8   9
ATOM      9  C   UNL     1      12.848  27.604  23.566  1.00  0.00     0.000 C 
BRANCH   9  10
ATOM     10  C   UNL     1      12.991  29.043  24.084  1.00  0.00     0.000 C 
BRANCH  10  11
ATOM     11  C   UNL     1      14.428  29.574  23.968  1.00  0.00     0.000 C 
BRANCH  11  12
ATOM     12  C   UNL     1      14.461  30.892  23.185  1.00  0.00     0.000 C 
BRANCH  12  13
ATOM     13  C   UNL     1      13.363  30.924  22.115  1.00  0.00     0.006 C 
BRANCH  13  14
ATOM     14  C   UNL     1      13.942  30.640  20.724  1.00  0.00     0.053 C 
BRANCH  14  15
ATOM     15  C   UNL     1      12.869  30.191  19.782  1.00  0.00     0.041 C 
ATOM     16  O   UNL     1      12.756  28.971  19.484  1.00  0.00    -0.550 OA
ATOM     17  O   UNL     1      12.000  31.120  19.221  1.00  0.00    -0.550 OA
ENDBRANCH  14  15
ENDBRANCH  13  14
ENDBRANCH  12  13
ENDBRANCH  11  12
ENDBRANCH  10  11
ENDBRANCH   9  10
ENDBRANCH   8   9
ENDBRANCH   7   8
ENDBRANCH   6   7
ENDBRANCH   5   6
ENDBRANCH   4   5
ENDBRANCH   3   4
ENDBRANCH   2   3
ENDBRANCH   1   2
BRANCH   1  18
ATOM     18  C   UNL     1      12.188  21.559  18.521  1.00  0.00     0.000 C 
BRANCH  18  19
ATOM     19  C   UNL     1      10.780  21.024  18.204  1.00  0.00     0.000 C 
BRANCH  19  20
ATOM     20  C   UNL     1       9.781  22.157  17.882  1.00  0.00     0.000 C 
BRANCH  20  21
ATOM     21  C   UNL     1       8.493  21.672  17.194  1.00  0.00     0.000 C 
BRANCH  21  22
ATOM     22  C   UNL     1       7.798  22.776  16.381  1.00  0.00     0.000 C 
BRANCH  22  23
ATOM     23  C   UNL     1       6.391  23.099  16.913  1.00  0.00     0.000 C 
BRANCH  23  24
ATOM     24  C   UNL     1       6.097  22.415  18.260  1.00  0.00    -0.000 C 
BRANCH  24  25
ATOM     25  C   UNL     1       5.570  20.978  18.099  1.00  0.00    -0.000 C 
BRANCH  25  26
ATOM     26  C   UNL     1       6.639  19.939  17.717  1.00  0.00    -0.000 C 
BRANCH  26  27
ATOM     27  C   UNL     1       6.038  18.656  17.118  1.00  0.00    -0.000 C 
BRANCH  27  28
ATOM     28  C   UNL     1       6.580  17.382  17.785  1.00  0.00    -0.000 C 
BRANCH  28  29
ATOM     29  C   UNL     1       8.000  17.025  17.316  1.00  0.00    -0.000 C 
BRANCH  29  30
ATOM     30  C   UNL     1       8.012  16.193  16.021  1.00  0.00    -0.000 C 
BRANCH  30  31
ATOM     31  C   UNL     1       8.909  16.786  14.913  1.00  0.00    -0.003 C 
ATOM     32  C   UNL     1       8.135  17.078  13.628  1.00  0.00     0.004 C 
ENDBRANCH  30  31
ENDBRANCH  29  30
ENDBRANCH  28  29
ENDBRANCH  27  28
ENDBRANCH  26  27
ENDBRANCH  25  26
ENDBRANCH  24  25
ENDBRANCH  23  24
ENDBRANCH  22  23
ENDBRANCH  21  22
ENDBRANCH  20  21
ENDBRANCH  19  20
ENDBRANCH  18  19
ENDBRANCH   1  18
TORSDOF 28
ENDMDL
MODEL 7
REMARK VINA RESULT:    13.880      9.298     12.106
REMARK INTER + INTRA:          35.134
REMARK INTER:                  36.115
REMARK INTRA:                  -0.981
REMARK UNBOUND:                -1.467
REMARK SMILES CCCCCCCCCCCCCCCCCCCCCCCCCCCCCC(=O)[O-]
REMARK SMILES IDX 16 1 17 2 18 3 19 4 20 5 21 6 22 7 23 8 24 9 25 10 26 11
REMARK SMILES IDX 27 12 28 13 29 14 30 15 31 16 32 17 15 18 14 19 13 20 12 21
REMARK SMILES IDX 11 22 10 23 9 24 8 25 7 26 6 27 5 28 4 29 3 30 2 31 1 32
REMARK H PARENT
REMARK Flexibility Score: inf
ROOT
ATOM      1  C   UNL     1       5.977  25.413  12.918  1.00  0.00     0.000 C 
ENDROOT
BRANCH   1   2
ATOM      2  C   UNL     1       6.770  24.106  13.134  1.00  0.00     0.000 C 
BRANCH   2   3
ATOM      3  C   UNL     1       6.256  23.312  14.348  1.00  0.00     0.000 C 
BRANCH   3   4
ATOM      4  C   UNL     1       7.351  22.440  14.994  1.00  0.00     0.000 C 
BRANCH   4   5
ATOM      5  C   UNL     1       7.354  22.453  16.535  1.00  0.00     0.000 C 
BRANCH   5   6
ATOM      6  C   UNL     1       6.066  21.858  17.136  1.00  0.00     0.000 C 
BRANCH   6   7
ATOM      7  C   UNL     1       6.183  20.348  17.404  1.00  0.00     0.000 C 
BRANCH   7   8
ATOM      8  C   UNL     1       5.198  19.858  18.476  1.00  0.00     0.000 C 
BRANCH   8   9
ATOM      9  C   UNL     1       5.704  18.569  19.141  1.00  0.00     0.000 C 
BRANCH   9  10
ATOM     10  C   UNL     1       6.815  17.887  18.329  1.00  0.00     0.000 C 
BRANCH  10  11
ATOM     11  C   UNL     1       6.381  16.529  17.756  1.00  0.00     0.000 C 
BRANCH  11  12
ATOM     12  C   UNL     1       7.387  16.031  16.711  1.00  0.00     0.000 C 
BRANCH  12  13
ATOM     13  C   UNL     1       8.306  17.167  16.247  1.00  0.00     0.006 C 
BRANCH  13  14
ATOM     14  C   UNL     1       9.054  16.782  14.966  1.00  0.00     0.053 C 
BRANCH  14  15
ATOM     15  C   UNL     1       8.183  16.969  13.762  1.00  0.00     0.041 C 
ATOM     16  O   UNL     1       7.282  16.128  13.495  1.00  0.00    -0.550 OA
ATOM     17  O   UNL     1       8.372  18.064  12.928  1.00  0.00    -0.550 OA
ENDBRANCH  14  15
ENDBRANCH  13  14
ENDBRANCH  12  13
ENDBRANCH  11  12
ENDBRANCH  10  11
ENDBRANCH   9  10
ENDBRANCH   8   9
ENDBRANCH   7   8
ENDBRANCH   6   7
ENDBRANCH   5   6
ENDBRANCH   4   5
ENDBRANCH   3   4
ENDBRANCH   2   3
ENDBRANCH   1   2
BRANCH   1  18
ATOM     18  C   UNL     1       5.226  25.469  11.577  1.00  0.00     0.000 C 
BRANCH  18  19
ATOM     19  C   UNL     1       5.849  26.465  10.583  1.00  0.00     0.000 C 
BRANCH  19  20
ATOM     20  C   UNL     1       4.780  27.299   9.843  1.00  0.00     0.000 C 
BRANCH  20  21
ATOM     21  C   UNL     1       5.165  27.661   8.398  1.00  0.00     0.000 C 
BRANCH  21  22
ATOM     22  C   UNL     1       6.204  28.792   8.322  1.00  0.00     0.000 C 
BRANCH  22  23
ATOM     23  C   UNL     1       7.589  28.286   7.881  1.00  0.00     0.000 C 
BRANCH  23  24
ATOM     24  C   UNL     1       8.740  29.003   8.609  1.00  0.00    -0.000 C 
BRANCH  24  25
ATOM     25  C   UNL     1       9.216  30.270   7.875  1.00  0.00    -0.000 C 
BRANCH  25  26
ATOM     26  C   UNL     1      10.288  31.082   8.623  1.00  0.00    -0.000 C 
BRANCH  26  27
ATOM     27  C   UNL     1      11.634  31.123   7.880  1.00  0.00    -0.000 C 
BRANCH  27  28
ATOM     28  C   UNL     1      12.587  30.001   8.320  1.00  0.00    -0.000 C 
BRANCH  28  29
ATOM     29  C   UNL     1      11.866  28.660   8.533  1.00  0.00    -0.000 C 
BRANCH  29  30
ATOM     30  C   UNL     1      12.387  27.889   9.759  1.00  0.00    -0.000 C 
BRANCH  30  31
ATOM     31  C   UNL     1      13.758  27.217   9.532  1.00  0.00    -0.003 C 
ATOM     32  C   UNL     1      13.672  26.016   8.590  1.00  0.00     0.004 C 
ENDBRANCH  30  31
ENDBRANCH  29  30
ENDBRANCH  28  29
ENDBRANCH  27  28
ENDBRANCH  26  27
ENDBRANCH  25  26
ENDBRANCH  24  25
ENDBRANCH  23  24
ENDBRANCH  22  23
ENDBRANCH  21  22
ENDBRANCH  20  21
ENDBRANCH  19  20
ENDBRANCH  18  19
ENDBRANCH   1  18
TORSDOF 28
ENDMDL
MODEL 8
REMARK VINA RESULT:    13.961      5.141     13.660
REMARK INTER + INTRA:          35.346
REMARK INTER:                  35.133
REMARK INTRA:                   0.214
REMARK UNBOUND:                -1.467
REMARK SMILES CCCCCCCCCCCCCCCCCCCCCCCCCCCCCC(=O)[O-]
REMARK SMILES IDX 16 1 17 2 18 3 19 4 20 5 21 6 22 7 23 8 24 9 25 10 26 11
REMARK SMILES IDX 27 12 28 13 29 14 30 15 31 16 32 17 15 18 14 19 13 20 12 21
REMARK SMILES IDX 11 22 10 23 9 24 8 25 7 26 6 27 5 28 4 29 3 30 2 31 1 32
REMARK H PARENT
REMARK Flexibility Score: inf
ROOT
ATOM      1  C   UNL     1       6.776  29.225  18.792  1.00  0.00     0.000 C 
ENDROOT
BRANCH   1   2
ATOM      2  C   UNL     1       5.415  29.456  19.483  1.00  0.00     0.000 C 
BRANCH   2   3
ATOM      3  C   UNL     1       4.395  28.358  19.132  1.00  0.00     0.000 C 
BRANCH   3   4
ATOM      4  C   UNL     1       3.397  28.801  18.044  1.00  0.00     0.000 C 
BRANCH   4   5
ATOM      5  C   UNL     1       2.491  27.676  17.508  1.00  0.00     0.000 C 
BRANCH   5   6
ATOM      6  C   UNL     1       2.743  27.368  16.020  1.00  0.00     0.000 C 
BRANCH   6   7
ATOM      7  C   UNL     1       4.004  26.517  15.798  1.00  0.00     0.000 C 
BRANCH   7   8
ATOM      8  C   UNL     1       3.970  25.741  14.473  1.00  0.00     0.000 C 
BRANCH   8   9
ATOM      9  C   UNL     1       5.226  26.024  13.635  1.00  0.00     0.000 C 
BRANCH   9  10
ATOM     10  C   UNL     1       5.492  24.931  12.589  1.00  0.00     0.000 C 
BRANCH  10  11
ATOM     11  C   UNL     1       6.301  25.445  11.388  1.00  0.00     0.000 C 
BRANCH  11  12
ATOM     12  C   UNL     1       5.462  26.405  10.535  1.00  0.00     0.000 C 
BRANCH  12  13
ATOM     13  C   UNL     1       5.454  25.970   9.065  1.00  0.00     0.006 C 
BRANCH  13  14
ATOM     14  C   UNL     1       4.821  27.047   8.176  1.00  0.00     0.053 C 
BRANCH  14  15
ATOM     15  C   UNL     1       4.411  28.236   8.988  1.00  0.00     0.041 C 
ATOM     16  O   UNL     1       3.428  28.939   8.630  1.00  0.00    -0.550 OA
ATOM     17  O   UNL     1       5.121  28.577  10.133  1.00  0.00    -0.550 OA
ENDBRANCH  14  15
ENDBRANCH  13  14
ENDBRANCH  12  13
ENDBRANCH  11  12
ENDBRANCH  10  11
ENDBRANCH   9  10
ENDBRANCH   8   9
ENDBRANCH   7   8
ENDBRANCH   6   7
ENDBRANCH   5   6
ENDBRANCH   4   5
ENDBRANCH   3   4
ENDBRANCH   2   3
ENDBRANCH   1   2
BRANCH   1  18
ATOM     18  C   UNL     1       7.482  30.522  18.363  1.00  0.00     0.000 C 
BRANCH  18  19
ATOM     19  C   UNL     1       9.016  30.410  18.402  1.00  0.00     0.000 C 
BRANCH  19  20
ATOM     20  C   UNL     1       9.583  30.616  19.825  1.00  0.00     0.000 C 
BRANCH  20  21
ATOM     21  C   UNL     1      11.035  31.125  19.847  1.00  0.00     0.000 C 
BRANCH  21  22
ATOM     22  C   UNL     1      11.970  30.304  18.943  1.00  0.00     0.000 C 
BRANCH  22  23
ATOM     23  C   UNL     1      13.456  30.559  19.252  1.00  0.00     0.000 C 
BRANCH  23  24
ATOM     24  C   UNL     1      14.332  29.319  19.001  1.00  0.00    -0.000 C 
BRANCH  24  25
ATOM     25  C   UNL     1      14.696  28.572  20.297  1.00  0.00    -0.000 C 
BRANCH  25  26
ATOM     26  C   UNL     1      14.275  29.288  21.593  1.00  0.00    -0.000 C 
BRANCH  26  27
ATOM     27  C   UNL     1      14.985  28.735  22.840  1.00  0.00    -0.000 C 
BRANCH  27  28
ATOM     28  C   UNL     1      14.568  27.293  23.168  1.00  0.00    -0.000 C 
BRANCH  28  29
ATOM     29  C   UNL     1      13.591  27.213  24.353  1.00  0.00    -0.000 C 
BRANCH  29  30
ATOM     30  C   UNL     1      12.982  28.578  24.719  1.00  0.00    -0.000 C 
BRANCH  30  31
ATOM     31  C   UNL     1      13.423  29.102  26.103  1.00  0.00    -0.003 C 
ATOM     32  C   UNL     1      14.869  29.597  26.107  1.00  0.00     0.004 C 
ENDBRANCH  30  31
ENDBRANCH  29  30
ENDBRANCH  28  29
ENDBRANCH  27  28
ENDBRANCH  26  27
ENDBRANCH  25  26
ENDBRANCH  24  25
ENDBRANCH  23  24
ENDBRANCH  22  23
ENDBRANCH  21  22
ENDBRANCH  20  21
ENDBRANCH  19  20
ENDBRANCH  18  19
ENDBRANCH   1  18
TORSDOF 28
ENDMDL
MODEL 9
REMARK VINA RESULT:    14.707      8.220     11.118
REMARK INTER + INTRA:          37.313
REMARK INTER:                  38.781
REMARK INTRA:                  -1.468
REMARK UNBOUND:                -1.467
REMARK SMILES CCCCCCCCCCCCCCCCCCCCCCCCCCCCCC(=O)[O-]
REMARK SMILES IDX 16 1 17 2 18 3 19 4 20 5 21 6 22 7 23 8 24 9 25 10 26 11
REMARK SMILES IDX 27 12 28 13 29 14 30 15 31 16 32 17 15 18 14 19 13 20 12 21
REMARK SMILES IDX 11 22 10 23 9 24 8 25 7 26 6 27 5 28 4 29 3 30 2 31 1 32
REMARK H PARENT
REMARK Flexibility Score: inf
ROOT
ATOM      1  C   UNL     1       6.139  25.489  11.619  1.00  0.00     0.000 C 
ENDROOT
BRANCH   1   2
ATOM      2  C   UNL     1       5.370  25.367  12.952  1.00  0.00     0.000 C 
BRANCH   2   3
ATOM      3  C   UNL     1       6.268  24.854  14.092  1.00  0.00     0.000 C 
BRANCH   3   4
ATOM      4  C   UNL     1       6.054  23.357  14.389  1.00  0.00     0.000 C 
BRANCH   4   5
ATOM      5  C   UNL     1       7.269  22.649  15.019  1.00  0.00     0.000 C 
BRANCH   5   6
ATOM      6  C   UNL     1       7.341  22.839  16.546  1.00  0.00     0.000 C 
BRANCH   6   7
ATOM      7  C   UNL     1       6.171  22.163  17.281  1.00  0.00     0.000 C 
BRANCH   7   8
ATOM      8  C   UNL     1       5.793  20.805  16.672  1.00  0.00     0.000 C 
BRANCH   8   9
ATOM      9  C   UNL     1       6.524  19.657  17.386  1.00  0.00     0.000 C 
BRANCH   9  10
ATOM     10  C   UNL     1       5.561  18.566  17.878  1.00  0.00     0.000 C 
BRANCH  10  11
ATOM     11  C   UNL     1       6.283  17.260  18.242  1.00  0.00     0.000 C 
BRANCH  11  12
ATOM     12  C   UNL     1       6.679  17.249  19.724  1.00  0.00     0.000 C 
BRANCH  12  13
ATOM     13  C   UNL     1       5.461  17.497  20.620  1.00  0.00     0.006 C 
BRANCH  13  14
ATOM     14  C   UNL     1       5.884  18.066  21.980  1.00  0.00     0.053 C 
BRANCH  14  15
ATOM     15  C   UNL     1       5.769  19.558  21.993  1.00  0.00     0.041 C 
ATOM     16  O   UNL     1       5.029  20.145  21.157  1.00  0.00    -0.550 OA
ATOM     17  O   UNL     1       6.488  20.304  22.919  1.00  0.00    -0.550 OA
ENDBRANCH  14  15
ENDBRANCH  13  14
ENDBRANCH  12  13
ENDBRANCH  11  12
ENDBRANCH  10  11
ENDBRANCH   9  10
ENDBRANCH   8   9
ENDBRANCH   7   8
ENDBRANCH   6   7
ENDBRANCH   5   6
ENDBRANCH   4   5
ENDBRANCH   3   4
ENDBRANCH   2   3
ENDBRANCH   1   2
BRANCH   1  18
ATOM     18  C   UNL     1       5.230  25.525  10.379  1.00  0.00     0.000 C 
BRANCH  18  19
ATOM     19  C   UNL     1       5.760  26.454   9.273  1.00  0.00     0.000 C 
BRANCH  19  20
ATOM     20  C   UNL     1       4.913  27.738   9.132  1.00  0.00     0.000 C 
BRANCH  20  21
ATOM     21  C   UNL     1       5.710  28.955   8.627  1.00  0.00     0.000 C 
BRANCH  21  22
ATOM     22  C   UNL     1       7.010  28.561   7.907  1.00  0.00     0.000 C 
BRANCH  22  23
ATOM     23  C   UNL     1       8.033  29.710   7.875  1.00  0.00     0.000 C 
BRANCH  23  24
ATOM     24  C   UNL     1       9.463  29.237   8.193  1.00  0.00    -0.000 C 
BRANCH  24  25
ATOM     25  C   UNL     1      10.336  30.345   8.810  1.00  0.00    -0.000 C 
BRANCH  25  26
ATOM     26  C   UNL     1      11.029  29.958  10.129  1.00  0.00    -0.000 C 
BRANCH  26  27
ATOM     27  C   UNL     1      12.525  30.316  10.146  1.00  0.00    -0.000 C 
BRANCH  27  28
ATOM     28  C   UNL     1      13.246  29.903   8.853  1.00  0.00    -0.000 C 
BRANCH  28  29
ATOM     29  C   UNL     1      14.691  29.439   9.103  1.00  0.00    -0.000 C 
BRANCH  29  30
ATOM     30  C   UNL     1      14.773  28.000   9.641  1.00  0.00    -0.000 C 
BRANCH  30  31
ATOM     31  C   UNL     1      13.486  27.178   9.410  1.00  0.00    -0.003 C 
ATOM     32  C   UNL     1      13.655  26.120   8.320  1.00  0.00     0.004 C 
ENDBRANCH  30  31
ENDBRANCH  29  30
ENDBRANCH  28  29
ENDBRANCH  27  28
ENDBRANCH  26  27
ENDBRANCH  25  26
ENDBRANCH  24  25
ENDBRANCH  23  24
ENDBRANCH  22  23
ENDBRANCH  21  22
ENDBRANCH  20  21
ENDBRANCH  19  20
ENDBRANCH  18  19
ENDBRANCH   1  18
TORSDOF 28
ENDMDL
