MODEL 1
REMARK VINA RESULT:    -4.372      0.000      0.000
REMARK INTER + INTRA:          -9.565
REMARK INTER:                  -7.950
REMARK INTRA:                  -1.615
REMARK UNBOUND:                -1.615
REMARK SMILES CCCCCCCCCCCCCCCC(=O)[O-]
REMARK SMILES IDX 9 1 10 2 11 3 12 4 13 5 14 6 15 7 16 8 17 9 18 10 8 11 7 12
REMARK SMILES IDX 6 13 5 14 4 15 3 16 2 17 1 18
REMARK H PARENT
REMARK Flexibility Score: inf
ROOT
ATOM      1  C   UNL     1      47.960  29.985  14.176  1.00  0.00     0.000 C 
ENDROOT
BRANCH   1   2
ATOM      2  C   UNL     1      46.846  28.926  14.130  1.00  0.00     0.000 C 
BRANCH   2   3
ATOM      3  C   UNL     1      45.562  29.373  14.855  1.00  0.00     0.000 C 
BRANCH   3   4
ATOM      4  C   UNL     1      45.083  28.437  15.981  1.00  0.00     0.000 C 
BRANCH   4   5
ATOM      5  C   UNL     1      46.206  27.559  16.550  1.00  0.00     0.000 C 
BRANCH   5   6
ATOM      6  C   UNL     1      45.647  26.523  17.537  1.00  0.00     0.006 C 
BRANCH   6   7
ATOM      7  C   UNL     1      44.194  26.823  17.930  1.00  0.00     0.053 C 
BRANCH   7   8
ATOM      8  C   UNL     1      43.442  25.575  18.278  1.00  0.00     0.041 C 
ATOM      9  O   UNL     1      42.887  24.897  17.373  1.00  0.00    -0.550 OA
ATOM     10  O   UNL     1      43.324  25.179  19.604  1.00  0.00    -0.550 OA
ENDBRANCH   7   8
ENDBRANCH   6   7
ENDBRANCH   5   6
ENDBRANCH   4   5
ENDBRANCH   3   4
ENDBRANCH   2   3
ENDBRANCH   1   2
BRANCH   1  11
ATOM     11  C   UNL     1      47.570  31.228  14.998  1.00  0.00     0.000 C 
BRANCH  11  12
ATOM     12  C   UNL     1      48.622  32.355  15.025  1.00  0.00    -0.000 C 
BRANCH  12  13
ATOM     13  C   UNL     1      49.643  32.323  13.870  1.00  0.00    -0.000 C 
BRANCH  13  14
ATOM     14  C   UNL     1      51.089  31.999  14.292  1.00  0.00    -0.000 C 
BRANCH  14  15
ATOM     15  C   UNL     1      51.251  31.503  15.743  1.00  0.00    -0.000 C 
BRANCH  15  16
ATOM     16  C   UNL     1      51.578  30.006  15.885  1.00  0.00    -0.000 C 
BRANCH  16  17
ATOM     17  C   UNL     1      50.728  29.308  16.956  1.00  0.00    -0.003 C 
ATOM     18  C   UNL     1      50.035  28.073  16.389  1.00  0.00     0.004 C 
ENDBRANCH  16  17
ENDBRANCH  15  16
ENDBRANCH  14  15
ENDBRANCH  13  14
ENDBRANCH  12  13
ENDBRANCH  11  12
ENDBRANCH   1  11
TORSDOF 14
ENDMDL
MODEL 2
REMARK VINA RESULT:    -4.283      3.970      7.282
REMARK INTER + INTRA:          -9.404
REMARK INTER:                  -7.864
REMARK INTRA:                  -1.540
REMARK UNBOUND:                -1.615
REMARK SMILES CCCCCCCCCCCCCCCC(=O)[O-]
REMARK SMILES IDX 9 1 10 2 11 3 12 4 13 5 14 6 15 7 16 8 17 9 18 10 8 11 7 12
REMARK SMILES IDX 6 13 5 14 4 15 3 16 2 17 1 18
REMARK H PARENT
REMARK Flexibility Score: inf
ROOT
ATOM      1  C   UNL     1      45.267  28.631  16.028  1.00  0.00     0.000 C 
ENDROOT
BRANCH   1   2
ATOM      2  C   UNL     1      45.677  29.479  14.812  1.00  0.00     0.000 C 
BRANCH   2   3
ATOM      3  C   UNL     1      46.967  28.976  14.137  1.00  0.00     0.000 C 
BRANCH   3   4
ATOM      4  C   UNL     1      48.148  29.964  14.158  1.00  0.00     0.000 C 
BRANCH   4   5
ATOM      5  C   UNL     1      47.849  31.240  14.958  1.00  0.00     0.000 C 
BRANCH   5   6
ATOM      6  C   UNL     1      48.783  32.385  14.536  1.00  0.00     0.006 C 
BRANCH   6   7
ATOM      7  C   UNL     1      49.991  31.882  13.734  1.00  0.00     0.053 C 
BRANCH   7   8
ATOM      8  C   UNL     1      51.217  31.767  14.587  1.00  0.00     0.041 C 
ATOM      9  O   UNL     1      52.351  31.645  14.053  1.00  0.00    -0.550 OA
ATOM     10  O   UNL     1      51.104  31.759  15.972  1.00  0.00    -0.550 OA
ENDBRANCH   7   8
ENDBRANCH   6   7
ENDBRANCH   5   6
ENDBRANCH   4   5
ENDBRANCH   3   4
ENDBRANCH   2   3
ENDBRANCH   1   2
BRANCH   1  11
ATOM     11  C   UNL     1      43.781  28.225  16.001  1.00  0.00     0.000 C 
BRANCH  11  12
ATOM     12  C   UNL     1      43.422  26.987  16.847  1.00  0.00    -0.000 C 
BRANCH  12  13
ATOM     13  C   UNL     1      43.995  26.985  18.278  1.00  0.00    -0.000 C 
BRANCH  13  14
ATOM     14  C   UNL     1      44.835  25.745  18.640  1.00  0.00    -0.000 C 
BRANCH  14  15
ATOM     15  C   UNL     1      46.339  25.857  18.316  1.00  0.00    -0.000 C 
BRANCH  15  16
ATOM     16  C   UNL     1      46.801  25.055  17.087  1.00  0.00    -0.000 C 
BRANCH  16  17
ATOM     17  C   UNL     1      47.653  25.887  16.117  1.00  0.00    -0.003 C 
ATOM     18  C   UNL     1      48.499  26.910  16.868  1.00  0.00     0.004 C 
ENDBRANCH  16  17
ENDBRANCH  15  16
ENDBRANCH  14  15
ENDBRANCH  13  14
ENDBRANCH  12  13
ENDBRANCH  11  12
ENDBRANCH   1  11
TORSDOF 14
ENDMDL
MODEL 3
REMARK VINA RESULT:    -4.267      1.346      2.811
REMARK INTER + INTRA:          -9.374
REMARK INTER:                  -7.653
REMARK INTRA:                  -1.721
REMARK UNBOUND:                -1.615
REMARK SMILES CCCCCCCCCCCCCCCC(=O)[O-]
REMARK SMILES IDX 9 1 10 2 11 3 12 4 13 5 14 6 15 7 16 8 17 9 18 10 8 11 7 12
REMARK SMILES IDX 6 13 5 14 4 15 3 16 2 17 1 18
REMARK H PARENT
REMARK Flexibility Score: inf
ROOT
ATOM      1  C   UNL     1      47.623  27.253  15.037  1.00  0.00     0.000 C 
ENDROOT
BRANCH   1   2
ATOM      2  C   UNL     1      47.147  28.243  13.962  1.00  0.00     0.000 C 
BRANCH   2   3
ATOM      3  C   UNL     1      46.000  29.151  14.447  1.00  0.00     0.000 C 
BRANCH   3   4
ATOM      4  C   UNL     1      45.485  28.856  15.869  1.00  0.00     0.000 C 
BRANCH   4   5
ATOM      5  C   UNL     1      44.067  28.266  15.883  1.00  0.00     0.000 C 
BRANCH   5   6
ATOM      6  C   UNL     1      43.793  27.528  17.202  1.00  0.00     0.006 C 
BRANCH   6   7
ATOM      7  C   UNL     1      44.856  26.463  17.502  1.00  0.00     0.053 C 
BRANCH   7   8
ATOM      8  C   UNL     1      44.286  25.078  17.456  1.00  0.00     0.041 C 
ATOM      9  O   UNL     1      43.054  24.893  17.639  1.00  0.00    -0.550 OA
ATOM     10  O   UNL     1      45.121  23.988  17.245  1.00  0.00    -0.550 OA
ENDBRANCH   7   8
ENDBRANCH   6   7
ENDBRANCH   5   6
ENDBRANCH   4   5
ENDBRANCH   3   4
ENDBRANCH   2   3
ENDBRANCH   1   2
BRANCH   1  11
ATOM     11  C   UNL     1      49.146  27.303  15.265  1.00  0.00     0.000 C 
BRANCH  11  12
ATOM     12  C   UNL     1      49.714  28.694  15.613  1.00  0.00    -0.000 C 
BRANCH  12  13
ATOM     13  C   UNL     1      51.048  29.046  14.925  1.00  0.00    -0.000 C 
BRANCH  13  14
ATOM     14  C   UNL     1      50.910  29.649  13.513  1.00  0.00    -0.000 C 
BRANCH  14  15
ATOM     15  C   UNL     1      49.740  30.638  13.337  1.00  0.00    -0.000 C 
BRANCH  15  16
ATOM     16  C   UNL     1      50.053  32.092  13.730  1.00  0.00    -0.000 C 
BRANCH  16  17
ATOM     17  C   UNL     1      49.355  32.523  15.028  1.00  0.00    -0.003 C 
ATOM     18  C   UNL     1      47.953  31.931  15.120  1.00  0.00     0.004 C 
ENDBRANCH  16  17
ENDBRANCH  15  16
ENDBRANCH  14  15
ENDBRANCH  13  14
ENDBRANCH  12  13
ENDBRANCH  11  12
ENDBRANCH   1  11
TORSDOF 14
ENDMDL
MODEL 4
REMARK VINA RESULT:    -4.261      1.599      2.239
REMARK INTER + INTRA:          -9.363
REMARK INTER:                  -7.931
REMARK INTRA:                  -1.432
REMARK UNBOUND:                -1.615
REMARK SMILES CCCCCCCCCCCCCCCC(=O)[O-]
REMARK SMILES IDX 9 1 10 2 11 3 12 4 13 5 14 6 15 7 16 8 17 9 18 10 8 11 7 12
REMARK SMILES IDX 6 13 5 14 4 15 3 16 2 17 1 18
REMARK H PARENT
REMARK Flexibility Score: inf
ROOT
ATOM      1  C   UNL     1      45.903  30.099  14.876  1.00  0.00     0.000 C 
ENDROOT
BRANCH   1   2
ATOM      2  C   UNL     1      45.721  28.627  15.281  1.00  0.00     0.000 C 
BRANCH   2   3
ATOM      3  C   UNL     1      47.020  27.806  15.159  1.00  0.00     0.000 C 
BRANCH   3   4
ATOM      4  C   UNL     1      47.166  26.653  16.171  1.00  0.00     0.000 C 
BRANCH   4   5
ATOM      5  C   UNL     1      46.571  26.983  17.547  1.00  0.00     0.000 C 
BRANCH   5   6
ATOM      6  C   UNL     1      45.467  25.982  17.922  1.00  0.00     0.006 C 
BRANCH   6   7
ATOM      7  C   UNL     1      44.092  26.652  18.040  1.00  0.00     0.053 C 
BRANCH   7   8
ATOM      8  C   UNL     1      43.083  26.018  17.131  1.00  0.00     0.041 C 
ATOM      9  O   UNL     1      42.983  24.764  17.073  1.00  0.00    -0.550 OA
ATOM     10  O   UNL     1      42.278  26.811  16.323  1.00  0.00    -0.550 OA
ENDBRANCH   7   8
ENDBRANCH   6   7
ENDBRANCH   5   6
ENDBRANCH   4   5
ENDBRANCH   3   4
ENDBRANCH   2   3
ENDBRANCH   1   2
BRANCH   1  11
ATOM     11  C   UNL     1      47.383  30.522  14.803  1.00  0.00     0.000 C 
BRANCH  11  12
ATOM     12  C   UNL     1      47.667  31.990  15.179  1.00  0.00    -0.000 C 
BRANCH  12  13
ATOM     13  C   UNL     1      49.146  32.413  15.085  1.00  0.00    -0.000 C 
BRANCH  13  14
ATOM     14  C   UNL     1      49.700  32.523  13.651  1.00  0.00    -0.000 C 
BRANCH  14  15
ATOM     15  C   UNL     1      50.979  31.704  13.379  1.00  0.00    -0.000 C 
BRANCH  15  16
ATOM     16  C   UNL     1      50.864  30.679  12.237  1.00  0.00    -0.000 C 
BRANCH  16  17
ATOM     17  C   UNL     1      50.019  29.454  12.617  1.00  0.00    -0.003 C 
ATOM     18  C   UNL     1      50.534  28.809  13.900  1.00  0.00     0.004 C 
ENDBRANCH  16  17
ENDBRANCH  15  16
ENDBRANCH  14  15
ENDBRANCH  13  14
ENDBRANCH  12  13
ENDBRANCH  11  12
ENDBRANCH   1  11
TORSDOF 14
ENDMDL
MODEL 5
REMARK VINA RESULT:    -4.248      1.600      2.233
REMARK INTER + INTRA:          -9.340
REMARK INTER:                  -7.847
REMARK INTRA:                  -1.493
REMARK UNBOUND:                -1.615
REMARK SMILES CCCCCCCCCCCCCCCC(=O)[O-]
REMARK SMILES IDX 9 1 10 2 11 3 12 4 13 5 14 6 15 7 16 8 17 9 18 10 8 11 7 12
REMARK SMILES IDX 6 13 5 14 4 15 3 16 2 17 1 18
REMARK H PARENT
REMARK Flexibility Score: inf
ROOT
ATOM      1  C   UNL     1      47.158  31.694  15.245  1.00  0.00     0.000 C 
ENDROOT
BRANCH   1   2
ATOM      2  C   UNL     1      47.124  30.206  14.859  1.00  0.00     0.000 C 
BRANCH   2   3
ATOM      3  C   UNL     1      45.707  29.709  14.510  1.00  0.00     0.000 C 
BRANCH   3   4
ATOM      4  C   UNL     1      45.051  28.800  15.565  1.00  0.00     0.000 C 
BRANCH   4   5
ATOM      5  C   UNL     1      46.073  28.034  16.418  1.00  0.00     0.000 C 
BRANCH   5   6
ATOM      6  C   UNL     1      45.441  26.779  17.038  1.00  0.00     0.006 C 
BRANCH   6   7
ATOM      7  C   UNL     1      44.079  27.072  17.681  1.00  0.00     0.053 C 
BRANCH   7   8
ATOM      8  C   UNL     1      42.989  26.236  17.085  1.00  0.00     0.041 C 
ATOM      9  O   UNL     1      42.925  25.004  17.338  1.00  0.00    -0.550 OA
ATOM     10  O   UNL     1      42.064  26.810  16.222  1.00  0.00    -0.550 OA
ENDBRANCH   7   8
ENDBRANCH   6   7
ENDBRANCH   5   6
ENDBRANCH   4   5
ENDBRANCH   3   4
ENDBRANCH   2   3
ENDBRANCH   1   2
BRANCH   1  11
ATOM     11  C   UNL     1      48.478  32.384  14.851  1.00  0.00     0.000 C 
BRANCH  11  12
ATOM     12  C   UNL     1      49.749  31.786  15.486  1.00  0.00    -0.000 C 
BRANCH  12  13
ATOM     13  C   UNL     1      50.880  31.450  14.494  1.00  0.00    -0.000 C 
BRANCH  13  14
ATOM     14  C   UNL     1      50.473  31.493  13.008  1.00  0.00    -0.000 C 
BRANCH  14  15
ATOM     15  C   UNL     1      49.973  30.154  12.428  1.00  0.00    -0.000 C 
BRANCH  15  16
ATOM     16  C   UNL     1      50.268  28.919  13.298  1.00  0.00    -0.000 C 
BRANCH  16  17
ATOM     17  C   UNL     1      49.569  27.650  12.789  1.00  0.00    -0.003 C 
ATOM     18  C   UNL     1      48.671  27.048  13.865  1.00  0.00     0.004 C 
ENDBRANCH  16  17
ENDBRANCH  15  16
ENDBRANCH  14  15
ENDBRANCH  13  14
ENDBRANCH  12  13
ENDBRANCH  11  12
ENDBRANCH   1  11
TORSDOF 14
ENDMDL
MODEL 6
REMARK VINA RESULT:    -4.185      1.267      2.277
REMARK INTER + INTRA:          -9.224
REMARK INTER:                  -7.714
REMARK INTRA:                  -1.510
REMARK UNBOUND:                -1.615
REMARK SMILES CCCCCCCCCCCCCCCC(=O)[O-]
REMARK SMILES IDX 9 1 10 2 11 3 12 4 13 5 14 6 15 7 16 8 17 9 18 10 8 11 7 12
REMARK SMILES IDX 6 13 5 14 4 15 3 16 2 17 1 18
REMARK H PARENT
REMARK Flexibility Score: inf
ROOT
ATOM      1  C   UNL     1      47.669  31.924  15.193  1.00  0.00     0.000 C 
ENDROOT
BRANCH   1   2
ATOM      2  C   UNL     1      47.411  30.464  14.785  1.00  0.00     0.000 C 
BRANCH   2   3
ATOM      3  C   UNL     1      45.922  30.075  14.856  1.00  0.00     0.000 C 
BRANCH   3   4
ATOM      4  C   UNL     1      45.629  28.710  15.506  1.00  0.00     0.000 C 
BRANCH   4   5
ATOM      5  C   UNL     1      44.133  28.475  15.762  1.00  0.00     0.000 C 
BRANCH   5   6
ATOM      6  C   UNL     1      43.923  27.515  16.943  1.00  0.00     0.006 C 
BRANCH   6   7
ATOM      7  C   UNL     1      45.237  26.881  17.417  1.00  0.00     0.053 C 
BRANCH   7   8
ATOM      8  C   UNL     1      45.038  26.026  18.631  1.00  0.00     0.041 C 
ATOM      9  O   UNL     1      46.031  25.631  19.297  1.00  0.00    -0.550 OA
ATOM     10  O   UNL     1      43.758  25.638  19.007  1.00  0.00    -0.550 OA
ENDBRANCH   7   8
ENDBRANCH   6   7
ENDBRANCH   5   6
ENDBRANCH   4   5
ENDBRANCH   3   4
ENDBRANCH   2   3
ENDBRANCH   1   2
BRANCH   1  11
ATOM     11  C   UNL     1      48.928  32.517  14.534  1.00  0.00     0.000 C 
BRANCH  11  12
ATOM     12  C   UNL     1      50.170  31.603  14.549  1.00  0.00    -0.000 C 
BRANCH  12  13
ATOM     13  C   UNL     1      50.883  31.493  15.912  1.00  0.00    -0.000 C 
BRANCH  13  14
ATOM     14  C   UNL     1      51.423  30.090  16.250  1.00  0.00    -0.000 C 
BRANCH  14  15
ATOM     15  C   UNL     1      50.347  28.995  16.401  1.00  0.00    -0.000 C 
BRANCH  15  16
ATOM     16  C   UNL     1      50.273  27.991  15.237  1.00  0.00    -0.000 C 
BRANCH  16  17
ATOM     17  C   UNL     1      49.086  27.024  15.357  1.00  0.00    -0.003 C 
ATOM     18  C   UNL     1      48.388  26.842  14.014  1.00  0.00     0.004 C 
ENDBRANCH  16  17
ENDBRANCH  15  16
ENDBRANCH  14  15
ENDBRANCH  13  14
ENDBRANCH  12  13
ENDBRANCH  11  12
ENDBRANCH   1  11
TORSDOF 14
ENDMDL
MODEL 7
REMARK VINA RESULT:    -4.130      2.881      4.750
REMARK INTER + INTRA:          -9.124
REMARK INTER:                  -7.377
REMARK INTRA:                  -1.747
REMARK UNBOUND:                -1.615
REMARK SMILES CCCCCCCCCCCCCCCC(=O)[O-]
REMARK SMILES IDX 9 1 10 2 11 3 12 4 13 5 14 6 15 7 16 8 17 9 18 10 8 11 7 12
REMARK SMILES IDX 6 13 5 14 4 15 3 16 2 17 1 18
REMARK H PARENT
REMARK Flexibility Score: inf
ROOT
ATOM      1  C   UNL     1      44.009  28.291  16.002  1.00  0.00     0.000 C 
ENDROOT
BRANCH   1   2
ATOM      2  C   UNL     1      43.707  27.180  17.022  1.00  0.00     0.000 C 
BRANCH   2   3
ATOM      3  C   UNL     1      44.958  26.721  17.797  1.00  0.00     0.000 C 
BRANCH   3   4
ATOM      4  C   UNL     1      45.398  25.269  17.533  1.00  0.00     0.000 C 
BRANCH   4   5
ATOM      5  C   UNL     1      46.890  25.148  17.186  1.00  0.00     0.000 C 
BRANCH   5   6
ATOM      6  C   UNL     1      47.708  26.240  17.891  1.00  0.00     0.006 C 
BRANCH   6   7
ATOM      7  C   UNL     1      48.639  26.983  16.924  1.00  0.00     0.053 C 
BRANCH   7   8
ATOM      8  C   UNL     1      50.058  26.983  17.405  1.00  0.00     0.041 C 
ATOM      9  O   UNL     1      50.931  27.661  16.803  1.00  0.00    -0.550 OA
ATOM     10  O   UNL     1      50.423  26.206  18.498  1.00  0.00    -0.550 OA
ENDBRANCH   7   8
ENDBRANCH   6   7
ENDBRANCH   5   6
ENDBRANCH   4   5
ENDBRANCH   3   4
ENDBRANCH   2   3
ENDBRANCH   1   2
BRANCH   1  11
ATOM     11  C   UNL     1      45.507  28.640  15.922  1.00  0.00     0.000 C 
BRANCH  11  12
ATOM     12  C   UNL     1      45.991  29.149  14.550  1.00  0.00    -0.000 C 
BRANCH  12  13
ATOM     13  C   UNL     1      47.030  28.250  13.850  1.00  0.00    -0.000 C 
BRANCH  13  14
ATOM     14  C   UNL     1      48.388  28.922  13.572  1.00  0.00    -0.000 C 
BRANCH  14  15
ATOM     15  C   UNL     1      48.860  29.913  14.656  1.00  0.00    -0.000 C 
BRANCH  15  16
ATOM     16  C   UNL     1      49.611  31.147  14.126  1.00  0.00    -0.000 C 
BRANCH  16  17
ATOM     17  C   UNL     1      49.008  32.470  14.618  1.00  0.00    -0.003 C 
ATOM     18  C   UNL     1      47.632  32.249  15.239  1.00  0.00     0.004 C 
ENDBRANCH  16  17
ENDBRANCH  15  16
ENDBRANCH  14  15
ENDBRANCH  13  14
ENDBRANCH  12  13
ENDBRANCH  11  12
ENDBRANCH   1  11
TORSDOF 14
ENDMDL
MODEL 8
REMARK VINA RESULT:    -4.095      1.178      3.049
REMARK INTER + INTRA:          -9.061
REMARK INTER:                  -7.248
REMARK INTRA:                  -1.813
REMARK UNBOUND:                -1.615
REMARK SMILES CCCCCCCCCCCCCCCC(=O)[O-]
REMARK SMILES IDX 9 1 10 2 11 3 12 4 13 5 14 6 15 7 16 8 17 9 18 10 8 11 7 12
REMARK SMILES IDX 6 13 5 14 4 15 3 16 2 17 1 18
REMARK H PARENT
REMARK Flexibility Score: inf
ROOT
ATOM      1  C   UNL     1      48.993  27.859  13.911  1.00  0.00     0.000 C 
ENDROOT
BRANCH   1   2
ATOM      2  C   UNL     1      47.717  28.702  13.751  1.00  0.00     0.000 C 
BRANCH   2   3
ATOM      3  C   UNL     1      46.853  28.731  15.027  1.00  0.00     0.000 C 
BRANCH   3   4
ATOM      4  C   UNL     1      45.478  29.407  14.874  1.00  0.00     0.000 C 
BRANCH   4   5
ATOM      5  C   UNL     1      44.363  28.679  15.639  1.00  0.00     0.000 C 
BRANCH   5   6
ATOM      6  C   UNL     1      44.950  27.658  16.625  1.00  0.00     0.006 C 
BRANCH   6   7
ATOM      7  C   UNL     1      43.997  27.362  17.790  1.00  0.00     0.053 C 
BRANCH   7   8
ATOM      8  C   UNL     1      44.259  26.017  18.397  1.00  0.00     0.041 C 
ATOM      9  O   UNL     1      45.349  25.789  18.985  1.00  0.00    -0.550 OA
ATOM     10  O   UNL     1      43.313  25.006  18.284  1.00  0.00    -0.550 OA
ENDBRANCH   7   8
ENDBRANCH   6   7
ENDBRANCH   5   6
ENDBRANCH   4   5
ENDBRANCH   3   4
ENDBRANCH   2   3
ENDBRANCH   1   2
BRANCH   1  11
ATOM     11  C   UNL     1      49.011  27.041  15.216  1.00  0.00     0.000 C 
BRANCH  11  12
ATOM     12  C   UNL     1      50.329  27.104  16.014  1.00  0.00    -0.000 C 
BRANCH  12  13
ATOM     13  C   UNL     1      50.439  28.281  17.003  1.00  0.00    -0.000 C 
BRANCH  13  14
ATOM     14  C   UNL     1      51.138  29.536  16.444  1.00  0.00    -0.000 C 
BRANCH  14  15
ATOM     15  C   UNL     1      50.193  30.684  16.035  1.00  0.00    -0.000 C 
BRANCH  15  16
ATOM     16  C   UNL     1      50.598  31.434  14.754  1.00  0.00    -0.000 C 
BRANCH  16  17
ATOM     17  C   UNL     1      49.399  32.056  14.022  1.00  0.00    -0.003 C 
ATOM     18  C   UNL     1      48.234  32.291  14.978  1.00  0.00     0.004 C 
ENDBRANCH  16  17
ENDBRANCH  15  16
ENDBRANCH  14  15
ENDBRANCH  13  14
ENDBRANCH  12  13
ENDBRANCH  11  12
ENDBRANCH   1  11
TORSDOF 14
ENDMDL
MODEL 9
REMARK VINA RESULT:    -4.081      3.608      7.261
REMARK INTER + INTRA:          -9.036
REMARK INTER:                  -7.453
REMARK INTRA:                  -1.583
REMARK UNBOUND:                -1.615
REMARK SMILES CCCCCCCCCCCCCCCC(=O)[O-]
REMARK SMILES IDX 9 1 10 2 11 3 12 4 13 5 14 6 15 7 16 8 17 9 18 10 8 11 7 12
REMARK SMILES IDX 6 13 5 14 4 15 3 16 2 17 1 18
REMARK H PARENT
REMARK Flexibility Score: inf
ROOT
ATOM      1  C   UNL     1      45.499  28.644  15.946  1.00  0.00     0.000 C 
ENDROOT
BRANCH   1   2
ATOM      2  C   UNL     1      45.916  29.462  14.711  1.00  0.00     0.000 C 
BRANCH   2   3
ATOM      3  C   UNL     1      47.048  28.798  13.905  1.00  0.00     0.000 C 
BRANCH   3   4
ATOM      4  C   UNL     1      48.253  28.319  14.737  1.00  0.00     0.000 C 
BRANCH   4   5
ATOM      5  C   UNL     1      49.508  29.179  14.526  1.00  0.00     0.000 C 
BRANCH   5   6
ATOM      6  C   UNL     1      49.397  30.006  13.236  1.00  0.00     0.006 C 
BRANCH   6   7
ATOM      7  C   UNL     1      49.948  31.427  13.409  1.00  0.00     0.053 C 
BRANCH   7   8
ATOM      8  C   UNL     1      49.432  32.078  14.656  1.00  0.00     0.041 C 
ATOM      9  O   UNL     1      48.211  32.369  14.759  1.00  0.00    -0.550 OA
ATOM     10  O   UNL     1      50.305  32.394  15.689  1.00  0.00    -0.550 OA
ENDBRANCH   7   8
ENDBRANCH   6   7
ENDBRANCH   5   6
ENDBRANCH   4   5
ENDBRANCH   3   4
ENDBRANCH   2   3
ENDBRANCH   1   2
BRANCH   1  11
ATOM     11  C   UNL     1      44.013  28.242  15.924  1.00  0.00     0.000 C 
BRANCH  11  12
ATOM     12  C   UNL     1      43.495  27.565  17.209  1.00  0.00    -0.000 C 
BRANCH  12  13
ATOM     13  C   UNL     1      42.910  26.152  17.013  1.00  0.00    -0.000 C 
BRANCH  13  14
ATOM     14  C   UNL     1      43.762  25.010  17.599  1.00  0.00    -0.000 C 
BRANCH  14  15
ATOM     15  C   UNL     1      44.443  25.328  18.946  1.00  0.00    -0.000 C 
BRANCH  15  16
ATOM     16  C   UNL     1      45.957  25.053  18.989  1.00  0.00    -0.000 C 
BRANCH  16  17
ATOM     17  C   UNL     1      46.770  26.056  18.158  1.00  0.00    -0.003 C 
ATOM     18  C   UNL     1      47.338  25.398  16.905  1.00  0.00     0.004 C 
ENDBRANCH  16  17
ENDBRANCH  15  16
ENDBRANCH  14  15
ENDBRANCH  13  14
ENDBRANCH  12  13
ENDBRANCH  11  12
ENDBRANCH   1  11
TORSDOF 14
ENDMDL
