MODEL 1
REMARK VINA RESULT:    39.411      0.000      0.000
REMARK INTER + INTRA:          47.209
REMARK INTER:                  47.474
REMARK INTRA:                  -0.265
REMARK UNBOUND:                -0.265
REMARK SMILES Oc1cc(O)c2cc(O)c(-c3ccc(O)c(O)c3)[o+]c2c1.[Cl-]
REMARK SMILES IDX 10 1 19 2 20 3 21 4 2 5 3 6 4 7 6 8 7 9 8 10 11 11 12 12
REMARK SMILES IDX 13 13 14 14 18 15 16 16 15 17 17 19 9 21 1 23 5 25
REMARK H PARENT 15 18 17 20 9 22 1 24 5 26
REMARK Flexibility Score: inf
ROOT
ATOM      1  C   UNL     1       9.786 -22.995 -22.349  1.00  0.00     0.402 A 
ATOM      2  O   UNL     1       9.174 -23.807 -23.207  1.00  0.00    -0.202 OA
ATOM      3  C   UNL     1       9.780 -24.827 -23.806  1.00  0.00     0.368 A 
ATOM      4  C   UNL     1       9.052 -25.626 -24.691  1.00  0.00     0.162 A 
ATOM      5  C   UNL     1       9.663 -26.707 -25.331  1.00  0.00     0.128 A 
ATOM      6  C   UNL     1      11.007 -26.992 -25.083  1.00  0.00     0.093 A 
ATOM      7  C   UNL     1      11.759 -26.207 -24.200  1.00  0.00     0.136 A 
ATOM      8  C   UNL     1      11.143 -25.106 -23.550  1.00  0.00     0.125 A 
ATOM      9  C   UNL     1      11.822 -24.257 -22.660  1.00  0.00     0.078 A 
ATOM     10  C   UNL     1      11.150 -23.189 -22.060  1.00  0.00     0.223 A 
ENDROOT
BRANCH   1  11
ATOM     11  C   UNL     1       8.999 -21.898 -21.739  1.00  0.00     0.087 A 
ATOM     12  C   UNL     1       9.198 -20.580 -22.179  1.00  0.00     0.022 A 
ATOM     13  C   UNL     1       8.454 -19.531 -21.633  1.00  0.00     0.051 A 
ATOM     14  C   UNL     1       7.491 -19.784 -20.652  1.00  0.00     0.157 A 
ATOM     15  C   UNL     1       8.015 -22.153 -20.768  1.00  0.00     0.068 A 
ATOM     16  C   UNL     1       7.266 -21.102 -20.219  1.00  0.00     0.158 A 
BRANCH  14  17
ATOM     17  O   UNL     1       6.765 -18.717 -20.124  1.00  0.00    -0.504 OA
ATOM     18  H   UNL     1       7.089 -17.758 -20.195  1.00  0.00     0.293 HD
ENDBRANCH  14  17
BRANCH  16  19
ATOM     19  O   UNL     1       6.296 -21.362 -19.251  1.00  0.00    -0.504 OA
ATOM     20  H   UNL     1       6.489 -21.958 -18.455  1.00  0.00     0.293 HD
ENDBRANCH  16  19
ENDBRANCH   1  11
BRANCH  10  21
ATOM     21  O   UNL     1      11.835 -22.316 -21.215  1.00  0.00    -0.500 OA
ATOM     22  H   UNL     1      11.363 -21.559 -20.736  1.00  0.00     0.294 HD
ENDBRANCH  10  21
BRANCH   5  23
ATOM     23  O   UNL     1       8.942 -27.508 -26.216  1.00  0.00    -0.507 OA
ATOM     24  H   UNL     1       8.320 -28.235 -25.885  1.00  0.00     0.293 HD
ENDBRANCH   5  23
BRANCH   7  25
ATOM     25  O   UNL     1      13.097 -26.561 -24.005  1.00  0.00    -0.507 OA
ATOM     26  H   UNL     1      13.521 -27.406 -24.359  1.00  0.00     0.293 HD
ENDBRANCH   7  25
TORSDOF 6
ENDMDL
