MODEL 1
REMARK VINA RESULT:    -6.472      0.000      0.000
REMARK INTER + INTRA:         -19.838
REMARK INTER:                 -17.067
REMARK INTRA:                  -2.771
REMARK UNBOUND:                -2.771
REMARK SMILES CCCCCCCCCCCCCCCCCCCCCCCCCCCCCC(=O)[O-]
REMARK SMILES IDX 16 1 17 2 18 3 19 4 20 5 21 6 22 7 23 8 24 9 25 10 26 11
REMARK SMILES IDX 27 12 28 13 29 14 30 15 31 16 32 17 15 18 14 19 13 20 12 21
REMARK SMILES IDX 11 22 10 23 9 24 8 25 7 26 6 27 5 28 4 29 3 30 2 31 1 32
REMARK H PARENT
REMARK Flexibility Score: inf
ROOT
ATOM      1  C   UNL     1     -21.797 -21.377  31.634  1.00  0.00     0.000 C 
ENDROOT
BRANCH   1   2
ATOM      2  C   UNL     1     -22.911 -22.366  32.012  1.00  0.00     0.000 C 
BRANCH   2   3
ATOM      3  C   UNL     1     -22.755 -23.719  31.293  1.00  0.00     0.000 C 
BRANCH   3   4
ATOM      4  C   UNL     1     -21.902 -23.612  30.011  1.00  0.00     0.000 C 
BRANCH   4   5
ATOM      5  C   UNL     1     -22.466 -24.402  28.812  1.00  0.00     0.000 C 
BRANCH   5   6
ATOM      6  C   UNL     1     -23.881 -24.975  29.002  1.00  0.00     0.000 C 
BRANCH   6   7
ATOM      7  C   UNL     1     -23.900 -26.514  29.032  1.00  0.00     0.000 C 
BRANCH   7   8
ATOM      8  C   UNL     1     -24.055 -27.077  30.455  1.00  0.00     0.000 C 
BRANCH   8   9
ATOM      9  C   UNL     1     -25.259 -26.479  31.203  1.00  0.00     0.000 C 
BRANCH   9  10
ATOM     10  C   UNL     1     -26.410 -27.487  31.361  1.00  0.00     0.000 C 
BRANCH  10  11
ATOM     11  C   UNL     1     -26.208 -28.756  30.517  1.00  0.00     0.000 C 
BRANCH  11  12
ATOM     12  C   UNL     1     -27.098 -28.735  29.268  1.00  0.00     0.000 C 
BRANCH  12  13
ATOM     13  C   UNL     1     -26.254 -28.745  27.988  1.00  0.00     0.006 C 
BRANCH  13  14
ATOM     14  C   UNL     1     -26.940 -27.951  26.872  1.00  0.00     0.053 C 
BRANCH  14  15
ATOM     15  C   UNL     1     -26.944 -28.728  25.594  1.00  0.00     0.041 C 
ATOM     16  O   UNL     1     -25.859 -29.030  25.033  1.00  0.00    -0.550 OA
ATOM     17  O   UNL     1     -28.147 -29.133  25.027  1.00  0.00    -0.550 OA
ENDBRANCH  14  15
ENDBRANCH  13  14
ENDBRANCH  12  13
ENDBRANCH  11  12
ENDBRANCH  10  11
ENDBRANCH   9  10
ENDBRANCH   8   9
ENDBRANCH   7   8
ENDBRANCH   6   7
ENDBRANCH   5   6
ENDBRANCH   4   5
ENDBRANCH   3   4
ENDBRANCH   2   3
ENDBRANCH   1   2
BRANCH   1  18
ATOM     18  C   UNL     1     -22.284 -20.290  30.662  1.00  0.00     0.000 C 
BRANCH  18  19
ATOM     19  C   UNL     1     -21.550 -20.351  29.311  1.00  0.00     0.000 C 
BRANCH  19  20
ATOM     20  C   UNL     1     -21.608 -19.005  28.568  1.00  0.00     0.000 C 
BRANCH  20  21
ATOM     21  C   UNL     1     -20.565 -17.994  29.077  1.00  0.00     0.000 C 
BRANCH  21  22
ATOM     22  C   UNL     1     -19.263 -18.614  29.630  1.00  0.00     0.000 C 
BRANCH  22  23
ATOM     23  C   UNL     1     -19.095 -18.541  31.159  1.00  0.00     0.000 C 
BRANCH  23  24
ATOM     24  C   UNL     1     -18.808 -17.135  31.722  1.00  0.00    -0.000 C 
BRANCH  24  25
ATOM     25  C   UNL     1     -17.772 -16.329  30.908  1.00  0.00    -0.000 C 
BRANCH  25  26
ATOM     26  C   UNL     1     -18.330 -14.991  30.385  1.00  0.00    -0.000 C 
BRANCH  26  27
ATOM     27  C   UNL     1     -17.712 -14.573  29.034  1.00  0.00    -0.000 C 
BRANCH  27  28
ATOM     28  C   UNL     1     -17.125 -15.748  28.226  1.00  0.00    -0.000 C 
BRANCH  28  29
ATOM     29  C   UNL     1     -17.957 -16.184  27.004  1.00  0.00    -0.000 C 
BRANCH  29  30
ATOM     30  C   UNL     1     -17.863 -15.250  25.783  1.00  0.00    -0.000 C 
BRANCH  30  31
ATOM     31  C   UNL     1     -16.415 -14.937  25.378  1.00  0.00    -0.003 C 
ATOM     32  C   UNL     1     -15.835 -16.041  24.499  1.00  0.00     0.004 C 
ENDBRANCH  30  31
ENDBRANCH  29  30
ENDBRANCH  28  29
ENDBRANCH  27  28
ENDBRANCH  26  27
ENDBRANCH  25  26
ENDBRANCH  24  25
ENDBRANCH  23  24
ENDBRANCH  22  23
ENDBRANCH  21  22
ENDBRANCH  20  21
ENDBRANCH  19  20
ENDBRANCH  18  19
ENDBRANCH   1  18
TORSDOF 28
ENDMDL
MODEL 2
REMARK VINA RESULT:    -6.456      4.186     12.563
REMARK INTER + INTRA:         -19.794
REMARK INTER:                 -17.050
REMARK INTRA:                  -2.744
REMARK UNBOUND:                -2.771
REMARK SMILES CCCCCCCCCCCCCCCCCCCCCCCCCCCCCC(=O)[O-]
REMARK SMILES IDX 16 1 17 2 18 3 19 4 20 5 21 6 22 7 23 8 24 9 25 10 26 11
REMARK SMILES IDX 27 12 28 13 29 14 30 15 31 16 32 17 15 18 14 19 13 20 12 21
REMARK SMILES IDX 11 22 10 23 9 24 8 25 7 26 6 27 5 28 4 29 3 30 2 31 1 32
REMARK H PARENT
REMARK Flexibility Score: inf
ROOT
ATOM      1  C   UNL     1     -22.912 -22.435  31.951  1.00  0.00     0.000 C 
ENDROOT
BRANCH   1   2
ATOM      2  C   UNL     1     -21.772 -21.485  31.549  1.00  0.00     0.000 C 
BRANCH   2   3
ATOM      3  C   UNL     1     -22.289 -20.241  30.803  1.00  0.00     0.000 C 
BRANCH   3   4
ATOM      4  C   UNL     1     -22.343 -20.450  29.274  1.00  0.00     0.000 C 
BRANCH   4   5
ATOM      5  C   UNL     1     -21.409 -19.516  28.477  1.00  0.00     0.000 C 
BRANCH   5   6
ATOM      6  C   UNL     1     -20.789 -18.358  29.279  1.00  0.00     0.000 C 
BRANCH   6   7
ATOM      7  C   UNL     1     -19.317 -18.612  29.649  1.00  0.00     0.000 C 
BRANCH   7   8
ATOM      8  C   UNL     1     -19.106 -18.772  31.164  1.00  0.00     0.000 C 
BRANCH   8   9
ATOM      9  C   UNL     1     -19.034 -17.422  31.899  1.00  0.00     0.000 C 
BRANCH   9  10
ATOM     10  C   UNL     1     -17.891 -16.532  31.382  1.00  0.00     0.000 C 
BRANCH  10  11
ATOM     11  C   UNL     1     -18.395 -15.356  30.529  1.00  0.00     0.000 C 
BRANCH  11  12
ATOM     12  C   UNL     1     -17.480 -15.119  29.321  1.00  0.00     0.000 C 
BRANCH  12  13
ATOM     13  C   UNL     1     -18.171 -15.529  28.015  1.00  0.00     0.006 C 
BRANCH  13  14
ATOM     14  C   UNL     1     -17.149 -16.019  26.985  1.00  0.00     0.053 C 
BRANCH  14  15
ATOM     15  C   UNL     1     -17.344 -15.326  25.674  1.00  0.00     0.041 C 
ATOM     16  O   UNL     1     -18.500 -15.192  25.195  1.00  0.00    -0.550 OA
ATOM     17  O   UNL     1     -16.250 -14.815  24.985  1.00  0.00    -0.550 OA
ENDBRANCH  14  15
ENDBRANCH  13  14
ENDBRANCH  12  13
ENDBRANCH  11  12
ENDBRANCH  10  11
ENDBRANCH   9  10
ENDBRANCH   8   9
ENDBRANCH   7   8
ENDBRANCH   6   7
ENDBRANCH   5   6
ENDBRANCH   4   5
ENDBRANCH   3   4
ENDBRANCH   2   3
ENDBRANCH   1   2
BRANCH   1  18
ATOM     18  C   UNL     1     -22.664 -23.878  31.480  1.00  0.00     0.000 C 
BRANCH  18  19
ATOM     19  C   UNL     1     -21.955 -23.928  30.116  1.00  0.00     0.000 C 
BRANCH  19  20
ATOM     20  C   UNL     1     -22.945 -24.178  28.965  1.00  0.00     0.000 C 
BRANCH  20  21
ATOM     21  C   UNL     1     -23.581 -25.578  29.015  1.00  0.00     0.000 C 
BRANCH  21  22
ATOM     22  C   UNL     1     -25.090 -25.604  29.346  1.00  0.00     0.000 C 
BRANCH  22  23
ATOM     23  C   UNL     1     -25.435 -25.816  30.831  1.00  0.00     0.000 C 
BRANCH  23  24
ATOM     24  C   UNL     1     -25.291 -27.263  31.340  1.00  0.00    -0.000 C 
BRANCH  24  25
ATOM     25  C   UNL     1     -26.475 -28.184  30.970  1.00  0.00    -0.000 C 
BRANCH  25  26
ATOM     26  C   UNL     1     -26.134 -29.175  29.842  1.00  0.00    -0.000 C 
BRANCH  26  27
ATOM     27  C   UNL     1     -27.140 -29.120  28.672  1.00  0.00    -0.000 C 
BRANCH  27  28
ATOM     28  C   UNL     1     -26.863 -27.984  27.666  1.00  0.00    -0.000 C 
BRANCH  28  29
ATOM     29  C   UNL     1     -26.028 -28.389  26.435  1.00  0.00    -0.000 C 
BRANCH  29  30
ATOM     30  C   UNL     1     -26.828 -29.033  25.286  1.00  0.00    -0.000 C 
BRANCH  30  31
ATOM     31  C   UNL     1     -28.314 -28.643  25.298  1.00  0.00    -0.003 C 
ATOM     32  C   UNL     1     -28.724 -27.987  23.983  1.00  0.00     0.004 C 
ENDBRANCH  30  31
ENDBRANCH  29  30
ENDBRANCH  28  29
ENDBRANCH  27  28
ENDBRANCH  26  27
ENDBRANCH  25  26
ENDBRANCH  24  25
ENDBRANCH  23  24
ENDBRANCH  22  23
ENDBRANCH  21  22
ENDBRANCH  20  21
ENDBRANCH  19  20
ENDBRANCH  18  19
ENDBRANCH   1  18
TORSDOF 28
ENDMDL
MODEL 3
REMARK VINA RESULT:    -6.444      4.204     12.394
REMARK INTER + INTRA:         -19.763
REMARK INTER:                 -16.401
REMARK INTRA:                  -3.362
REMARK UNBOUND:                -2.771
REMARK SMILES CCCCCCCCCCCCCCCCCCCCCCCCCCCCCC(=O)[O-]
REMARK SMILES IDX 16 1 17 2 18 3 19 4 20 5 21 6 22 7 23 8 24 9 25 10 26 11
REMARK SMILES IDX 27 12 28 13 29 14 30 15 31 16 32 17 15 18 14 19 13 20 12 21
REMARK SMILES IDX 11 22 10 23 9 24 8 25 7 26 6 27 5 28 4 29 3 30 2 31 1 32
REMARK H PARENT
REMARK Flexibility Score: inf
ROOT
ATOM      1  C   UNL     1     -21.648 -21.676  31.997  1.00  0.00     0.000 C 
ENDROOT
BRANCH   1   2
ATOM      2  C   UNL     1     -21.851 -20.338  31.267  1.00  0.00     0.000 C 
BRANCH   2   3
ATOM      3  C   UNL     1     -22.385 -20.532  29.836  1.00  0.00     0.000 C 
BRANCH   3   4
ATOM      4  C   UNL     1     -21.391 -20.036  28.764  1.00  0.00     0.000 C 
BRANCH   4   5
ATOM      5  C   UNL     1     -21.444 -18.515  28.512  1.00  0.00     0.000 C 
BRANCH   5   6
ATOM      6  C   UNL     1     -20.233 -17.716  29.027  1.00  0.00     0.000 C 
BRANCH   6   7
ATOM      7  C   UNL     1     -19.094 -18.622  29.527  1.00  0.00     0.000 C 
BRANCH   7   8
ATOM      8  C   UNL     1     -18.888 -18.529  31.048  1.00  0.00     0.000 C 
BRANCH   8   9
ATOM      9  C   UNL     1     -19.186 -17.125  31.603  1.00  0.00     0.000 C 
BRANCH   9  10
ATOM     10  C   UNL     1     -17.985 -16.174  31.469  1.00  0.00     0.000 C 
BRANCH  10  11
ATOM     11  C   UNL     1     -18.207 -15.084  30.408  1.00  0.00     0.000 C 
BRANCH  11  12
ATOM     12  C   UNL     1     -17.316 -15.318  29.182  1.00  0.00     0.000 C 
BRANCH  12  13
ATOM     13  C   UNL     1     -18.149 -15.375  27.896  1.00  0.00     0.006 C 
BRANCH  13  14
ATOM     14  C   UNL     1     -17.411 -16.148  26.798  1.00  0.00     0.053 C 
BRANCH  14  15
ATOM     15  C   UNL     1     -17.290 -15.321  25.558  1.00  0.00     0.041 C 
ATOM     16  O   UNL     1     -18.322 -14.971  24.927  1.00  0.00    -0.550 OA
ATOM     17  O   UNL     1     -16.038 -14.922  25.104  1.00  0.00    -0.550 OA
ENDBRANCH  14  15
ENDBRANCH  13  14
ENDBRANCH  12  13
ENDBRANCH  11  12
ENDBRANCH  10  11
ENDBRANCH   9  10
ENDBRANCH   8   9
ENDBRANCH   7   8
ENDBRANCH   6   7
ENDBRANCH   5   6
ENDBRANCH   4   5
ENDBRANCH   3   4
ENDBRANCH   2   3
ENDBRANCH   1   2
BRANCH   1  18
ATOM     18  C   UNL     1     -22.981 -22.354  32.357  1.00  0.00     0.000 C 
BRANCH  18  19
ATOM     19  C   UNL     1     -23.175 -23.683  31.606  1.00  0.00     0.000 C 
BRANCH  19  20
ATOM     20  C   UNL     1     -22.014 -23.967  30.638  1.00  0.00     0.000 C 
BRANCH  20  21
ATOM     21  C   UNL     1     -22.480 -24.156  29.183  1.00  0.00     0.000 C 
BRANCH  21  22
ATOM     22  C   UNL     1     -23.810 -24.923  29.012  1.00  0.00     0.000 C 
BRANCH  22  23
ATOM     23  C   UNL     1     -23.693 -26.457  29.030  1.00  0.00     0.000 C 
BRANCH  23  24
ATOM     24  C   UNL     1     -23.991 -27.124  30.387  1.00  0.00    -0.000 C 
BRANCH  24  25
ATOM     25  C   UNL     1     -25.261 -26.591  31.087  1.00  0.00    -0.000 C 
BRANCH  25  26
ATOM     26  C   UNL     1     -26.488 -27.498  30.873  1.00  0.00    -0.000 C 
BRANCH  26  27
ATOM     27  C   UNL     1     -26.103 -28.961  30.564  1.00  0.00    -0.000 C 
BRANCH  27  28
ATOM     28  C   UNL     1     -26.761 -29.521  29.287  1.00  0.00    -0.000 C 
BRANCH  28  29
ATOM     29  C   UNL     1     -27.296 -28.460  28.305  1.00  0.00    -0.000 C 
BRANCH  29  30
ATOM     30  C   UNL     1     -26.291 -27.994  27.235  1.00  0.00    -0.000 C 
BRANCH  30  31
ATOM     31  C   UNL     1     -26.433 -28.756  25.908  1.00  0.00    -0.003 C 
ATOM     32  C   UNL     1     -27.856 -28.662  25.365  1.00  0.00     0.004 C 
ENDBRANCH  30  31
ENDBRANCH  29  30
ENDBRANCH  28  29
ENDBRANCH  27  28
ENDBRANCH  26  27
ENDBRANCH  25  26
ENDBRANCH  24  25
ENDBRANCH  23  24
ENDBRANCH  22  23
ENDBRANCH  21  22
ENDBRANCH  20  21
ENDBRANCH  19  20
ENDBRANCH  18  19
ENDBRANCH   1  18
TORSDOF 28
ENDMDL
MODEL 4
REMARK VINA RESULT:    -6.300      0.702      1.179
REMARK INTER + INTRA:         -19.383
REMARK INTER:                 -16.586
REMARK INTRA:                  -2.797
REMARK UNBOUND:                -2.771
REMARK SMILES CCCCCCCCCCCCCCCCCCCCCCCCCCCCCC(=O)[O-]
REMARK SMILES IDX 16 1 17 2 18 3 19 4 20 5 21 6 22 7 23 8 24 9 25 10 26 11
REMARK SMILES IDX 27 12 28 13 29 14 30 15 31 16 32 17 15 18 14 19 13 20 12 21
REMARK SMILES IDX 11 22 10 23 9 24 8 25 7 26 6 27 5 28 4 29 3 30 2 31 1 32
REMARK H PARENT
REMARK Flexibility Score: inf
ROOT
ATOM      1  C   UNL     1     -22.327 -20.439  30.877  1.00  0.00     0.000 C 
ENDROOT
BRANCH   1   2
ATOM      2  C   UNL     1     -21.773 -21.667  31.617  1.00  0.00     0.000 C 
BRANCH   2   3
ATOM      3  C   UNL     1     -22.890 -22.512  32.258  1.00  0.00     0.000 C 
BRANCH   3   4
ATOM      4  C   UNL     1     -23.112 -23.850  31.522  1.00  0.00     0.000 C 
BRANCH   4   5
ATOM      5  C   UNL     1     -22.118 -24.109  30.370  1.00  0.00     0.000 C 
BRANCH   5   6
ATOM      6  C   UNL     1     -22.754 -24.414  29.003  1.00  0.00     0.000 C 
BRANCH   6   7
ATOM      7  C   UNL     1     -23.601 -25.699  29.015  1.00  0.00     0.000 C 
BRANCH   7   8
ATOM      8  C   UNL     1     -25.085 -25.427  29.311  1.00  0.00     0.000 C 
BRANCH   8   9
ATOM      9  C   UNL     1     -25.544 -26.026  30.652  1.00  0.00     0.000 C 
BRANCH   9  10
ATOM     10  C   UNL     1     -25.195 -27.519  30.777  1.00  0.00     0.000 C 
BRANCH  10  11
ATOM     11  C   UNL     1     -26.442 -28.417  30.818  1.00  0.00     0.000 C 
BRANCH  11  12
ATOM     12  C   UNL     1     -26.400 -29.470  29.704  1.00  0.00     0.000 C 
BRANCH  12  13
ATOM     13  C   UNL     1     -27.212 -29.017  28.485  1.00  0.00     0.006 C 
BRANCH  13  14
ATOM     14  C   UNL     1     -26.321 -28.293  27.470  1.00  0.00     0.053 C 
BRANCH  14  15
ATOM     15  C   UNL     1     -26.765 -28.585  26.072  1.00  0.00     0.041 C 
ATOM     16  O   UNL     1     -27.978 -28.473  25.757  1.00  0.00    -0.550 OA
ATOM     17  O   UNL     1     -25.836 -28.969  25.112  1.00  0.00    -0.550 OA
ENDBRANCH  14  15
ENDBRANCH  13  14
ENDBRANCH  12  13
ENDBRANCH  11  12
ENDBRANCH  10  11
ENDBRANCH   9  10
ENDBRANCH   8   9
ENDBRANCH   7   8
ENDBRANCH   6   7
ENDBRANCH   5   6
ENDBRANCH   4   5
ENDBRANCH   3   4
ENDBRANCH   2   3
ENDBRANCH   1   2
BRANCH   1  18
ATOM     18  C   UNL     1     -22.516 -20.698  29.373  1.00  0.00     0.000 C 
BRANCH  18  19
ATOM     19  C   UNL     1     -21.498 -19.923  28.520  1.00  0.00     0.000 C 
BRANCH  19  20
ATOM     20  C   UNL     1     -21.461 -18.430  28.889  1.00  0.00     0.000 C 
BRANCH  20  21
ATOM     21  C   UNL     1     -20.040 -17.841  28.867  1.00  0.00     0.000 C 
BRANCH  21  22
ATOM     22  C   UNL     1     -18.978 -18.656  29.639  1.00  0.00     0.000 C 
BRANCH  22  23
ATOM     23  C   UNL     1     -19.159 -18.696  31.167  1.00  0.00     0.000 C 
BRANCH  23  24
ATOM     24  C   UNL     1     -19.215 -17.319  31.858  1.00  0.00    -0.000 C 
BRANCH  24  25
ATOM     25  C   UNL     1     -17.974 -16.435  31.604  1.00  0.00    -0.000 C 
BRANCH  25  26
ATOM     26  C   UNL     1     -18.243 -15.299  30.599  1.00  0.00    -0.000 C 
BRANCH  26  27
ATOM     27  C   UNL     1     -17.269 -15.315  29.402  1.00  0.00    -0.000 C 
BRANCH  27  28
ATOM     28  C   UNL     1     -17.937 -14.990  28.051  1.00  0.00    -0.000 C 
BRANCH  28  29
ATOM     29  C   UNL     1     -17.504 -15.886  26.873  1.00  0.00    -0.000 C 
BRANCH  29  30
ATOM     30  C   UNL     1     -17.721 -15.278  25.475  1.00  0.00    -0.000 C 
BRANCH  30  31
ATOM     31  C   UNL     1     -16.405 -14.930  24.762  1.00  0.00    -0.003 C 
ATOM     32  C   UNL     1     -15.595 -16.186  24.453  1.00  0.00     0.004 C 
ENDBRANCH  30  31
ENDBRANCH  29  30
ENDBRANCH  28  29
ENDBRANCH  27  28
ENDBRANCH  26  27
ENDBRANCH  25  26
ENDBRANCH  24  25
ENDBRANCH  23  24
ENDBRANCH  22  23
ENDBRANCH  21  22
ENDBRANCH  20  21
ENDBRANCH  19  20
ENDBRANCH  18  19
ENDBRANCH   1  18
TORSDOF 28
ENDMDL
MODEL 5
REMARK VINA RESULT:    -5.651      4.462     12.632
REMARK INTER + INTRA:         -17.673
REMARK INTER:                 -15.715
REMARK INTRA:                  -1.958
REMARK UNBOUND:                -2.771
REMARK SMILES CCCCCCCCCCCCCCCCCCCCCCCCCCCCCC(=O)[O-]
REMARK SMILES IDX 16 1 17 2 18 3 19 4 20 5 21 6 22 7 23 8 24 9 25 10 26 11
REMARK SMILES IDX 27 12 28 13 29 14 30 15 31 16 32 17 15 18 14 19 13 20 12 21
REMARK SMILES IDX 11 22 10 23 9 24 8 25 7 26 6 27 5 28 4 29 3 30 2 31 1 32
REMARK H PARENT
REMARK Flexibility Score: inf
ROOT
ATOM      1  C   UNL     1     -22.358 -22.033  28.241  1.00  0.00     0.000 C 
ENDROOT
BRANCH   1   2
ATOM      2  C   UNL     1     -22.489 -20.698  28.992  1.00  0.00     0.000 C 
BRANCH   2   3
ATOM      3  C   UNL     1     -21.625 -19.590  28.362  1.00  0.00     0.000 C 
BRANCH   3   4
ATOM      4  C   UNL     1     -20.831 -18.791  29.417  1.00  0.00     0.000 C 
BRANCH   4   5
ATOM      5  C   UNL     1     -21.092 -19.234  30.872  1.00  0.00     0.000 C 
BRANCH   5   6
ATOM      6  C   UNL     1     -20.215 -18.555  31.938  1.00  0.00     0.000 C 
BRANCH   6   7
ATOM      7  C   UNL     1     -18.722 -18.548  31.564  1.00  0.00     0.000 C 
BRANCH   7   8
ATOM      8  C   UNL     1     -18.105 -17.141  31.617  1.00  0.00     0.000 C 
BRANCH   8   9
ATOM      9  C   UNL     1     -18.797 -16.152  30.663  1.00  0.00     0.000 C 
BRANCH   9  10
ATOM     10  C   UNL     1     -17.886 -14.975  30.276  1.00  0.00     0.000 C 
BRANCH  10  11
ATOM     11  C   UNL     1     -17.582 -14.931  28.770  1.00  0.00     0.000 C 
BRANCH  11  12
ATOM     12  C   UNL     1     -18.276 -16.082  28.033  1.00  0.00     0.000 C 
BRANCH  12  13
ATOM     13  C   UNL     1     -17.499 -16.479  26.772  1.00  0.00     0.006 C 
BRANCH  13  14
ATOM     14  C   UNL     1     -17.417 -15.308  25.787  1.00  0.00     0.053 C 
BRANCH  14  15
ATOM     15  C   UNL     1     -16.101 -15.306  25.076  1.00  0.00     0.041 C 
ATOM     16  O   UNL     1     -15.866 -16.156  24.178  1.00  0.00    -0.550 OA
ATOM     17  O   UNL     1     -15.137 -14.356  25.395  1.00  0.00    -0.550 OA
ENDBRANCH  14  15
ENDBRANCH  13  14
ENDBRANCH  12  13
ENDBRANCH  11  12
ENDBRANCH  10  11
ENDBRANCH   9  10
ENDBRANCH   8   9
ENDBRANCH   7   8
ENDBRANCH   6   7
ENDBRANCH   5   6
ENDBRANCH   4   5
ENDBRANCH   3   4
ENDBRANCH   2   3
ENDBRANCH   1   2
BRANCH   1  18
ATOM     18  C   UNL     1     -22.431 -23.245  29.185  1.00  0.00     0.000 C 
BRANCH  18  19
ATOM     19  C   UNL     1     -21.643 -23.013  30.486  1.00  0.00     0.000 C 
BRANCH  19  20
ATOM     20  C   UNL     1     -22.549 -22.511  31.623  1.00  0.00     0.000 C 
BRANCH  20  21
ATOM     21  C   UNL     1     -23.589 -23.556  32.066  1.00  0.00     0.000 C 
BRANCH  21  22
ATOM     22  C   UNL     1     -23.301 -25.004  31.611  1.00  0.00     0.000 C 
BRANCH  22  23
ATOM     23  C   UNL     1     -24.406 -26.027  31.930  1.00  0.00     0.000 C 
BRANCH  23  24
ATOM     24  C   UNL     1     -25.653 -25.950  31.027  1.00  0.00    -0.000 C 
BRANCH  24  25
ATOM     25  C   UNL     1     -25.337 -25.732  29.531  1.00  0.00    -0.000 C 
BRANCH  25  26
ATOM     26  C   UNL     1     -24.971 -27.038  28.800  1.00  0.00    -0.000 C 
BRANCH  26  27
ATOM     27  C   UNL     1     -26.047 -28.134  28.960  1.00  0.00    -0.000 C 
BRANCH  27  28
ATOM     28  C   UNL     1     -26.965 -28.289  27.731  1.00  0.00    -0.000 C 
BRANCH  28  29
ATOM     29  C   UNL     1     -26.237 -28.373  26.375  1.00  0.00    -0.000 C 
BRANCH  29  30
ATOM     30  C   UNL     1     -27.001 -29.123  25.268  1.00  0.00    -0.000 C 
BRANCH  30  31
ATOM     31  C   UNL     1     -28.249 -28.369  24.783  1.00  0.00    -0.003 C 
ATOM     32  C   UNL     1     -29.527 -29.100  25.182  1.00  0.00     0.004 C 
ENDBRANCH  30  31
ENDBRANCH  29  30
ENDBRANCH  28  29
ENDBRANCH  27  28
ENDBRANCH  26  27
ENDBRANCH  25  26
ENDBRANCH  24  25
ENDBRANCH  23  24
ENDBRANCH  22  23
ENDBRANCH  21  22
ENDBRANCH  20  21
ENDBRANCH  19  20
ENDBRANCH  18  19
ENDBRANCH   1  18
TORSDOF 28
ENDMDL
MODEL 6
REMARK VINA RESULT:    -5.550      0.989      1.963
REMARK INTER + INTRA:         -17.406
REMARK INTER:                 -15.389
REMARK INTRA:                  -2.017
REMARK UNBOUND:                -2.771
REMARK SMILES CCCCCCCCCCCCCCCCCCCCCCCCCCCCCC(=O)[O-]
REMARK SMILES IDX 16 1 17 2 18 3 19 4 20 5 21 6 22 7 23 8 24 9 25 10 26 11
REMARK SMILES IDX 27 12 28 13 29 14 30 15 31 16 32 17 15 18 14 19 13 20 12 21
REMARK SMILES IDX 11 22 10 23 9 24 8 25 7 26 6 27 5 28 4 29 3 30 2 31 1 32
REMARK H PARENT
REMARK Flexibility Score: inf
ROOT
ATOM      1  C   UNL     1     -21.832 -20.977  29.066  1.00  0.00     0.000 C 
ENDROOT
BRANCH   1   2
ATOM      2  C   UNL     1     -22.154 -22.208  28.204  1.00  0.00     0.000 C 
BRANCH   2   3
ATOM      3  C   UNL     1     -21.850 -23.528  28.939  1.00  0.00     0.000 C 
BRANCH   3   4
ATOM      4  C   UNL     1     -22.757 -24.686  28.470  1.00  0.00     0.000 C 
BRANCH   4   5
ATOM      5  C   UNL     1     -23.770 -25.162  29.532  1.00  0.00     0.000 C 
BRANCH   5   6
ATOM      6  C   UNL     1     -23.390 -24.859  30.992  1.00  0.00     0.000 C 
BRANCH   6   7
ATOM      7  C   UNL     1     -24.131 -25.759  31.998  1.00  0.00     0.000 C 
BRANCH   7   8
ATOM      8  C   UNL     1     -25.650 -25.778  31.767  1.00  0.00     0.000 C 
BRANCH   8   9
ATOM      9  C   UNL     1     -26.220 -27.204  31.675  1.00  0.00     0.000 C 
BRANCH   9  10
ATOM     10  C   UNL     1     -25.687 -27.971  30.453  1.00  0.00     0.000 C 
BRANCH  10  11
ATOM     11  C   UNL     1     -26.449 -29.282  30.197  1.00  0.00     0.000 C 
BRANCH  11  12
ATOM     12  C   UNL     1     -26.862 -29.402  28.725  1.00  0.00     0.000 C 
BRANCH  12  13
ATOM     13  C   UNL     1     -26.406 -28.177  27.922  1.00  0.00     0.006 C 
BRANCH  13  14
ATOM     14  C   UNL     1     -27.414 -27.839  26.819  1.00  0.00     0.053 C 
BRANCH  14  15
ATOM     15  C   UNL     1     -27.053 -28.529  25.542  1.00  0.00     0.041 C 
ATOM     16  O   UNL     1     -25.888 -28.970  25.369  1.00  0.00    -0.550 OA
ATOM     17  O   UNL     1     -28.009 -28.699  24.547  1.00  0.00    -0.550 OA
ENDBRANCH  14  15
ENDBRANCH  13  14
ENDBRANCH  12  13
ENDBRANCH  11  12
ENDBRANCH  10  11
ENDBRANCH   9  10
ENDBRANCH   8   9
ENDBRANCH   7   8
ENDBRANCH   6   7
ENDBRANCH   5   6
ENDBRANCH   4   5
ENDBRANCH   3   4
ENDBRANCH   2   3
ENDBRANCH   1   2
BRANCH   1  18
ATOM     18  C   UNL     1     -22.784 -20.838  30.266  1.00  0.00     0.000 C 
BRANCH  18  19
ATOM     19  C   UNL     1     -22.273 -21.599  31.501  1.00  0.00     0.000 C 
BRANCH  19  20
ATOM     20  C   UNL     1     -20.938 -21.031  32.011  1.00  0.00     0.000 C 
BRANCH  20  21
ATOM     21  C   UNL     1     -20.814 -19.511  31.804  1.00  0.00     0.000 C 
BRANCH  21  22
ATOM     22  C   UNL     1     -19.417 -18.919  32.094  1.00  0.00     0.000 C 
BRANCH  22  23
ATOM     23  C   UNL     1     -18.692 -18.314  30.878  1.00  0.00     0.000 C 
BRANCH  23  24
ATOM     24  C   UNL     1     -19.515 -18.274  29.576  1.00  0.00    -0.000 C 
BRANCH  24  25
ATOM     25  C   UNL     1     -19.354 -16.967  28.768  1.00  0.00    -0.000 C 
BRANCH  25  26
ATOM     26  C   UNL     1     -18.493 -15.916  29.493  1.00  0.00    -0.000 C 
BRANCH  26  27
ATOM     27  C   UNL     1     -17.502 -15.201  28.550  1.00  0.00    -0.000 C 
BRANCH  27  28
ATOM     28  C   UNL     1     -17.260 -15.944  27.221  1.00  0.00    -0.000 C 
BRANCH  28  29
ATOM     29  C   UNL     1     -17.937 -15.317  25.986  1.00  0.00    -0.000 C 
BRANCH  29  30
ATOM     30  C   UNL     1     -16.979 -14.639  24.989  1.00  0.00    -0.000 C 
BRANCH  30  31
ATOM     31  C   UNL     1     -15.575 -15.262  24.989  1.00  0.00    -0.003 C 
ATOM     32  C   UNL     1     -15.419 -16.273  23.857  1.00  0.00     0.004 C 
ENDBRANCH  30  31
ENDBRANCH  29  30
ENDBRANCH  28  29
ENDBRANCH  27  28
ENDBRANCH  26  27
ENDBRANCH  25  26
ENDBRANCH  24  25
ENDBRANCH  23  24
ENDBRANCH  22  23
ENDBRANCH  21  22
ENDBRANCH  20  21
ENDBRANCH  19  20
ENDBRANCH  18  19
ENDBRANCH   1  18
TORSDOF 28
ENDMDL
MODEL 7
REMARK VINA RESULT:    -5.457      1.262      2.373
REMARK INTER + INTRA:         -17.161
REMARK INTER:                 -15.509
REMARK INTRA:                  -1.653
REMARK UNBOUND:                -2.771
REMARK SMILES CCCCCCCCCCCCCCCCCCCCCCCCCCCCCC(=O)[O-]
REMARK SMILES IDX 16 1 17 2 18 3 19 4 20 5 21 6 22 7 23 8 24 9 25 10 26 11
REMARK SMILES IDX 27 12 28 13 29 14 30 15 31 16 32 17 15 18 14 19 13 20 12 21
REMARK SMILES IDX 11 22 10 23 9 24 8 25 7 26 6 27 5 28 4 29 3 30 2 31 1 32
REMARK H PARENT
REMARK Flexibility Score: inf
ROOT
ATOM      1  C   UNL     1     -22.167 -21.902  28.245  1.00  0.00     0.000 C 
ENDROOT
BRANCH   1   2
ATOM      2  C   UNL     1     -21.837 -23.237  28.931  1.00  0.00     0.000 C 
BRANCH   2   3
ATOM      3  C   UNL     1     -22.883 -24.324  28.621  1.00  0.00     0.000 C 
BRANCH   3   4
ATOM      4  C   UNL     1     -23.144 -25.253  29.825  1.00  0.00     0.000 C 
BRANCH   4   5
ATOM      5  C   UNL     1     -23.362 -24.509  31.159  1.00  0.00     0.000 C 
BRANCH   5   6
ATOM      6  C   UNL     1     -24.158 -25.281  32.226  1.00  0.00     0.000 C 
BRANCH   6   7
ATOM      7  C   UNL     1     -25.373 -26.023  31.640  1.00  0.00     0.000 C 
BRANCH   7   8
ATOM      8  C   UNL     1     -25.026 -27.443  31.165  1.00  0.00     0.000 C 
BRANCH   8   9
ATOM      9  C   UNL     1     -26.270 -28.334  30.997  1.00  0.00     0.000 C 
BRANCH   9  10
ATOM     10  C   UNL     1     -26.702 -28.468  29.527  1.00  0.00     0.000 C 
BRANCH  10  11
ATOM     11  C   UNL     1     -25.987 -27.467  28.605  1.00  0.00     0.000 C 
BRANCH  11  12
ATOM     12  C   UNL     1     -25.882 -28.011  27.176  1.00  0.00     0.000 C 
BRANCH  12  13
ATOM     13  C   UNL     1     -27.184 -28.699  26.749  1.00  0.00     0.006 C 
BRANCH  13  14
ATOM     14  C   UNL     1     -27.232 -28.889  25.229  1.00  0.00     0.053 C 
BRANCH  14  15
ATOM     15  C   UNL     1     -28.610 -28.634  24.707  1.00  0.00     0.041 C 
ATOM     16  O   UNL     1     -28.788 -27.833  23.753  1.00  0.00    -0.550 OA
ATOM     17  O   UNL     1     -29.700 -29.293  25.265  1.00  0.00    -0.550 OA
ENDBRANCH  14  15
ENDBRANCH  13  14
ENDBRANCH  12  13
ENDBRANCH  11  12
ENDBRANCH  10  11
ENDBRANCH   9  10
ENDBRANCH   8   9
ENDBRANCH   7   8
ENDBRANCH   6   7
ENDBRANCH   5   6
ENDBRANCH   4   5
ENDBRANCH   3   4
ENDBRANCH   2   3
ENDBRANCH   1   2
BRANCH   1  18
ATOM     18  C   UNL     1     -21.625 -20.693  29.026  1.00  0.00     0.000 C 
BRANCH  18  19
ATOM     19  C   UNL     1     -22.420 -20.435  30.317  1.00  0.00     0.000 C 
BRANCH  19  20
ATOM     20  C   UNL     1     -21.825 -21.192  31.517  1.00  0.00     0.000 C 
BRANCH  20  21
ATOM     21  C   UNL     1     -20.535 -20.546  32.054  1.00  0.00     0.000 C 
BRANCH  21  22
ATOM     22  C   UNL     1     -20.546 -19.002  32.105  1.00  0.00     0.000 C 
BRANCH  22  23
ATOM     23  C   UNL     1     -19.165 -18.330  32.008  1.00  0.00     0.000 C 
BRANCH  23  24
ATOM     24  C   UNL     1     -19.072 -17.160  31.008  1.00  0.00    -0.000 C 
BRANCH  24  25
ATOM     25  C   UNL     1     -20.238 -17.100  29.997  1.00  0.00    -0.000 C 
BRANCH  25  26
ATOM     26  C   UNL     1     -19.786 -17.351  28.546  1.00  0.00    -0.000 C 
BRANCH  26  27
ATOM     27  C   UNL     1     -18.252 -17.466  28.408  1.00  0.00    -0.000 C 
BRANCH  27  28
ATOM     28  C   UNL     1     -17.511 -16.123  28.565  1.00  0.00    -0.000 C 
BRANCH  28  29
ATOM     29  C   UNL     1     -17.768 -15.097  27.444  1.00  0.00    -0.000 C 
BRANCH  29  30
ATOM     30  C   UNL     1     -17.620 -15.644  26.011  1.00  0.00    -0.000 C 
BRANCH  30  31
ATOM     31  C   UNL     1     -16.502 -14.952  25.217  1.00  0.00    -0.003 C 
ATOM     32  C   UNL     1     -15.617 -15.970  24.505  1.00  0.00     0.004 C 
ENDBRANCH  30  31
ENDBRANCH  29  30
ENDBRANCH  28  29
ENDBRANCH  27  28
ENDBRANCH  26  27
ENDBRANCH  25  26
ENDBRANCH  24  25
ENDBRANCH  23  24
ENDBRANCH  22  23
ENDBRANCH  21  22
ENDBRANCH  20  21
ENDBRANCH  19  20
ENDBRANCH  18  19
ENDBRANCH   1  18
TORSDOF 28
ENDMDL
MODEL 8
REMARK VINA RESULT:    -5.252      4.311     12.468
REMARK INTER + INTRA:         -16.619
REMARK INTER:                 -14.377
REMARK INTRA:                  -2.242
REMARK UNBOUND:                -2.771
REMARK SMILES CCCCCCCCCCCCCCCCCCCCCCCCCCCCCC(=O)[O-]
REMARK SMILES IDX 16 1 17 2 18 3 19 4 20 5 21 6 22 7 23 8 24 9 25 10 26 11
REMARK SMILES IDX 27 12 28 13 29 14 30 15 31 16 32 17 15 18 14 19 13 20 12 21
REMARK SMILES IDX 11 22 10 23 9 24 8 25 7 26 6 27 5 28 4 29 3 30 2 31 1 32
REMARK H PARENT
REMARK Flexibility Score: inf
ROOT
ATOM      1  C   UNL     1     -21.869 -22.999  29.074  1.00  0.00     0.000 C 
ENDROOT
BRANCH   1   2
ATOM      2  C   UNL     1     -21.946 -21.637  28.366  1.00  0.00     0.000 C 
BRANCH   2   3
ATOM      3  C   UNL     1     -22.342 -20.503  29.329  1.00  0.00     0.000 C 
BRANCH   3   4
ATOM      4  C   UNL     1     -22.809 -21.031  30.702  1.00  0.00     0.000 C 
BRANCH   4   5
ATOM      5  C   UNL     1     -21.659 -21.330  31.687  1.00  0.00     0.000 C 
BRANCH   5   6
ATOM      6  C   UNL     1     -20.465 -20.361  31.624  1.00  0.00     0.000 C 
BRANCH   6   7
ATOM      7  C   UNL     1     -20.837 -18.931  32.058  1.00  0.00     0.000 C 
BRANCH   7   8
ATOM      8  C   UNL     1     -19.730 -17.911  31.746  1.00  0.00     0.000 C 
BRANCH   8   9
ATOM      9  C   UNL     1     -20.136 -16.908  30.652  1.00  0.00     0.000 C 
BRANCH   9  10
ATOM     10  C   UNL     1     -20.002 -17.497  29.238  1.00  0.00     0.000 C 
BRANCH  10  11
ATOM     11  C   UNL     1     -18.548 -17.511  28.737  1.00  0.00     0.000 C 
BRANCH  11  12
ATOM     12  C   UNL     1     -17.799 -16.249  29.182  1.00  0.00     0.000 C 
BRANCH  12  13
ATOM     13  C   UNL     1     -17.534 -15.317  27.993  1.00  0.00     0.006 C 
BRANCH  13  14
ATOM     14  C   UNL     1     -17.498 -16.102  26.678  1.00  0.00     0.053 C 
BRANCH  14  15
ATOM     15  C   UNL     1     -17.535 -15.174  25.506  1.00  0.00     0.041 C 
ATOM     16  O   UNL     1     -16.493 -14.568  25.145  1.00  0.00    -0.550 OA
ATOM     17  O   UNL     1     -18.719 -14.986  24.802  1.00  0.00    -0.550 OA
ENDBRANCH  14  15
ENDBRANCH  13  14
ENDBRANCH  12  13
ENDBRANCH  11  12
ENDBRANCH  10  11
ENDBRANCH   9  10
ENDBRANCH   8   9
ENDBRANCH   7   8
ENDBRANCH   6   7
ENDBRANCH   5   6
ENDBRANCH   4   5
ENDBRANCH   3   4
ENDBRANCH   2   3
ENDBRANCH   1   2
BRANCH   1  18
ATOM     18  C   UNL     1     -22.804 -24.042  28.438  1.00  0.00     0.000 C 
BRANCH  18  19
ATOM     19  C   UNL     1     -23.380 -25.015  29.482  1.00  0.00     0.000 C 
BRANCH  19  20
ATOM     20  C   UNL     1     -22.744 -24.809  30.867  1.00  0.00     0.000 C 
BRANCH  20  21
ATOM     21  C   UNL     1     -23.739 -25.021  32.021  1.00  0.00     0.000 C 
BRANCH  21  22
ATOM     22  C   UNL     1     -25.226 -25.084  31.605  1.00  0.00     0.000 C 
BRANCH  22  23
ATOM     23  C   UNL     1     -25.945 -26.407  31.924  1.00  0.00     0.000 C 
BRANCH  23  24
ATOM     24  C   UNL     1     -25.352 -27.658  31.246  1.00  0.00    -0.000 C 
BRANCH  24  25
ATOM     25  C   UNL     1     -25.606 -27.731  29.724  1.00  0.00    -0.000 C 
BRANCH  25  26
ATOM     26  C   UNL     1     -26.679 -28.769  29.345  1.00  0.00    -0.000 C 
BRANCH  26  27
ATOM     27  C   UNL     1     -27.216 -28.578  27.910  1.00  0.00    -0.000 C 
BRANCH  27  28
ATOM     28  C   UNL     1     -26.122 -28.247  26.875  1.00  0.00    -0.000 C 
BRANCH  28  29
ATOM     29  C   UNL     1     -26.400 -28.749  25.444  1.00  0.00    -0.000 C 
BRANCH  29  30
ATOM     30  C   UNL     1     -27.766 -29.432  25.245  1.00  0.00    -0.000 C 
BRANCH  30  31
ATOM     31  C   UNL     1     -28.902 -28.434  24.976  1.00  0.00    -0.003 C 
ATOM     32  C   UNL     1     -28.738 -27.762  23.616  1.00  0.00     0.004 C 
ENDBRANCH  30  31
ENDBRANCH  29  30
ENDBRANCH  28  29
ENDBRANCH  27  28
ENDBRANCH  26  27
ENDBRANCH  25  26
ENDBRANCH  24  25
ENDBRANCH  23  24
ENDBRANCH  22  23
ENDBRANCH  21  22
ENDBRANCH  20  21
ENDBRANCH  19  20
ENDBRANCH  18  19
ENDBRANCH   1  18
TORSDOF 28
ENDMDL
MODEL 9
REMARK VINA RESULT:    -4.880      5.260     13.721
REMARK INTER + INTRA:         -15.639
REMARK INTER:                 -14.311
REMARK INTRA:                  -1.327
REMARK UNBOUND:                -2.771
REMARK SMILES CCCCCCCCCCCCCCCCCCCCCCCCCCCCCC(=O)[O-]
REMARK SMILES IDX 16 1 17 2 18 3 19 4 20 5 21 6 22 7 23 8 24 9 25 10 26 11
REMARK SMILES IDX 27 12 28 13 29 14 30 15 31 16 32 17 15 18 14 19 13 20 12 21
REMARK SMILES IDX 11 22 10 23 9 24 8 25 7 26 6 27 5 28 4 29 3 30 2 31 1 32
REMARK H PARENT
REMARK Flexibility Score: inf
ROOT
ATOM      1  C   UNL     1     -20.502 -18.021  29.205  1.00  0.00     0.000 C 
ENDROOT
BRANCH   1   2
ATOM      2  C   UNL     1     -20.007 -17.590  30.594  1.00  0.00     0.000 C 
BRANCH   2   3
ATOM      3  C   UNL     1     -18.502 -17.265  30.601  1.00  0.00     0.000 C 
BRANCH   3   4
ATOM      4  C   UNL     1     -18.226 -15.746  30.576  1.00  0.00     0.000 C 
BRANCH   4   5
ATOM      5  C   UNL     1     -17.514 -15.256  29.298  1.00  0.00     0.000 C 
BRANCH   5   6
ATOM      6  C   UNL     1     -18.250 -15.544  27.978  1.00  0.00     0.000 C 
BRANCH   6   7
ATOM      7  C   UNL     1     -17.311 -16.070  26.877  1.00  0.00     0.000 C 
BRANCH   7   8
ATOM      8  C   UNL     1     -17.405 -15.251  25.579  1.00  0.00     0.000 C 
BRANCH   8   9
ATOM      9  C   UNL     1     -16.044 -15.088  24.880  1.00  0.00     0.000 C 
BRANCH   9  10
ATOM     10  C   UNL     1     -15.662 -16.321  24.044  1.00  0.00     0.000 C 
BRANCH  10  11
ATOM     11  C   UNL     1     -14.602 -16.008  22.975  1.00  0.00     0.000 C 
BRANCH  11  12
ATOM     12  C   UNL     1     -14.928 -16.713  21.652  1.00  0.00     0.000 C 
BRANCH  12  13
ATOM     13  C   UNL     1     -13.819 -16.485  20.618  1.00  0.00     0.006 C 
BRANCH  13  14
ATOM     14  C   UNL     1     -13.977 -17.436  19.427  1.00  0.00     0.053 C 
BRANCH  14  15
ATOM     15  C   UNL     1     -13.023 -17.076  18.332  1.00  0.00     0.041 C 
ATOM     16  O   UNL     1     -12.856 -15.871  18.009  1.00  0.00    -0.550 OA
ATOM     17  O   UNL     1     -12.306 -18.070  17.677  1.00  0.00    -0.550 OA
ENDBRANCH  14  15
ENDBRANCH  13  14
ENDBRANCH  12  13
ENDBRANCH  11  12
ENDBRANCH  10  11
ENDBRANCH   9  10
ENDBRANCH   8   9
ENDBRANCH   7   8
ENDBRANCH   6   7
ENDBRANCH   5   6
ENDBRANCH   4   5
ENDBRANCH   3   4
ENDBRANCH   2   3
ENDBRANCH   1   2
BRANCH   1  18
ATOM     18  C   UNL     1     -21.404 -19.266  29.265  1.00  0.00     0.000 C 
BRANCH  18  19
ATOM     19  C   UNL     1     -21.461 -19.871  30.677  1.00  0.00     0.000 C 
BRANCH  19  20
ATOM     20  C   UNL     1     -22.508 -20.994  30.776  1.00  0.00     0.000 C 
BRANCH  20  21
ATOM     21  C   UNL     1     -21.950 -22.279  31.413  1.00  0.00     0.000 C 
BRANCH  21  22
ATOM     22  C   UNL     1     -22.518 -23.597  30.841  1.00  0.00     0.000 C 
BRANCH  22  23
ATOM     23  C   UNL     1     -22.500 -23.711  29.306  1.00  0.00     0.000 C 
BRANCH  23  24
ATOM     24  C   UNL     1     -23.107 -25.008  28.736  1.00  0.00    -0.000 C 
BRANCH  24  25
ATOM     25  C   UNL     1     -23.687 -25.958  29.808  1.00  0.00    -0.000 C 
BRANCH  25  26
ATOM     26  C   UNL     1     -25.223 -26.056  29.753  1.00  0.00    -0.000 C 
BRANCH  26  27
ATOM     27  C   UNL     1     -25.724 -27.507  29.590  1.00  0.00    -0.000 C 
BRANCH  27  28
ATOM     28  C   UNL     1     -26.781 -27.680  28.481  1.00  0.00    -0.000 C 
BRANCH  28  29
ATOM     29  C   UNL     1     -26.492 -28.806  27.469  1.00  0.00    -0.000 C 
BRANCH  29  30
ATOM     30  C   UNL     1     -26.554 -28.386  25.988  1.00  0.00    -0.000 C 
BRANCH  30  31
ATOM     31  C   UNL     1     -27.634 -29.138  25.196  1.00  0.00    -0.003 C 
ATOM     32  C   UNL     1     -28.575 -28.169  24.486  1.00  0.00     0.004 C 
ENDBRANCH  30  31
ENDBRANCH  29  30
ENDBRANCH  28  29
ENDBRANCH  27  28
ENDBRANCH  26  27
ENDBRANCH  25  26
ENDBRANCH  24  25
ENDBRANCH  23  24
ENDBRANCH  22  23
ENDBRANCH  21  22
ENDBRANCH  20  21
ENDBRANCH  19  20
ENDBRANCH  18  19
ENDBRANCH   1  18
TORSDOF 28
ENDMDL
