MODEL 1
REMARK VINA RESULT:    -1.290      0.000      0.000
REMARK INTER + INTRA:          -2.246
REMARK INTER:                  -2.044
REMARK INTRA:                  -0.201
REMARK UNBOUND:                -0.201
REMARK SMILES CCCCCCCCCCCC(=O)[O-]
REMARK SMILES IDX 7 1 8 2 9 3 10 4 11 5 12 6 13 7 14 8 6 9 5 10 4 11 3 12 2 13
REMARK SMILES IDX 1 14
REMARK H PARENT
REMARK Flexibility Score: inf
ROOT
ATOM      1  C   UNL     1      33.172  23.454  28.068  1.00  0.00     0.000 C 
ENDROOT
BRANCH   1   2
ATOM      2  C   UNL     1      32.456  22.164  27.632  1.00  0.00     0.000 C 
BRANCH   2   3
ATOM      3  C   UNL     1      30.972  22.135  28.044  1.00  0.00     0.000 C 
BRANCH   3   4
ATOM      4  C   UNL     1      30.348  23.511  28.342  1.00  0.00     0.006 C 
BRANCH   4   5
ATOM      5  C   UNL     1      29.668  23.574  29.717  1.00  0.00     0.053 C 
BRANCH   5   6
ATOM      6  C   UNL     1      30.661  23.939  30.773  1.00  0.00     0.041 C 
ATOM      7  O   UNL     1      31.869  24.125  30.471  1.00  0.00    -0.550 OA
ATOM      8  O   UNL     1      30.263  24.027  32.102  1.00  0.00    -0.550 OA
ENDBRANCH   5   6
ENDBRANCH   4   5
ENDBRANCH   3   4
ENDBRANCH   2   3
ENDBRANCH   1   2
BRANCH   1   9
ATOM      9  C   UNL     1      33.956  24.110  26.919  1.00  0.00     0.000 C 
BRANCH   9  10
ATOM     10  C   UNL     1      35.478  24.022  27.113  1.00  0.00    -0.000 C 
BRANCH  10  11
ATOM     11  C   UNL     1      35.822  23.446  28.493  1.00  0.00    -0.000 C 
BRANCH  11  12
ATOM     12  C   UNL     1      36.993  22.460  28.403  1.00  0.00    -0.000 C 
BRANCH  12  13
ATOM     13  C   UNL     1      37.068  21.821  27.012  1.00  0.00    -0.003 C 
ATOM     14  C   UNL     1      37.101  20.299  27.105  1.00  0.00     0.004 C 
ENDBRANCH  12  13
ENDBRANCH  11  12
ENDBRANCH  10  11
ENDBRANCH   9  10
ENDBRANCH   1   9
TORSDOF 10
ENDMDL
MODEL 2
REMARK VINA RESULT:    -0.406      1.917      2.567
REMARK INTER + INTRA:          -0.845
REMARK INTER:                  -0.202
REMARK INTRA:                  -0.643
REMARK UNBOUND:                -0.201
REMARK SMILES CCCCCCCCCCCC(=O)[O-]
REMARK SMILES IDX 7 1 8 2 9 3 10 4 11 5 12 6 13 7 14 8 6 9 5 10 4 11 3 12 2 13
REMARK SMILES IDX 1 14
REMARK H PARENT
REMARK Flexibility Score: inf
ROOT
ATOM      1  C   UNL     1      33.411  24.035  27.598  1.00  0.00     0.000 C 
ENDROOT
BRANCH   1   2
ATOM      2  C   UNL     1      32.864  22.977  28.572  1.00  0.00     0.000 C 
BRANCH   2   3
ATOM      3  C   UNL     1      32.789  21.571  27.948  1.00  0.00     0.000 C 
BRANCH   3   4
ATOM      4  C   UNL     1      31.699  21.388  26.875  1.00  0.00     0.006 C 
BRANCH   4   5
ATOM      5  C   UNL     1      30.598  22.454  26.952  1.00  0.00     0.053 C 
BRANCH   5   6
ATOM      6  C   UNL     1      29.507  22.011  27.874  1.00  0.00     0.041 C 
ATOM      7  O   UNL     1      29.306  22.620  28.957  1.00  0.00    -0.550 OA
ATOM      8  O   UNL     1      28.742  20.894  27.560  1.00  0.00    -0.550 OA
ENDBRANCH   5   6
ENDBRANCH   4   5
ENDBRANCH   3   4
ENDBRANCH   2   3
ENDBRANCH   1   2
BRANCH   1   9
ATOM      9  C   UNL     1      34.711  23.587  26.911  1.00  0.00     0.000 C 
BRANCH   9  10
ATOM     10  C   UNL     1      35.969  24.024  27.679  1.00  0.00    -0.000 C 
BRANCH  10  11
ATOM     11  C   UNL     1      37.105  23.010  27.491  1.00  0.00    -0.000 C 
BRANCH  11  12
ATOM     12  C   UNL     1      36.575  21.685  26.928  1.00  0.00    -0.000 C 
BRANCH  12  13
ATOM     13  C   UNL     1      37.104  20.494  27.733  1.00  0.00    -0.003 C 
ATOM     14  C   UNL     1      36.973  19.194  26.945  1.00  0.00     0.004 C 
ENDBRANCH  12  13
ENDBRANCH  11  12
ENDBRANCH  10  11
ENDBRANCH   9  10
ENDBRANCH   1   9
TORSDOF 10
ENDMDL
MODEL 3
REMARK VINA RESULT:    -0.354      2.314      3.118
REMARK INTER + INTRA:          -0.762
REMARK INTER:                  -0.234
REMARK INTRA:                  -0.528
REMARK UNBOUND:                -0.201
REMARK SMILES CCCCCCCCCCCC(=O)[O-]
REMARK SMILES IDX 7 1 8 2 9 3 10 4 11 5 12 6 13 7 14 8 6 9 5 10 4 11 3 12 2 13
REMARK SMILES IDX 1 14
REMARK H PARENT
REMARK Flexibility Score: inf
ROOT
ATOM      1  C   UNL     1      32.828  22.791  29.221  1.00  0.00     0.000 C 
ENDROOT
BRANCH   1   2
ATOM      2  C   UNL     1      31.410  22.643  29.799  1.00  0.00     0.000 C 
BRANCH   2   3
ATOM      3  C   UNL     1      30.532  23.885  29.556  1.00  0.00     0.000 C 
BRANCH   3   4
ATOM      4  C   UNL     1      29.423  23.707  28.503  1.00  0.00     0.006 C 
BRANCH   4   5
ATOM      5  C   UNL     1      29.942  23.133  27.178  1.00  0.00     0.053 C 
BRANCH   5   6
ATOM      6  C   UNL     1      29.967  21.639  27.231  1.00  0.00     0.041 C 
ATOM      7  O   UNL     1      28.961  21.002  27.638  1.00  0.00    -0.550 OA
ATOM      8  O   UNL     1      31.120  20.950  26.876  1.00  0.00    -0.550 OA
ENDBRANCH   5   6
ENDBRANCH   4   5
ENDBRANCH   3   4
ENDBRANCH   2   3
ENDBRANCH   1   2
BRANCH   1   9
ATOM      9  C   UNL     1      33.028  24.124  28.482  1.00  0.00     0.000 C 
BRANCH   9  10
ATOM     10  C   UNL     1      33.441  23.933  27.014  1.00  0.00    -0.000 C 
BRANCH  10  11
ATOM     11  C   UNL     1      34.614  22.950  26.899  1.00  0.00    -0.000 C 
BRANCH  11  12
ATOM     12  C   UNL     1      35.946  23.640  27.217  1.00  0.00    -0.000 C 
BRANCH  12  13
ATOM     13  C   UNL     1      36.827  22.753  28.102  1.00  0.00    -0.003 C 
ATOM     14  C   UNL     1      37.125  23.428  29.438  1.00  0.00     0.004 C 
ENDBRANCH  12  13
ENDBRANCH  11  12
ENDBRANCH  10  11
ENDBRANCH   9  10
ENDBRANCH   1   9
TORSDOF 10
ENDMDL
