MODEL 1
REMARK VINA RESULT:    -3.963      0.000      0.000
REMARK INTER + INTRA:          -8.290
REMARK INTER:                  -6.743
REMARK INTRA:                  -1.547
REMARK UNBOUND:                -1.547
REMARK SMILES CCCCCCCCCCCCCC(=O)[O-]
REMARK SMILES IDX 8 1 9 2 10 3 11 4 12 5 13 6 14 7 15 8 16 9 7 10 6 11 5 12
REMARK SMILES IDX 4 13 3 14 2 15 1 16
REMARK H PARENT
REMARK Flexibility Score: inf
ROOT
ATOM      1  C   UNL     1      25.372  33.488  34.813  1.00  0.00     0.000 C 
ENDROOT
BRANCH   1   2
ATOM      2  C   UNL     1      26.724  34.152  34.511  1.00  0.00     0.000 C 
BRANCH   2   3
ATOM      3  C   UNL     1      26.576  35.504  33.794  1.00  0.00     0.000 C 
BRANCH   3   4
ATOM      4  C   UNL     1      27.497  35.625  32.567  1.00  0.00     0.000 C 
BRANCH   4   5
ATOM      5  C   UNL     1      27.984  34.258  32.051  1.00  0.00     0.006 C 
BRANCH   5   6
ATOM      6  C   UNL     1      27.485  33.897  30.643  1.00  0.00     0.053 C 
BRANCH   6   7
ATOM      7  C   UNL     1      25.990  33.842  30.572  1.00  0.00     0.041 C 
ATOM      8  O   UNL     1      25.344  33.118  31.375  1.00  0.00    -0.550 OA
ATOM      9  O   UNL     1      25.308  34.615  29.641  1.00  0.00    -0.550 OA
ENDBRANCH   6   7
ENDBRANCH   5   6
ENDBRANCH   4   5
ENDBRANCH   3   4
ENDBRANCH   2   3
ENDBRANCH   1   2
BRANCH   1  10
ATOM     10  C   UNL     1      25.212  33.226  36.315  1.00  0.00     0.000 C 
BRANCH  10  11
ATOM     11  C   UNL     1      26.563  32.881  36.961  1.00  0.00    -0.000 C 
BRANCH  11  12
ATOM     12  C   UNL     1      26.871  31.375  36.926  1.00  0.00    -0.000 C 
BRANCH  12  13
ATOM     13  C   UNL     1      28.379  31.084  36.848  1.00  0.00    -0.000 C 
BRANCH  13  14
ATOM     14  C   UNL     1      28.839  30.681  35.435  1.00  0.00    -0.000 C 
BRANCH  14  15
ATOM     15  C   UNL     1      29.502  31.807  34.621  1.00  0.00    -0.003 C 
ATOM     16  C   UNL     1      30.021  32.950  35.493  1.00  0.00     0.004 C 
ENDBRANCH  14  15
ENDBRANCH  13  14
ENDBRANCH  12  13
ENDBRANCH  11  12
ENDBRANCH  10  11
ENDBRANCH   1  10
TORSDOF 12
ENDMDL
MODEL 2
REMARK VINA RESULT:    -3.824      2.553      5.400
REMARK INTER + INTRA:          -8.054
REMARK INTER:                  -6.854
REMARK INTRA:                  -1.199
REMARK UNBOUND:                -1.547
REMARK SMILES CCCCCCCCCCCCCC(=O)[O-]
REMARK SMILES IDX 8 1 9 2 10 3 11 4 12 5 13 6 14 7 15 8 16 9 7 10 6 11 5 12
REMARK SMILES IDX 4 13 3 14 2 15 1 16
REMARK H PARENT
REMARK Flexibility Score: inf
ROOT
ATOM      1  C   UNL     1      24.709  33.292  35.496  1.00  0.00     0.000 C 
ENDROOT
BRANCH   1   2
ATOM      2  C   UNL     1      25.380  33.212  36.875  1.00  0.00     0.000 C 
BRANCH   2   3
ATOM      3  C   UNL     1      26.527  32.190  36.921  1.00  0.00     0.000 C 
BRANCH   3   4
ATOM      4  C   UNL     1      27.901  32.853  37.120  1.00  0.00     0.000 C 
BRANCH   4   5
ATOM      5  C   UNL     1      29.042  32.074  36.440  1.00  0.00     0.006 C 
BRANCH   5   6
ATOM      6  C   UNL     1      28.578  30.881  35.588  1.00  0.00     0.053 C 
BRANCH   6   7
ATOM      7  C   UNL     1      29.603  30.482  34.572  1.00  0.00     0.041 C 
ATOM      8  O   UNL     1      30.409  31.336  34.116  1.00  0.00    -0.550 OA
ATOM      9  O   UNL     1      29.691  29.160  34.154  1.00  0.00    -0.550 OA
ENDBRANCH   6   7
ENDBRANCH   5   6
ENDBRANCH   4   5
ENDBRANCH   3   4
ENDBRANCH   2   3
ENDBRANCH   1   2
BRANCH   1  10
ATOM     10  C   UNL     1      25.752  33.249  34.373  1.00  0.00     0.000 C 
BRANCH  10  11
ATOM     11  C   UNL     1      26.490  34.592  34.255  1.00  0.00    -0.000 C 
BRANCH  11  12
ATOM     12  C   UNL     1      27.769  34.494  33.408  1.00  0.00    -0.000 C 
BRANCH  12  13
ATOM     13  C   UNL     1      27.595  35.100  32.005  1.00  0.00    -0.000 C 
BRANCH  13  14
ATOM     14  C   UNL     1      27.351  34.036  30.919  1.00  0.00    -0.000 C 
BRANCH  14  15
ATOM     15  C   UNL     1      25.879  33.624  30.731  1.00  0.00    -0.003 C 
ATOM     16  C   UNL     1      25.117  34.545  29.779  1.00  0.00     0.004 C 
ENDBRANCH  14  15
ENDBRANCH  13  14
ENDBRANCH  12  13
ENDBRANCH  11  12
ENDBRANCH  10  11
ENDBRANCH   1  10
TORSDOF 12
ENDMDL
MODEL 3
REMARK VINA RESULT:    -3.741      2.626      4.994
REMARK INTER + INTRA:          -7.913
REMARK INTER:                  -6.485
REMARK INTRA:                  -1.427
REMARK UNBOUND:                -1.547
REMARK SMILES CCCCCCCCCCCCCC(=O)[O-]
REMARK SMILES IDX 8 1 9 2 10 3 11 4 12 5 13 6 14 7 15 8 16 9 7 10 6 11 5 12
REMARK SMILES IDX 4 13 3 14 2 15 1 16
REMARK H PARENT
REMARK Flexibility Score: inf
ROOT
ATOM      1  C   UNL     1      26.340  32.139  36.576  1.00  0.00     0.000 C 
ENDROOT
BRANCH   1   2
ATOM      2  C   UNL     1      27.845  31.863  36.706  1.00  0.00     0.000 C 
BRANCH   2   3
ATOM      3  C   UNL     1      28.686  33.150  36.728  1.00  0.00     0.000 C 
BRANCH   3   4
ATOM      4  C   UNL     1      29.600  33.278  35.496  1.00  0.00     0.000 C 
BRANCH   4   5
ATOM      5  C   UNL     1      29.347  32.177  34.451  1.00  0.00     0.006 C 
BRANCH   5   6
ATOM      6  C   UNL     1      30.554  31.262  34.188  1.00  0.00     0.053 C 
BRANCH   6   7
ATOM      7  C   UNL     1      30.140  29.923  33.657  1.00  0.00     0.041 C 
ATOM      8  O   UNL     1      29.519  29.113  34.395  1.00  0.00    -0.550 OA
ATOM      9  O   UNL     1      30.410  29.585  32.337  1.00  0.00    -0.550 OA
ENDBRANCH   6   7
ENDBRANCH   5   6
ENDBRANCH   4   5
ENDBRANCH   3   4
ENDBRANCH   2   3
ENDBRANCH   1   2
BRANCH   1  10
ATOM     10  C   UNL     1      26.048  33.643  36.645  1.00  0.00     0.000 C 
BRANCH  10  11
ATOM     11  C   UNL     1      25.301  34.117  35.389  1.00  0.00    -0.000 C 
BRANCH  11  12
ATOM     12  C   UNL     1      26.131  33.948  34.106  1.00  0.00    -0.000 C 
BRANCH  12  13
ATOM     13  C   UNL     1      26.928  35.214  33.748  1.00  0.00    -0.000 C 
BRANCH  13  14
ATOM     14  C   UNL     1      26.777  35.619  32.270  1.00  0.00    -0.000 C 
BRANCH  14  15
ATOM     15  C   UNL     1      26.961  34.473  31.259  1.00  0.00    -0.003 C 
ATOM     16  C   UNL     1      25.760  34.296  30.330  1.00  0.00     0.004 C 
ENDBRANCH  14  15
ENDBRANCH  13  14
ENDBRANCH  12  13
ENDBRANCH  11  12
ENDBRANCH  10  11
ENDBRANCH   1  10
TORSDOF 12
ENDMDL
MODEL 4
REMARK VINA RESULT:    -3.669      1.302      2.533
REMARK INTER + INTRA:          -7.789
REMARK INTER:                  -6.288
REMARK INTRA:                  -1.502
REMARK UNBOUND:                -1.547
REMARK SMILES CCCCCCCCCCCCCC(=O)[O-]
REMARK SMILES IDX 8 1 9 2 10 3 11 4 12 5 13 6 14 7 15 8 16 9 7 10 6 11 5 12
REMARK SMILES IDX 4 13 3 14 2 15 1 16
REMARK H PARENT
REMARK Flexibility Score: inf
ROOT
ATOM      1  C   UNL     1      26.480  32.182  36.382  1.00  0.00     0.000 C 
ENDROOT
BRANCH   1   2
ATOM      2  C   UNL     1      26.003  33.605  36.711  1.00  0.00     0.000 C 
BRANCH   2   3
ATOM      3  C   UNL     1      25.500  34.366  35.474  1.00  0.00     0.000 C 
BRANCH   3   4
ATOM      4  C   UNL     1      26.154  33.872  34.171  1.00  0.00     0.000 C 
BRANCH   4   5
ATOM      5  C   UNL     1      27.169  34.877  33.598  1.00  0.00     0.006 C 
BRANCH   5   6
ATOM      6  C   UNL     1      26.711  35.579  32.309  1.00  0.00     0.053 C 
BRANCH   6   7
ATOM      7  C   UNL     1      26.708  34.651  31.133  1.00  0.00     0.041 C 
ATOM      8  O   UNL     1      27.745  34.003  30.836  1.00  0.00    -0.550 OA
ATOM      9  O   UNL     1      25.549  34.478  30.386  1.00  0.00    -0.550 OA
ENDBRANCH   6   7
ENDBRANCH   5   6
ENDBRANCH   4   5
ENDBRANCH   3   4
ENDBRANCH   2   3
ENDBRANCH   1   2
BRANCH   1  10
ATOM     10  C   UNL     1      27.901  31.943  36.906  1.00  0.00     0.000 C 
BRANCH  10  11
ATOM     11  C   UNL     1      28.786  33.178  36.681  1.00  0.00    -0.000 C 
BRANCH  11  12
ATOM     12  C   UNL     1      29.888  32.936  35.637  1.00  0.00    -0.000 C 
BRANCH  12  13
ATOM     13  C   UNL     1      29.395  32.101  34.443  1.00  0.00    -0.000 C 
BRANCH  13  14
ATOM     14  C   UNL     1      30.318  30.910  34.125  1.00  0.00    -0.000 C 
BRANCH  14  15
ATOM     15  C   UNL     1      29.710  29.523  34.405  1.00  0.00    -0.003 C 
ATOM     16  C   UNL     1      30.007  29.014  35.815  1.00  0.00     0.004 C 
ENDBRANCH  14  15
ENDBRANCH  13  14
ENDBRANCH  12  13
ENDBRANCH  11  12
ENDBRANCH  10  11
ENDBRANCH   1  10
TORSDOF 12
ENDMDL
MODEL 5
REMARK VINA RESULT:    -3.413      0.891      1.728
REMARK INTER + INTRA:          -7.354
REMARK INTER:                  -6.099
REMARK INTRA:                  -1.255
REMARK UNBOUND:                -1.547
REMARK SMILES CCCCCCCCCCCCCC(=O)[O-]
REMARK SMILES IDX 8 1 9 2 10 3 11 4 12 5 13 6 14 7 15 8 16 9 7 10 6 11 5 12
REMARK SMILES IDX 4 13 3 14 2 15 1 16
REMARK H PARENT
REMARK Flexibility Score: inf
ROOT
ATOM      1  C   UNL     1      25.736  33.864  36.262  1.00  0.00     0.000 C 
ENDROOT
BRANCH   1   2
ATOM      2  C   UNL     1      25.835  33.847  34.729  1.00  0.00     0.000 C 
BRANCH   2   3
ATOM      3  C   UNL     1      27.071  34.595  34.204  1.00  0.00     0.000 C 
BRANCH   3   4
ATOM      4  C   UNL     1      26.713  35.672  33.166  1.00  0.00     0.000 C 
BRANCH   4   5
ATOM      5  C   UNL     1      27.471  35.494  31.838  1.00  0.00     0.006 C 
BRANCH   5   6
ATOM      6  C   UNL     1      27.338  34.097  31.211  1.00  0.00     0.053 C 
BRANCH   6   7
ATOM      7  C   UNL     1      25.938  33.815  30.758  1.00  0.00     0.041 C 
ATOM      8  O   UNL     1      25.468  34.404  29.749  1.00  0.00    -0.550 OA
ATOM      9  O   UNL     1      25.166  32.875  31.429  1.00  0.00    -0.550 OA
ENDBRANCH   6   7
ENDBRANCH   5   6
ENDBRANCH   4   5
ENDBRANCH   3   4
ENDBRANCH   2   3
ENDBRANCH   1   2
BRANCH   1  10
ATOM     10  C   UNL     1      25.860  32.448  36.836  1.00  0.00     0.000 C 
BRANCH  10  11
ATOM     11  C   UNL     1      27.257  31.866  36.573  1.00  0.00    -0.000 C 
BRANCH  11  12
ATOM     12  C   UNL     1      28.384  32.755  37.125  1.00  0.00    -0.000 C 
BRANCH  12  13
ATOM     13  C   UNL     1      29.585  32.847  36.168  1.00  0.00    -0.000 C 
BRANCH  13  14
ATOM     14  C   UNL     1      29.398  32.008  34.890  1.00  0.00    -0.000 C 
BRANCH  14  15
ATOM     15  C   UNL     1      30.369  30.822  34.743  1.00  0.00    -0.003 C 
ATOM     16  C   UNL     1      29.660  29.503  34.437  1.00  0.00     0.004 C 
ENDBRANCH  14  15
ENDBRANCH  13  14
ENDBRANCH  12  13
ENDBRANCH  11  12
ENDBRANCH  10  11
ENDBRANCH   1  10
TORSDOF 12
ENDMDL
MODEL 6
REMARK VINA RESULT:    -3.347      1.673      2.376
REMARK INTER + INTRA:          -7.242
REMARK INTER:                  -6.306
REMARK INTRA:                  -0.936
REMARK UNBOUND:                -1.547
REMARK SMILES CCCCCCCCCCCCCC(=O)[O-]
REMARK SMILES IDX 8 1 9 2 10 3 11 4 12 5 13 6 14 7 15 8 16 9 7 10 6 11 5 12
REMARK SMILES IDX 4 13 3 14 2 15 1 16
REMARK H PARENT
REMARK Flexibility Score: inf
ROOT
ATOM      1  C   UNL     1      26.401  32.534  35.248  1.00  0.00     0.000 C 
ENDROOT
BRANCH   1   2
ATOM      2  C   UNL     1      25.835  33.958  35.153  1.00  0.00     0.000 C 
BRANCH   2   3
ATOM      3  C   UNL     1      26.670  34.872  34.240  1.00  0.00     0.000 C 
BRANCH   3   4
ATOM      4  C   UNL     1      27.918  34.167  33.682  1.00  0.00     0.000 C 
BRANCH   4   5
ATOM      5  C   UNL     1      27.970  34.181  32.143  1.00  0.00     0.006 C 
BRANCH   5   6
ATOM      6  C   UNL     1      26.866  35.018  31.477  1.00  0.00     0.053 C 
BRANCH   6   7
ATOM      7  C   UNL     1      25.823  34.160  30.829  1.00  0.00     0.041 C 
ATOM      8  O   UNL     1      25.407  33.122  31.408  1.00  0.00    -0.550 OA
ATOM      9  O   UNL     1      25.286  34.526  29.601  1.00  0.00    -0.550 OA
ENDBRANCH   6   7
ENDBRANCH   5   6
ENDBRANCH   4   5
ENDBRANCH   3   4
ENDBRANCH   2   3
ENDBRANCH   1   2
BRANCH   1  10
ATOM     10  C   UNL     1      26.588  32.113  36.710  1.00  0.00     0.000 C 
BRANCH  10  11
ATOM     11  C   UNL     1      27.668  31.027  36.837  1.00  0.00    -0.000 C 
BRANCH  11  12
ATOM     12  C   UNL     1      28.453  30.815  35.532  1.00  0.00    -0.000 C 
BRANCH  12  13
ATOM     13  C   UNL     1      29.904  30.371  35.782  1.00  0.00    -0.000 C 
BRANCH  13  14
ATOM     14  C   UNL     1      30.014  28.897  36.212  1.00  0.00    -0.000 C 
BRANCH  14  15
ATOM     15  C   UNL     1      30.285  27.903  35.067  1.00  0.00    -0.003 C 
ATOM     16  C   UNL     1      30.055  26.447  35.470  1.00  0.00     0.004 C 
ENDBRANCH  14  15
ENDBRANCH  13  14
ENDBRANCH  12  13
ENDBRANCH  11  12
ENDBRANCH  10  11
ENDBRANCH   1  10
TORSDOF 12
ENDMDL
MODEL 7
REMARK VINA RESULT:    -3.255      1.736      2.708
REMARK INTER + INTRA:          -7.085
REMARK INTER:                  -5.981
REMARK INTRA:                  -1.104
REMARK UNBOUND:                -1.547
REMARK SMILES CCCCCCCCCCCCCC(=O)[O-]
REMARK SMILES IDX 8 1 9 2 10 3 11 4 12 5 13 6 14 7 15 8 16 9 7 10 6 11 5 12
REMARK SMILES IDX 4 13 3 14 2 15 1 16
REMARK H PARENT
REMARK Flexibility Score: inf
ROOT
ATOM      1  C   UNL     1      26.623  32.112  36.818  1.00  0.00     0.000 C 
ENDROOT
BRANCH   1   2
ATOM      2  C   UNL     1      25.427  32.877  36.231  1.00  0.00     0.000 C 
BRANCH   2   3
ATOM      3  C   UNL     1      25.851  34.088  35.386  1.00  0.00     0.000 C 
BRANCH   3   4
ATOM      4  C   UNL     1      26.189  33.706  33.934  1.00  0.00     0.000 C 
BRANCH   4   5
ATOM      5  C   UNL     1      27.397  34.482  33.380  1.00  0.00     0.006 C 
BRANCH   5   6
ATOM      6  C   UNL     1      27.091  35.330  32.135  1.00  0.00     0.053 C 
BRANCH   6   7
ATOM      7  C   UNL     1      26.855  34.483  30.921  1.00  0.00     0.041 C 
ATOM      8  O   UNL     1      27.798  33.814  30.423  1.00  0.00    -0.550 OA
ATOM      9  O   UNL     1      25.586  34.407  30.362  1.00  0.00    -0.550 OA
ENDBRANCH   6   7
ENDBRANCH   5   6
ENDBRANCH   4   5
ENDBRANCH   3   4
ENDBRANCH   2   3
ENDBRANCH   1   2
BRANCH   1  10
ATOM     10  C   UNL     1      27.813  33.049  37.053  1.00  0.00     0.000 C 
BRANCH  10  11
ATOM     11  C   UNL     1      29.137  32.361  36.684  1.00  0.00    -0.000 C 
BRANCH  11  12
ATOM     12  C   UNL     1      29.026  31.503  35.414  1.00  0.00    -0.000 C 
BRANCH  12  13
ATOM     13  C   UNL     1      30.392  31.243  34.757  1.00  0.00    -0.000 C 
BRANCH  13  14
ATOM     14  C   UNL     1      30.299  31.068  33.230  1.00  0.00    -0.000 C 
BRANCH  14  15
ATOM     15  C   UNL     1      31.121  29.898  32.657  1.00  0.00    -0.003 C 
ATOM     16  C   UNL     1      30.273  28.665  32.349  1.00  0.00     0.004 C 
ENDBRANCH  14  15
ENDBRANCH  13  14
ENDBRANCH  12  13
ENDBRANCH  11  12
ENDBRANCH  10  11
ENDBRANCH   1  10
TORSDOF 12
ENDMDL
MODEL 8
REMARK VINA RESULT:    -3.217      1.772      2.936
REMARK INTER + INTRA:          -7.021
REMARK INTER:                  -5.659
REMARK INTRA:                  -1.362
REMARK UNBOUND:                -1.547
REMARK SMILES CCCCCCCCCCCCCC(=O)[O-]
REMARK SMILES IDX 8 1 9 2 10 3 11 4 12 5 13 6 14 7 15 8 16 9 7 10 6 11 5 12
REMARK SMILES IDX 4 13 3 14 2 15 1 16
REMARK H PARENT
REMARK Flexibility Score: inf
ROOT
ATOM      1  C   UNL     1      29.558  32.577  35.679  1.00  0.00     0.000 C 
ENDROOT
BRANCH   1   2
ATOM      2  C   UNL     1      28.659  33.307  34.670  1.00  0.00     0.000 C 
BRANCH   2   3
ATOM      3  C   UNL     1      27.167  33.223  35.031  1.00  0.00     0.000 C 
BRANCH   3   4
ATOM      4  C   UNL     1      26.295  34.138  34.154  1.00  0.00     0.000 C 
BRANCH   4   5
ATOM      5  C   UNL     1      27.111  35.233  33.443  1.00  0.00     0.006 C 
BRANCH   5   6
ATOM      6  C   UNL     1      26.682  35.503  31.991  1.00  0.00     0.053 C 
BRANCH   6   7
ATOM      7  C   UNL     1      26.909  34.314  31.108  1.00  0.00     0.041 C 
ATOM      8  O   UNL     1      26.004  33.928  30.322  1.00  0.00    -0.550 OA
ATOM      9  O   UNL     1      28.131  33.655  31.127  1.00  0.00    -0.550 OA
ENDBRANCH   6   7
ENDBRANCH   5   6
ENDBRANCH   4   5
ENDBRANCH   3   4
ENDBRANCH   2   3
ENDBRANCH   1   2
BRANCH   1  10
ATOM     10  C   UNL     1      28.743  32.072  36.876  1.00  0.00     0.000 C 
BRANCH  10  11
ATOM     11  C   UNL     1      28.884  30.550  37.035  1.00  0.00    -0.000 C 
BRANCH  11  12
ATOM     12  C   UNL     1      30.309  30.052  36.747  1.00  0.00    -0.000 C 
BRANCH  12  13
ATOM     13  C   UNL     1      30.324  28.738  35.947  1.00  0.00    -0.000 C 
BRANCH  13  14
ATOM     14  C   UNL     1      30.972  28.890  34.558  1.00  0.00    -0.000 C 
BRANCH  14  15
ATOM     15  C   UNL     1      30.039  29.437  33.462  1.00  0.00    -0.003 C 
ATOM     16  C   UNL     1      30.624  30.643  32.727  1.00  0.00     0.004 C 
ENDBRANCH  14  15
ENDBRANCH  13  14
ENDBRANCH  12  13
ENDBRANCH  11  12
ENDBRANCH  10  11
ENDBRANCH   1  10
TORSDOF 12
ENDMDL
MODEL 9
REMARK VINA RESULT:    -3.130      2.672      5.701
REMARK INTER + INTRA:          -6.873
REMARK INTER:                  -5.902
REMARK INTRA:                  -0.971
REMARK UNBOUND:                -1.547
REMARK SMILES CCCCCCCCCCCCCC(=O)[O-]
REMARK SMILES IDX 8 1 9 2 10 3 11 4 12 5 13 6 14 7 15 8 16 9 7 10 6 11 5 12
REMARK SMILES IDX 4 13 3 14 2 15 1 16
REMARK H PARENT
REMARK Flexibility Score: inf
ROOT
ATOM      1  C   UNL     1      29.594  33.316  35.517  1.00  0.00     0.000 C 
ENDROOT
BRANCH   1   2
ATOM      2  C   UNL     1      30.658  32.363  36.081  1.00  0.00     0.000 C 
BRANCH   2   3
ATOM      3  C   UNL     1      30.086  31.371  37.106  1.00  0.00     0.000 C 
BRANCH   3   4
ATOM      4  C   UNL     1      29.784  29.994  36.490  1.00  0.00     0.000 C 
BRANCH   4   5
ATOM      5  C   UNL     1      30.750  29.628  35.349  1.00  0.00     0.006 C 
BRANCH   5   6
ATOM      6  C   UNL     1      30.151  28.695  34.284  1.00  0.00     0.053 C 
BRANCH   6   7
ATOM      7  C   UNL     1      30.254  29.273  32.906  1.00  0.00     0.041 C 
ATOM      8  O   UNL     1      30.182  28.523  31.897  1.00  0.00    -0.550 OA
ATOM      9  O   UNL     1      30.395  30.645  32.735  1.00  0.00    -0.550 OA
ENDBRANCH   6   7
ENDBRANCH   5   6
ENDBRANCH   4   5
ENDBRANCH   3   4
ENDBRANCH   2   3
ENDBRANCH   1   2
BRANCH   1  10
ATOM     10  C   UNL     1      28.314  33.271  36.360  1.00  0.00     0.000 C 
BRANCH  10  11
ATOM     11  C   UNL     1      27.064  33.339  35.468  1.00  0.00    -0.000 C 
BRANCH  11  12
ATOM     12  C   UNL     1      27.389  33.733  34.019  1.00  0.00    -0.000 C 
BRANCH  12  13
ATOM     13  C   UNL     1      26.742  35.067  33.611  1.00  0.00    -0.000 C 
BRANCH  13  14
ATOM     14  C   UNL     1      27.181  35.544  32.214  1.00  0.00    -0.000 C 
BRANCH  14  15
ATOM     15  C   UNL     1      27.242  34.443  31.140  1.00  0.00    -0.003 C 
ATOM     16  C   UNL     1      25.880  34.137  30.519  1.00  0.00     0.004 C 
ENDBRANCH  14  15
ENDBRANCH  13  14
ENDBRANCH  12  13
ENDBRANCH  11  12
ENDBRANCH  10  11
ENDBRANCH   1  10
TORSDOF 12
ENDMDL
