MODEL 1
REMARK VINA RESULT:     2.338      0.000      0.000
REMARK INTER + INTRA:           4.554
REMARK INTER:                   5.892
REMARK INTRA:                  -1.337
REMARK UNBOUND:                -1.337
REMARK SMILES CCCCCCCCCCCCCCCCCCCCCCCCCCCC(=O)[O-]
REMARK SMILES IDX 15 1 16 2 17 3 18 4 19 5 20 6 21 7 22 8 23 9 24 10 25 11
REMARK SMILES IDX 26 12 27 13 28 14 29 15 30 16 14 17 13 18 12 19 11 20 10 21
REMARK SMILES IDX 9 22 8 23 7 24 6 25 5 26 4 27 3 28 2 29 1 30
REMARK H PARENT
REMARK Flexibility Score: inf
ROOT
ATOM      1  C   UNL     1       1.860   3.569  -1.162  1.00  0.00     0.000 C 
ENDROOT
BRANCH   1   2
ATOM      2  C   UNL     1       2.589   4.355  -2.267  1.00  0.00     0.000 C 
BRANCH   2   3
ATOM      3  C   UNL     1       1.734   4.515  -3.543  1.00  0.00     0.000 C 
BRANCH   3   4
ATOM      4  C   UNL     1       0.454   5.349  -3.339  1.00  0.00     0.000 C 
BRANCH   4   5
ATOM      5  C   UNL     1      -0.437   5.493  -4.585  1.00  0.00     0.000 C 
BRANCH   5   6
ATOM      6  C   UNL     1       0.310   5.866  -5.880  1.00  0.00     0.000 C 
BRANCH   6   7
ATOM      7  C   UNL     1      -0.246   7.124  -6.581  1.00  0.00     0.000 C 
BRANCH   7   8
ATOM      8  C   UNL     1      -0.288   8.346  -5.646  1.00  0.00     0.000 C 
BRANCH   8   9
ATOM      9  C   UNL     1      -0.340   9.677  -6.416  1.00  0.00     0.000 C 
BRANCH   9  10
ATOM     10  C   UNL     1      -0.488   9.471  -7.933  1.00  0.00     0.000 C 
BRANCH  10  11
ATOM     11  C   UNL     1       0.811   9.767  -8.700  1.00  0.00     0.000 C 
BRANCH  11  12
ATOM     12  C   UNL     1       0.878   9.043 -10.056  1.00  0.00     0.006 C 
BRANCH  12  13
ATOM     13  C   UNL     1       1.879   7.878 -10.042  1.00  0.00     0.053 C 
BRANCH  13  14
ATOM     14  C   UNL     1       1.255   6.612  -9.541  1.00  0.00     0.041 C 
ATOM     15  O   UNL     1       1.962   5.739  -8.973  1.00  0.00    -0.550 OA
ATOM     16  O   UNL     1      -0.103   6.384  -9.728  1.00  0.00    -0.550 OA
ENDBRANCH  13  14
ENDBRANCH  12  13
ENDBRANCH  11  12
ENDBRANCH  10  11
ENDBRANCH   9  10
ENDBRANCH   8   9
ENDBRANCH   7   8
ENDBRANCH   6   7
ENDBRANCH   5   6
ENDBRANCH   4   5
ENDBRANCH   3   4
ENDBRANCH   2   3
ENDBRANCH   1   2
BRANCH   1  17
ATOM     17  C   UNL     1       1.982   2.042  -1.326  1.00  0.00     0.000 C 
BRANCH  17  18
ATOM     18  C   UNL     1       3.254   1.422  -0.723  1.00  0.00     0.000 C 
BRANCH  18  19
ATOM     19  C   UNL     1       3.015   0.756   0.640  1.00  0.00     0.000 C 
BRANCH  19  20
ATOM     20  C   UNL     1       1.823  -0.210   0.575  1.00  0.00     0.000 C 
BRANCH  20  21
ATOM     21  C   UNL     1       1.425  -0.762   1.956  1.00  0.00     0.000 C 
BRANCH  21  22
ATOM     22  C   UNL     1       0.892  -2.206   1.942  1.00  0.00    -0.000 C 
BRANCH  22  23
ATOM     23  C   UNL     1      -0.549  -2.313   2.469  1.00  0.00    -0.000 C 
BRANCH  23  24
ATOM     24  C   UNL     1      -0.666  -1.937   3.954  1.00  0.00    -0.000 C 
BRANCH  24  25
ATOM     25  C   UNL     1      -1.254  -0.535   4.165  1.00  0.00    -0.000 C 
BRANCH  25  26
ATOM     26  C   UNL     1      -1.719  -0.349   5.614  1.00  0.00    -0.000 C 
BRANCH  26  27
ATOM     27  C   UNL     1      -0.854  -1.171   6.582  1.00  0.00    -0.000 C 
BRANCH  27  28
ATOM     28  C   UNL     1      -1.668  -1.718   7.774  1.00  0.00    -0.000 C 
BRANCH  28  29
ATOM     29  C   UNL     1      -0.812  -2.036   9.012  1.00  0.00    -0.003 C 
ATOM     30  C   UNL     1      -1.206  -3.345   9.693  1.00  0.00     0.004 C 
ENDBRANCH  28  29
ENDBRANCH  27  28
ENDBRANCH  26  27
ENDBRANCH  25  26
ENDBRANCH  24  25
ENDBRANCH  23  24
ENDBRANCH  22  23
ENDBRANCH  21  22
ENDBRANCH  20  21
ENDBRANCH  19  20
ENDBRANCH  18  19
ENDBRANCH  17  18
ENDBRANCH   1  17
TORSDOF 26
ENDMDL
MODEL 2
REMARK VINA RESULT:     2.550      1.566      2.389
REMARK INTER + INTRA:           5.088
REMARK INTER:                   6.303
REMARK INTRA:                  -1.214
REMARK UNBOUND:                -1.337
REMARK SMILES CCCCCCCCCCCCCCCCCCCCCCCCCCCC(=O)[O-]
REMARK SMILES IDX 15 1 16 2 17 3 18 4 19 5 20 6 21 7 22 8 23 9 24 10 25 11
REMARK SMILES IDX 26 12 27 13 28 14 29 15 30 16 14 17 13 18 12 19 11 20 10 21
REMARK SMILES IDX 9 22 8 23 7 24 6 25 5 26 4 27 3 28 2 29 1 30
REMARK H PARENT
REMARK Flexibility Score: inf
ROOT
ATOM      1  C   UNL     1       1.992   2.234  -2.230  1.00  0.00     0.000 C 
ENDROOT
BRANCH   1   2
ATOM      2  C   UNL     1       2.054   3.693  -1.744  1.00  0.00     0.000 C 
BRANCH   2   3
ATOM      3  C   UNL     1       1.812   4.707  -2.883  1.00  0.00     0.000 C 
BRANCH   3   4
ATOM      4  C   UNL     1       0.442   4.559  -3.574  1.00  0.00     0.000 C 
BRANCH   4   5
ATOM      5  C   UNL     1       0.047   5.723  -4.499  1.00  0.00     0.000 C 
BRANCH   5   6
ATOM      6  C   UNL     1      -0.233   5.326  -5.961  1.00  0.00     0.000 C 
BRANCH   6   7
ATOM      7  C   UNL     1      -0.004   6.470  -6.973  1.00  0.00     0.000 C 
BRANCH   7   8
ATOM      8  C   UNL     1       1.114   6.146  -7.981  1.00  0.00     0.000 C 
BRANCH   8   9
ATOM      9  C   UNL     1       0.682   6.381  -9.438  1.00  0.00     0.000 C 
BRANCH   9  10
ATOM     10  C   UNL     1       0.534   7.875  -9.773  1.00  0.00     0.000 C 
BRANCH  10  11
ATOM     11  C   UNL     1       1.534   8.756  -9.006  1.00  0.00     0.000 C 
BRANCH  11  12
ATOM     12  C   UNL     1       0.940  10.117  -8.605  1.00  0.00     0.006 C 
BRANCH  12  13
ATOM     13  C   UNL     1       0.236  10.062  -7.241  1.00  0.00     0.053 C 
BRANCH  13  14
ATOM     14  C   UNL     1      -1.253   9.982  -7.385  1.00  0.00     0.041 C 
ATOM     15  O   UNL     1      -1.990   9.997  -6.365  1.00  0.00    -0.550 OA
ATOM     16  O   UNL     1      -1.825   9.860  -8.645  1.00  0.00    -0.550 OA
ENDBRANCH  13  14
ENDBRANCH  12  13
ENDBRANCH  11  12
ENDBRANCH  10  11
ENDBRANCH   9  10
ENDBRANCH   8   9
ENDBRANCH   7   8
ENDBRANCH   6   7
ENDBRANCH   5   6
ENDBRANCH   4   5
ENDBRANCH   3   4
ENDBRANCH   2   3
ENDBRANCH   1   2
BRANCH   1  17
ATOM     17  C   UNL     1       2.156   1.211  -1.090  1.00  0.00     0.000 C 
BRANCH  17  18
ATOM     18  C   UNL     1       3.020   1.685   0.092  1.00  0.00     0.000 C 
BRANCH  18  19
ATOM     19  C   UNL     1       3.574   0.529   0.938  1.00  0.00     0.000 C 
BRANCH  19  20
ATOM     20  C   UNL     1       3.282   0.754   2.429  1.00  0.00     0.000 C 
BRANCH  20  21
ATOM     21  C   UNL     1       1.961   0.105   2.884  1.00  0.00     0.000 C 
BRANCH  21  22
ATOM     22  C   UNL     1       1.527  -1.118   2.058  1.00  0.00    -0.000 C 
BRANCH  22  23
ATOM     23  C   UNL     1       0.964  -2.255   2.927  1.00  0.00    -0.000 C 
BRANCH  23  24
ATOM     24  C   UNL     1      -0.572  -2.251   2.984  1.00  0.00    -0.000 C 
BRANCH  24  25
ATOM     25  C   UNL     1      -1.157  -0.835   3.086  1.00  0.00    -0.000 C 
BRANCH  25  26
ATOM     26  C   UNL     1      -0.991  -0.275   4.503  1.00  0.00    -0.000 C 
BRANCH  26  27
ATOM     27  C   UNL     1      -1.694  -1.168   5.537  1.00  0.00    -0.000 C 
BRANCH  27  28
ATOM     28  C   UNL     1      -0.958  -1.184   6.894  1.00  0.00    -0.000 C 
BRANCH  28  29
ATOM     29  C   UNL     1      -1.710  -1.953   7.994  1.00  0.00    -0.003 C 
ATOM     30  C   UNL     1      -0.787  -2.489   9.087  1.00  0.00     0.004 C 
ENDBRANCH  28  29
ENDBRANCH  27  28
ENDBRANCH  26  27
ENDBRANCH  25  26
ENDBRANCH  24  25
ENDBRANCH  23  24
ENDBRANCH  22  23
ENDBRANCH  21  22
ENDBRANCH  20  21
ENDBRANCH  19  20
ENDBRANCH  18  19
ENDBRANCH  17  18
ENDBRANCH   1  17
TORSDOF 26
ENDMDL
MODEL 3
REMARK VINA RESULT:     2.623      1.761      2.873
REMARK INTER + INTRA:           5.272
REMARK INTER:                   6.715
REMARK INTRA:                  -1.443
REMARK UNBOUND:                -1.337
REMARK SMILES CCCCCCCCCCCCCCCCCCCCCCCCCCCC(=O)[O-]
REMARK SMILES IDX 15 1 16 2 17 3 18 4 19 5 20 6 21 7 22 8 23 9 24 10 25 11
REMARK SMILES IDX 26 12 27 13 28 14 29 15 30 16 14 17 13 18 12 19 11 20 10 21
REMARK SMILES IDX 9 22 8 23 7 24 6 25 5 26 4 27 3 28 2 29 1 30
REMARK H PARENT
REMARK Flexibility Score: inf
ROOT
ATOM      1  C   UNL     1       1.836   2.432  -1.440  1.00  0.00     0.000 C 
ENDROOT
BRANCH   1   2
ATOM      2  C   UNL     1       2.512   3.782  -1.735  1.00  0.00     0.000 C 
BRANCH   2   3
ATOM      3  C   UNL     1       1.722   4.631  -2.754  1.00  0.00     0.000 C 
BRANCH   3   4
ATOM      4  C   UNL     1       0.453   5.286  -2.174  1.00  0.00     0.000 C 
BRANCH   4   5
ATOM      5  C   UNL     1      -0.011   6.563  -2.895  1.00  0.00     0.000 C 
BRANCH   5   6
ATOM      6  C   UNL     1      -0.586   7.658  -1.976  1.00  0.00     0.000 C 
BRANCH   6   7
ATOM      7  C   UNL     1      -0.957   8.962  -2.715  1.00  0.00     0.000 C 
BRANCH   7   8
ATOM      8  C   UNL     1      -0.593   8.913  -4.211  1.00  0.00     0.000 C 
BRANCH   8   9
ATOM      9  C   UNL     1      -1.308  10.001  -5.029  1.00  0.00     0.000 C 
BRANCH   9  10
ATOM     10  C   UNL     1      -0.777  10.095  -6.470  1.00  0.00     0.000 C 
BRANCH  10  11
ATOM     11  C   UNL     1      -1.719   9.439  -7.492  1.00  0.00     0.000 C 
BRANCH  11  12
ATOM     12  C   UNL     1      -0.971   8.890  -8.720  1.00  0.00     0.006 C 
BRANCH  12  13
ATOM     13  C   UNL     1       0.551   8.882  -8.516  1.00  0.00     0.053 C 
BRANCH  13  14
ATOM     14  C   UNL     1       1.077   7.498  -8.291  1.00  0.00     0.041 C 
ATOM     15  O   UNL     1       2.055   7.075  -8.959  1.00  0.00    -0.550 OA
ATOM     16  O   UNL     1       0.466   6.664  -7.362  1.00  0.00    -0.550 OA
ENDBRANCH  13  14
ENDBRANCH  12  13
ENDBRANCH  11  12
ENDBRANCH  10  11
ENDBRANCH   9  10
ENDBRANCH   8   9
ENDBRANCH   7   8
ENDBRANCH   6   7
ENDBRANCH   5   6
ENDBRANCH   4   5
ENDBRANCH   3   4
ENDBRANCH   2   3
ENDBRANCH   1   2
BRANCH   1  17
ATOM     17  C   UNL     1       2.791   1.405  -0.802  1.00  0.00     0.000 C 
BRANCH  17  18
ATOM     18  C   UNL     1       2.207  -0.008  -0.629  1.00  0.00     0.000 C 
BRANCH  18  19
ATOM     19  C   UNL     1       1.854  -0.343   0.827  1.00  0.00     0.000 C 
BRANCH  19  20
ATOM     20  C   UNL     1       2.757   0.429   1.800  1.00  0.00     0.000 C 
BRANCH  20  21
ATOM     21  C   UNL     1       2.385   0.194   3.276  1.00  0.00     0.000 C 
BRANCH  21  22
ATOM     22  C   UNL     1       2.015   1.469   4.056  1.00  0.00    -0.000 C 
BRANCH  22  23
ATOM     23  C   UNL     1       0.565   1.917   3.811  1.00  0.00    -0.000 C 
BRANCH  23  24
ATOM     24  C   UNL     1      -0.433   0.750   3.863  1.00  0.00    -0.000 C 
BRANCH  24  25
ATOM     25  C   UNL     1      -1.745   1.123   4.567  1.00  0.00    -0.000 C 
BRANCH  25  26
ATOM     26  C   UNL     1      -2.261  -0.044   5.416  1.00  0.00    -0.000 C 
BRANCH  26  27
ATOM     27  C   UNL     1      -1.193  -1.139   5.560  1.00  0.00    -0.000 C 
BRANCH  27  28
ATOM     28  C   UNL     1      -1.369  -2.269   4.525  1.00  0.00    -0.000 C 
BRANCH  28  29
ATOM     29  C   UNL     1      -0.133  -2.490   3.637  1.00  0.00    -0.003 C 
ATOM     30  C   UNL     1      -0.399  -2.211   2.159  1.00  0.00     0.004 C 
ENDBRANCH  28  29
ENDBRANCH  27  28
ENDBRANCH  26  27
ENDBRANCH  25  26
ENDBRANCH  24  25
ENDBRANCH  23  24
ENDBRANCH  22  23
ENDBRANCH  21  22
ENDBRANCH  20  21
ENDBRANCH  19  20
ENDBRANCH  18  19
ENDBRANCH  17  18
ENDBRANCH   1  17
TORSDOF 26
ENDMDL
MODEL 4
REMARK VINA RESULT:     2.679      3.788     13.758
REMARK INTER + INTRA:           5.414
REMARK INTER:                   7.219
REMARK INTRA:                  -1.805
REMARK UNBOUND:                -1.337
REMARK SMILES CCCCCCCCCCCCCCCCCCCCCCCCCCCC(=O)[O-]
REMARK SMILES IDX 15 1 16 2 17 3 18 4 19 5 20 6 21 7 22 8 23 9 24 10 25 11
REMARK SMILES IDX 26 12 27 13 28 14 29 15 30 16 14 17 13 18 12 19 11 20 10 21
REMARK SMILES IDX 9 22 8 23 7 24 6 25 5 26 4 27 3 28 2 29 1 30
REMARK H PARENT
REMARK Flexibility Score: inf
ROOT
ATOM      1  C   UNL     1       2.154   4.359  -2.554  1.00  0.00     0.000 C 
ENDROOT
BRANCH   1   2
ATOM      2  C   UNL     1       1.860   2.850  -2.474  1.00  0.00     0.000 C 
BRANCH   2   3
ATOM      3  C   UNL     1       2.297   2.231  -1.128  1.00  0.00     0.000 C 
BRANCH   3   4
ATOM      4  C   UNL     1       2.194   0.694  -1.083  1.00  0.00     0.000 C 
BRANCH   4   5
ATOM      5  C   UNL     1       2.703   0.044   0.215  1.00  0.00     0.000 C 
BRANCH   5   6
ATOM      6  C   UNL     1       3.088   1.034   1.331  1.00  0.00     0.000 C 
BRANCH   6   7
ATOM      7  C   UNL     1       2.544   0.647   2.724  1.00  0.00     0.000 C 
BRANCH   7   8
ATOM      8  C   UNL     1       1.314   1.480   3.126  1.00  0.00     0.000 C 
BRANCH   8   9
ATOM      9  C   UNL     1       0.620   0.939   4.387  1.00  0.00     0.000 C 
BRANCH   9  10
ATOM     10  C   UNL     1      -0.881   0.683   4.167  1.00  0.00     0.000 C 
BRANCH  10  11
ATOM     11  C   UNL     1      -1.453  -0.360   5.141  1.00  0.00     0.000 C 
BRANCH  11  12
ATOM     12  C   UNL     1      -0.987  -1.791   4.818  1.00  0.00     0.006 C 
BRANCH  12  13
ATOM     13  C   UNL     1      -1.174  -2.140   3.335  1.00  0.00     0.053 C 
BRANCH  13  14
ATOM     14  C   UNL     1       0.135  -2.202   2.608  1.00  0.00     0.041 C 
ATOM     15  O   UNL     1       1.124  -2.779   3.130  1.00  0.00    -0.550 OA
ATOM     16  O   UNL     1       0.269  -1.595   1.365  1.00  0.00    -0.550 OA
ENDBRANCH  13  14
ENDBRANCH  12  13
ENDBRANCH  11  12
ENDBRANCH  10  11
ENDBRANCH   9  10
ENDBRANCH   8   9
ENDBRANCH   7   8
ENDBRANCH   6   7
ENDBRANCH   5   6
ENDBRANCH   4   5
ENDBRANCH   3   4
ENDBRANCH   2   3
ENDBRANCH   1   2
BRANCH   1  17
ATOM     17  C   UNL     1       1.040   5.154  -3.260  1.00  0.00     0.000 C 
BRANCH  17  18
ATOM     18  C   UNL     1      -0.018   4.298  -3.977  1.00  0.00     0.000 C 
BRANCH  18  19
ATOM     19  C   UNL     1      -0.648   5.002  -5.187  1.00  0.00     0.000 C 
BRANCH  19  20
ATOM     20  C   UNL     1       0.381   5.892  -5.898  1.00  0.00     0.000 C 
BRANCH  20  21
ATOM     21  C   UNL     1       0.337   5.752  -7.431  1.00  0.00     0.000 C 
BRANCH  21  22
ATOM     22  C   UNL     1       1.494   6.444  -8.174  1.00  0.00    -0.000 C 
BRANCH  22  23
ATOM     23  C   UNL     1       1.161   6.745  -9.645  1.00  0.00    -0.000 C 
BRANCH  23  24
ATOM     24  C   UNL     1       1.581   8.161 -10.069  1.00  0.00    -0.000 C 
BRANCH  24  25
ATOM     25  C   UNL     1       0.440   9.181  -9.942  1.00  0.00    -0.000 C 
BRANCH  25  26
ATOM     26  C   UNL     1      -0.924   8.483  -9.987  1.00  0.00    -0.000 C 
BRANCH  26  27
ATOM     27  C   UNL     1      -2.059   9.464  -9.654  1.00  0.00    -0.000 C 
BRANCH  27  28
ATOM     28  C   UNL     1      -1.874  10.125  -8.272  1.00  0.00    -0.000 C 
BRANCH  28  29
ATOM     29  C   UNL     1      -1.139   9.235  -7.255  1.00  0.00    -0.003 C 
ATOM     30  C   UNL     1      -0.839   9.950  -5.939  1.00  0.00     0.004 C 
ENDBRANCH  28  29
ENDBRANCH  27  28
ENDBRANCH  26  27
ENDBRANCH  25  26
ENDBRANCH  24  25
ENDBRANCH  23  24
ENDBRANCH  22  23
ENDBRANCH  21  22
ENDBRANCH  20  21
ENDBRANCH  19  20
ENDBRANCH  18  19
ENDBRANCH  17  18
ENDBRANCH   1  17
TORSDOF 26
ENDMDL
MODEL 5
REMARK VINA RESULT:     2.866      4.043     13.927
REMARK INTER + INTRA:           5.886
REMARK INTER:                   6.970
REMARK INTRA:                  -1.084
REMARK UNBOUND:                -1.337
REMARK SMILES CCCCCCCCCCCCCCCCCCCCCCCCCCCC(=O)[O-]
REMARK SMILES IDX 15 1 16 2 17 3 18 4 19 5 20 6 21 7 22 8 23 9 24 10 25 11
REMARK SMILES IDX 26 12 27 13 28 14 29 15 30 16 14 17 13 18 12 19 11 20 10 21
REMARK SMILES IDX 9 22 8 23 7 24 6 25 5 26 4 27 3 28 2 29 1 30
REMARK H PARENT
REMARK Flexibility Score: inf
ROOT
ATOM      1  C   UNL     1       1.093   4.751  -2.988  1.00  0.00     0.000 C 
ENDROOT
BRANCH   1   2
ATOM      2  C   UNL     1       2.535   4.483  -2.519  1.00  0.00     0.000 C 
BRANCH   2   3
ATOM      3  C   UNL     1       2.805   2.985  -2.260  1.00  0.00     0.000 C 
BRANCH   3   4
ATOM      4  C   UNL     1       2.592   2.554  -0.796  1.00  0.00     0.000 C 
BRANCH   4   5
ATOM      5  C   UNL     1       3.018   1.112  -0.471  1.00  0.00     0.000 C 
BRANCH   5   6
ATOM      6  C   UNL     1       1.866   0.090  -0.415  1.00  0.00     0.000 C 
BRANCH   6   7
ATOM      7  C   UNL     1       1.482  -0.340   1.017  1.00  0.00     0.000 C 
BRANCH   7   8
ATOM      8  C   UNL     1       1.144  -1.839   1.109  1.00  0.00     0.000 C 
BRANCH   8   9
ATOM      9  C   UNL     1       0.820  -2.285   2.545  1.00  0.00     0.000 C 
BRANCH   9  10
ATOM     10  C   UNL     1      -0.582  -1.837   2.995  1.00  0.00     0.000 C 
BRANCH  10  11
ATOM     11  C   UNL     1      -0.994  -2.450   4.344  1.00  0.00     0.000 C 
BRANCH  11  12
ATOM     12  C   UNL     1      -1.799  -1.473   5.218  1.00  0.00     0.006 C 
BRANCH  12  13
ATOM     13  C   UNL     1      -0.980  -0.234   5.609  1.00  0.00     0.053 C 
BRANCH  13  14
ATOM     14  C   UNL     1      -0.924   0.771   4.500  1.00  0.00     0.041 C 
ATOM     15  O   UNL     1       0.162   1.338   4.213  1.00  0.00    -0.550 OA
ATOM     16  O   UNL     1      -2.079   1.103   3.803  1.00  0.00    -0.550 OA
ENDBRANCH  13  14
ENDBRANCH  12  13
ENDBRANCH  11  12
ENDBRANCH  10  11
ENDBRANCH   9  10
ENDBRANCH   8   9
ENDBRANCH   7   8
ENDBRANCH   6   7
ENDBRANCH   5   6
ENDBRANCH   4   5
ENDBRANCH   3   4
ENDBRANCH   2   3
ENDBRANCH   1   2
BRANCH   1  17
ATOM     17  C   UNL     1       0.372   5.817  -2.141  1.00  0.00     0.000 C 
BRANCH  17  18
ATOM     18  C   UNL     1      -0.436   6.851  -2.944  1.00  0.00     0.000 C 
BRANCH  18  19
ATOM     19  C   UNL     1      -0.898   8.047  -2.099  1.00  0.00     0.000 C 
BRANCH  19  20
ATOM     20  C   UNL     1      -1.021   9.312  -2.961  1.00  0.00     0.000 C 
BRANCH  20  21
ATOM     21  C   UNL     1      -0.849   9.029  -4.465  1.00  0.00     0.000 C 
BRANCH  21  22
ATOM     22  C   UNL     1      -1.405  10.125  -5.392  1.00  0.00    -0.000 C 
BRANCH  22  23
ATOM     23  C   UNL     1      -1.926   9.568  -6.727  1.00  0.00    -0.000 C 
BRANCH  23  24
ATOM     24  C   UNL     1      -0.892   9.680  -7.859  1.00  0.00    -0.000 C 
BRANCH  24  25
ATOM     25  C   UNL     1      -1.514   9.485  -9.250  1.00  0.00    -0.000 C 
BRANCH  25  26
ATOM     26  C   UNL     1      -0.745   8.427 -10.049  1.00  0.00    -0.000 C 
BRANCH  26  27
ATOM     27  C   UNL     1       0.751   8.770 -10.125  1.00  0.00    -0.000 C 
BRANCH  27  28
ATOM     28  C   UNL     1       1.641   7.628  -9.591  1.00  0.00    -0.000 C 
BRANCH  28  29
ATOM     29  C   UNL     1       0.863   6.346  -9.252  1.00  0.00    -0.003 C 
ATOM     30  C   UNL     1       0.836   6.039  -7.755  1.00  0.00     0.004 C 
ENDBRANCH  28  29
ENDBRANCH  27  28
ENDBRANCH  26  27
ENDBRANCH  25  26
ENDBRANCH  24  25
ENDBRANCH  23  24
ENDBRANCH  22  23
ENDBRANCH  21  22
ENDBRANCH  20  21
ENDBRANCH  19  20
ENDBRANCH  18  19
ENDBRANCH  17  18
ENDBRANCH   1  17
TORSDOF 26
ENDMDL
MODEL 6
REMARK VINA RESULT:     2.938      4.089     13.648
REMARK INTER + INTRA:           6.066
REMARK INTER:                   7.708
REMARK INTRA:                  -1.642
REMARK UNBOUND:                -1.337
REMARK SMILES CCCCCCCCCCCCCCCCCCCCCCCCCCCC(=O)[O-]
REMARK SMILES IDX 15 1 16 2 17 3 18 4 19 5 20 6 21 7 22 8 23 9 24 10 25 11
REMARK SMILES IDX 26 12 27 13 28 14 29 15 30 16 14 17 13 18 12 19 11 20 10 21
REMARK SMILES IDX 9 22 8 23 7 24 6 25 5 26 4 27 3 28 2 29 1 30
REMARK H PARENT
REMARK Flexibility Score: inf
ROOT
ATOM      1  C   UNL     1       1.556   2.097  -2.282  1.00  0.00     0.000 C 
ENDROOT
BRANCH   1   2
ATOM      2  C   UNL     1       1.976   1.142  -1.151  1.00  0.00     0.000 C 
BRANCH   2   3
ATOM      3  C   UNL     1       2.999   1.779  -0.186  1.00  0.00     0.000 C 
BRANCH   3   4
ATOM      4  C   UNL     1       4.031   0.784   0.381  1.00  0.00     0.000 C 
BRANCH   4   5
ATOM      5  C   UNL     1       4.882   1.319   1.545  1.00  0.00     0.000 C 
BRANCH   5   6
ATOM      6  C   UNL     1       4.262   1.134   2.944  1.00  0.00     0.000 C 
BRANCH   6   7
ATOM      7  C   UNL     1       2.767   0.750   2.918  1.00  0.00     0.000 C 
BRANCH   7   8
ATOM      8  C   UNL     1       2.553  -0.771   2.805  1.00  0.00     0.000 C 
BRANCH   8   9
ATOM      9  C   UNL     1       1.396  -1.137   1.860  1.00  0.00     0.000 C 
BRANCH   9  10
ATOM     10  C   UNL     1       0.566  -2.322   2.382  1.00  0.00     0.000 C 
BRANCH  10  11
ATOM     11  C   UNL     1      -0.883  -1.929   2.715  1.00  0.00     0.000 C 
BRANCH  11  12
ATOM     12  C   UNL     1      -1.312  -2.384   4.120  1.00  0.00     0.006 C 
BRANCH  12  13
ATOM     13  C   UNL     1      -0.948  -1.355   5.200  1.00  0.00     0.053 C 
BRANCH  13  14
ATOM     14  C   UNL     1      -1.423   0.021   4.843  1.00  0.00     0.041 C 
ATOM     15  O   UNL     1      -0.679   0.799   4.191  1.00  0.00    -0.550 OA
ATOM     16  O   UNL     1      -2.677   0.453   5.256  1.00  0.00    -0.550 OA
ENDBRANCH  13  14
ENDBRANCH  12  13
ENDBRANCH  11  12
ENDBRANCH  10  11
ENDBRANCH   9  10
ENDBRANCH   8   9
ENDBRANCH   7   8
ENDBRANCH   6   7
ENDBRANCH   5   6
ENDBRANCH   4   5
ENDBRANCH   3   4
ENDBRANCH   2   3
ENDBRANCH   1   2
BRANCH   1  17
ATOM     17  C   UNL     1       2.186   3.498  -2.154  1.00  0.00     0.000 C 
BRANCH  17  18
ATOM     18  C   UNL     1       1.718   4.520  -3.204  1.00  0.00     0.000 C 
BRANCH  18  19
ATOM     19  C   UNL     1       0.610   5.451  -2.691  1.00  0.00     0.000 C 
BRANCH  19  20
ATOM     20  C   UNL     1      -0.328   5.867  -3.833  1.00  0.00     0.000 C 
BRANCH  20  21
ATOM     21  C   UNL     1       0.054   5.232  -5.183  1.00  0.00     0.000 C 
BRANCH  21  22
ATOM     22  C   UNL     1      -0.004   6.193  -6.384  1.00  0.00    -0.000 C 
BRANCH  22  23
ATOM     23  C   UNL     1       0.839   5.708  -7.575  1.00  0.00    -0.000 C 
BRANCH  23  24
ATOM     24  C   UNL     1       0.683   6.605  -8.814  1.00  0.00    -0.000 C 
BRANCH  24  25
ATOM     25  C   UNL     1       1.106   8.057  -8.551  1.00  0.00    -0.000 C 
BRANCH  25  26
ATOM     26  C   UNL     1       0.687   8.967  -9.712  1.00  0.00    -0.000 C 
BRANCH  26  27
ATOM     27  C   UNL     1      -0.517   9.838  -9.325  1.00  0.00    -0.000 C 
BRANCH  27  28
ATOM     28  C   UNL     1      -1.397   9.175  -8.245  1.00  0.00    -0.000 C 
BRANCH  28  29
ATOM     29  C   UNL     1      -1.734  10.105  -7.066  1.00  0.00    -0.003 C 
ATOM     30  C   UNL     1      -0.651  10.122  -5.989  1.00  0.00     0.004 C 
ENDBRANCH  28  29
ENDBRANCH  27  28
ENDBRANCH  26  27
ENDBRANCH  25  26
ENDBRANCH  24  25
ENDBRANCH  23  24
ENDBRANCH  22  23
ENDBRANCH  21  22
ENDBRANCH  20  21
ENDBRANCH  19  20
ENDBRANCH  18  19
ENDBRANCH  17  18
ENDBRANCH   1  17
TORSDOF 26
ENDMDL
MODEL 7
REMARK VINA RESULT:     3.501      5.372     12.572
REMARK INTER + INTRA:           7.485
REMARK INTER:                   9.237
REMARK INTRA:                  -1.752
REMARK UNBOUND:                -1.337
REMARK SMILES CCCCCCCCCCCCCCCCCCCCCCCCCCCC(=O)[O-]
REMARK SMILES IDX 15 1 16 2 17 3 18 4 19 5 20 6 21 7 22 8 23 9 24 10 25 11
REMARK SMILES IDX 26 12 27 13 28 14 29 15 30 16 14 17 13 18 12 19 11 20 10 21
REMARK SMILES IDX 9 22 8 23 7 24 6 25 5 26 4 27 3 28 2 29 1 30
REMARK H PARENT
REMARK Flexibility Score: inf
ROOT
ATOM      1  C   UNL     1       2.739   0.814  -0.014  1.00  0.00     0.000 C 
ENDROOT
BRANCH   1   2
ATOM      2  C   UNL     1       3.687   1.116   1.160  1.00  0.00     0.000 C 
BRANCH   2   3
ATOM      3  C   UNL     1       4.989   1.812   0.707  1.00  0.00     0.000 C 
BRANCH   3   4
ATOM      4  C   UNL     1       6.255   0.951   0.882  1.00  0.00     0.000 C 
BRANCH   4   5
ATOM      5  C   UNL     1       7.436   1.333  -0.026  1.00  0.00     0.000 C 
BRANCH   5   6
ATOM      6  C   UNL     1       7.760   2.838  -0.073  1.00  0.00     0.000 C 
BRANCH   6   7
ATOM      7  C   UNL     1       9.237   3.149  -0.399  1.00  0.00     0.000 C 
BRANCH   7   8
ATOM      8  C   UNL     1       9.404   4.480  -1.154  1.00  0.00     0.000 C 
BRANCH   8   9
ATOM      9  C   UNL     1       9.981   5.595  -0.266  1.00  0.00     0.000 C 
BRANCH   9  10
ATOM     10  C   UNL     1       8.915   6.229   0.646  1.00  0.00     0.000 C 
BRANCH  10  11
ATOM     11  C   UNL     1       9.410   6.425   2.088  1.00  0.00     0.000 C 
BRANCH  11  12
ATOM     12  C   UNL     1       8.983   7.778   2.683  1.00  0.00     0.006 C 
BRANCH  12  13
ATOM     13  C   UNL     1       8.382   8.713   1.624  1.00  0.00     0.053 C 
BRANCH  13  14
ATOM     14  C   UNL     1       6.898   8.849   1.777  1.00  0.00     0.041 C 
ATOM     15  O   UNL     1       6.326   9.928   1.474  1.00  0.00    -0.550 OA
ATOM     16  O   UNL     1       6.152   7.792   2.284  1.00  0.00    -0.550 OA
ENDBRANCH  13  14
ENDBRANCH  12  13
ENDBRANCH  11  12
ENDBRANCH  10  11
ENDBRANCH   9  10
ENDBRANCH   8   9
ENDBRANCH   7   8
ENDBRANCH   6   7
ENDBRANCH   5   6
ENDBRANCH   4   5
ENDBRANCH   3   4
ENDBRANCH   2   3
ENDBRANCH   1   2
BRANCH   1  17
ATOM     17  C   UNL     1       3.036   1.664  -1.264  1.00  0.00     0.000 C 
BRANCH  17  18
ATOM     18  C   UNL     1       1.818   2.387  -1.865  1.00  0.00     0.000 C 
BRANCH  18  19
ATOM     19  C   UNL     1       1.855   3.908  -1.659  1.00  0.00     0.000 C 
BRANCH  19  20
ATOM     20  C   UNL     1       1.860   4.643  -3.007  1.00  0.00     0.000 C 
BRANCH  20  21
ATOM     21  C   UNL     1       0.476   5.199  -3.390  1.00  0.00     0.000 C 
BRANCH  21  22
ATOM     22  C   UNL     1      -0.004   4.814  -4.801  1.00  0.00    -0.000 C 
BRANCH  22  23
ATOM     23  C   UNL     1      -0.576   6.008  -5.583  1.00  0.00    -0.000 C 
BRANCH  23  24
ATOM     24  C   UNL     1       0.427   6.592  -6.590  1.00  0.00    -0.000 C 
BRANCH  24  25
ATOM     25  C   UNL     1       0.739   5.628  -7.742  1.00  0.00    -0.000 C 
BRANCH  25  26
ATOM     26  C   UNL     1       0.747   6.365  -9.086  1.00  0.00    -0.000 C 
BRANCH  26  27
ATOM     27  C   UNL     1       1.112   7.846  -8.903  1.00  0.00    -0.000 C 
BRANCH  27  28
ATOM     28  C   UNL     1       0.378   8.759  -9.907  1.00  0.00    -0.000 C 
BRANCH  28  29
ATOM     29  C   UNL     1      -1.143   8.820  -9.687  1.00  0.00    -0.003 C 
ATOM     30  C   UNL     1      -1.528   9.260  -8.275  1.00  0.00     0.004 C 
ENDBRANCH  28  29
ENDBRANCH  27  28
ENDBRANCH  26  27
ENDBRANCH  25  26
ENDBRANCH  24  25
ENDBRANCH  23  24
ENDBRANCH  22  23
ENDBRANCH  21  22
ENDBRANCH  20  21
ENDBRANCH  19  20
ENDBRANCH  18  19
ENDBRANCH  17  18
ENDBRANCH   1  17
TORSDOF 26
ENDMDL
