MODEL 1
REMARK VINA RESULT:    40.675      0.000      0.000
REMARK INTER + INTRA:          49.069
REMARK INTER:                  48.997
REMARK INTRA:                   0.072
REMARK UNBOUND:                 0.072
REMARK SMILES O=c1c(O)c(-c2ccc(O)c(O)c2)oc2cc(O)cc(O)c12
REMARK SMILES IDX 5 1 3 2 2 3 1 4 22 5 20 6 19 7 17 8 16 9 15 10 14 11 6 12
REMARK SMILES IDX 7 13 8 14 9 15 13 16 11 17 10 18 12 20 4 22 21 24 18 26
REMARK H PARENT 10 19 12 21 4 23 21 25 18 27
REMARK Flexibility Score: inf
ROOT
ATOM      1  C   UNL     1      10.686  -9.120 -16.346  1.00  0.00     0.180 A 
ATOM      2  C   UNL     1      10.543  -7.731 -16.517  1.00  0.00     0.208 A 
ATOM      3  C   UNL     1       9.360  -7.111 -16.083  1.00  0.00     0.238 A 
ATOM      4  O   UNL     1       9.214  -5.877 -16.288  1.00  0.00    -0.285 OA
ATOM      5  C   UNL     1       8.343  -7.883 -15.470  1.00  0.00     0.111 A 
ATOM      6  C   UNL     1       7.122  -7.352 -14.956  1.00  0.00     0.134 A 
ATOM      7  C   UNL     1       6.132  -8.225 -14.489  1.00  0.00     0.093 A 
ATOM      8  C   UNL     1       6.347  -9.605 -14.456  1.00  0.00     0.123 A 
ATOM      9  C   UNL     1       7.559 -10.128 -14.900  1.00  0.00     0.094 A 
ATOM     10  C   UNL     1       8.551  -9.285 -15.405  1.00  0.00     0.146 A 
ATOM     11  O   UNL     1       9.688  -9.825 -15.827  1.00  0.00    -0.452 OA
ENDROOT
BRANCH   1  12
ATOM     12  C   UNL     1      11.913  -9.841 -16.754  1.00  0.00     0.025 A 
ATOM     13  C   UNL     1      11.850 -11.016 -17.523  1.00  0.00     0.016 A 
ATOM     14  C   UNL     1      13.022 -11.667 -17.916  1.00  0.00     0.051 A 
ATOM     15  C   UNL     1      14.273 -11.148 -17.560  1.00  0.00     0.157 A 
ATOM     16  C   UNL     1      13.171  -9.314 -16.416  1.00  0.00     0.062 A 
ATOM     17  C   UNL     1      14.346  -9.964 -16.808  1.00  0.00     0.158 A 
BRANCH  15  18
ATOM     18  O   UNL     1      15.441 -11.800 -17.952  1.00  0.00    -0.504 OA
ATOM     19  H   UNL     1      15.468 -12.805 -18.083  1.00  0.00     0.293 HD
ENDBRANCH  15  18
BRANCH  17  20
ATOM     20  O   UNL     1      15.576  -9.416 -16.442  1.00  0.00    -0.504 OA
ATOM     21  H   UNL     1      16.442  -9.934 -16.529  1.00  0.00     0.293 HD
ENDBRANCH  17  20
ENDBRANCH   1  12
BRANCH   2  22
ATOM     22  O   UNL     1      11.549  -6.993 -17.144  1.00  0.00    -0.502 OA
ATOM     23  H   UNL     1      11.934  -7.252 -18.044  1.00  0.00     0.293 HD
ENDBRANCH   2  22
BRANCH   6  24
ATOM     24  O   UNL     1       6.844  -5.986 -14.859  1.00  0.00    -0.507 OA
ATOM     25  H   UNL     1       7.172  -5.285 -15.506  1.00  0.00     0.293 HD
ENDBRANCH   6  24
BRANCH   8  26
ATOM     26  O   UNL     1       5.362 -10.466 -13.974  1.00  0.00    -0.508 OA
ATOM     27  H   UNL     1       5.511 -11.031 -13.146  1.00  0.00     0.293 HD
ENDBRANCH   8  26
TORSDOF 6
ENDMDL
