MODEL 1
REMARK VINA RESULT:    -7.399      0.000      0.000
REMARK INTER + INTRA:          -8.994
REMARK INTER:                  -8.696
REMARK INTRA:                  -0.298
REMARK UNBOUND:                -0.298
REMARK SMILES O=c1c(O)c(-c2ccc(O)cc2)oc2cc(O)cc(O)c12
REMARK SMILES IDX 5 1 3 2 2 3 1 4 21 5 19 6 18 7 16 8 15 9 14 10 13 11 6 12
REMARK SMILES IDX 7 13 8 14 9 15 12 16 11 17 10 18 4 20 20 22 17 24
REMARK H PARENT 10 19 4 21 20 23 17 25
REMARK Flexibility Score: inf
ROOT
ATOM      1  C   UNL     1      25.747   6.265  22.674  1.00  0.00     0.180 A 
ATOM      2  C   UNL     1      24.897   5.961  23.755  1.00  0.00     0.208 A 
ATOM      3  C   UNL     1      23.897   4.991  23.579  1.00  0.00     0.238 A 
ATOM      4  O   UNL     1      23.123   4.718  24.537  1.00  0.00    -0.285 OA
ATOM      5  C   UNL     1      23.778   4.329  22.340  1.00  0.00     0.111 A 
ATOM      6  C   UNL     1      22.801   3.336  22.083  1.00  0.00     0.134 A 
ATOM      7  C   UNL     1      22.753   2.718  20.825  1.00  0.00     0.093 A 
ATOM      8  C   UNL     1      23.663   3.071  19.822  1.00  0.00     0.123 A 
ATOM      9  C   UNL     1      24.627   4.049  20.071  1.00  0.00     0.094 A 
ATOM     10  C   UNL     1      24.689   4.679  21.317  1.00  0.00     0.146 A 
ATOM     11  O   UNL     1      25.614   5.610  21.524  1.00  0.00    -0.452 OA
ENDROOT
BRANCH   1  12
ATOM     12  C   UNL     1      26.811   7.290  22.774  1.00  0.00     0.021 A 
ATOM     13  C   UNL     1      28.111   6.903  23.140  1.00  0.00     0.016 A 
ATOM     14  C   UNL     1      29.137   7.850  23.220  1.00  0.00     0.047 A 
ATOM     15  C   UNL     1      28.880   9.191  22.920  1.00  0.00     0.115 A 
ATOM     16  C   UNL     1      26.564   8.638  22.455  1.00  0.00     0.016 A 
ATOM     17  C   UNL     1      27.592   9.583  22.535  1.00  0.00     0.047 A 
BRANCH  15  18
ATOM     18  O   UNL     1      29.911  10.124  23.005  1.00  0.00    -0.508 OA
ATOM     19  H   UNL     1      30.876   9.864  22.840  1.00  0.00     0.293 HD
ENDBRANCH  15  18
ENDBRANCH   1  12
BRANCH   2  20
ATOM     20  O   UNL     1      25.067   6.596  24.987  1.00  0.00    -0.502 OA
ATOM     21  H   UNL     1      25.935   7.045  25.251  1.00  0.00     0.293 HD
ENDBRANCH   2  20
BRANCH   6  22
ATOM     22  O   UNL     1      21.882   2.963  23.063  1.00  0.00    -0.507 OA
ATOM     23  H   UNL     1      21.116   2.330  22.863  1.00  0.00     0.293 HD
ENDBRANCH   6  22
BRANCH   8  24
ATOM     24  O   UNL     1      23.616   2.455  18.573  1.00  0.00    -0.508 OA
ATOM     25  H   UNL     1      24.133   2.821  17.782  1.00  0.00     0.293 HD
ENDBRANCH   8  24
TORSDOF 5
ENDMDL
MODEL 2
REMARK VINA RESULT:    -7.351      2.574      3.650
REMARK INTER + INTRA:          -8.938
REMARK INTER:                  -8.670
REMARK INTRA:                  -0.268
REMARK UNBOUND:                -0.298
REMARK SMILES O=c1c(O)c(-c2ccc(O)cc2)oc2cc(O)cc(O)c12
REMARK SMILES IDX 5 1 3 2 2 3 1 4 21 5 19 6 18 7 16 8 15 9 14 10 13 11 6 12
REMARK SMILES IDX 7 13 8 14 9 15 12 16 11 17 10 18 4 20 20 22 17 24
REMARK H PARENT 10 19 4 21 20 23 17 25
REMARK Flexibility Score: inf
ROOT
ATOM      1  C   UNL     1      25.997   5.896  21.935  1.00  0.00     0.180 A 
ATOM      2  C   UNL     1      25.744   4.554  21.590  1.00  0.00     0.208 A 
ATOM      3  C   UNL     1      24.965   4.281  20.454  1.00  0.00     0.238 A 
ATOM      4  O   UNL     1      24.723   3.084  20.142  1.00  0.00    -0.285 OA
ATOM      5  C   UNL     1      24.473   5.348  19.674  1.00  0.00     0.111 A 
ATOM      6  C   UNL     1      23.685   5.158  18.513  1.00  0.00     0.134 A 
ATOM      7  C   UNL     1      23.240   6.271  17.785  1.00  0.00     0.093 A 
ATOM      8  C   UNL     1      23.568   7.568  18.196  1.00  0.00     0.123 A 
ATOM      9  C   UNL     1      24.344   7.760  19.340  1.00  0.00     0.094 A 
ATOM     10  C   UNL     1      24.795   6.663  20.080  1.00  0.00     0.146 A 
ATOM     11  O   UNL     1      25.528   6.875  21.167  1.00  0.00    -0.452 OA
ENDROOT
BRANCH   1  12
ATOM     12  C   UNL     1      26.792   6.265  23.129  1.00  0.00     0.021 A 
ATOM     13  C   UNL     1      28.195   6.270  23.051  1.00  0.00     0.016 A 
ATOM     14  C   UNL     1      28.965   6.637  24.158  1.00  0.00     0.047 A 
ATOM     15  C   UNL     1      28.344   7.017  25.352  1.00  0.00     0.115 A 
ATOM     16  C   UNL     1      26.173   6.667  24.327  1.00  0.00     0.016 A 
ATOM     17  C   UNL     1      26.945   7.034  25.433  1.00  0.00     0.047 A 
BRANCH  15  18
ATOM     18  O   UNL     1      29.123   7.378  26.449  1.00  0.00    -0.508 OA
ATOM     19  H   UNL     1      29.955   6.857  26.703  1.00  0.00     0.293 HD
ENDBRANCH  15  18
ENDBRANCH   1  12
BRANCH   2  20
ATOM     20  O   UNL     1      26.285   3.515  22.352  1.00  0.00    -0.502 OA
ATOM     21  H   UNL     1      26.925   3.681  23.118  1.00  0.00     0.293 HD
ENDBRANCH   2  20
BRANCH   6  22
ATOM     22  O   UNL     1      23.342   3.877  18.079  1.00  0.00    -0.507 OA
ATOM     23  H   UNL     1      23.040   3.158  18.726  1.00  0.00     0.293 HD
ENDBRANCH   6  22
BRANCH   8  24
ATOM     24  O   UNL     1      23.127   8.674  17.472  1.00  0.00    -0.508 OA
ATOM     25  H   UNL     1      23.685   9.517  17.400  1.00  0.00     0.293 HD
ENDBRANCH   8  24
TORSDOF 5
ENDMDL
MODEL 3
REMARK VINA RESULT:    -7.200      2.871      6.749
REMARK INTER + INTRA:          -8.761
REMARK INTER:                  -8.483
REMARK INTRA:                  -0.277
REMARK UNBOUND:                -0.298
REMARK SMILES O=c1c(O)c(-c2ccc(O)cc2)oc2cc(O)cc(O)c12
REMARK SMILES IDX 5 1 3 2 2 3 1 4 21 5 19 6 18 7 16 8 15 9 14 10 13 11 6 12
REMARK SMILES IDX 7 13 8 14 9 15 12 16 11 17 10 18 4 20 20 22 17 24
REMARK H PARENT 10 19 4 21 20 23 17 25
REMARK Flexibility Score: inf
ROOT
ATOM      1  C   UNL     1      26.316   6.530  20.453  1.00  0.00     0.180 A 
ATOM      2  C   UNL     1      27.671   6.470  20.075  1.00  0.00     0.208 A 
ATOM      3  C   UNL     1      28.658   6.583  21.068  1.00  0.00     0.238 A 
ATOM      4  O   UNL     1      29.875   6.542  20.739  1.00  0.00    -0.285 OA
ATOM      5  C   UNL     1      28.276   6.732  22.416  1.00  0.00     0.111 A 
ATOM      6  C   UNL     1      29.208   6.848  23.476  1.00  0.00     0.134 A 
ATOM      7  C   UNL     1      28.747   6.985  24.794  1.00  0.00     0.093 A 
ATOM      8  C   UNL     1      27.376   7.007  25.072  1.00  0.00     0.123 A 
ATOM      9  C   UNL     1      26.455   6.893  24.030  1.00  0.00     0.094 A 
ATOM     10  C   UNL     1      26.893   6.758  22.710  1.00  0.00     0.146 A 
ATOM     11  O   UNL     1      25.993   6.656  21.738  1.00  0.00    -0.452 OA
ENDROOT
BRANCH   1  12
ATOM     12  C   UNL     1      25.218   6.438  19.464  1.00  0.00     0.021 A 
ATOM     13  C   UNL     1      24.510   5.232  19.327  1.00  0.00     0.016 A 
ATOM     14  C   UNL     1      23.455   5.129  18.415  1.00  0.00     0.047 A 
ATOM     15  C   UNL     1      23.085   6.233  17.641  1.00  0.00     0.115 A 
ATOM     16  C   UNL     1      24.828   7.550  18.696  1.00  0.00     0.016 A 
ATOM     17  C   UNL     1      23.772   7.445  17.785  1.00  0.00     0.047 A 
BRANCH  15  18
ATOM     18  O   UNL     1      22.033   6.116  16.735  1.00  0.00    -0.508 OA
ATOM     19  H   UNL     1      22.156   5.665  15.836  1.00  0.00     0.293 HD
ENDBRANCH  15  18
ENDBRANCH   1  12
BRANCH   2  20
ATOM     20  O   UNL     1      28.023   6.272  18.738  1.00  0.00    -0.502 OA
ATOM     21  H   UNL     1      28.986   6.260  18.426  1.00  0.00     0.293 HD
ENDBRANCH   2  20
BRANCH   6  22
ATOM     22  O   UNL     1      30.581   6.830  23.231  1.00  0.00    -0.507 OA
ATOM     23  H   UNL     1      31.044   7.581  22.733  1.00  0.00     0.293 HD
ENDBRANCH   6  22
BRANCH   8  24
ATOM     24  O   UNL     1      26.919   7.141  26.381  1.00  0.00    -0.508 OA
ATOM     25  H   UNL     1      25.937   7.281  26.588  1.00  0.00     0.293 HD
ENDBRANCH   8  24
TORSDOF 5
ENDMDL
MODEL 4
REMARK VINA RESULT:    -7.186      3.536      5.136
REMARK INTER + INTRA:          -8.744
REMARK INTER:                  -8.481
REMARK INTRA:                  -0.263
REMARK UNBOUND:                -0.298
REMARK SMILES O=c1c(O)c(-c2ccc(O)cc2)oc2cc(O)cc(O)c12
REMARK SMILES IDX 5 1 3 2 2 3 1 4 21 5 19 6 18 7 16 8 15 9 14 10 13 11 6 12
REMARK SMILES IDX 7 13 8 14 9 15 12 16 11 17 10 18 4 20 20 22 17 24
REMARK H PARENT 10 19 4 21 20 23 17 25
REMARK Flexibility Score: inf
ROOT
ATOM      1  C   UNL     1      26.057   6.679  21.314  1.00  0.00     0.180 A 
ATOM      2  C   UNL     1      25.959   6.816  19.916  1.00  0.00     0.208 A 
ATOM      3  C   UNL     1      24.838   7.465  19.375  1.00  0.00     0.238 A 
ATOM      4  O   UNL     1      24.734   7.583  18.124  1.00  0.00    -0.285 OA
ATOM      5  C   UNL     1      23.849   7.982  20.236  1.00  0.00     0.111 A 
ATOM      6  C   UNL     1      22.691   8.653  19.771  1.00  0.00     0.134 A 
ATOM      7  C   UNL     1      21.757   9.146  20.694  1.00  0.00     0.093 A 
ATOM      8  C   UNL     1      21.958   8.984  22.069  1.00  0.00     0.123 A 
ATOM      9  C   UNL     1      23.097   8.324  22.531  1.00  0.00     0.094 A 
ATOM     10  C   UNL     1      24.039   7.822  21.628  1.00  0.00     0.146 A 
ATOM     11  O   UNL     1      25.112   7.193  22.096  1.00  0.00    -0.452 OA
ENDROOT
BRANCH   1  12
ATOM     12  C   UNL     1      27.198   5.990  21.960  1.00  0.00     0.021 A 
ATOM     13  C   UNL     1      28.402   6.687  22.160  1.00  0.00     0.016 A 
ATOM     14  C   UNL     1      29.486   6.064  22.787  1.00  0.00     0.047 A 
ATOM     15  C   UNL     1      29.374   4.744  23.235  1.00  0.00     0.115 A 
ATOM     16  C   UNL     1      27.086   4.670  22.431  1.00  0.00     0.016 A 
ATOM     17  C   UNL     1      28.171   4.049  23.059  1.00  0.00     0.047 A 
BRANCH  15  18
ATOM     18  O   UNL     1      30.462   4.135  23.857  1.00  0.00    -0.508 OA
ATOM     19  H   UNL     1      30.976   4.597  24.597  1.00  0.00     0.293 HD
ENDBRANCH  15  18
ENDBRANCH   1  12
BRANCH   2  20
ATOM     20  O   UNL     1      26.977   6.338  19.087  1.00  0.00    -0.502 OA
ATOM     21  H   UNL     1      27.559   6.953  18.533  1.00  0.00     0.293 HD
ENDBRANCH   2  20
BRANCH   6  22
ATOM     22  O   UNL     1      22.464   8.830  18.407  1.00  0.00    -0.507 OA
ATOM     23  H   UNL     1      22.786   9.656  17.915  1.00  0.00     0.293 HD
ENDBRANCH   6  22
BRANCH   8  24
ATOM     24  O   UNL     1      21.031   9.476  22.984  1.00  0.00    -0.508 OA
ATOM     25  H   UNL     1      20.689  10.429  22.932  1.00  0.00     0.293 HD
ENDBRANCH   8  24
TORSDOF 5
ENDMDL
MODEL 5
REMARK VINA RESULT:    -7.120      2.709      3.508
REMARK INTER + INTRA:          -8.667
REMARK INTER:                  -8.381
REMARK INTRA:                  -0.286
REMARK UNBOUND:                -0.298
REMARK SMILES O=c1c(O)c(-c2ccc(O)cc2)oc2cc(O)cc(O)c12
REMARK SMILES IDX 5 1 3 2 2 3 1 4 21 5 19 6 18 7 16 8 15 9 14 10 13 11 6 12
REMARK SMILES IDX 7 13 8 14 9 15 12 16 11 17 10 18 4 20 20 22 17 24
REMARK H PARENT 10 19 4 21 20 23 17 25
REMARK Flexibility Score: inf
ROOT
ATOM      1  C   UNL     1      25.112   7.113  21.835  1.00  0.00     0.180 A 
ATOM      2  C   UNL     1      24.408   8.214  21.312  1.00  0.00     0.208 A 
ATOM      3  C   UNL     1      23.596   8.026  20.182  1.00  0.00     0.238 A 
ATOM      4  O   UNL     1      22.970   9.008  19.698  1.00  0.00    -0.285 OA
ATOM      5  C   UNL     1      23.485   6.743  19.610  1.00  0.00     0.111 A 
ATOM      6  C   UNL     1      22.685   6.469  18.474  1.00  0.00     0.134 A 
ATOM      7  C   UNL     1      22.620   5.162  17.968  1.00  0.00     0.093 A 
ATOM      8  C   UNL     1      23.337   4.126  18.577  1.00  0.00     0.123 A 
ATOM      9  C   UNL     1      24.128   4.392  19.696  1.00  0.00     0.094 A 
ATOM     10  C   UNL     1      24.208   5.688  20.213  1.00  0.00     0.146 A 
ATOM     11  O   UNL     1      24.971   5.913  21.277  1.00  0.00    -0.452 OA
ENDROOT
BRANCH   1  12
ATOM     12  C   UNL     1      26.004   7.234  23.011  1.00  0.00     0.021 A 
ATOM     13  C   UNL     1      25.542   6.823  24.273  1.00  0.00     0.016 A 
ATOM     14  C   UNL     1      26.374   6.908  25.394  1.00  0.00     0.047 A 
ATOM     15  C   UNL     1      27.680   7.390  25.265  1.00  0.00     0.115 A 
ATOM     16  C   UNL     1      27.325   7.699  22.885  1.00  0.00     0.016 A 
ATOM     17  C   UNL     1      28.155   7.783  24.007  1.00  0.00     0.047 A 
BRANCH  15  18
ATOM     18  O   UNL     1      28.498   7.471  26.390  1.00  0.00    -0.508 OA
ATOM     19  H   UNL     1      29.120   8.257  26.537  1.00  0.00     0.293 HD
ENDBRANCH  15  18
ENDBRANCH   1  12
BRANCH   2  20
ATOM     20  O   UNL     1      24.497   9.465  21.927  1.00  0.00    -0.502 OA
ATOM     21  H   UNL     1      24.495  10.330  21.401  1.00  0.00     0.293 HD
ENDBRANCH   2  20
BRANCH   6  22
ATOM     22  O   UNL     1      21.958   7.480  17.846  1.00  0.00    -0.507 OA
ATOM     23  H   UNL     1      21.273   7.277  17.126  1.00  0.00     0.293 HD
ENDBRANCH   6  22
BRANCH   8  24
ATOM     24  O   UNL     1      23.272   2.828  18.076  1.00  0.00    -0.508 OA
ATOM     25  H   UNL     1      22.923   2.636  17.144  1.00  0.00     0.293 HD
ENDBRANCH   8  24
TORSDOF 5
ENDMDL
MODEL 6
REMARK VINA RESULT:    -7.112      2.922      6.348
REMARK INTER + INTRA:          -8.657
REMARK INTER:                  -8.378
REMARK INTRA:                  -0.279
REMARK UNBOUND:                -0.298
REMARK SMILES O=c1c(O)c(-c2ccc(O)cc2)oc2cc(O)cc(O)c12
REMARK SMILES IDX 5 1 3 2 2 3 1 4 21 5 19 6 18 7 16 8 15 9 14 10 13 11 6 12
REMARK SMILES IDX 7 13 8 14 9 15 12 16 11 17 10 18 4 20 20 22 17 24
REMARK H PARENT 10 19 4 21 20 23 17 25
REMARK Flexibility Score: inf
ROOT
ATOM      1  C   UNL     1      25.269   6.370  23.999  1.00  0.00     0.180 A 
ATOM      2  C   UNL     1      25.916   6.749  25.190  1.00  0.00     0.208 A 
ATOM      3  C   UNL     1      27.292   7.025  25.157  1.00  0.00     0.238 A 
ATOM      4  O   UNL     1      27.884   7.355  26.220  1.00  0.00    -0.285 OA
ATOM      5  C   UNL     1      27.991   6.937  23.935  1.00  0.00     0.111 A 
ATOM      6  C   UNL     1      29.377   7.203  23.816  1.00  0.00     0.134 A 
ATOM      7  C   UNL     1      29.998   7.102  22.562  1.00  0.00     0.093 A 
ATOM      8  C   UNL     1      29.261   6.742  21.429  1.00  0.00     0.123 A 
ATOM      9  C   UNL     1      27.895   6.480  21.542  1.00  0.00     0.094 A 
ATOM     10  C   UNL     1      27.258   6.572  22.783  1.00  0.00     0.146 A 
ATOM     11  O   UNL     1      25.958   6.312  22.862  1.00  0.00    -0.452 OA
ENDROOT
BRANCH   1  12
ATOM     12  C   UNL     1      23.825   6.044  23.956  1.00  0.00     0.021 A 
ATOM     13  C   UNL     1      22.917   6.990  23.451  1.00  0.00     0.016 A 
ATOM     14  C   UNL     1      21.552   6.696  23.381  1.00  0.00     0.047 A 
ATOM     15  C   UNL     1      21.079   5.449  23.800  1.00  0.00     0.115 A 
ATOM     16  C   UNL     1      23.345   4.784  24.357  1.00  0.00     0.016 A 
ATOM     17  C   UNL     1      21.979   4.491  24.286  1.00  0.00     0.047 A 
BRANCH  15  18
ATOM     18  O   UNL     1      19.717   5.169  23.726  1.00  0.00    -0.508 OA
ATOM     19  H   UNL     1      19.092   5.367  24.499  1.00  0.00     0.293 HD
ENDBRANCH  15  18
ENDBRANCH   1  12
BRANCH   2  20
ATOM     20  O   UNL     1      25.191   6.877  26.377  1.00  0.00    -0.502 OA
ATOM     21  H   UNL     1      25.159   6.144  27.075  1.00  0.00     0.293 HD
ENDBRANCH   2  20
BRANCH   6  22
ATOM     22  O   UNL     1      30.137   7.564  24.928  1.00  0.00    -0.507 OA
ATOM     23  H   UNL     1      29.766   7.508  25.870  1.00  0.00     0.293 HD
ENDBRANCH   6  22
BRANCH   8  24
ATOM     24  O   UNL     1      29.878   6.644  20.183  1.00  0.00    -0.508 OA
ATOM     25  H   UNL     1      29.641   5.904  19.532  1.00  0.00     0.293 HD
ENDBRANCH   8  24
TORSDOF 5
ENDMDL
MODEL 7
REMARK VINA RESULT:    -6.920      2.831      3.899
REMARK INTER + INTRA:          -8.431
REMARK INTER:                  -8.179
REMARK INTRA:                  -0.252
REMARK UNBOUND:                -0.298
REMARK SMILES O=c1c(O)c(-c2ccc(O)cc2)oc2cc(O)cc(O)c12
REMARK SMILES IDX 5 1 3 2 2 3 1 4 21 5 19 6 18 7 16 8 15 9 14 10 13 11 6 12
REMARK SMILES IDX 7 13 8 14 9 15 12 16 11 17 10 18 4 20 20 22 17 24
REMARK H PARENT 10 19 4 21 20 23 17 25
REMARK Flexibility Score: inf
ROOT
ATOM      1  C   UNL     1      25.534   7.436  22.229  1.00  0.00     0.180 A 
ATOM      2  C   UNL     1      24.946   8.712  22.142  1.00  0.00     0.208 A 
ATOM      3  C   UNL     1      23.571   8.844  22.391  1.00  0.00     0.238 A 
ATOM      4  O   UNL     1      23.031   9.980  22.305  1.00  0.00    -0.285 OA
ATOM      5  C   UNL     1      22.815   7.707  22.743  1.00  0.00     0.111 A 
ATOM      6  C   UNL     1      21.425   7.755  23.014  1.00  0.00     0.134 A 
ATOM      7  C   UNL     1      20.745   6.580  23.366  1.00  0.00     0.093 A 
ATOM      8  C   UNL     1      21.426   5.361  23.454  1.00  0.00     0.123 A 
ATOM      9  C   UNL     1      22.795   5.309  23.187  1.00  0.00     0.094 A 
ATOM     10  C   UNL     1      23.491   6.468  22.832  1.00  0.00     0.146 A 
ATOM     11  O   UNL     1      24.792   6.389  22.579  1.00  0.00    -0.452 OA
ENDROOT
BRANCH   1  12
ATOM     12  C   UNL     1      26.974   7.212  21.961  1.00  0.00     0.021 A 
ATOM     13  C   UNL     1      27.374   6.711  20.711  1.00  0.00     0.016 A 
ATOM     14  C   UNL     1      28.729   6.513  20.427  1.00  0.00     0.047 A 
ATOM     15  C   UNL     1      29.700   6.827  21.383  1.00  0.00     0.115 A 
ATOM     16  C   UNL     1      27.957   7.544  22.911  1.00  0.00     0.016 A 
ATOM     17  C   UNL     1      29.312   7.345  22.625  1.00  0.00     0.047 A 
BRANCH  15  18
ATOM     18  O   UNL     1      31.046   6.623  21.088  1.00  0.00    -0.508 OA
ATOM     19  H   UNL     1      31.353   5.835  20.530  1.00  0.00     0.293 HD
ENDBRANCH  15  18
ENDBRANCH   1  12
BRANCH   2  20
ATOM     20  O   UNL     1      25.727   9.830  21.840  1.00  0.00    -0.502 OA
ATOM     21  H   UNL     1      25.441  10.772  22.078  1.00  0.00     0.293 HD
ENDBRANCH   2  20
BRANCH   6  22
ATOM     22  O   UNL     1      20.720   8.955  22.936  1.00  0.00    -0.507 OA
ATOM     23  H   UNL     1      20.691   9.503  22.084  1.00  0.00     0.293 HD
ENDBRANCH   6  22
BRANCH   8  24
ATOM     24  O   UNL     1      20.751   4.194  23.805  1.00  0.00    -0.508 OA
ATOM     25  H   UNL     1      20.963   3.696  24.662  1.00  0.00     0.293 HD
ENDBRANCH   8  24
TORSDOF 5
ENDMDL
MODEL 8
REMARK VINA RESULT:    -6.912      1.859      6.846
REMARK INTER + INTRA:          -8.422
REMARK INTER:                  -8.131
REMARK INTRA:                  -0.291
REMARK UNBOUND:                -0.298
REMARK SMILES O=c1c(O)c(-c2ccc(O)cc2)oc2cc(O)cc(O)c12
REMARK SMILES IDX 5 1 3 2 2 3 1 4 21 5 19 6 18 7 16 8 15 9 14 10 13 11 6 12
REMARK SMILES IDX 7 13 8 14 9 15 12 16 11 17 10 18 4 20 20 22 17 24
REMARK H PARENT 10 19 4 21 20 23 17 25
REMARK Flexibility Score: inf
ROOT
ATOM      1  C   UNL     1      25.913   4.755  21.939  1.00  0.00     0.180 A 
ATOM      2  C   UNL     1      27.001   4.070  22.513  1.00  0.00     0.208 A 
ATOM      3  C   UNL     1      28.093   4.812  22.993  1.00  0.00     0.238 A 
ATOM      4  O   UNL     1      29.078   4.209  23.499  1.00  0.00    -0.285 OA
ATOM      5  C   UNL     1      28.068   6.220  22.911  1.00  0.00     0.111 A 
ATOM      6  C   UNL     1      29.125   7.040  23.376  1.00  0.00     0.134 A 
ATOM      7  C   UNL     1      29.021   8.435  23.266  1.00  0.00     0.093 A 
ATOM      8  C   UNL     1      27.883   9.023  22.703  1.00  0.00     0.123 A 
ATOM      9  C   UNL     1      26.840   8.218  22.244  1.00  0.00     0.094 A 
ATOM     10  C   UNL     1      26.925   6.826  22.342  1.00  0.00     0.146 A 
ATOM     11  O   UNL     1      25.919   6.084  21.893  1.00  0.00    -0.452 OA
ENDROOT
BRANCH   1  12
ATOM     12  C   UNL     1      24.735   4.043  21.392  1.00  0.00     0.021 A 
ATOM     13  C   UNL     1      24.748   3.612  20.055  1.00  0.00     0.016 A 
ATOM     14  C   UNL     1      23.656   2.918  19.523  1.00  0.00     0.047 A 
ATOM     15  C   UNL     1      22.546   2.635  20.324  1.00  0.00     0.115 A 
ATOM     16  C   UNL     1      23.624   3.737  22.198  1.00  0.00     0.016 A 
ATOM     17  C   UNL     1      22.533   3.043  21.665  1.00  0.00     0.047 A 
BRANCH  15  18
ATOM     18  O   UNL     1      21.464   1.945  19.782  1.00  0.00    -0.508 OA
ATOM     19  H   UNL     1      20.542   2.361  19.730  1.00  0.00     0.293 HD
ENDBRANCH  15  18
ENDBRANCH   1  12
BRANCH   2  20
ATOM     20  O   UNL     1      26.979   2.678  22.627  1.00  0.00    -0.502 OA
ATOM     21  H   UNL     1      26.121   2.143  22.577  1.00  0.00     0.293 HD
ENDBRANCH   2  20
BRANCH   6  22
ATOM     22  O   UNL     1      30.271   6.483  23.942  1.00  0.00    -0.507 OA
ATOM     23  H   UNL     1      30.783   5.736  23.486  1.00  0.00     0.293 HD
ENDBRANCH   6  22
BRANCH   8  24
ATOM     24  O   UNL     1      27.780  10.408  22.596  1.00  0.00    -0.508 OA
ATOM     25  H   UNL     1      27.372  10.968  23.336  1.00  0.00     0.293 HD
ENDBRANCH   8  24
TORSDOF 5
ENDMDL
MODEL 9
REMARK VINA RESULT:    -6.838      2.478      3.208
REMARK INTER + INTRA:          -8.335
REMARK INTER:                  -8.083
REMARK INTRA:                  -0.252
REMARK UNBOUND:                -0.298
REMARK SMILES O=c1c(O)c(-c2ccc(O)cc2)oc2cc(O)cc(O)c12
REMARK SMILES IDX 5 1 3 2 2 3 1 4 21 5 19 6 18 7 16 8 15 9 14 10 13 11 6 12
REMARK SMILES IDX 7 13 8 14 9 15 12 16 11 17 10 18 4 20 20 22 17 24
REMARK H PARENT 10 19 4 21 20 23 17 25
REMARK Flexibility Score: inf
ROOT
ATOM      1  C   UNL     1      26.214   5.955  22.189  1.00  0.00     0.180 A 
ATOM      2  C   UNL     1      25.835   6.965  21.285  1.00  0.00     0.208 A 
ATOM      3  C   UNL     1      25.086   6.614  20.150  1.00  0.00     0.238 A 
ATOM      4  O   UNL     1      24.752   7.509  19.327  1.00  0.00    -0.285 OA
ATOM      5  C   UNL     1      24.712   5.269  19.951  1.00  0.00     0.111 A 
ATOM      6  C   UNL     1      23.954   4.834  18.837  1.00  0.00     0.134 A 
ATOM      7  C   UNL     1      23.614   3.478  18.715  1.00  0.00     0.093 A 
ATOM      8  C   UNL     1      24.015   2.553  19.684  1.00  0.00     0.123 A 
ATOM      9  C   UNL     1      24.763   2.978  20.783  1.00  0.00     0.094 A 
ATOM     10  C   UNL     1      25.114   4.323  20.922  1.00  0.00     0.146 A 
ATOM     11  O   UNL     1      25.829   4.699  21.977  1.00  0.00    -0.452 OA
ENDROOT
BRANCH   1  12
ATOM     12  C   UNL     1      27.020   6.242  23.398  1.00  0.00     0.021 A 
ATOM     13  C   UNL     1      28.403   5.993  23.381  1.00  0.00     0.016 A 
ATOM     14  C   UNL     1      29.189   6.276  24.502  1.00  0.00     0.047 A 
ATOM     15  C   UNL     1      28.605   6.825  25.648  1.00  0.00     0.115 A 
ATOM     16  C   UNL     1      26.443   6.812  24.547  1.00  0.00     0.016 A 
ATOM     17  C   UNL     1      27.231   7.096  25.667  1.00  0.00     0.047 A 
BRANCH  15  18
ATOM     18  O   UNL     1      29.399   7.102  26.759  1.00  0.00    -0.508 OA
ATOM     19  H   UNL     1      29.265   6.619  27.639  1.00  0.00     0.293 HD
ENDBRANCH  15  18
ENDBRANCH   1  12
BRANCH   2  20
ATOM     20  O   UNL     1      26.177   8.297  21.531  1.00  0.00    -0.502 OA
ATOM     21  H   UNL     1      26.672   8.864  20.854  1.00  0.00     0.293 HD
ENDBRANCH   2  20
BRANCH   6  22
ATOM     22  O   UNL     1      23.539   5.733  17.855  1.00  0.00    -0.507 OA
ATOM     23  H   UNL     1      23.288   5.426  16.922  1.00  0.00     0.293 HD
ENDBRANCH   6  22
BRANCH   8  24
ATOM     24  O   UNL     1      23.676   1.207  19.563  1.00  0.00    -0.508 OA
ATOM     25  H   UNL     1      22.759   0.866  19.829  1.00  0.00     0.293 HD
ENDBRANCH   8  24
TORSDOF 5
ENDMDL
