MODEL 1
REMARK VINA RESULT:    -4.509      0.000      0.000
REMARK INTER + INTRA:          -8.019
REMARK INTER:                  -7.146
REMARK INTRA:                  -0.873
REMARK UNBOUND:                -0.873
REMARK SMILES CCCCCCCCCCCC(=O)[O-]
REMARK SMILES IDX 7 1 8 2 9 3 10 4 11 5 12 6 13 7 14 8 6 9 5 10 4 11 3 12 2 13
REMARK SMILES IDX 1 14
REMARK H PARENT
REMARK Flexibility Score: inf
ROOT
ATOM      1  C   UNL     1      -7.664 -33.156  41.874  1.00  0.00     0.000 C 
ENDROOT
BRANCH   1   2
ATOM      2  C   UNL     1      -7.356 -31.923  42.737  1.00  0.00     0.000 C 
BRANCH   2   3
ATOM      3  C   UNL     1      -7.322 -32.247  44.240  1.00  0.00     0.000 C 
BRANCH   3   4
ATOM      4  C   UNL     1      -6.620 -31.157  45.064  1.00  0.00     0.006 C 
BRANCH   4   5
ATOM      5  C   UNL     1      -6.200 -29.984  44.174  1.00  0.00     0.053 C 
BRANCH   5   6
ATOM      6  C   UNL     1      -5.055 -29.242  44.790  1.00  0.00     0.041 C 
ATOM      7  O   UNL     1      -5.268 -28.221  45.495  1.00  0.00    -0.550 OA
ATOM      8  O   UNL     1      -3.757 -29.707  44.626  1.00  0.00    -0.550 OA
ENDBRANCH   5   6
ENDBRANCH   4   5
ENDBRANCH   3   4
ENDBRANCH   2   3
ENDBRANCH   1   2
BRANCH   1   9
ATOM      9  C   UNL     1      -9.052 -33.042  41.231  1.00  0.00     0.000 C 
BRANCH   9  10
ATOM     10  C   UNL     1     -10.042 -34.018  41.884  1.00  0.00    -0.000 C 
BRANCH  10  11
ATOM     11  C   UNL     1     -10.688 -33.443  43.155  1.00  0.00    -0.000 C 
BRANCH  11  12
ATOM     12  C   UNL     1     -10.627 -34.421  44.342  1.00  0.00    -0.000 C 
BRANCH  12  13
ATOM     13  C   UNL     1      -9.835 -35.696  44.012  1.00  0.00    -0.003 C 
ATOM     14  C   UNL     1     -10.639 -36.971  44.266  1.00  0.00     0.004 C 
ENDBRANCH  12  13
ENDBRANCH  11  12
ENDBRANCH  10  11
ENDBRANCH   9  10
ENDBRANCH   1   9
TORSDOF 10
ENDMDL
MODEL 2
REMARK VINA RESULT:    -4.456      1.501      2.760
REMARK INTER + INTRA:          -7.935
REMARK INTER:                  -7.090
REMARK INTRA:                  -0.844
REMARK UNBOUND:                -0.873
REMARK SMILES CCCCCCCCCCCC(=O)[O-]
REMARK SMILES IDX 7 1 8 2 9 3 10 4 11 5 12 6 13 7 14 8 6 9 5 10 4 11 3 12 2 13
REMARK SMILES IDX 1 14
REMARK H PARENT
REMARK Flexibility Score: inf
ROOT
ATOM      1  C   UNL     1     -10.057 -34.205  41.886  1.00  0.00     0.000 C 
ENDROOT
BRANCH   1   2
ATOM      2  C   UNL     1      -9.403 -33.202  40.924  1.00  0.00     0.000 C 
BRANCH   2   3
ATOM      3  C   UNL     1      -7.899 -33.021  41.189  1.00  0.00     0.000 C 
BRANCH   3   4
ATOM      4  C   UNL     1      -7.601 -31.836  42.119  1.00  0.00     0.006 C 
BRANCH   4   5
ATOM      5  C   UNL     1      -7.245 -32.322  43.527  1.00  0.00     0.053 C 
BRANCH   5   6
ATOM      6  C   UNL     1      -6.507 -31.259  44.278  1.00  0.00     0.041 C 
ATOM      7  O   UNL     1      -6.559 -30.061  43.896  1.00  0.00    -0.550 OA
ATOM      8  O   UNL     1      -5.800 -31.584  45.429  1.00  0.00    -0.550 OA
ENDBRANCH   5   6
ENDBRANCH   4   5
ENDBRANCH   3   4
ENDBRANCH   2   3
ENDBRANCH   1   2
BRANCH   1   9
ATOM      9  C   UNL     1     -10.645 -33.490  43.108  1.00  0.00     0.000 C 
BRANCH   9  10
ATOM     10  C   UNL     1     -10.477 -34.340  44.376  1.00  0.00    -0.000 C 
BRANCH  10  11
ATOM     11  C   UNL     1      -9.600 -35.581  44.145  1.00  0.00    -0.000 C 
BRANCH  11  12
ATOM     12  C   UNL     1     -10.159 -36.837  44.837  1.00  0.00    -0.000 C 
BRANCH  12  13
ATOM     13  C   UNL     1     -11.072 -36.495  46.026  1.00  0.00    -0.003 C 
ATOM     14  C   UNL     1     -10.870 -37.435  47.214  1.00  0.00     0.004 C 
ENDBRANCH  12  13
ENDBRANCH  11  12
ENDBRANCH  10  11
ENDBRANCH   9  10
ENDBRANCH   1   9
TORSDOF 10
ENDMDL
MODEL 3
REMARK VINA RESULT:    -4.443      1.307      1.884
REMARK INTER + INTRA:          -7.913
REMARK INTER:                  -6.832
REMARK INTRA:                  -1.081
REMARK UNBOUND:                -0.873
REMARK SMILES CCCCCCCCCCCC(=O)[O-]
REMARK SMILES IDX 7 1 8 2 9 3 10 4 11 5 12 6 13 7 14 8 6 9 5 10 4 11 3 12 2 13
REMARK SMILES IDX 1 14
REMARK H PARENT
REMARK Flexibility Score: inf
ROOT
ATOM      1  C   UNL     1      -7.487 -31.012  42.604  1.00  0.00     0.000 C 
ENDROOT
BRANCH   1   2
ATOM      2  C   UNL     1      -7.140 -32.171  43.551  1.00  0.00     0.000 C 
BRANCH   2   3
ATOM      3  C   UNL     1      -7.249 -31.777  45.034  1.00  0.00     0.000 C 
BRANCH   3   4
ATOM      4  C   UNL     1      -5.877 -31.627  45.707  1.00  0.00     0.006 C 
BRANCH   4   5
ATOM      5  C   UNL     1      -5.078 -30.485  45.072  1.00  0.00     0.053 C 
BRANCH   5   6
ATOM      6  C   UNL     1      -5.627 -29.160  45.498  1.00  0.00     0.041 C 
ATOM      7  O   UNL     1      -5.885 -28.275  44.640  1.00  0.00    -0.550 OA
ATOM      8  O   UNL     1      -5.900 -28.919  46.839  1.00  0.00    -0.550 OA
ENDBRANCH   5   6
ENDBRANCH   4   5
ENDBRANCH   3   4
ENDBRANCH   2   3
ENDBRANCH   1   2
BRANCH   1   9
ATOM      9  C   UNL     1      -8.068 -31.537  41.285  1.00  0.00     0.000 C 
BRANCH   9  10
ATOM     10  C   UNL     1      -8.142 -33.071  41.289  1.00  0.00    -0.000 C 
BRANCH  10  11
ATOM     11  C   UNL     1      -9.575 -33.594  41.099  1.00  0.00    -0.000 C 
BRANCH  11  12
ATOM     12  C   UNL     1     -10.373 -33.622  42.415  1.00  0.00    -0.000 C 
BRANCH  12  13
ATOM     13  C   UNL     1      -9.856 -34.690  43.393  1.00  0.00    -0.003 C 
ATOM     14  C   UNL     1     -10.032 -34.285  44.856  1.00  0.00     0.004 C 
ENDBRANCH  12  13
ENDBRANCH  11  12
ENDBRANCH  10  11
ENDBRANCH   9  10
ENDBRANCH   1   9
TORSDOF 10
ENDMDL
MODEL 4
REMARK VINA RESULT:    -4.405      4.599      6.936
REMARK INTER + INTRA:          -7.853
REMARK INTER:                  -7.061
REMARK INTRA:                  -0.793
REMARK UNBOUND:                -0.873
REMARK SMILES CCCCCCCCCCCC(=O)[O-]
REMARK SMILES IDX 7 1 8 2 9 3 10 4 11 5 12 6 13 7 14 8 6 9 5 10 4 11 3 12 2 13
REMARK SMILES IDX 1 14
REMARK H PARENT
REMARK Flexibility Score: inf
ROOT
ATOM      1  C   UNL     1     -10.280 -34.242  44.322  1.00  0.00     0.000 C 
ENDROOT
BRANCH   1   2
ATOM      2  C   UNL     1      -9.643 -35.603  44.002  1.00  0.00     0.000 C 
BRANCH   2   3
ATOM      3  C   UNL     1     -10.438 -36.782  44.588  1.00  0.00     0.000 C 
BRANCH   3   4
ATOM      4  C   UNL     1     -11.014 -36.474  45.978  1.00  0.00     0.006 C 
BRANCH   4   5
ATOM      5  C   UNL     1     -11.055 -37.736  46.845  1.00  0.00     0.053 C 
BRANCH   5   6
ATOM      6  C   UNL     1     -11.284 -37.379  48.280  1.00  0.00     0.041 C 
ATOM      7  O   UNL     1     -11.453 -36.177  48.616  1.00  0.00    -0.550 OA
ATOM      8  O   UNL     1     -11.361 -38.379  49.242  1.00  0.00    -0.550 OA
ENDBRANCH   5   6
ENDBRANCH   4   5
ENDBRANCH   3   4
ENDBRANCH   2   3
ENDBRANCH   1   2
BRANCH   1   9
ATOM      9  C   UNL     1     -10.670 -33.503  43.035  1.00  0.00     0.000 C 
BRANCH   9  10
ATOM     10  C   UNL     1      -9.917 -34.074  41.824  1.00  0.00    -0.000 C 
BRANCH  10  11
ATOM     11  C   UNL     1      -9.569 -32.998  40.783  1.00  0.00    -0.000 C 
BRANCH  11  12
ATOM     12  C   UNL     1      -8.413 -32.089  41.237  1.00  0.00    -0.000 C 
BRANCH  12  13
ATOM     13  C   UNL     1      -7.400 -32.827  42.126  1.00  0.00    -0.003 C 
ATOM     14  C   UNL     1      -7.191 -32.142  43.477  1.00  0.00     0.004 C 
ENDBRANCH  12  13
ENDBRANCH  11  12
ENDBRANCH  10  11
ENDBRANCH   9  10
ENDBRANCH   1   9
TORSDOF 10
ENDMDL
MODEL 5
REMARK VINA RESULT:    -4.361      1.278      3.117
REMARK INTER + INTRA:          -7.784
REMARK INTER:                  -6.887
REMARK INTRA:                  -0.896
REMARK UNBOUND:                -0.873
REMARK SMILES CCCCCCCCCCCC(=O)[O-]
REMARK SMILES IDX 7 1 8 2 9 3 10 4 11 5 12 6 13 7 14 8 6 9 5 10 4 11 3 12 2 13
REMARK SMILES IDX 1 14
REMARK H PARENT
REMARK Flexibility Score: inf
ROOT
ATOM      1  C   UNL     1      -8.736 -33.410  44.679  1.00  0.00     0.000 C 
ENDROOT
BRANCH   1   2
ATOM      2  C   UNL     1      -8.813 -32.532  45.936  1.00  0.00     0.000 C 
BRANCH   2   3
ATOM      3  C   UNL     1      -7.633 -31.552  46.047  1.00  0.00     0.000 C 
BRANCH   3   4
ATOM      4  C   UNL     1      -6.854 -31.413  44.730  1.00  0.00     0.006 C 
BRANCH   4   5
ATOM      5  C   UNL     1      -5.392 -31.041  44.996  1.00  0.00     0.053 C 
BRANCH   5   6
ATOM      6  C   UNL     1      -5.181 -29.572  44.800  1.00  0.00     0.041 C 
ATOM      7  O   UNL     1      -4.064 -29.053  45.056  1.00  0.00    -0.550 OA
ATOM      8  O   UNL     1      -6.204 -28.786  44.286  1.00  0.00    -0.550 OA
ENDBRANCH   5   6
ENDBRANCH   4   5
ENDBRANCH   3   4
ENDBRANCH   2   3
ENDBRANCH   1   2
BRANCH   1   9
ATOM      9  C   UNL     1     -10.103 -34.029  44.358  1.00  0.00     0.000 C 
BRANCH   9  10
ATOM     10  C   UNL     1     -10.154 -34.525  42.905  1.00  0.00    -0.000 C 
BRANCH  10  11
ATOM     11  C   UNL     1     -10.299 -33.377  41.893  1.00  0.00    -0.000 C 
BRANCH  11  12
ATOM     12  C   UNL     1      -9.213 -33.412  40.802  1.00  0.00    -0.000 C 
BRANCH  12  13
ATOM     13  C   UNL     1      -7.885 -32.801  41.276  1.00  0.00    -0.003 C 
ATOM     14  C   UNL     1      -7.936 -31.276  41.366  1.00  0.00     0.004 C 
ENDBRANCH  12  13
ENDBRANCH  11  12
ENDBRANCH  10  11
ENDBRANCH   9  10
ENDBRANCH   1   9
TORSDOF 10
ENDMDL
MODEL 6
REMARK VINA RESULT:    -4.337      1.308      2.118
REMARK INTER + INTRA:          -7.745
REMARK INTER:                  -7.046
REMARK INTRA:                  -0.699
REMARK UNBOUND:                -0.873
REMARK SMILES CCCCCCCCCCCC(=O)[O-]
REMARK SMILES IDX 7 1 8 2 9 3 10 4 11 5 12 6 13 7 14 8 6 9 5 10 4 11 3 12 2 13
REMARK SMILES IDX 1 14
REMARK H PARENT
REMARK Flexibility Score: inf
ROOT
ATOM      1  C   UNL     1      -7.023 -32.463  43.343  1.00  0.00     0.000 C 
ENDROOT
BRANCH   1   2
ATOM      2  C   UNL     1      -7.150 -31.525  44.553  1.00  0.00     0.000 C 
BRANCH   2   3
ATOM      3  C   UNL     1      -6.238 -30.292  44.444  1.00  0.00     0.000 C 
BRANCH   3   4
ATOM      4  C   UNL     1      -5.015 -30.377  45.369  1.00  0.00     0.006 C 
BRANCH   4   5
ATOM      5  C   UNL     1      -3.843 -29.570  44.803  1.00  0.00     0.053 C 
BRANCH   5   6
ATOM      6  C   UNL     1      -3.571 -28.371  45.655  1.00  0.00     0.041 C 
ATOM      7  O   UNL     1      -4.054 -27.250  45.345  1.00  0.00    -0.550 OA
ATOM      8  O   UNL     1      -2.825 -28.500  46.820  1.00  0.00    -0.550 OA
ENDBRANCH   5   6
ENDBRANCH   4   5
ENDBRANCH   3   4
ENDBRANCH   2   3
ENDBRANCH   1   2
BRANCH   1   9
ATOM      9  C   UNL     1      -7.879 -31.965  42.172  1.00  0.00     0.000 C 
BRANCH   9  10
ATOM     10  C   UNL     1      -8.060 -33.066  41.116  1.00  0.00    -0.000 C 
BRANCH  10  11
ATOM     11  C   UNL     1      -9.527 -33.500  40.960  1.00  0.00    -0.000 C 
BRANCH  11  12
ATOM     12  C   UNL     1     -10.302 -33.446  42.289  1.00  0.00    -0.000 C 
BRANCH  12  13
ATOM     13  C   UNL     1     -10.194 -34.756  43.086  1.00  0.00    -0.003 C 
ATOM     14  C   UNL     1     -10.128 -34.524  44.595  1.00  0.00     0.004 C 
ENDBRANCH  12  13
ENDBRANCH  11  12
ENDBRANCH  10  11
ENDBRANCH   9  10
ENDBRANCH   1   9
TORSDOF 10
ENDMDL
MODEL 7
REMARK VINA RESULT:    -4.336      3.525      5.589
REMARK INTER + INTRA:          -7.744
REMARK INTER:                  -7.170
REMARK INTRA:                  -0.574
REMARK UNBOUND:                -0.873
REMARK SMILES CCCCCCCCCCCC(=O)[O-]
REMARK SMILES IDX 7 1 8 2 9 3 10 4 11 5 12 6 13 7 14 8 6 9 5 10 4 11 3 12 2 13
REMARK SMILES IDX 1 14
REMARK H PARENT
REMARK Flexibility Score: inf
ROOT
ATOM      1  C   UNL     1     -10.620 -36.353  44.239  1.00  0.00     0.000 C 
ENDROOT
BRANCH   1   2
ATOM      2  C   UNL     1     -10.224 -34.933  44.668  1.00  0.00     0.000 C 
BRANCH   2   3
ATOM      3  C   UNL     1      -9.379 -34.208  43.607  1.00  0.00     0.000 C 
BRANCH   3   4
ATOM      4  C   UNL     1     -10.236 -33.582  42.496  1.00  0.00     0.006 C 
BRANCH   4   5
ATOM      5  C   UNL     1      -9.507 -33.634  41.150  1.00  0.00     0.053 C 
BRANCH   5   6
ATOM      6  C   UNL     1      -8.218 -32.879  41.222  1.00  0.00     0.041 C 
ATOM      7  O   UNL     1      -7.127 -33.463  40.991  1.00  0.00    -0.550 OA
ATOM      8  O   UNL     1      -8.224 -31.517  41.495  1.00  0.00    -0.550 OA
ENDBRANCH   5   6
ENDBRANCH   4   5
ENDBRANCH   3   4
ENDBRANCH   2   3
ENDBRANCH   1   2
BRANCH   1   9
ATOM      9  C   UNL     1     -10.878 -37.244  45.461  1.00  0.00     0.000 C 
BRANCH   9  10
ATOM     10  C   UNL     1     -10.357 -36.581  46.744  1.00  0.00    -0.000 C 
BRANCH  10  11
ATOM     11  C   UNL     1     -10.026 -37.602  47.845  1.00  0.00    -0.000 C 
BRANCH  11  12
ATOM     12  C   UNL     1      -8.583 -38.128  47.747  1.00  0.00    -0.000 C 
BRANCH  12  13
ATOM     13  C   UNL     1      -8.473 -39.614  48.124  1.00  0.00    -0.003 C 
ATOM     14  C   UNL     1      -9.728 -40.141  48.818  1.00  0.00     0.004 C 
ENDBRANCH  12  13
ENDBRANCH  11  12
ENDBRANCH  10  11
ENDBRANCH   9  10
ENDBRANCH   1   9
TORSDOF 10
ENDMDL
MODEL 8
REMARK VINA RESULT:    -4.326      2.575      5.871
REMARK INTER + INTRA:          -7.729
REMARK INTER:                  -6.951
REMARK INTRA:                  -0.778
REMARK UNBOUND:                -0.873
REMARK SMILES CCCCCCCCCCCC(=O)[O-]
REMARK SMILES IDX 7 1 8 2 9 3 10 4 11 5 12 6 13 7 14 8 6 9 5 10 4 11 3 12 2 13
REMARK SMILES IDX 1 14
REMARK H PARENT
REMARK Flexibility Score: inf
ROOT
ATOM      1  C   UNL     1      -8.699 -32.920  44.943  1.00  0.00     0.000 C 
ENDROOT
BRANCH   1   2
ATOM      2  C   UNL     1      -9.686 -34.097  44.933  1.00  0.00     0.000 C 
BRANCH   2   3
ATOM      3  C   UNL     1     -10.002 -34.593  43.513  1.00  0.00     0.000 C 
BRANCH   3   4
ATOM      4  C   UNL     1     -10.341 -33.447  42.548  1.00  0.00     0.006 C 
BRANCH   4   5
ATOM      5  C   UNL     1      -9.579 -33.600  41.228  1.00  0.00     0.053 C 
BRANCH   5   6
ATOM      6  C   UNL     1      -8.270 -32.878  41.291  1.00  0.00     0.041 C 
ATOM      7  O   UNL     1      -8.235 -31.655  41.586  1.00  0.00    -0.550 OA
ATOM      8  O   UNL     1      -7.084 -33.568  41.074  1.00  0.00    -0.550 OA
ENDBRANCH   5   6
ENDBRANCH   4   5
ENDBRANCH   3   4
ENDBRANCH   2   3
ENDBRANCH   1   2
BRANCH   1   9
ATOM      9  C   UNL     1      -8.571 -32.323  46.350  1.00  0.00     0.000 C 
BRANCH   9  10
ATOM     10  C   UNL     1      -7.209 -31.637  46.534  1.00  0.00    -0.000 C 
BRANCH  10  11
ATOM     11  C   UNL     1      -6.280 -31.831  45.324  1.00  0.00    -0.000 C 
BRANCH  11  12
ATOM     12  C   UNL     1      -5.452 -30.573  45.008  1.00  0.00    -0.000 C 
BRANCH  12  13
ATOM     13  C   UNL     1      -6.193 -29.600  44.077  1.00  0.00    -0.003 C 
ATOM     14  C   UNL     1      -6.487 -28.255  44.741  1.00  0.00     0.004 C 
ENDBRANCH  12  13
ENDBRANCH  11  12
ENDBRANCH  10  11
ENDBRANCH   9  10
ENDBRANCH   1   9
TORSDOF 10
ENDMDL
MODEL 9
REMARK VINA RESULT:    -4.251      4.130      6.523
REMARK INTER + INTRA:          -7.609
REMARK INTER:                  -6.723
REMARK INTRA:                  -0.886
REMARK UNBOUND:                -0.873
REMARK SMILES CCCCCCCCCCCC(=O)[O-]
REMARK SMILES IDX 7 1 8 2 9 3 10 4 11 5 12 6 13 7 14 8 6 9 5 10 4 11 3 12 2 13
REMARK SMILES IDX 1 14
REMARK H PARENT
REMARK Flexibility Score: inf
ROOT
ATOM      1  C   UNL     1     -10.347 -33.640  42.122  1.00  0.00     0.000 C 
ENDROOT
BRANCH   1   2
ATOM      2  C   UNL     1      -9.890 -34.841  42.963  1.00  0.00     0.000 C 
BRANCH   2   3
ATOM      3  C   UNL     1     -10.569 -34.892  44.342  1.00  0.00     0.000 C 
BRANCH   3   4
ATOM      4  C   UNL     1     -10.160 -36.128  45.157  1.00  0.00     0.006 C 
BRANCH   4   5
ATOM      5  C   UNL     1     -10.670 -37.412  44.497  1.00  0.00     0.053 C 
BRANCH   5   6
ATOM      6  C   UNL     1      -9.595 -38.452  44.474  1.00  0.00     0.041 C 
ATOM      7  O   UNL     1      -9.841 -39.608  44.040  1.00  0.00    -0.550 OA
ATOM      8  O   UNL     1      -8.307 -38.131  44.885  1.00  0.00    -0.550 OA
ENDBRANCH   5   6
ENDBRANCH   4   5
ENDBRANCH   3   4
ENDBRANCH   2   3
ENDBRANCH   1   2
BRANCH   1   9
ATOM      9  C   UNL     1      -9.332 -33.326  41.017  1.00  0.00     0.000 C 
BRANCH   9  10
ATOM     10  C   UNL     1      -7.910 -33.221  41.589  1.00  0.00    -0.000 C 
BRANCH  10  11
ATOM     11  C   UNL     1      -7.659 -31.884  42.307  1.00  0.00    -0.000 C 
BRANCH  11  12
ATOM     12  C   UNL     1      -6.941 -32.065  43.656  1.00  0.00    -0.000 C 
BRANCH  12  13
ATOM     13  C   UNL     1      -7.908 -32.436  44.791  1.00  0.00    -0.003 C 
ATOM     14  C   UNL     1      -7.703 -31.584  46.043  1.00  0.00     0.004 C 
ENDBRANCH  12  13
ENDBRANCH  11  12
ENDBRANCH  10  11
ENDBRANCH   9  10
ENDBRANCH   1   9
TORSDOF 10
ENDMDL
