MODEL 1
REMARK VINA RESULT:    -3.159      0.000      0.000
REMARK INTER + INTRA:          -6.482
REMARK INTER:                  -5.375
REMARK INTRA:                  -1.107
REMARK UNBOUND:                -1.107
REMARK SMILES CCCCCCCCCCCCCC(=O)[O-]
REMARK SMILES IDX 8 1 9 2 10 3 11 4 12 5 13 6 14 7 15 8 16 9 7 10 6 11 5 12
REMARK SMILES IDX 4 13 3 14 2 15 1 16
REMARK H PARENT
REMARK Flexibility Score: inf
ROOT
ATOM      1  C   UNL     1       9.020  -2.852   1.072  1.00  0.00     0.000 C 
ENDROOT
BRANCH   1   2
ATOM      2  C   UNL     1       8.734  -1.530   1.808  1.00  0.00     0.000 C 
BRANCH   2   3
ATOM      3  C   UNL     1       9.758  -0.435   1.472  1.00  0.00     0.000 C 
BRANCH   3   4
ATOM      4  C   UNL     1       9.092   0.908   1.124  1.00  0.00     0.000 C 
BRANCH   4   5
ATOM      5  C   UNL     1       9.022   1.861   2.327  1.00  0.00     0.006 C 
BRANCH   5   6
ATOM      6  C   UNL     1       7.601   2.003   2.887  1.00  0.00     0.053 C 
BRANCH   6   7
ATOM      7  C   UNL     1       7.096   3.395   2.681  1.00  0.00     0.041 C 
ATOM      8  O   UNL     1       6.762   3.785   1.531  1.00  0.00    -0.550 OA
ATOM      9  O   UNL     1       6.947   4.249   3.767  1.00  0.00    -0.550 OA
ENDBRANCH   6   7
ENDBRANCH   5   6
ENDBRANCH   4   5
ENDBRANCH   3   4
ENDBRANCH   2   3
ENDBRANCH   1   2
BRANCH   1  10
ATOM     10  C   UNL     1       9.439  -2.637  -0.391  1.00  0.00     0.000 C 
BRANCH  10  11
ATOM     11  C   UNL     1       8.593  -3.459  -1.374  1.00  0.00    -0.000 C 
BRANCH  11  12
ATOM     12  C   UNL     1       7.940  -2.552  -2.427  1.00  0.00    -0.000 C 
BRANCH  12  13
ATOM     13  C   UNL     1       8.319  -1.070  -2.260  1.00  0.00    -0.000 C 
BRANCH  13  14
ATOM     14  C   UNL     1       7.218  -0.064  -2.656  1.00  0.00    -0.000 C 
BRANCH  14  15
ATOM     15  C   UNL     1       7.423   1.365  -2.122  1.00  0.00    -0.003 C 
ATOM     16  C   UNL     1       7.192   2.437  -3.186  1.00  0.00     0.004 C 
ENDBRANCH  14  15
ENDBRANCH  13  14
ENDBRANCH  12  13
ENDBRANCH  11  12
ENDBRANCH  10  11
ENDBRANCH   1  10
TORSDOF 12
ENDMDL
MODEL 2
REMARK VINA RESULT:    -3.133      3.389      5.260
REMARK INTER + INTRA:          -6.437
REMARK INTER:                  -5.124
REMARK INTRA:                  -1.313
REMARK UNBOUND:                -1.107
REMARK SMILES CCCCCCCCCCCCCC(=O)[O-]
REMARK SMILES IDX 8 1 9 2 10 3 11 4 12 5 13 6 14 7 15 8 16 9 7 10 6 11 5 12
REMARK SMILES IDX 4 13 3 14 2 15 1 16
REMARK H PARENT
REMARK Flexibility Score: inf
ROOT
ATOM      1  C   UNL     1       9.905   1.751   0.805  1.00  0.00     0.000 C 
ENDROOT
BRANCH   1   2
ATOM      2  C   UNL     1       8.693   1.752   1.755  1.00  0.00     0.000 C 
BRANCH   2   3
ATOM      3  C   UNL     1       8.526   0.418   2.499  1.00  0.00     0.000 C 
BRANCH   3   4
ATOM      4  C   UNL     1       9.450  -0.683   1.949  1.00  0.00     0.000 C 
BRANCH   4   5
ATOM      5  C   UNL     1       8.677  -1.933   1.503  1.00  0.00     0.006 C 
BRANCH   5   6
ATOM      6  C   UNL     1       9.577  -3.168   1.370  1.00  0.00     0.053 C 
BRANCH   6   7
ATOM      7  C   UNL     1       8.751  -4.414   1.331  1.00  0.00     0.041 C 
ATOM      8  O   UNL     1       8.881  -5.231   0.382  1.00  0.00    -0.550 OA
ATOM      9  O   UNL     1       7.871  -4.698   2.368  1.00  0.00    -0.550 OA
ENDBRANCH   6   7
ENDBRANCH   5   6
ENDBRANCH   4   5
ENDBRANCH   3   4
ENDBRANCH   2   3
ENDBRANCH   1   2
BRANCH   1  10
ATOM     10  C   UNL     1       9.518   2.068  -0.648  1.00  0.00     0.000 C 
BRANCH  10  11
ATOM     11  C   UNL     1       8.118   1.552  -1.012  1.00  0.00    -0.000 C 
BRANCH  11  12
ATOM     12  C   UNL     1       8.179   0.098  -1.506  1.00  0.00    -0.000 C 
BRANCH  12  13
ATOM     13  C   UNL     1       7.282  -0.157  -2.729  1.00  0.00    -0.000 C 
BRANCH  13  14
ATOM     14  C   UNL     1       7.193  -1.631  -3.180  1.00  0.00    -0.000 C 
BRANCH  14  15
ATOM     15  C   UNL     1       8.044  -2.613  -2.357  1.00  0.00    -0.003 C 
ATOM     16  C   UNL     1       7.891  -4.063  -2.816  1.00  0.00     0.004 C 
ENDBRANCH  14  15
ENDBRANCH  13  14
ENDBRANCH  12  13
ENDBRANCH  11  12
ENDBRANCH  10  11
ENDBRANCH   1  10
TORSDOF 12
ENDMDL
MODEL 3
REMARK VINA RESULT:    -3.085      1.293      3.689
REMARK INTER + INTRA:          -6.356
REMARK INTER:                  -5.403
REMARK INTRA:                  -0.953
REMARK UNBOUND:                -1.107
REMARK SMILES CCCCCCCCCCCCCC(=O)[O-]
REMARK SMILES IDX 8 1 9 2 10 3 11 4 12 5 13 6 14 7 15 8 16 9 7 10 6 11 5 12
REMARK SMILES IDX 4 13 3 14 2 15 1 16
REMARK H PARENT
REMARK Flexibility Score: inf
ROOT
ATOM      1  C   UNL     1       7.290  -0.178  -2.734  1.00  0.00     0.000 C 
ENDROOT
BRANCH   1   2
ATOM      2  C   UNL     1       7.575   1.165  -2.037  1.00  0.00     0.000 C 
BRANCH   2   3
ATOM      3  C   UNL     1       8.735   1.074  -1.033  1.00  0.00     0.000 C 
BRANCH   3   4
ATOM      4  C   UNL     1       8.948   2.388  -0.260  1.00  0.00     0.000 C 
BRANCH   4   5
ATOM      5  C   UNL     1       7.626   3.058   0.142  1.00  0.00     0.006 C 
BRANCH   5   6
ATOM      6  C   UNL     1       7.803   4.092   1.262  1.00  0.00     0.053 C 
BRANCH   6   7
ATOM      7  C   UNL     1       7.427   3.500   2.583  1.00  0.00     0.041 C 
ATOM      8  O   UNL     1       7.000   4.238   3.509  1.00  0.00    -0.550 OA
ATOM      9  O   UNL     1       7.503   2.126   2.776  1.00  0.00    -0.550 OA
ENDBRANCH   6   7
ENDBRANCH   5   6
ENDBRANCH   4   5
ENDBRANCH   3   4
ENDBRANCH   2   3
ENDBRANCH   1   2
BRANCH   1  10
ATOM     10  C   UNL     1       7.967  -1.365  -2.030  1.00  0.00     0.000 C 
BRANCH  10  11
ATOM     11  C   UNL     1       7.805  -2.681  -2.804  1.00  0.00    -0.000 C 
BRANCH  11  12
ATOM     12  C   UNL     1       8.387  -3.860  -2.010  1.00  0.00    -0.000 C 
BRANCH  12  13
ATOM     13  C   UNL     1       9.198  -3.412  -0.781  1.00  0.00    -0.000 C 
BRANCH  13  14
ATOM     14  C   UNL     1       8.855  -4.146   0.533  1.00  0.00    -0.000 C 
BRANCH  14  15
ATOM     15  C   UNL     1       8.869  -3.263   1.792  1.00  0.00    -0.003 C 
ATOM     16  C   UNL     1       8.811  -1.770   1.473  1.00  0.00     0.004 C 
ENDBRANCH  14  15
ENDBRANCH  13  14
ENDBRANCH  12  13
ENDBRANCH  11  12
ENDBRANCH  10  11
ENDBRANCH   1  10
TORSDOF 12
ENDMDL
MODEL 4
REMARK VINA RESULT:    -3.059      3.032      5.726
REMARK INTER + INTRA:          -6.311
REMARK INTER:                  -5.268
REMARK INTRA:                  -1.043
REMARK UNBOUND:                -1.107
REMARK SMILES CCCCCCCCCCCCCC(=O)[O-]
REMARK SMILES IDX 8 1 9 2 10 3 11 4 12 5 13 6 14 7 15 8 16 9 7 10 6 11 5 12
REMARK SMILES IDX 4 13 3 14 2 15 1 16
REMARK H PARENT
REMARK Flexibility Score: inf
ROOT
ATOM      1  C   UNL     1       6.998  -0.746  -3.241  1.00  0.00     0.000 C 
ENDROOT
BRANCH   1   2
ATOM      2  C   UNL     1       7.450  -2.217  -3.188  1.00  0.00     0.000 C 
BRANCH   2   3
ATOM      3  C   UNL     1       8.322  -2.522  -1.960  1.00  0.00     0.000 C 
BRANCH   3   4
ATOM      4  C   UNL     1       8.533  -4.031  -1.747  1.00  0.00     0.000 C 
BRANCH   4   5
ATOM      5  C   UNL     1       9.062  -4.360  -0.343  1.00  0.00     0.006 C 
BRANCH   5   6
ATOM      6  C   UNL     1       9.007  -3.156   0.607  1.00  0.00     0.053 C 
BRANCH   6   7
ATOM      7  C   UNL     1       8.675  -3.602   1.995  1.00  0.00     0.041 C 
ATOM      8  O   UNL     1       7.844  -4.529   2.182  1.00  0.00    -0.550 OA
ATOM      9  O   UNL     1       9.319  -3.025   3.083  1.00  0.00    -0.550 OA
ENDBRANCH   6   7
ENDBRANCH   5   6
ENDBRANCH   4   5
ENDBRANCH   3   4
ENDBRANCH   2   3
ENDBRANCH   1   2
BRANCH   1  10
ATOM     10  C   UNL     1       7.641   0.110  -2.139  1.00  0.00     0.000 C 
BRANCH  10  11
ATOM     11  C   UNL     1       7.283   1.599  -2.264  1.00  0.00    -0.000 C 
BRANCH  11  12
ATOM     12  C   UNL     1       8.457   2.484  -1.819  1.00  0.00    -0.000 C 
BRANCH  12  13
ATOM     13  C   UNL     1       8.187   3.214  -0.491  1.00  0.00    -0.000 C 
BRANCH  13  14
ATOM     14  C   UNL     1       9.069   2.766   0.694  1.00  0.00    -0.000 C 
BRANCH  14  15
ATOM     15  C   UNL     1       8.402   1.771   1.659  1.00  0.00    -0.003 C 
ATOM     16  C   UNL     1       9.023   0.376   1.598  1.00  0.00     0.004 C 
ENDBRANCH  14  15
ENDBRANCH  13  14
ENDBRANCH  12  13
ENDBRANCH  11  12
ENDBRANCH  10  11
ENDBRANCH   1  10
TORSDOF 12
ENDMDL
MODEL 5
REMARK VINA RESULT:    -3.024      4.998      8.165
REMARK INTER + INTRA:          -6.252
REMARK INTER:                  -5.293
REMARK INTRA:                  -0.959
REMARK UNBOUND:                -1.107
REMARK SMILES CCCCCCCCCCCCCC(=O)[O-]
REMARK SMILES IDX 8 1 9 2 10 3 11 4 12 5 13 6 14 7 15 8 16 9 7 10 6 11 5 12
REMARK SMILES IDX 4 13 3 14 2 15 1 16
REMARK H PARENT
REMARK Flexibility Score: inf
ROOT
ATOM      1  C   UNL     1       7.594  -2.021  -2.519  1.00  0.00     0.000 C 
ENDROOT
BRANCH   1   2
ATOM      2  C   UNL     1       8.256  -3.395  -2.311  1.00  0.00     0.000 C 
BRANCH   2   3
ATOM      3  C   UNL     1       7.807  -4.431  -3.354  1.00  0.00     0.000 C 
BRANCH   3   4
ATOM      4  C   UNL     1       6.613  -3.941  -4.193  1.00  0.00     0.000 C 
BRANCH   4   5
ATOM      5  C   UNL     1       5.681  -5.087  -4.616  1.00  0.00     0.006 C 
BRANCH   5   6
ATOM      6  C   UNL     1       5.794  -6.311  -3.698  1.00  0.00     0.053 C 
BRANCH   6   7
ATOM      7  C   UNL     1       4.435  -6.826  -3.346  1.00  0.00     0.041 C 
ATOM      8  O   UNL     1       3.408  -6.161  -3.643  1.00  0.00    -0.550 OA
ATOM      9  O   UNL     1       4.299  -8.065  -2.732  1.00  0.00    -0.550 OA
ENDBRANCH   6   7
ENDBRANCH   5   6
ENDBRANCH   4   5
ENDBRANCH   3   4
ENDBRANCH   2   3
ENDBRANCH   1   2
BRANCH   1  10
ATOM     10  C   UNL     1       8.308  -0.897  -1.753  1.00  0.00     0.000 C 
BRANCH  10  11
ATOM     11  C   UNL     1       9.266  -1.432  -0.678  1.00  0.00    -0.000 C 
BRANCH  11  12
ATOM     12  C   UNL     1       8.950  -0.815   0.693  1.00  0.00    -0.000 C 
BRANCH  12  13
ATOM     13  C   UNL     1       8.749  -1.872   1.794  1.00  0.00    -0.000 C 
BRANCH  13  14
ATOM     14  C   UNL     1       8.920  -3.335   1.336  1.00  0.00    -0.000 C 
BRANCH  14  15
ATOM     15  C   UNL     1       8.108  -4.366   2.138  1.00  0.00    -0.003 C 
ATOM     16  C   UNL     1       8.683  -5.778   2.049  1.00  0.00     0.004 C 
ENDBRANCH  14  15
ENDBRANCH  13  14
ENDBRANCH  12  13
ENDBRANCH  11  12
ENDBRANCH  10  11
ENDBRANCH   1  10
TORSDOF 12
ENDMDL
MODEL 6
REMARK VINA RESULT:    -2.990      1.216      1.945
REMARK INTER + INTRA:          -6.193
REMARK INTER:                  -4.964
REMARK INTRA:                  -1.230
REMARK UNBOUND:                -1.107
REMARK SMILES CCCCCCCCCCCCCC(=O)[O-]
REMARK SMILES IDX 8 1 9 2 10 3 11 4 12 5 13 6 14 7 15 8 16 9 7 10 6 11 5 12
REMARK SMILES IDX 4 13 3 14 2 15 1 16
REMARK H PARENT
REMARK Flexibility Score: inf
ROOT
ATOM      1  C   UNL     1       9.844  -1.658  -1.301  1.00  0.00     0.000 C 
ENDROOT
BRANCH   1   2
ATOM      2  C   UNL     1      10.291  -1.623   0.172  1.00  0.00     0.000 C 
BRANCH   2   3
ATOM      3  C   UNL     1       9.126  -1.348   1.135  1.00  0.00     0.000 C 
BRANCH   3   4
ATOM      4  C   UNL     1       9.238   0.027   1.818  1.00  0.00     0.000 C 
BRANCH   4   5
ATOM      5  C   UNL     1       8.670   1.162   0.953  1.00  0.00     0.006 C 
BRANCH   5   6
ATOM      6  C   UNL     1       8.805   2.537   1.621  1.00  0.00     0.053 C 
BRANCH   6   7
ATOM      7  C   UNL     1       7.547   2.889   2.349  1.00  0.00     0.041 C 
ATOM      8  O   UNL     1       6.907   3.929   2.043  1.00  0.00    -0.550 OA
ATOM      9  O   UNL     1       7.055   2.043   3.335  1.00  0.00    -0.550 OA
ENDBRANCH   6   7
ENDBRANCH   5   6
ENDBRANCH   4   5
ENDBRANCH   3   4
ENDBRANCH   2   3
ENDBRANCH   1   2
BRANCH   1  10
ATOM     10  C   UNL     1       8.485  -2.350  -1.490  1.00  0.00     0.000 C 
BRANCH  10  11
ATOM     11  C   UNL     1       7.622  -1.671  -2.564  1.00  0.00    -0.000 C 
BRANCH  11  12
ATOM     12  C   UNL     1       7.597  -0.148  -2.365  1.00  0.00    -0.000 C 
BRANCH  12  13
ATOM     13  C   UNL     1       6.586   0.560  -3.285  1.00  0.00    -0.000 C 
BRANCH  13  14
ATOM     14  C   UNL     1       6.628   2.102  -3.241  1.00  0.00    -0.000 C 
BRANCH  14  15
ATOM     15  C   UNL     1       7.273   2.698  -1.978  1.00  0.00    -0.003 C 
ATOM     16  C   UNL     1       6.520   3.913  -1.442  1.00  0.00     0.004 C 
ENDBRANCH  14  15
ENDBRANCH  13  14
ENDBRANCH  12  13
ENDBRANCH  11  12
ENDBRANCH  10  11
ENDBRANCH   1  10
TORSDOF 12
ENDMDL
MODEL 7
REMARK VINA RESULT:    -2.986      1.655      2.958
REMARK INTER + INTRA:          -6.187
REMARK INTER:                  -4.923
REMARK INTRA:                  -1.264
REMARK UNBOUND:                -1.107
REMARK SMILES CCCCCCCCCCCCCC(=O)[O-]
REMARK SMILES IDX 8 1 9 2 10 3 11 4 12 5 13 6 14 7 15 8 16 9 7 10 6 11 5 12
REMARK SMILES IDX 4 13 3 14 2 15 1 16
REMARK H PARENT
REMARK Flexibility Score: inf
ROOT
ATOM      1  C   UNL     1       8.717  -2.630  -2.311  1.00  0.00     0.000 C 
ENDROOT
BRANCH   1   2
ATOM      2  C   UNL     1       8.750  -3.580  -1.100  1.00  0.00     0.000 C 
BRANCH   2   3
ATOM      3  C   UNL     1       9.075  -2.850   0.213  1.00  0.00     0.000 C 
BRANCH   3   4
ATOM      4  C   UNL     1       9.404  -1.363  -0.006  1.00  0.00     0.000 C 
BRANCH   4   5
ATOM      5  C   UNL     1       9.883  -0.670   1.278  1.00  0.00     0.006 C 
BRANCH   5   6
ATOM      6  C   UNL     1       8.768  -0.520   2.321  1.00  0.00     0.053 C 
BRANCH   6   7
ATOM      7  C   UNL     1       8.659   0.903   2.768  1.00  0.00     0.041 C 
ATOM      8  O   UNL     1       9.650   1.674   2.677  1.00  0.00    -0.550 OA
ATOM      9  O   UNL     1       7.447   1.393   3.240  1.00  0.00    -0.550 OA
ENDBRANCH   6   7
ENDBRANCH   5   6
ENDBRANCH   4   5
ENDBRANCH   3   4
ENDBRANCH   2   3
ENDBRANCH   1   2
BRANCH   1  10
ATOM     10  C   UNL     1       7.489  -2.857  -3.207  1.00  0.00     0.000 C 
BRANCH  10  11
ATOM     11  C   UNL     1       6.824  -1.542  -3.640  1.00  0.00    -0.000 C 
BRANCH  11  12
ATOM     12  C   UNL     1       7.245  -0.386  -2.721  1.00  0.00    -0.000 C 
BRANCH  12  13
ATOM     13  C   UNL     1       6.770   0.987  -3.229  1.00  0.00    -0.000 C 
BRANCH  13  14
ATOM     14  C   UNL     1       7.311   2.200  -2.443  1.00  0.00    -0.000 C 
BRANCH  14  15
ATOM     15  C   UNL     1       7.973   1.857  -1.097  1.00  0.00    -0.003 C 
ATOM     16  C   UNL     1       8.168   3.080  -0.201  1.00  0.00     0.004 C 
ENDBRANCH  14  15
ENDBRANCH  13  14
ENDBRANCH  12  13
ENDBRANCH  11  12
ENDBRANCH  10  11
ENDBRANCH   1  10
TORSDOF 12
ENDMDL
MODEL 8
REMARK VINA RESULT:    -2.943      1.710      2.303
REMARK INTER + INTRA:          -6.114
REMARK INTER:                  -5.307
REMARK INTRA:                  -0.806
REMARK UNBOUND:                -1.107
REMARK SMILES CCCCCCCCCCCCCC(=O)[O-]
REMARK SMILES IDX 8 1 9 2 10 3 11 4 12 5 13 6 14 7 15 8 16 9 7 10 6 11 5 12
REMARK SMILES IDX 4 13 3 14 2 15 1 16
REMARK H PARENT
REMARK Flexibility Score: inf
ROOT
ATOM      1  C   UNL     1       9.114  -2.098  -0.577  1.00  0.00     0.000 C 
ENDROOT
BRANCH   1   2
ATOM      2  C   UNL     1       9.065  -2.792   0.797  1.00  0.00     0.000 C 
BRANCH   2   3
ATOM      3  C   UNL     1       8.844  -1.800   1.950  1.00  0.00     0.000 C 
BRANCH   3   4
ATOM      4  C   UNL     1       8.676  -0.352   1.457  1.00  0.00     0.000 C 
BRANCH   4   5
ATOM      5  C   UNL     1       9.016   0.683   2.540  1.00  0.00     0.006 C 
BRANCH   5   6
ATOM      6  C   UNL     1       7.811   1.550   2.929  1.00  0.00     0.053 C 
BRANCH   6   7
ATOM      7  C   UNL     1       7.817   2.829   2.154  1.00  0.00     0.041 C 
ATOM      8  O   UNL     1       6.802   3.574   2.154  1.00  0.00    -0.550 OA
ATOM      9  O   UNL     1       8.960   3.222   1.470  1.00  0.00    -0.550 OA
ENDBRANCH   6   7
ENDBRANCH   5   6
ENDBRANCH   4   5
ENDBRANCH   3   4
ENDBRANCH   2   3
ENDBRANCH   1   2
BRANCH   1  10
ATOM     10  C   UNL     1       8.435  -2.924  -1.681  1.00  0.00     0.000 C 
BRANCH  10  11
ATOM     11  C   UNL     1       7.692  -2.048  -2.701  1.00  0.00    -0.000 C 
BRANCH  11  12
ATOM     12  C   UNL     1       7.644  -0.585  -2.235  1.00  0.00    -0.000 C 
BRANCH  12  13
ATOM     13  C   UNL     1       6.918   0.336  -3.231  1.00  0.00    -0.000 C 
BRANCH  13  14
ATOM     14  C   UNL     1       6.184  -0.388  -4.379  1.00  0.00    -0.000 C 
BRANCH  14  15
ATOM     15  C   UNL     1       4.768   0.135  -4.675  1.00  0.00    -0.003 C 
ATOM     16  C   UNL     1       4.183  -0.430  -5.969  1.00  0.00     0.004 C 
ENDBRANCH  14  15
ENDBRANCH  13  14
ENDBRANCH  12  13
ENDBRANCH  11  12
ENDBRANCH  10  11
ENDBRANCH   1  10
TORSDOF 12
ENDMDL
MODEL 9
REMARK VINA RESULT:    -2.923      1.141      3.990
REMARK INTER + INTRA:          -6.079
REMARK INTER:                  -4.602
REMARK INTRA:                  -1.477
REMARK UNBOUND:                -1.107
REMARK SMILES CCCCCCCCCCCCCC(=O)[O-]
REMARK SMILES IDX 8 1 9 2 10 3 11 4 12 5 13 6 14 7 15 8 16 9 7 10 6 11 5 12
REMARK SMILES IDX 4 13 3 14 2 15 1 16
REMARK H PARENT
REMARK Flexibility Score: inf
ROOT
ATOM      1  C   UNL     1       8.656  -1.117  -2.299  1.00  0.00     0.000 C 
ENDROOT
BRANCH   1   2
ATOM      2  C   UNL     1       7.604   0.007  -2.319  1.00  0.00     0.000 C 
BRANCH   2   3
ATOM      3  C   UNL     1       8.001   1.202  -1.437  1.00  0.00     0.000 C 
BRANCH   3   4
ATOM      4  C   UNL     1       9.134   0.857  -0.455  1.00  0.00     0.000 C 
BRANCH   4   5
ATOM      5  C   UNL     1       8.670   0.869   1.009  1.00  0.00     0.006 C 
BRANCH   5   6
ATOM      6  C   UNL     1       8.979   2.195   1.717  1.00  0.00     0.053 C 
BRANCH   6   7
ATOM      7  C   UNL     1       7.737   3.017   1.850  1.00  0.00     0.041 C 
ATOM      8  O   UNL     1       7.375   3.774   0.912  1.00  0.00    -0.550 OA
ATOM      9  O   UNL     1       6.952   2.912   2.991  1.00  0.00    -0.550 OA
ENDBRANCH   6   7
ENDBRANCH   5   6
ENDBRANCH   4   5
ENDBRANCH   3   4
ENDBRANCH   2   3
ENDBRANCH   1   2
BRANCH   1  10
ATOM     10  C   UNL     1       8.025  -2.518  -2.334  1.00  0.00     0.000 C 
BRANCH  10  11
ATOM     11  C   UNL     1       8.749  -3.515  -1.417  1.00  0.00    -0.000 C 
BRANCH  11  12
ATOM     12  C   UNL     1      10.036  -2.899  -0.846  1.00  0.00    -0.000 C 
BRANCH  12  13
ATOM     13  C   UNL     1      10.106  -2.976   0.690  1.00  0.00    -0.000 C 
BRANCH  13  14
ATOM     14  C   UNL     1       8.756  -2.800   1.417  1.00  0.00    -0.000 C 
BRANCH  14  15
ATOM     15  C   UNL     1       8.270  -4.038   2.191  1.00  0.00    -0.003 C 
ATOM     16  C   UNL     1       9.082  -5.293   1.878  1.00  0.00     0.004 C 
ENDBRANCH  14  15
ENDBRANCH  13  14
ENDBRANCH  12  13
ENDBRANCH  11  12
ENDBRANCH  10  11
ENDBRANCH   1  10
TORSDOF 12
ENDMDL
