MODEL 1
REMARK VINA RESULT:    -6.315      0.000      0.000
REMARK INTER + INTRA:          -7.142
REMARK INTER:                  -6.868
REMARK INTRA:                  -0.274
REMARK UNBOUND:                -0.274
REMARK SMILES C[C@H]1[C@H]2C3=CC[C@H]4[C@@]5(C)CC[C@H](O)C(C)(C)[C@H]5CC[C@]4(C)[C@@]3(C)CC[C@@]2(C(=O)[O-])CC[C@@H]1C
REMARK SMILES IDX 26 1 30 2 25 3 3 4 31 5 24 6 4 7 2 8 32 9 22 10 5 11 1 12
REMARK SMILES IDX 33 13 23 14 20 15 6 16 7 17 19 18 21 19 8 20 18 21 17 22
REMARK SMILES IDX 10 23 9 24 14 25 11 26 12 27 15 28 16 29 27 30 28 31 29 32
REMARK SMILES IDX 13 33
REMARK H PARENT 13 34
REMARK Flexibility Score: inf
ROOT
ATOM      1  C   UNL     1     128.408 121.387 108.071  1.00  0.00     0.017 C 
ATOM      2  C   UNL     1     127.726 119.986 107.992  1.00  0.00     0.014 C 
ATOM      3  C   UNL     1     129.901 121.210 107.720  1.00  0.00     0.014 C 
ATOM      4  C   UNL     1     128.292 122.021 109.514  1.00  0.00     0.030 C 
ATOM      5  C   UNL     1     126.493 119.909 108.886  1.00  0.00     0.004 C 
ATOM      6  C   UNL     1     130.676 122.526 107.642  1.00  0.00     0.013 C 
ATOM      7  C   UNL     1     129.390 123.061 109.844  1.00  0.00    -0.063 C 
ATOM      8  C   UNL     1     128.101 120.940 110.646  1.00  0.00    -0.003 C 
ATOM      9  C   UNL     1     126.884 119.990 110.376  1.00  0.00    -0.011 C 
ATOM     10  C   UNL     1     130.418 123.563 108.808  1.00  0.00    -0.006 C 
ATOM     11  C   UNL     1     129.301 123.715 111.028  1.00  0.00    -0.027 C 
ATOM     12  C   UNL     1     129.374 120.134 110.970  1.00  0.00     0.008 C 
ATOM     13  C   UNL     1     125.658 120.395 111.209  1.00  0.00     0.008 C 
ATOM     14  C   UNL     1     129.740 124.809 108.143  1.00  0.00     0.017 C 
ATOM     15  C   UNL     1     131.789 123.934 109.578  1.00  0.00    -0.020 C 
ATOM     16  C   UNL     1     130.330 124.666 111.587  1.00  0.00     0.032 C 
ATOM     17  C   UNL     1     131.496 125.065 110.633  1.00  0.00     0.006 C 
ATOM     18  C   UNL     1     132.864 124.493 108.600  1.00  0.00     0.008 C 
ATOM     19  C   UNL     1     132.331 122.635 110.271  1.00  0.00     0.012 C 
ATOM     20  C   UNL     1     132.738 125.775 111.358  1.00  0.00    -0.025 C 
ATOM     21  C   UNL     1     134.112 125.046 109.291  1.00  0.00     0.005 C 
ATOM     22  C   UNL     1     133.828 126.207 110.285  1.00  0.00     0.003 C 
ATOM     23  C   UNL     1     133.403 124.882 112.449  1.00  0.00     0.010 C 
ATOM     24  C   UNL     1     132.146 127.041 112.058  1.00  0.00     0.012 C 
ATOM     25  C   UNL     1     135.193 126.785 110.899  1.00  0.00    -0.006 C 
ATOM     26  C   UNL     1     134.656 125.505 113.078  1.00  0.00     0.033 C 
ATOM     27  C   UNL     1     135.722 125.843 112.028  1.00  0.00     0.120 C 
ATOM     28  C   UNL     1     135.015 128.247 111.427  1.00  0.00     0.014 C 
ATOM     29  C   UNL     1     136.302 126.878 109.805  1.00  0.00     0.014 C 
ENDROOT
BRANCH   1  30
ATOM     30  C   UNL     1     127.724 122.255 107.015  1.00  0.00     0.048 C 
ATOM     31  O   UNL     1     126.866 123.119 107.340  1.00  0.00    -0.550 OA
ATOM     32  O   UNL     1     127.945 122.018 105.662  1.00  0.00    -0.550 OA
ENDBRANCH   1  30
BRANCH  27  33
ATOM     33  O   UNL     1     136.823 126.424 112.686  1.00  0.00    -0.393 OA
ATOM     34  H   UNL     1     136.952 127.332 112.305  1.00  0.00     0.210 HD
ENDBRANCH  27  33
TORSDOF 2
ENDMDL
MODEL 2
REMARK VINA RESULT:    -6.252      4.296      7.529
REMARK INTER + INTRA:          -7.075
REMARK INTER:                  -6.801
REMARK INTRA:                  -0.274
REMARK UNBOUND:                -0.274
REMARK SMILES C[C@H]1[C@H]2C3=CC[C@H]4[C@@]5(C)CC[C@H](O)C(C)(C)[C@H]5CC[C@]4(C)[C@@]3(C)CC[C@@]2(C(=O)[O-])CC[C@@H]1C
REMARK SMILES IDX 26 1 30 2 25 3 3 4 31 5 24 6 4 7 2 8 32 9 22 10 5 11 1 12
REMARK SMILES IDX 33 13 23 14 20 15 6 16 7 17 19 18 21 19 8 20 18 21 17 22
REMARK SMILES IDX 10 23 9 24 14 25 11 26 12 27 15 28 16 29 27 30 28 31 29 32
REMARK SMILES IDX 13 33
REMARK H PARENT 13 34
REMARK Flexibility Score: inf
ROOT
ATOM      1  C   UNL     1     124.391 123.077 103.650  1.00  0.00     0.017 C 
ATOM      2  C   UNL     1     123.434 124.086 102.944  1.00  0.00     0.014 C 
ATOM      3  C   UNL     1     123.735 122.648 104.979  1.00  0.00     0.014 C 
ATOM      4  C   UNL     1     125.803 123.717 103.959  1.00  0.00     0.030 C 
ATOM      5  C   UNL     1     124.193 125.025 102.012  1.00  0.00     0.004 C 
ATOM      6  C   UNL     1     124.511 121.563 105.729  1.00  0.00     0.013 C 
ATOM      7  C   UNL     1     126.566 123.047 105.127  1.00  0.00    -0.063 C 
ATOM      8  C   UNL     1     125.753 125.289 104.072  1.00  0.00    -0.003 C 
ATOM      9  C   UNL     1     125.119 125.966 102.809  1.00  0.00    -0.011 C 
ATOM     10  C   UNL     1     126.076 121.764 105.831  1.00  0.00    -0.006 C 
ATOM     11  C   UNL     1     127.823 123.482 105.388  1.00  0.00    -0.027 C 
ATOM     12  C   UNL     1     125.099 125.807 105.368  1.00  0.00     0.008 C 
ATOM     13  C   UNL     1     126.198 126.538 101.876  1.00  0.00     0.008 C 
ATOM     14  C   UNL     1     126.722 120.590 105.020  1.00  0.00     0.017 C 
ATOM     15  C   UNL     1     126.563 121.801 107.371  1.00  0.00    -0.020 C 
ATOM     16  C   UNL     1     128.678 123.049 106.553  1.00  0.00     0.032 C 
ATOM     17  C   UNL     1     128.135 121.867 107.411  1.00  0.00     0.006 C 
ATOM     18  C   UNL     1     126.143 120.513 108.138  1.00  0.00     0.008 C 
ATOM     19  C   UNL     1     125.923 123.057 108.059  1.00  0.00     0.012 C 
ATOM     20  C   UNL     1     128.873 121.672 108.821  1.00  0.00    -0.025 C 
ATOM     21  C   UNL     1     126.740 120.397 109.542  1.00  0.00     0.005 C 
ATOM     22  C   UNL     1     128.295 120.397 109.574  1.00  0.00     0.003 C 
ATOM     23  C   UNL     1     128.764 122.921 109.748  1.00  0.00     0.010 C 
ATOM     24  C   UNL     1     130.382 121.450 108.478  1.00  0.00     0.012 C 
ATOM     25  C   UNL     1     128.839 120.185 111.068  1.00  0.00    -0.006 C 
ATOM     26  C   UNL     1     129.373 122.712 111.140  1.00  0.00     0.033 C 
ATOM     27  C   UNL     1     128.745 121.521 111.875  1.00  0.00     0.120 C 
ATOM     28  C   UNL     1     130.301 119.629 111.077  1.00  0.00     0.014 C 
ATOM     29  C   UNL     1     127.990 119.117 111.826  1.00  0.00     0.014 C 
ENDROOT
BRANCH   1  30
ATOM     30  C   UNL     1     124.509 121.873 102.714  1.00  0.00     0.048 C 
ATOM     31  O   UNL     1     125.533 121.702 102.001  1.00  0.00    -0.550 OA
ATOM     32  O   UNL     1     123.429 121.014 102.539  1.00  0.00    -0.550 OA
ENDBRANCH   1  30
BRANCH  27  33
ATOM     33  O   UNL     1     129.373 121.392 113.128  1.00  0.00    -0.393 OA
ATOM     34  H   UNL     1     129.455 120.421 113.320  1.00  0.00     0.210 HD
ENDBRANCH  27  33
TORSDOF 2
ENDMDL
MODEL 3
REMARK VINA RESULT:    -6.120      1.569      8.361
REMARK INTER + INTRA:          -6.930
REMARK INTER:                  -6.886
REMARK INTRA:                  -0.044
REMARK UNBOUND:                -0.274
REMARK SMILES C[C@H]1[C@H]2C3=CC[C@H]4[C@@]5(C)CC[C@H](O)C(C)(C)[C@H]5CC[C@]4(C)[C@@]3(C)CC[C@@]2(C(=O)[O-])CC[C@@H]1C
REMARK SMILES IDX 26 1 30 2 25 3 3 4 31 5 24 6 4 7 2 8 32 9 22 10 5 11 1 12
REMARK SMILES IDX 33 13 23 14 20 15 6 16 7 17 19 18 21 19 8 20 18 21 17 22
REMARK SMILES IDX 10 23 9 24 14 25 11 26 12 27 15 28 16 29 27 30 28 31 29 32
REMARK SMILES IDX 13 33
REMARK H PARENT 13 34
REMARK Flexibility Score: inf
ROOT
ATOM      1  C   UNL     1     134.778 126.350 111.980  1.00  0.00     0.017 C 
ATOM      2  C   UNL     1     136.306 126.473 112.271  1.00  0.00     0.014 C 
ATOM      3  C   UNL     1     134.261 125.079 112.686  1.00  0.00     0.014 C 
ATOM      4  C   UNL     1     134.478 126.235 110.433  1.00  0.00     0.030 C 
ATOM      5  C   UNL     1     137.026 127.257 111.179  1.00  0.00     0.004 C 
ATOM      6  C   UNL     1     132.746 124.891 112.586  1.00  0.00     0.013 C 
ATOM      7  C   UNL     1     133.138 125.538 110.093  1.00  0.00    -0.063 C 
ATOM      8  C   UNL     1     135.698 125.667 109.611  1.00  0.00    -0.003 C 
ATOM      9  C   UNL     1     137.016 126.482 109.845  1.00  0.00    -0.011 C 
ATOM     10  C   UNL     1     132.102 125.132 111.162  1.00  0.00    -0.006 C 
ATOM     11  C   UNL     1     132.769 125.487 108.790  1.00  0.00    -0.027 C 
ATOM     12  C   UNL     1     135.937 124.157 109.800  1.00  0.00     0.008 C 
ATOM     13  C   UNL     1     137.291 127.452 108.684  1.00  0.00     0.008 C 
ATOM     14  C   UNL     1     131.167 126.380 111.309  1.00  0.00     0.017 C 
ATOM     15  C   UNL     1     131.314 123.819 110.645  1.00  0.00    -0.020 C 
ATOM     16  C   UNL     1     131.573 124.748 108.243  1.00  0.00     0.032 C 
ATOM     17  C   UNL     1     130.584 124.158 109.292  1.00  0.00     0.006 C 
ATOM     18  C   UNL     1     130.215 123.373 111.655  1.00  0.00     0.008 C 
ATOM     19  C   UNL     1     132.356 122.662 110.455  1.00  0.00     0.012 C 
ATOM     20  C   UNL     1     129.539 123.095 108.700  1.00  0.00    -0.025 C 
ATOM     21  C   UNL     1     129.304 122.259 111.137  1.00  0.00     0.005 C 
ATOM     22  C   UNL     1     128.533 122.619 109.835  1.00  0.00     0.003 C 
ATOM     23  C   UNL     1     130.228 121.852 108.056  1.00  0.00     0.010 C 
ATOM     24  C   UNL     1     128.758 123.854 107.579  1.00  0.00     0.012 C 
ATOM     25  C   UNL     1     127.539 121.435 109.409  1.00  0.00    -0.006 C 
ATOM     26  C   UNL     1     129.242 120.778 107.580  1.00  0.00     0.033 C 
ATOM     27  C   UNL     1     128.334 120.282 108.713  1.00  0.00     0.120 C 
ATOM     28  C   UNL     1     126.384 121.952 108.491  1.00  0.00     0.014 C 
ATOM     29  C   UNL     1     126.827 120.827 110.658  1.00  0.00     0.014 C 
ENDROOT
BRANCH   1  30
ATOM     30  C   UNL     1     134.125 127.589 112.593  1.00  0.00     0.048 C 
ATOM     31  O   UNL     1     133.432 128.373 111.890  1.00  0.00    -0.550 OA
ATOM     32  O   UNL     1     134.392 127.943 113.911  1.00  0.00    -0.550 OA
ENDBRANCH   1  30
BRANCH  27  33
ATOM     33  O   UNL     1     127.454 119.318 108.186  1.00  0.00    -0.393 OA
ATOM     34  H   UNL     1     127.900 118.435 108.264  1.00  0.00     0.210 HD
ENDBRANCH  27  33
TORSDOF 2
ENDMDL
MODEL 4
REMARK VINA RESULT:    -6.102      2.161      8.000
REMARK INTER + INTRA:          -6.911
REMARK INTER:                  -6.638
REMARK INTRA:                  -0.274
REMARK UNBOUND:                -0.274
REMARK SMILES C[C@H]1[C@H]2C3=CC[C@H]4[C@@]5(C)CC[C@H](O)C(C)(C)[C@H]5CC[C@]4(C)[C@@]3(C)CC[C@@]2(C(=O)[O-])CC[C@@H]1C
REMARK SMILES IDX 26 1 30 2 25 3 3 4 31 5 24 6 4 7 2 8 32 9 22 10 5 11 1 12
REMARK SMILES IDX 33 13 23 14 20 15 6 16 7 17 19 18 21 19 8 20 18 21 17 22
REMARK SMILES IDX 10 23 9 24 14 25 11 26 12 27 15 28 16 29 27 30 28 31 29 32
REMARK SMILES IDX 13 33
REMARK H PARENT 13 34
REMARK Flexibility Score: inf
ROOT
ATOM      1  C   UNL     1     133.978 127.256 109.768  1.00  0.00     0.017 C 
ATOM      2  C   UNL     1     134.771 128.388 110.491  1.00  0.00     0.014 C 
ATOM      3  C   UNL     1     132.471 127.540 109.950  1.00  0.00     0.014 C 
ATOM      4  C   UNL     1     134.306 125.830 110.365  1.00  0.00     0.030 C 
ATOM      5  C   UNL     1     136.155 127.918 110.925  1.00  0.00     0.004 C 
ATOM      6  C   UNL     1     131.565 126.570 109.190  1.00  0.00     0.013 C 
ATOM      7  C   UNL     1     133.192 124.777 110.150  1.00  0.00    -0.063 C 
ATOM      8  C   UNL     1     134.822 125.891 111.853  1.00  0.00    -0.003 C 
ATOM      9  C   UNL     1     136.054 126.844 112.027  1.00  0.00    -0.011 C 
ATOM     10  C   UNL     1     131.937 125.037 109.290  1.00  0.00    -0.006 C 
ATOM     11  C   UNL     1     133.443 123.507 110.552  1.00  0.00    -0.027 C 
ATOM     12  C   UNL     1     133.725 126.206 112.889  1.00  0.00     0.008 C 
ATOM     13  C   UNL     1     137.371 126.055 112.100  1.00  0.00     0.008 C 
ATOM     14  C   UNL     1     132.342 124.588 107.845  1.00  0.00     0.017 C 
ATOM     15  C   UNL     1     130.711 124.174 109.891  1.00  0.00    -0.020 C 
ATOM     16  C   UNL     1     132.449 122.371 110.546  1.00  0.00     0.032 C 
ATOM     17  C   UNL     1     131.086 122.646 109.844  1.00  0.00     0.006 C 
ATOM     18  C   UNL     1     129.415 124.350 109.046  1.00  0.00     0.008 C 
ATOM     19  C   UNL     1     130.449 124.650 111.363  1.00  0.00     0.012 C 
ATOM     20  C   UNL     1     129.942 121.567 110.161  1.00  0.00    -0.025 C 
ATOM     21  C   UNL     1     128.275 123.411 109.445  1.00  0.00     0.005 C 
ATOM     22  C   UNL     1     128.626 121.900 109.334  1.00  0.00     0.003 C 
ATOM     23  C   UNL     1     129.597 121.469 111.678  1.00  0.00     0.010 C 
ATOM     24  C   UNL     1     130.525 120.191 109.704  1.00  0.00     0.012 C 
ATOM     25  C   UNL     1     127.354 120.987 109.685  1.00  0.00    -0.006 C 
ATOM     26  C   UNL     1     128.432 120.519 111.986  1.00  0.00     0.033 C 
ATOM     27  C   UNL     1     127.153 120.908 111.233  1.00  0.00     0.120 C 
ATOM     28  C   UNL     1     127.481 119.558 109.063  1.00  0.00     0.014 C 
ATOM     29  C   UNL     1     126.051 121.586 109.072  1.00  0.00     0.014 C 
ENDROOT
BRANCH   1  30
ATOM     30  C   UNL     1     134.352 127.350 108.289  1.00  0.00     0.048 C 
ATOM     31  O   UNL     1     135.168 126.542 107.772  1.00  0.00    -0.550 OA
ATOM     32  O   UNL     1     133.892 128.412 107.516  1.00  0.00    -0.550 OA
ENDBRANCH   1  30
BRANCH  27  33
ATOM     33  O   UNL     1     126.148 119.978 111.558  1.00  0.00    -0.393 OA
ATOM     34  H   UNL     1     126.598 119.128 111.806  1.00  0.00     0.210 HD
ENDBRANCH  27  33
TORSDOF 2
ENDMDL
MODEL 5
REMARK VINA RESULT:    -5.967      4.851      7.981
REMARK INTER + INTRA:          -6.764
REMARK INTER:                  -6.519
REMARK INTRA:                  -0.245
REMARK UNBOUND:                -0.274
REMARK SMILES C[C@H]1[C@H]2C3=CC[C@H]4[C@@]5(C)CC[C@H](O)C(C)(C)[C@H]5CC[C@]4(C)[C@@]3(C)CC[C@@]2(C(=O)[O-])CC[C@@H]1C
REMARK SMILES IDX 26 1 30 2 25 3 3 4 31 5 24 6 4 7 2 8 32 9 22 10 5 11 1 12
REMARK SMILES IDX 33 13 23 14 20 15 6 16 7 17 19 18 21 19 8 20 18 21 17 22
REMARK SMILES IDX 10 23 9 24 14 25 11 26 12 27 15 28 16 29 27 30 28 31 29 32
REMARK SMILES IDX 13 33
REMARK H PARENT 13 34
REMARK Flexibility Score: inf
ROOT
ATOM      1  C   UNL     1     132.546 125.289 110.163  1.00  0.00     0.017 C 
ATOM      2  C   UNL     1     134.018 124.933 109.789  1.00  0.00     0.014 C 
ATOM      3  C   UNL     1     131.895 125.967 108.939  1.00  0.00     0.014 C 
ATOM      4  C   UNL     1     132.471 126.276 111.396  1.00  0.00     0.030 C 
ATOM      5  C   UNL     1     134.912 124.863 111.023  1.00  0.00     0.004 C 
ATOM      6  C   UNL     1     130.406 126.267 109.120  1.00  0.00     0.013 C 
ATOM      7  C   UNL     1     131.175 127.121 111.459  1.00  0.00    -0.063 C 
ATOM      8  C   UNL     1     133.780 127.135 111.575  1.00  0.00    -0.003 C 
ATOM      9  C   UNL     1     135.074 126.255 111.669  1.00  0.00    -0.011 C 
ATOM     10  C   UNL     1     129.983 126.912 110.501  1.00  0.00    -0.006 C 
ATOM     11  C   UNL     1     130.999 127.920 112.538  1.00  0.00    -0.027 C 
ATOM     12  C   UNL     1     133.946 128.258 110.532  1.00  0.00     0.008 C 
ATOM     13  C   UNL     1     135.543 126.096 113.123  1.00  0.00     0.008 C 
ATOM     14  C   UNL     1     129.073 125.857 111.217  1.00  0.00     0.017 C 
ATOM     15  C   UNL     1     129.241 128.331 110.283  1.00  0.00    -0.020 C 
ATOM     16  C   UNL     1     129.873 128.908 112.726  1.00  0.00     0.032 C 
ATOM     17  C   UNL     1     128.726 128.860 111.673  1.00  0.00     0.006 C 
ATOM     18  C   UNL     1     127.995 128.192 109.359  1.00  0.00     0.008 C 
ATOM     19  C   UNL     1     130.267 129.329 109.639  1.00  0.00     0.012 C 
ATOM     20  C   UNL     1     127.748 130.131 111.693  1.00  0.00    -0.025 C 
ATOM     21  C   UNL     1     127.137 129.456 109.271  1.00  0.00     0.005 C 
ATOM     22  C   UNL     1     126.574 129.940 110.638  1.00  0.00     0.003 C 
ATOM     23  C   UNL     1     128.487 131.476 111.417  1.00  0.00     0.010 C 
ATOM     24  C   UNL     1     127.160 130.185 113.140  1.00  0.00     0.012 C 
ATOM     25  C   UNL     1     125.619 131.214 110.447  1.00  0.00    -0.006 C 
ATOM     26  C   UNL     1     127.550 132.688 111.328  1.00  0.00     0.033 C 
ATOM     27  C   UNL     1     126.473 132.509 110.251  1.00  0.00     0.120 C 
ATOM     28  C   UNL     1     124.626 131.376 111.644  1.00  0.00     0.014 C 
ATOM     29  C   UNL     1     124.716 131.051 109.185  1.00  0.00     0.014 C 
ENDROOT
BRANCH   1  30
ATOM     30  C   UNL     1     131.847 123.962 110.458  1.00  0.00     0.048 C 
ATOM     31  O   UNL     1     131.501 123.656 111.630  1.00  0.00    -0.550 OA
ATOM     32  O   UNL     1     131.697 123.011 109.454  1.00  0.00    -0.550 OA
ENDBRANCH   1  30
BRANCH  27  33
ATOM     33  O   UNL     1     125.652 133.652 110.251  1.00  0.00    -0.393 OA
ATOM     34  H   UNL     1     125.859 134.167 111.074  1.00  0.00     0.210 HD
ENDBRANCH  27  33
TORSDOF 2
ENDMDL
MODEL 6
REMARK VINA RESULT:    -5.795     10.301     12.402
REMARK INTER + INTRA:          -6.577
REMARK INTER:                  -6.307
REMARK INTRA:                  -0.270
REMARK UNBOUND:                -0.274
REMARK SMILES C[C@H]1[C@H]2C3=CC[C@H]4[C@@]5(C)CC[C@H](O)C(C)(C)[C@H]5CC[C@]4(C)[C@@]3(C)CC[C@@]2(C(=O)[O-])CC[C@@H]1C
REMARK SMILES IDX 26 1 30 2 25 3 3 4 31 5 24 6 4 7 2 8 32 9 22 10 5 11 1 12
REMARK SMILES IDX 33 13 23 14 20 15 6 16 7 17 19 18 21 19 8 20 18 21 17 22
REMARK SMILES IDX 10 23 9 24 14 25 11 26 12 27 15 28 16 29 27 30 28 31 29 32
REMARK SMILES IDX 13 33
REMARK H PARENT 13 34
REMARK Flexibility Score: inf
ROOT
ATOM      1  C   UNL     1     127.117 135.635 109.728  1.00  0.00     0.017 C 
ATOM      2  C   UNL     1     125.649 135.283 110.122  1.00  0.00     0.014 C 
ATOM      3  C   UNL     1     127.114 136.110 108.259  1.00  0.00     0.014 C 
ATOM      4  C   UNL     1     128.080 134.390 109.862  1.00  0.00     0.030 C 
ATOM      5  C   UNL     1     125.599 134.254 111.246  1.00  0.00     0.004 C 
ATOM      6  C   UNL     1     128.476 136.604 107.768  1.00  0.00     0.013 C 
ATOM      7  C   UNL     1     129.344 134.462 108.971  1.00  0.00    -0.063 C 
ATOM      8  C   UNL     1     127.322 133.012 109.751  1.00  0.00    -0.003 C 
ATOM      9  C   UNL     1     126.139 132.890 110.771  1.00  0.00    -0.011 C 
ATOM     10  C   UNL     1     129.724 135.707 108.141  1.00  0.00    -0.006 C 
ATOM     11  C   UNL     1     130.262 133.474 109.102  1.00  0.00    -0.027 C 
ATOM     12  C   UNL     1     126.863 132.657 108.323  1.00  0.00     0.008 C 
ATOM     13  C   UNL     1     126.531 132.039 111.990  1.00  0.00     0.008 C 
ATOM     14  C   UNL     1     130.613 136.570 109.100  1.00  0.00     0.017 C 
ATOM     15  C   UNL     1     130.517 135.225 106.819  1.00  0.00    -0.020 C 
ATOM     16  C   UNL     1     131.490 133.296 108.243  1.00  0.00     0.032 C 
ATOM     17  C   UNL     1     131.818 134.453 107.253  1.00  0.00     0.006 C 
ATOM     18  C   UNL     1     130.974 136.434 105.951  1.00  0.00     0.008 C 
ATOM     19  C   UNL     1     129.562 134.305 105.980  1.00  0.00     0.012 C 
ATOM     20  C   UNL     1     132.899 134.082 106.127  1.00  0.00    -0.025 C 
ATOM     21  C   UNL     1     131.897 136.058 104.790  1.00  0.00     0.005 C 
ATOM     22  C   UNL     1     133.213 135.353 105.225  1.00  0.00     0.003 C 
ATOM     23  C   UNL     1     132.455 132.894 105.220  1.00  0.00     0.010 C 
ATOM     24  C   UNL     1     134.183 133.649 106.905  1.00  0.00     0.012 C 
ATOM     25  C   UNL     1     134.160 135.071 103.962  1.00  0.00    -0.006 C 
ATOM     26  C   UNL     1     133.429 132.596 104.073  1.00  0.00     0.033 C 
ATOM     27  C   UNL     1     133.657 133.818 103.175  1.00  0.00     0.120 C 
ATOM     28  C   UNL     1     135.655 134.902 104.387  1.00  0.00     0.014 C 
ATOM     29  C   UNL     1     134.150 136.281 102.976  1.00  0.00     0.014 C 
ENDROOT
BRANCH   1  30
ATOM     30  C   UNL     1     127.543 136.781 110.646  1.00  0.00     0.048 C 
ATOM     31  O   UNL     1     128.339 136.586 111.603  1.00  0.00    -0.550 OA
ATOM     32  O   UNL     1     126.957 138.037 110.518  1.00  0.00    -0.550 OA
ENDBRANCH   1  30
BRANCH  27  33
ATOM     33  O   UNL     1     134.572 133.462 102.166  1.00  0.00    -0.393 OA
ATOM     34  H   UNL     1     135.153 134.250 102.001  1.00  0.00     0.210 HD
ENDBRANCH  27  33
TORSDOF 2
ENDMDL
MODEL 7
REMARK VINA RESULT:    -5.794      7.735      9.539
REMARK INTER + INTRA:          -6.576
REMARK INTER:                  -6.326
REMARK INTRA:                  -0.250
REMARK UNBOUND:                -0.274
REMARK SMILES C[C@H]1[C@H]2C3=CC[C@H]4[C@@]5(C)CC[C@H](O)C(C)(C)[C@H]5CC[C@]4(C)[C@@]3(C)CC[C@@]2(C(=O)[O-])CC[C@@H]1C
REMARK SMILES IDX 26 1 30 2 25 3 3 4 31 5 24 6 4 7 2 8 32 9 22 10 5 11 1 12
REMARK SMILES IDX 33 13 23 14 20 15 6 16 7 17 19 18 21 19 8 20 18 21 17 22
REMARK SMILES IDX 10 23 9 24 14 25 11 26 12 27 15 28 16 29 27 30 28 31 29 32
REMARK SMILES IDX 13 33
REMARK H PARENT 13 34
REMARK Flexibility Score: inf
ROOT
ATOM      1  C   UNL     1     124.802 133.574 108.904  1.00  0.00     0.017 C 
ATOM      2  C   UNL     1     123.492 133.892 108.120  1.00  0.00     0.014 C 
ATOM      3  C   UNL     1     125.787 132.897 107.927  1.00  0.00     0.014 C 
ATOM      4  C   UNL     1     124.542 132.603 110.123  1.00  0.00     0.030 C 
ATOM      5  C   UNL     1     122.282 133.956 109.048  1.00  0.00     0.004 C 
ATOM      6  C   UNL     1     127.169 132.632 108.529  1.00  0.00     0.013 C 
ATOM      7  C   UNL     1     125.781 131.788 110.566  1.00  0.00    -0.063 C 
ATOM      8  C   UNL     1     123.252 131.716 109.937  1.00  0.00    -0.003 C 
ATOM      9  C   UNL     1     121.969 132.569 109.644  1.00  0.00    -0.011 C 
ATOM     10  C   UNL     1     127.193 132.013 109.983  1.00  0.00    -0.006 C 
ATOM     11  C   UNL     1     125.658 131.004 111.665  1.00  0.00    -0.027 C 
ATOM     12  C   UNL     1     123.410 130.579 108.909  1.00  0.00     0.008 C 
ATOM     13  C   UNL     1     121.102 132.733 110.903  1.00  0.00     0.008 C 
ATOM     14  C   UNL     1     127.842 133.096 110.911  1.00  0.00     0.017 C 
ATOM     15  C   UNL     1     127.992 130.609 110.010  1.00  0.00    -0.020 C 
ATOM     16  C   UNL     1     126.701 130.045 112.181  1.00  0.00     0.032 C 
ATOM     17  C   UNL     1     128.100 130.107 111.498  1.00  0.00     0.006 C 
ATOM     18  C   UNL     1     129.446 130.765 109.476  1.00  0.00     0.008 C 
ATOM     19  C   UNL     1     127.211 129.581 109.118  1.00  0.00     0.012 C 
ATOM     20  C   UNL     1     129.055 128.858 111.817  1.00  0.00    -0.025 C 
ATOM     21  C   UNL     1     130.317 129.520 109.657  1.00  0.00     0.005 C 
ATOM     22  C   UNL     1     130.476 129.064 111.136  1.00  0.00     0.003 C 
ATOM     23  C   UNL     1     128.450 127.494 111.365  1.00  0.00     0.010 C 
ATOM     24  C   UNL     1     129.207 128.833 113.372  1.00  0.00     0.012 C 
ATOM     25  C   UNL     1     131.470 127.809 111.246  1.00  0.00    -0.006 C 
ATOM     26  C   UNL     1     129.395 126.303 111.567  1.00  0.00     0.033 C 
ATOM     27  C   UNL     1     130.731 126.493 110.837  1.00  0.00     0.120 C 
ATOM     28  C   UNL     1     132.084 127.683 112.679  1.00  0.00     0.014 C 
ATOM     29  C   UNL     1     132.692 127.979 110.290  1.00  0.00     0.014 C 
ENDROOT
BRANCH   1  30
ATOM     30  C   UNL     1     125.364 134.920 109.362  1.00  0.00     0.048 C 
ATOM     31  O   UNL     1     125.147 135.352 110.526  1.00  0.00    -0.550 OA
ATOM     32  O   UNL     1     126.018 135.751 108.458  1.00  0.00    -0.550 OA
ENDBRANCH   1  30
BRANCH  27  33
ATOM     33  O   UNL     1     131.539 125.369 111.091  1.00  0.00    -0.393 OA
ATOM     34  H   UNL     1     130.999 124.729 111.624  1.00  0.00     0.210 HD
ENDBRANCH  27  33
TORSDOF 2
ENDMDL
MODEL 8
REMARK VINA RESULT:    -5.709      2.064      3.828
REMARK INTER + INTRA:          -6.484
REMARK INTER:                  -6.230
REMARK INTRA:                  -0.253
REMARK UNBOUND:                -0.274
REMARK SMILES C[C@H]1[C@H]2C3=CC[C@H]4[C@@]5(C)CC[C@H](O)C(C)(C)[C@H]5CC[C@]4(C)[C@@]3(C)CC[C@@]2(C(=O)[O-])CC[C@@H]1C
REMARK SMILES IDX 26 1 30 2 25 3 3 4 31 5 24 6 4 7 2 8 32 9 22 10 5 11 1 12
REMARK SMILES IDX 33 13 23 14 20 15 6 16 7 17 19 18 21 19 8 20 18 21 17 22
REMARK SMILES IDX 10 23 9 24 14 25 11 26 12 27 15 28 16 29 27 30 28 31 29 32
REMARK SMILES IDX 13 33
REMARK H PARENT 13 34
REMARK Flexibility Score: inf
ROOT
ATOM      1  C   UNL     1     128.913 121.622 110.117  1.00  0.00     0.017 C 
ATOM      2  C   UNL     1     127.409 121.352 109.804  1.00  0.00     0.014 C 
ATOM      3  C   UNL     1     129.006 122.959 110.884  1.00  0.00     0.014 C 
ATOM      4  C   UNL     1     129.781 121.725 108.801  1.00  0.00     0.030 C 
ATOM      5  C   UNL     1     127.239 120.469 108.572  1.00  0.00     0.004 C 
ATOM      6  C   UNL     1     130.418 123.297 111.363  1.00  0.00     0.013 C 
ATOM      7  C   UNL     1     131.084 122.546 108.959  1.00  0.00    -0.063 C 
ATOM      8  C   UNL     1     128.936 122.143 107.538  1.00  0.00    -0.003 C 
ATOM      9  C   UNL     1     127.704 121.204 107.298  1.00  0.00    -0.011 C 
ATOM     10  C   UNL     1     131.584 123.085 110.316  1.00  0.00    -0.006 C 
ATOM     11  C   UNL     1     131.926 122.599 107.898  1.00  0.00    -0.027 C 
ATOM     12  C   UNL     1     128.515 123.626 107.522  1.00  0.00     0.008 C 
ATOM     13  C   UNL     1     127.984 120.180 106.186  1.00  0.00     0.008 C 
ATOM     14  C   UNL     1     132.489 121.943 110.893  1.00  0.00     0.017 C 
ATOM     15  C   UNL     1     132.399 124.457 110.059  1.00  0.00    -0.020 C 
ATOM     16  C   UNL     1     133.175 123.441 107.809  1.00  0.00     0.032 C 
ATOM     17  C   UNL     1     133.624 124.158 109.117  1.00  0.00     0.006 C 
ATOM     18  C   UNL     1     132.975 125.040 111.383  1.00  0.00     0.008 C 
ATOM     19  C   UNL     1     131.419 125.495 109.408  1.00  0.00     0.012 C 
ATOM     20  C   UNL     1     134.724 125.306 108.906  1.00  0.00    -0.025 C 
ATOM     21  C   UNL     1     133.919 126.227 111.185  1.00  0.00     0.005 C 
ATOM     22  C   UNL     1     135.164 125.912 110.307  1.00  0.00     0.003 C 
ATOM     23  C   UNL     1     134.239 126.454 107.967  1.00  0.00     0.010 C 
ATOM     24  C   UNL     1     135.940 124.600 108.224  1.00  0.00     0.012 C 
ATOM     25  C   UNL     1     136.142 127.180 110.222  1.00  0.00    -0.006 C 
ATOM     26  C   UNL     1     135.239 127.610 107.840  1.00  0.00     0.033 C 
ATOM     27  C   UNL     1     135.588 128.226 109.200  1.00  0.00     0.120 C 
ATOM     28  C   UNL     1     137.603 126.759 109.854  1.00  0.00     0.014 C 
ATOM     29  C   UNL     1     136.258 127.891 111.606  1.00  0.00     0.014 C 
ENDROOT
BRANCH   1  30
ATOM     30  C   UNL     1     129.376 120.473 111.013  1.00  0.00     0.048 C 
ATOM     31  O   UNL     1     130.157 119.585 110.578  1.00  0.00    -0.550 OA
ATOM     32  O   UNL     1     128.841 120.318 112.287  1.00  0.00    -0.550 OA
ENDBRANCH   1  30
BRANCH  27  33
ATOM     33  O   UNL     1     136.520 129.261 108.991  1.00  0.00    -0.393 OA
ATOM     34  H   UNL     1     137.340 128.850 108.610  1.00  0.00     0.210 HD
ENDBRANCH  27  33
TORSDOF 2
ENDMDL
