MODEL 1
REMARK VINA RESULT:    -5.201      0.000      0.000
REMARK INTER + INTRA:         -10.622
REMARK INTER:                  -8.850
REMARK INTRA:                  -1.772
REMARK UNBOUND:                -1.772
REMARK SMILES CCCCCCCCCCCCCC(=O)[O-]
REMARK SMILES IDX 8 1 9 2 10 3 11 4 12 5 13 6 14 7 15 8 16 9 7 10 6 11 5 12
REMARK SMILES IDX 4 13 3 14 2 15 1 16
REMARK H PARENT
REMARK Flexibility Score: inf
ROOT
ATOM      1  C   UNL     1      61.550   1.706  19.849  1.00  0.00     0.000 C 
ENDROOT
BRANCH   1   2
ATOM      2  C   UNL     1      61.445   3.237  19.813  1.00  0.00     0.000 C 
BRANCH   2   3
ATOM      3  C   UNL     1      61.144   3.800  21.208  1.00  0.00     0.000 C 
BRANCH   3   4
ATOM      4  C   UNL     1      62.394   4.454  21.818  1.00  0.00     0.000 C 
BRANCH   4   5
ATOM      5  C   UNL     1      63.007   3.614  22.952  1.00  0.00     0.006 C 
BRANCH   5   6
ATOM      6  C   UNL     1      64.496   3.911  23.170  1.00  0.00     0.053 C 
BRANCH   6   7
ATOM      7  C   UNL     1      65.191   2.708  23.723  1.00  0.00     0.041 C 
ATOM      8  O   UNL     1      65.973   2.823  24.703  1.00  0.00    -0.550 OA
ATOM      9  O   UNL     1      64.938   1.451  23.188  1.00  0.00    -0.550 OA
ENDBRANCH   6   7
ENDBRANCH   5   6
ENDBRANCH   4   5
ENDBRANCH   3   4
ENDBRANCH   2   3
ENDBRANCH   1   2
BRANCH   1  10
ATOM     10  C   UNL     1      62.928   1.214  20.322  1.00  0.00     0.000 C 
BRANCH  10  11
ATOM     11  C   UNL     1      64.013   1.367  19.242  1.00  0.00    -0.000 C 
BRANCH  11  12
ATOM     12  C   UNL     1      64.970   2.537  19.529  1.00  0.00    -0.000 C 
BRANCH  12  13
ATOM     13  C   UNL     1      65.113   3.487  18.327  1.00  0.00    -0.000 C 
BRANCH  13  14
ATOM     14  C   UNL     1      64.884   4.960  18.709  1.00  0.00    -0.000 C 
BRANCH  14  15
ATOM     15  C   UNL     1      65.520   5.329  20.057  1.00  0.00    -0.003 C 
ATOM     16  C   UNL     1      65.419   6.829  20.320  1.00  0.00     0.004 C 
ENDBRANCH  14  15
ENDBRANCH  13  14
ENDBRANCH  12  13
ENDBRANCH  11  12
ENDBRANCH  10  11
ENDBRANCH   1  10
TORSDOF 12
ENDMDL
MODEL 2
REMARK VINA RESULT:    -5.180      2.009      3.414
REMARK INTER + INTRA:         -10.586
REMARK INTER:                  -8.949
REMARK INTRA:                  -1.637
REMARK UNBOUND:                -1.772
REMARK SMILES CCCCCCCCCCCCCC(=O)[O-]
REMARK SMILES IDX 8 1 9 2 10 3 11 4 12 5 13 6 14 7 15 8 16 9 7 10 6 11 5 12
REMARK SMILES IDX 4 13 3 14 2 15 1 16
REMARK H PARENT
REMARK Flexibility Score: inf
ROOT
ATOM      1  C   UNL     1      62.045   4.288  21.955  1.00  0.00     0.000 C 
ENDROOT
BRANCH   1   2
ATOM      2  C   UNL     1      62.423   3.164  22.931  1.00  0.00     0.000 C 
BRANCH   2   3
ATOM      3  C   UNL     1      63.910   3.233  23.299  1.00  0.00     0.000 C 
BRANCH   3   4
ATOM      4  C   UNL     1      64.590   4.430  22.617  1.00  0.00     0.000 C 
BRANCH   4   5
ATOM      5  C   UNL     1      66.001   4.700  23.165  1.00  0.00     0.006 C 
BRANCH   5   6
ATOM      6  C   UNL     1      66.093   4.506  24.684  1.00  0.00     0.053 C 
BRANCH   6   7
ATOM      7  C   UNL     1      67.489   4.759  25.159  1.00  0.00     0.041 C 
ATOM      8  O   UNL     1      68.402   5.018  24.330  1.00  0.00    -0.550 OA
ATOM      9  O   UNL     1      67.772   4.759  26.518  1.00  0.00    -0.550 OA
ENDBRANCH   6   7
ENDBRANCH   5   6
ENDBRANCH   4   5
ENDBRANCH   3   4
ENDBRANCH   2   3
ENDBRANCH   1   2
BRANCH   1  10
ATOM     10  C   UNL     1      60.875   3.909  21.033  1.00  0.00     0.000 C 
BRANCH  10  11
ATOM     11  C   UNL     1      60.910   2.429  20.612  1.00  0.00    -0.000 C 
BRANCH  11  12
ATOM     12  C   UNL     1      61.829   2.181  19.404  1.00  0.00    -0.000 C 
BRANCH  12  13
ATOM     13  C   UNL     1      62.967   1.195  19.724  1.00  0.00    -0.000 C 
BRANCH  13  14
ATOM     14  C   UNL     1      64.344   1.879  19.766  1.00  0.00    -0.000 C 
BRANCH  14  15
ATOM     15  C   UNL     1      64.326   3.288  19.157  1.00  0.00    -0.003 C 
ATOM     16  C   UNL     1      65.563   3.530  18.295  1.00  0.00     0.004 C 
ENDBRANCH  14  15
ENDBRANCH  13  14
ENDBRANCH  12  13
ENDBRANCH  11  12
ENDBRANCH  10  11
ENDBRANCH   1  10
TORSDOF 12
ENDMDL
MODEL 3
REMARK VINA RESULT:    -5.010      1.365      3.734
REMARK INTER + INTRA:         -10.296
REMARK INTER:                  -8.916
REMARK INTRA:                  -1.380
REMARK UNBOUND:                -1.772
REMARK SMILES CCCCCCCCCCCCCC(=O)[O-]
REMARK SMILES IDX 8 1 9 2 10 3 11 4 12 5 13 6 14 7 15 8 16 9 7 10 6 11 5 12
REMARK SMILES IDX 4 13 3 14 2 15 1 16
REMARK H PARENT
REMARK Flexibility Score: inf
ROOT
ATOM      1  C   UNL     1      65.068   2.959  18.780  1.00  0.00     0.000 C 
ENDROOT
BRANCH   1   2
ATOM      2  C   UNL     1      65.039   4.442  19.175  1.00  0.00     0.000 C 
BRANCH   2   3
ATOM      3  C   UNL     1      66.076   4.741  20.266  1.00  0.00     0.000 C 
BRANCH   3   4
ATOM      4  C   UNL     1      65.422   5.438  21.469  1.00  0.00     0.000 C 
BRANCH   4   5
ATOM      5  C   UNL     1      65.022   4.451  22.578  1.00  0.00     0.006 C 
BRANCH   5   6
ATOM      6  C   UNL     1      65.760   4.712  23.898  1.00  0.00     0.053 C 
BRANCH   6   7
ATOM      7  C   UNL     1      67.086   4.020  23.899  1.00  0.00     0.041 C 
ATOM      8  O   UNL     1      67.223   2.913  23.313  1.00  0.00    -0.550 OA
ATOM      9  O   UNL     1      68.183   4.619  24.505  1.00  0.00    -0.550 OA
ENDBRANCH   6   7
ENDBRANCH   5   6
ENDBRANCH   4   5
ENDBRANCH   3   4
ENDBRANCH   2   3
ENDBRANCH   1   2
BRANCH   1  10
ATOM     10  C   UNL     1      64.351   2.057  19.798  1.00  0.00     0.000 C 
BRANCH  10  11
ATOM     11  C   UNL     1      63.221   1.229  19.161  1.00  0.00    -0.000 C 
BRANCH  11  12
ATOM     12  C   UNL     1      61.838   1.577  19.737  1.00  0.00    -0.000 C 
BRANCH  12  13
ATOM     13  C   UNL     1      61.504   3.073  19.603  1.00  0.00    -0.000 C 
BRANCH  13  14
ATOM     14  C   UNL     1      61.105   3.711  20.944  1.00  0.00    -0.000 C 
BRANCH  14  15
ATOM     15  C   UNL     1      60.938   2.677  22.067  1.00  0.00    -0.003 C 
ATOM     16  C   UNL     1      61.885   2.968  23.227  1.00  0.00     0.004 C 
ENDBRANCH  14  15
ENDBRANCH  13  14
ENDBRANCH  12  13
ENDBRANCH  11  12
ENDBRANCH  10  11
ENDBRANCH   1  10
TORSDOF 12
ENDMDL
MODEL 4
REMARK VINA RESULT:    -4.920      2.143      3.983
REMARK INTER + INTRA:         -10.144
REMARK INTER:                  -8.519
REMARK INTRA:                  -1.625
REMARK UNBOUND:                -1.772
REMARK SMILES CCCCCCCCCCCCCC(=O)[O-]
REMARK SMILES IDX 8 1 9 2 10 3 11 4 12 5 13 6 14 7 15 8 16 9 7 10 6 11 5 12
REMARK SMILES IDX 4 13 3 14 2 15 1 16
REMARK H PARENT
REMARK Flexibility Score: inf
ROOT
ATOM      1  C   UNL     1      62.625   4.252  22.786  1.00  0.00     0.000 C 
ENDROOT
BRANCH   1   2
ATOM      2  C   UNL     1      64.152   4.092  22.807  1.00  0.00     0.000 C 
BRANCH   2   3
ATOM      3  C   UNL     1      64.548   2.613  22.905  1.00  0.00     0.000 C 
BRANCH   3   4
ATOM      4  C   UNL     1      66.014   2.465  23.339  1.00  0.00     0.000 C 
BRANCH   4   5
ATOM      5  C   UNL     1      66.932   3.515  22.691  1.00  0.00     0.006 C 
BRANCH   5   6
ATOM      6  C   UNL     1      68.343   3.520  23.293  1.00  0.00     0.053 C 
BRANCH   6   7
ATOM      7  C   UNL     1      68.654   4.859  23.881  1.00  0.00     0.041 C 
ATOM      8  O   UNL     1      67.829   5.805  23.775  1.00  0.00    -0.550 OA
ATOM      9  O   UNL     1      69.833   5.051  24.591  1.00  0.00    -0.550 OA
ENDBRANCH   6   7
ENDBRANCH   5   6
ENDBRANCH   4   5
ENDBRANCH   3   4
ENDBRANCH   2   3
ENDBRANCH   1   2
BRANCH   1  10
ATOM     10  C   UNL     1      61.887   2.910  22.651  1.00  0.00     0.000 C 
BRANCH  10  11
ATOM     11  C   UNL     1      60.913   2.887  21.461  1.00  0.00    -0.000 C 
BRANCH  11  12
ATOM     12  C   UNL     1      61.638   2.820  20.106  1.00  0.00    -0.000 C 
BRANCH  12  13
ATOM     13  C   UNL     1      62.387   1.491  19.905  1.00  0.00    -0.000 C 
BRANCH  13  14
ATOM     14  C   UNL     1      63.832   1.696  19.420  1.00  0.00    -0.000 C 
BRANCH  14  15
ATOM     15  C   UNL     1      64.163   3.170  19.146  1.00  0.00    -0.003 C 
ATOM     16  C   UNL     1      65.618   3.336  18.714  1.00  0.00     0.004 C 
ENDBRANCH  14  15
ENDBRANCH  13  14
ENDBRANCH  12  13
ENDBRANCH  11  12
ENDBRANCH  10  11
ENDBRANCH   1  10
TORSDOF 12
ENDMDL
MODEL 5
REMARK VINA RESULT:    -4.867     10.412     12.584
REMARK INTER + INTRA:         -10.053
REMARK INTER:                  -8.337
REMARK INTRA:                  -1.716
REMARK UNBOUND:                -1.772
REMARK SMILES CCCCCCCCCCCCCC(=O)[O-]
REMARK SMILES IDX 8 1 9 2 10 3 11 4 12 5 13 6 14 7 15 8 16 9 7 10 6 11 5 12
REMARK SMILES IDX 4 13 3 14 2 15 1 16
REMARK H PARENT
REMARK Flexibility Score: inf
ROOT
ATOM      1  C   UNL     1      78.068   5.869  20.950  1.00  0.00     0.000 C 
ENDROOT
BRANCH   1   2
ATOM      2  C   UNL     1      77.844   6.933  22.034  1.00  0.00     0.000 C 
BRANCH   2   3
ATOM      3  C   UNL     1      76.391   7.423  22.031  1.00  0.00     0.000 C 
BRANCH   3   4
ATOM      4  C   UNL     1      75.551   6.645  21.007  1.00  0.00     0.000 C 
BRANCH   4   5
ATOM      5  C   UNL     1      74.064   7.038  21.039  1.00  0.00     0.006 C 
BRANCH   5   6
ATOM      6  C   UNL     1      73.340   6.724  19.724  1.00  0.00     0.053 C 
BRANCH   6   7
ATOM      7  C   UNL     1      71.862   6.882  19.893  1.00  0.00     0.041 C 
ATOM      8  O   UNL     1      71.182   7.465  19.007  1.00  0.00    -0.550 OA
ATOM      9  O   UNL     1      71.227   6.342  21.004  1.00  0.00    -0.550 OA
ENDBRANCH   6   7
ENDBRANCH   5   6
ENDBRANCH   4   5
ENDBRANCH   3   4
ENDBRANCH   2   3
ENDBRANCH   1   2
BRANCH   1  10
ATOM     10  C   UNL     1      79.002   4.738  21.410  1.00  0.00     0.000 C 
BRANCH  10  11
ATOM     11  C   UNL     1      78.268   3.396  21.577  1.00  0.00    -0.000 C 
BRANCH  11  12
ATOM     12  C   UNL     1      77.397   3.354  22.844  1.00  0.00    -0.000 C 
BRANCH  12  13
ATOM     13  C   UNL     1      75.894   3.271  22.522  1.00  0.00    -0.000 C 
BRANCH  13  14
ATOM     14  C   UNL     1      75.623   2.726  21.109  1.00  0.00    -0.000 C 
BRANCH  14  15
ATOM     15  C   UNL     1      74.205   3.042  20.613  1.00  0.00    -0.003 C 
ATOM     16  C   UNL     1      73.228   3.162  21.780  1.00  0.00     0.004 C 
ENDBRANCH  14  15
ENDBRANCH  13  14
ENDBRANCH  12  13
ENDBRANCH  11  12
ENDBRANCH  10  11
ENDBRANCH   1  10
TORSDOF 12
ENDMDL
MODEL 6
REMARK VINA RESULT:    -4.846     10.151     11.919
REMARK INTER + INTRA:         -10.017
REMARK INTER:                  -8.512
REMARK INTRA:                  -1.505
REMARK UNBOUND:                -1.772
REMARK SMILES CCCCCCCCCCCCCC(=O)[O-]
REMARK SMILES IDX 8 1 9 2 10 3 11 4 12 5 13 6 14 7 15 8 16 9 7 10 6 11 5 12
REMARK SMILES IDX 4 13 3 14 2 15 1 16
REMARK H PARENT
REMARK Flexibility Score: inf
ROOT
ATOM      1  C   UNL     1      77.341   2.861  21.314  1.00  0.00     0.000 C 
ENDROOT
BRANCH   1   2
ATOM      2  C   UNL     1      75.872   2.562  21.645  1.00  0.00     0.000 C 
BRANCH   2   3
ATOM      3  C   UNL     1      75.018   2.522  20.371  1.00  0.00     0.000 C 
BRANCH   3   4
ATOM      4  C   UNL     1      73.521   2.484  20.714  1.00  0.00     0.000 C 
BRANCH   4   5
ATOM      5  C   UNL     1      73.216   3.081  22.098  1.00  0.00     0.006 C 
BRANCH   5   6
ATOM      6  C   UNL     1      71.751   2.895  22.513  1.00  0.00     0.053 C 
BRANCH   6   7
ATOM      7  C   UNL     1      71.037   4.209  22.504  1.00  0.00     0.041 C 
ATOM      8  O   UNL     1      71.058   4.934  21.474  1.00  0.00    -0.550 OA
ATOM      9  O   UNL     1      70.306   4.611  23.615  1.00  0.00    -0.550 OA
ENDBRANCH   6   7
ENDBRANCH   5   6
ENDBRANCH   4   5
ENDBRANCH   3   4
ENDBRANCH   2   3
ENDBRANCH   1   2
BRANCH   1  10
ATOM     10  C   UNL     1      78.128   3.389  22.524  1.00  0.00     0.000 C 
BRANCH  10  11
ATOM     11  C   UNL     1      79.080   4.540  22.154  1.00  0.00    -0.000 C 
BRANCH  11  12
ATOM     12  C   UNL     1      78.438   5.548  21.185  1.00  0.00    -0.000 C 
BRANCH  12  13
ATOM     13  C   UNL     1      78.028   6.856  21.884  1.00  0.00    -0.000 C 
BRANCH  13  14
ATOM     14  C   UNL     1      76.537   7.184  21.694  1.00  0.00    -0.000 C 
BRANCH  14  15
ATOM     15  C   UNL     1      75.836   6.218  20.728  1.00  0.00    -0.003 C 
ATOM     16  C   UNL     1      74.320   6.268  20.906  1.00  0.00     0.004 C 
ENDBRANCH  14  15
ENDBRANCH  13  14
ENDBRANCH  12  13
ENDBRANCH  11  12
ENDBRANCH  10  11
ENDBRANCH   1  10
TORSDOF 12
ENDMDL
MODEL 7
REMARK VINA RESULT:    -4.815     12.271     14.188
REMARK INTER + INTRA:          -9.965
REMARK INTER:                  -8.128
REMARK INTRA:                  -1.837
REMARK UNBOUND:                -1.772
REMARK SMILES CCCCCCCCCCCCCC(=O)[O-]
REMARK SMILES IDX 8 1 9 2 10 3 11 4 12 5 13 6 14 7 15 8 16 9 7 10 6 11 5 12
REMARK SMILES IDX 4 13 3 14 2 15 1 16
REMARK H PARENT
REMARK Flexibility Score: inf
ROOT
ATOM      1  C   UNL     1      77.896   6.880  21.899  1.00  0.00     0.000 C 
ENDROOT
BRANCH   1   2
ATOM      2  C   UNL     1      76.400   7.227  21.915  1.00  0.00     0.000 C 
BRANCH   2   3
ATOM      3  C   UNL     1      75.772   6.887  23.273  1.00  0.00     0.000 C 
BRANCH   3   4
ATOM      4  C   UNL     1      76.854   6.711  24.350  1.00  0.00     0.000 C 
BRANCH   4   5
ATOM      5  C   UNL     1      76.664   7.665  25.541  1.00  0.00     0.006 C 
BRANCH   5   6
ATOM      6  C   UNL     1      77.854   8.613  25.736  1.00  0.00     0.053 C 
BRANCH   6   7
ATOM      7  C   UNL     1      78.023   9.490  24.536  1.00  0.00     0.041 C 
ATOM      8  O   UNL     1      77.078  10.229  24.153  1.00  0.00    -0.550 OA
ATOM      9  O   UNL     1      79.242   9.529  23.870  1.00  0.00    -0.550 OA
ENDBRANCH   6   7
ENDBRANCH   5   6
ENDBRANCH   4   5
ENDBRANCH   3   4
ENDBRANCH   2   3
ENDBRANCH   1   2
BRANCH   1  10
ATOM     10  C   UNL     1      78.252   5.829  20.834  1.00  0.00     0.000 C 
BRANCH  10  11
ATOM     11  C   UNL     1      78.857   4.552  21.443  1.00  0.00    -0.000 C 
BRANCH  11  12
ATOM     12  C   UNL     1      77.887   3.359  21.395  1.00  0.00    -0.000 C 
BRANCH  12  13
ATOM     13  C   UNL     1      77.066   3.215  22.688  1.00  0.00    -0.000 C 
BRANCH  13  14
ATOM     14  C   UNL     1      75.559   3.412  22.455  1.00  0.00    -0.000 C 
BRANCH  14  15
ATOM     15  C   UNL     1      75.190   3.460  20.965  1.00  0.00    -0.003 C 
ATOM     16  C   UNL     1      74.343   2.254  20.569  1.00  0.00     0.004 C 
ENDBRANCH  14  15
ENDBRANCH  13  14
ENDBRANCH  12  13
ENDBRANCH  11  12
ENDBRANCH  10  11
ENDBRANCH   1  10
TORSDOF 12
ENDMDL
MODEL 8
REMARK VINA RESULT:    -4.806      2.462      4.263
REMARK INTER + INTRA:          -9.949
REMARK INTER:                  -8.420
REMARK INTRA:                  -1.529
REMARK UNBOUND:                -1.772
REMARK SMILES CCCCCCCCCCCCCC(=O)[O-]
REMARK SMILES IDX 8 1 9 2 10 3 11 4 12 5 13 6 14 7 15 8 16 9 7 10 6 11 5 12
REMARK SMILES IDX 4 13 3 14 2 15 1 16
REMARK H PARENT
REMARK Flexibility Score: inf
ROOT
ATOM      1  C   UNL     1      62.784   4.132  22.752  1.00  0.00     0.000 C 
ENDROOT
BRANCH   1   2
ATOM      2  C   UNL     1      62.000   2.875  23.157  1.00  0.00     0.000 C 
BRANCH   2   3
ATOM      3  C   UNL     1      60.908   2.553  22.130  1.00  0.00     0.000 C 
BRANCH   3   4
ATOM      4  C   UNL     1      60.974   3.519  20.937  1.00  0.00     0.000 C 
BRANCH   4   5
ATOM      5  C   UNL     1      61.294   2.804  19.614  1.00  0.00     0.006 C 
BRANCH   5   6
ATOM      6  C   UNL     1      62.021   1.470  19.823  1.00  0.00     0.053 C 
BRANCH   6   7
ATOM      7  C   UNL     1      63.480   1.621  19.532  1.00  0.00     0.041 C 
ATOM      8  O   UNL     1      64.249   0.625  19.611  1.00  0.00    -0.550 OA
ATOM      9  O   UNL     1      63.986   2.849  19.125  1.00  0.00    -0.550 OA
ENDBRANCH   6   7
ENDBRANCH   5   6
ENDBRANCH   4   5
ENDBRANCH   3   4
ENDBRANCH   2   3
ENDBRANCH   1   2
BRANCH   1  10
ATOM     10  C   UNL     1      64.282   3.858  22.544  1.00  0.00     0.000 C 
BRANCH  10  11
ATOM     11  C   UNL     1      64.696   2.451  23.008  1.00  0.00    -0.000 C 
BRANCH  11  12
ATOM     12  C   UNL     1      65.744   2.486  24.134  1.00  0.00    -0.000 C 
BRANCH  12  13
ATOM     13  C   UNL     1      66.455   3.847  24.233  1.00  0.00    -0.000 C 
BRANCH  13  14
ATOM     14  C   UNL     1      67.861   3.824  23.609  1.00  0.00    -0.000 C 
BRANCH  14  15
ATOM     15  C   UNL     1      67.976   4.725  22.371  1.00  0.00    -0.003 C 
ATOM     16  C   UNL     1      67.489   6.140  22.674  1.00  0.00     0.004 C 
ENDBRANCH  14  15
ENDBRANCH  13  14
ENDBRANCH  12  13
ENDBRANCH  11  12
ENDBRANCH  10  11
ENDBRANCH   1  10
TORSDOF 12
ENDMDL
MODEL 9
REMARK VINA RESULT:    -4.796      1.775      3.866
REMARK INTER + INTRA:          -9.932
REMARK INTER:                  -7.912
REMARK INTRA:                  -2.021
REMARK UNBOUND:                -1.772
REMARK SMILES CCCCCCCCCCCCCC(=O)[O-]
REMARK SMILES IDX 8 1 9 2 10 3 11 4 12 5 13 6 14 7 15 8 16 9 7 10 6 11 5 12
REMARK SMILES IDX 4 13 3 14 2 15 1 16
REMARK H PARENT
REMARK Flexibility Score: inf
ROOT
ATOM      1  C   UNL     1      64.326   4.854  20.777  1.00  0.00     0.000 C 
ENDROOT
BRANCH   1   2
ATOM      2  C   UNL     1      64.533   4.725  22.293  1.00  0.00     0.000 C 
BRANCH   2   3
ATOM      3  C   UNL     1      63.898   3.434  22.825  1.00  0.00     0.000 C 
BRANCH   3   4
ATOM      4  C   UNL     1      64.955   2.331  22.991  1.00  0.00     0.000 C 
BRANCH   4   5
ATOM      5  C   UNL     1      66.059   2.714  23.991  1.00  0.00     0.006 C 
BRANCH   5   6
ATOM      6  C   UNL     1      67.451   2.752  23.349  1.00  0.00     0.053 C 
BRANCH   6   7
ATOM      7  C   UNL     1      68.015   4.136  23.408  1.00  0.00     0.041 C 
ATOM      8  O   UNL     1      68.294   4.752  22.345  1.00  0.00    -0.550 OA
ATOM      9  O   UNL     1      68.186   4.766  24.634  1.00  0.00    -0.550 OA
ENDBRANCH   6   7
ENDBRANCH   5   6
ENDBRANCH   4   5
ENDBRANCH   3   4
ENDBRANCH   2   3
ENDBRANCH   1   2
BRANCH   1  10
ATOM     10  C   UNL     1      65.618   4.620  19.977  1.00  0.00     0.000 C 
BRANCH  10  11
ATOM     11  C   UNL     1      65.608   3.282  19.217  1.00  0.00    -0.000 C 
BRANCH  11  12
ATOM     12  C   UNL     1      64.186   2.812  18.869  1.00  0.00    -0.000 C 
BRANCH  12  13
ATOM     13  C   UNL     1      63.827   1.475  19.542  1.00  0.00    -0.000 C 
BRANCH  13  14
ATOM     14  C   UNL     1      62.361   1.422  20.003  1.00  0.00    -0.000 C 
BRANCH  14  15
ATOM     15  C   UNL     1      61.551   2.643  19.547  1.00  0.00    -0.003 C 
ATOM     16  C   UNL     1      60.878   3.331  20.733  1.00  0.00     0.004 C 
ENDBRANCH  14  15
ENDBRANCH  13  14
ENDBRANCH  12  13
ENDBRANCH  11  12
ENDBRANCH  10  11
ENDBRANCH   1  10
TORSDOF 12
ENDMDL
