MODEL 1
REMARK VINA RESULT:    -3.202      0.000      0.000
REMARK INTER + INTRA:          -3.295
REMARK INTER:                  -3.295
REMARK INTRA:                   0.000
REMARK UNBOUND:                 0.000
REMARK SMILES CC1(C)[C@H]2CC[C@](C)(C2)[C@H]1O
REMARK SMILES IDX 1 1 2 2 4 3 5 4 6 5 7 6 9 7 10 8 8 9 3 10 11 11
REMARK H PARENT 11 12
REMARK Flexibility Score: inf
ROOT
ATOM      1  C   UNL     1     161.695 174.506 170.868  1.00  0.00     0.014 C 
ATOM      2  C   UNL     1     162.924 173.594 170.621  1.00  0.00    -0.006 C 
ATOM      3  C   UNL     1     162.782 172.173 171.270  1.00  0.00    -0.002 C 
ATOM      4  C   UNL     1     161.426 171.528 170.913  1.00  0.00     0.005 C 
ATOM      5  C   UNL     1     161.562 171.262 169.406  1.00  0.00     0.010 C 
ATOM      6  C   UNL     1     163.021 171.686 169.115  1.00  0.00    -0.006 C 
ATOM      7  C   UNL     1     163.707 171.325 170.414  1.00  0.00     0.013 C 
ATOM      8  C   UNL     1     163.144 173.234 169.115  1.00  0.00     0.126 C 
ATOM      9  C   UNL     1     163.631 171.007 167.882  1.00  0.00     0.014 C 
ATOM     10  C   UNL     1     164.160 174.323 171.205  1.00  0.00     0.014 C 
ENDROOT
BRANCH   8  11
ATOM     11  O   UNL     1     162.201 173.839 168.265  1.00  0.00    -0.392 OA
ATOM     12  H   UNL     1     162.248 174.816 168.437  1.00  0.00     0.211 HD
ENDBRANCH   8  11
TORSDOF 1
ENDMDL
MODEL 2
REMARK VINA RESULT:    -3.178     14.011     15.404
REMARK INTER + INTRA:          -3.271
REMARK INTER:                  -3.271
REMARK INTRA:                   0.000
REMARK UNBOUND:                 0.000
REMARK SMILES CC1(C)[C@H]2CC[C@](C)(C2)[C@H]1O
REMARK SMILES IDX 1 1 2 2 4 3 5 4 6 5 7 6 9 7 10 8 8 9 3 10 11 11
REMARK H PARENT 11 12
REMARK Flexibility Score: inf
ROOT
ATOM      1  C   UNL     1     167.778 159.978 168.359  1.00  0.00     0.014 C 
ATOM      2  C   UNL     1     168.211 159.581 169.794  1.00  0.00    -0.006 C 
ATOM      3  C   UNL     1     167.843 158.103 170.166  1.00  0.00    -0.002 C 
ATOM      4  C   UNL     1     168.299 157.120 169.067  1.00  0.00     0.005 C 
ATOM      5  C   UNL     1     169.831 157.183 169.167  1.00  0.00     0.010 C 
ATOM      6  C   UNL     1     170.055 158.109 170.385  1.00  0.00    -0.006 C 
ATOM      7  C   UNL     1     168.858 157.772 171.247  1.00  0.00     0.013 C 
ATOM      8  C   UNL     1     169.761 159.585 170.004  1.00  0.00     0.126 C 
ATOM      9  C   UNL     1     171.402 157.897 171.087  1.00  0.00     0.014 C 
ATOM     10  C   UNL     1     167.515 160.563 170.770  1.00  0.00     0.014 C 
ENDROOT
BRANCH   8  11
ATOM     11  O   UNL     1     170.468 159.985 168.855  1.00  0.00    -0.392 OA
ATOM     12  H   UNL     1     170.068 160.844 168.560  1.00  0.00     0.211 HD
ENDBRANCH   8  11
TORSDOF 1
ENDMDL
MODEL 3
REMARK VINA RESULT:    -3.175     13.960     15.445
REMARK INTER + INTRA:          -3.268
REMARK INTER:                  -3.268
REMARK INTRA:                   0.000
REMARK UNBOUND:                 0.000
REMARK SMILES CC1(C)[C@H]2CC[C@](C)(C2)[C@H]1O
REMARK SMILES IDX 1 1 2 2 4 3 5 4 6 5 7 6 9 7 10 8 8 9 3 10 11 11
REMARK H PARENT 11 12
REMARK Flexibility Score: inf
ROOT
ATOM      1  C   UNL     1     169.807 156.807 170.955  1.00  0.00     0.014 C 
ATOM      2  C   UNL     1     168.505 157.615 170.715  1.00  0.00    -0.006 C 
ATOM      3  C   UNL     1     168.537 159.046 171.355  1.00  0.00    -0.002 C 
ATOM      4  C   UNL     1     169.833 159.797 170.982  1.00  0.00     0.005 C 
ATOM      5  C   UNL     1     169.662 160.043 169.475  1.00  0.00     0.010 C 
ATOM      6  C   UNL     1     168.240 159.500 169.200  1.00  0.00    -0.006 C 
ATOM      7  C   UNL     1     167.538 159.811 170.504  1.00  0.00     0.013 C 
ATOM      8  C   UNL     1     168.243 157.947 169.208  1.00  0.00     0.126 C 
ATOM      9  C   UNL     1     167.566 160.119 167.970  1.00  0.00     0.014 C 
ATOM     10  C   UNL     1     167.338 156.791 171.314  1.00  0.00     0.014 C 
ENDROOT
BRANCH   8  11
ATOM     11  O   UNL     1     169.225 157.415 168.353  1.00  0.00    -0.392 OA
ATOM     12  H   UNL     1     168.826 157.388 167.444  1.00  0.00     0.211 HD
ENDBRANCH   8  11
TORSDOF 1
ENDMDL
MODEL 4
REMARK VINA RESULT:    -3.171      1.494      3.319
REMARK INTER + INTRA:          -3.263
REMARK INTER:                  -3.263
REMARK INTRA:                   0.000
REMARK UNBOUND:                 0.000
REMARK SMILES CC1(C)[C@H]2CC[C@](C)(C2)[C@H]1O
REMARK SMILES IDX 1 1 2 2 4 3 5 4 6 5 7 6 9 7 10 8 8 9 3 10 11 11
REMARK H PARENT 11 12
REMARK Flexibility Score: inf
ROOT
ATOM      1  C   UNL     1     163.396 171.230 168.355  1.00  0.00     0.014 C 
ATOM      2  C   UNL     1     162.975 171.631 169.793  1.00  0.00    -0.006 C 
ATOM      3  C   UNL     1     163.337 173.113 170.155  1.00  0.00    -0.002 C 
ATOM      4  C   UNL     1     162.864 174.088 169.056  1.00  0.00     0.005 C 
ATOM      5  C   UNL     1     161.333 174.016 169.172  1.00  0.00     0.010 C 
ATOM      6  C   UNL     1     161.127 173.094 170.396  1.00  0.00    -0.006 C 
ATOM      7  C   UNL     1     162.331 173.442 171.245  1.00  0.00     0.013 C 
ATOM      8  C   UNL     1     161.426 171.618 170.018  1.00  0.00     0.126 C 
ATOM      9  C   UNL     1     159.786 173.300 171.109  1.00  0.00     0.014 C 
ATOM     10  C   UNL     1     163.686 170.658 170.767  1.00  0.00     0.014 C 
ENDROOT
BRANCH   8  11
ATOM     11  O   UNL     1     160.712 171.209 168.878  1.00  0.00    -0.392 OA
ATOM     12  H   UNL     1     161.344 170.689 168.317  1.00  0.00     0.211 HD
ENDBRANCH   8  11
TORSDOF 1
ENDMDL
MODEL 5
REMARK VINA RESULT:    -3.074      1.226      2.078
REMARK INTER + INTRA:          -3.164
REMARK INTER:                  -3.164
REMARK INTRA:                   0.000
REMARK UNBOUND:                 0.000
REMARK SMILES CC1(C)[C@H]2CC[C@](C)(C2)[C@H]1O
REMARK SMILES IDX 1 1 2 2 4 3 5 4 6 5 7 6 9 7 10 8 8 9 3 10 11 11
REMARK H PARENT 11 12
REMARK Flexibility Score: inf
ROOT
ATOM      1  C   UNL     1     160.009 173.425 171.125  1.00  0.00     0.014 C 
ATOM      2  C   UNL     1     161.347 174.150 170.827  1.00  0.00    -0.006 C 
ATOM      3  C   UNL     1     162.610 173.300 171.203  1.00  0.00    -0.002 C 
ATOM      4  C   UNL     1     162.515 171.872 170.624  1.00  0.00     0.005 C 
ATOM      5  C   UNL     1     162.634 172.109 169.110  1.00  0.00     0.010 C 
ATOM      6  C   UNL     1     162.894 173.632 169.023  1.00  0.00    -0.006 C 
ATOM      7  C   UNL     1     163.680 173.879 170.293  1.00  0.00     0.013 C 
ATOM      8  C   UNL     1     161.587 174.421 169.305  1.00  0.00     0.126 C 
ATOM      9  C   UNL     1     163.626 174.064 167.747  1.00  0.00     0.014 C 
ATOM     10  C   UNL     1     161.339 175.474 171.633  1.00  0.00     0.014 C 
ENDROOT
BRANCH   8  11
ATOM     11  O   UNL     1     160.521 173.984 168.497  1.00  0.00    -0.392 OA
ATOM     12  H   UNL     1     160.015 173.318 169.031  1.00  0.00     0.211 HD
ENDBRANCH   8  11
TORSDOF 1
ENDMDL
MODEL 6
REMARK VINA RESULT:    -2.999     14.861     16.390
REMARK INTER + INTRA:          -3.086
REMARK INTER:                  -3.086
REMARK INTRA:                   0.000
REMARK UNBOUND:                 0.000
REMARK SMILES CC1(C)[C@H]2CC[C@](C)(C2)[C@H]1O
REMARK SMILES IDX 1 1 2 2 4 3 5 4 6 5 7 6 9 7 10 8 8 9 3 10 11 11
REMARK H PARENT 11 12
REMARK Flexibility Score: inf
ROOT
ATOM      1  C   UNL     1     168.123 159.445 168.834  1.00  0.00     0.014 C 
ATOM      2  C   UNL     1     168.382 157.942 169.117  1.00  0.00    -0.006 C 
ATOM      3  C   UNL     1     169.885 157.619 169.428  1.00  0.00    -0.002 C 
ATOM      4  C   UNL     1     170.454 158.578 170.496  1.00  0.00     0.005 C 
ATOM      5  C   UNL     1     169.691 158.165 171.765  1.00  0.00     0.010 C 
ATOM      6  C   UNL     1     168.864 156.949 171.285  1.00  0.00    -0.006 C 
ATOM      7  C   UNL     1     169.787 156.345 170.249  1.00  0.00     0.013 C 
ATOM      8  C   UNL     1     167.671 157.418 170.409  1.00  0.00     0.126 C 
ATOM      9  C   UNL     1     168.476 155.981 172.409  1.00  0.00     0.014 C 
ATOM     10  C   UNL     1     167.917 157.154 167.867  1.00  0.00     0.014 C 
ENDROOT
BRANCH   8  11
ATOM     11  O   UNL     1     166.901 158.405 171.049  1.00  0.00    -0.392 OA
ATOM     12  H   UNL     1     167.006 158.260 172.025  1.00  0.00     0.211 HD
ENDBRANCH   8  11
TORSDOF 1
ENDMDL
MODEL 7
REMARK VINA RESULT:    -2.969      1.621      3.434
REMARK INTER + INTRA:          -3.056
REMARK INTER:                  -3.056
REMARK INTRA:                   0.000
REMARK UNBOUND:                 0.000
REMARK SMILES CC1(C)[C@H]2CC[C@](C)(C2)[C@H]1O
REMARK SMILES IDX 1 1 2 2 4 3 5 4 6 5 7 6 9 7 10 8 8 9 3 10 11 11
REMARK H PARENT 11 12
REMARK Flexibility Score: inf
ROOT
ATOM      1  C   UNL     1     163.068 171.677 168.932  1.00  0.00     0.014 C 
ATOM      2  C   UNL     1     162.843 173.189 169.193  1.00  0.00    -0.006 C 
ATOM      3  C   UNL     1     161.353 173.546 169.526  1.00  0.00    -0.002 C 
ATOM      4  C   UNL     1     160.786 172.617 170.621  1.00  0.00     0.005 C 
ATOM      5  C   UNL     1     161.580 173.037 171.868  1.00  0.00     0.010 C 
ATOM      6  C   UNL     1     162.421 174.228 171.352  1.00  0.00    -0.006 C 
ATOM      7  C   UNL     1     161.491 174.833 170.322  1.00  0.00     0.013 C 
ATOM      8  C   UNL     1     163.588 173.722 170.462  1.00  0.00     0.126 C 
ATOM      9  C   UNL     1     162.849 175.208 172.451  1.00  0.00     0.014 C 
ATOM     10  C   UNL     1     163.299 173.947 167.922  1.00  0.00     0.014 C 
ENDROOT
BRANCH   8  11
ATOM     11  O   UNL     1     164.351 172.730 171.105  1.00  0.00    -0.392 OA
ATOM     12  H   UNL     1     164.800 173.170 171.873  1.00  0.00     0.211 HD
ENDBRANCH   8  11
TORSDOF 1
ENDMDL
MODEL 8
REMARK VINA RESULT:    -2.894      1.372      2.811
REMARK INTER + INTRA:          -2.979
REMARK INTER:                  -2.979
REMARK INTRA:                   0.000
REMARK UNBOUND:                 0.000
REMARK SMILES CC1(C)[C@H]2CC[C@](C)(C2)[C@H]1O
REMARK SMILES IDX 1 1 2 2 4 3 5 4 6 5 7 6 9 7 10 8 8 9 3 10 11 11
REMARK H PARENT 11 12
REMARK Flexibility Score: inf
ROOT
ATOM      1  C   UNL     1     162.914 173.960 168.262  1.00  0.00     0.014 C 
ATOM      2  C   UNL     1     162.175 173.771 169.612  1.00  0.00    -0.006 C 
ATOM      3  C   UNL     1     161.450 172.385 169.734  1.00  0.00    -0.002 C 
ATOM      4  C   UNL     1     162.394 171.225 169.354  1.00  0.00     0.005 C 
ATOM      5  C   UNL     1     163.422 171.234 170.497  1.00  0.00     0.010 C 
ATOM      6  C   UNL     1     162.870 172.326 171.443  1.00  0.00    -0.006 C 
ATOM      7  C   UNL     1     161.378 172.180 171.237  1.00  0.00     0.013 C 
ATOM      8  C   UNL     1     163.132 173.738 170.850  1.00  0.00     0.126 C 
ATOM      9  C   UNL     1     163.313 172.166 172.902  1.00  0.00     0.014 C 
ATOM     10  C   UNL     1     161.145 174.921 169.736  1.00  0.00     0.014 C 
ENDROOT
BRANCH   8  11
ATOM     11  O   UNL     1     164.482 173.923 170.503  1.00  0.00    -0.392 OA
ATOM     12  H   UNL     1     164.997 173.920 171.351  1.00  0.00     0.211 HD
ENDBRANCH   8  11
TORSDOF 1
ENDMDL
MODEL 9
REMARK VINA RESULT:    -2.888     14.211     15.781
REMARK INTER + INTRA:          -2.972
REMARK INTER:                  -2.972
REMARK INTRA:                   0.000
REMARK UNBOUND:                 0.000
REMARK SMILES CC1(C)[C@H]2CC[C@](C)(C2)[C@H]1O
REMARK SMILES IDX 1 1 2 2 4 3 5 4 6 5 7 6 9 7 10 8 8 9 3 10 11 11
REMARK H PARENT 11 12
REMARK Flexibility Score: inf
ROOT
ATOM      1  C   UNL     1     168.227 157.307 168.278  1.00  0.00     0.014 C 
ATOM      2  C   UNL     1     169.003 157.472 169.610  1.00  0.00    -0.006 C 
ATOM      3  C   UNL     1     169.722 158.860 169.742  1.00  0.00    -0.002 C 
ATOM      4  C   UNL     1     168.759 160.021 169.415  1.00  0.00     0.005 C 
ATOM      5  C   UNL     1     167.765 159.979 170.586  1.00  0.00     0.010 C 
ATOM      6  C   UNL     1     168.351 158.870 171.491  1.00  0.00    -0.006 C 
ATOM      7  C   UNL     1     169.836 159.032 171.247  1.00  0.00     0.013 C 
ATOM      8  C   UNL     1     168.082 157.470 170.875  1.00  0.00     0.126 C 
ATOM      9  C   UNL     1     167.949 158.995 172.966  1.00  0.00     0.014 C 
ATOM     10  C   UNL     1     170.044 156.326 169.679  1.00  0.00     0.014 C 
ENDROOT
BRANCH   8  11
ATOM     11  O   UNL     1     166.724 157.283 170.562  1.00  0.00    -0.392 OA
ATOM     12  H   UNL     1     166.662 156.426 170.064  1.00  0.00     0.211 HD
ENDBRANCH   8  11
TORSDOF 1
ENDMDL
