MODEL 1
REMARK VINA RESULT:    -3.680      0.000      0.000
REMARK INTER + INTRA:          -8.277
REMARK INTER:                  -6.262
REMARK INTRA:                  -2.015
REMARK UNBOUND:                -2.015
REMARK SMILES CCCCCCCCCCCCCC(=O)[O-]
REMARK SMILES IDX 8 1 9 2 10 3 11 4 12 5 13 6 14 7 15 8 16 9 7 10 6 11 5 12
REMARK SMILES IDX 4 13 3 14 2 15 1 16
REMARK H PARENT
REMARK Flexibility Score: inf
ROOT
ATOM      1  C   UNL     1      -9.690  16.300  -0.614  1.00  0.00     0.000 C 
ENDROOT
BRANCH   1   2
ATOM      2  C   UNL     1      -9.053  17.210  -1.675  1.00  0.00     0.000 C 
BRANCH   2   3
ATOM      3  C   UNL     1      -8.748  16.462  -2.986  1.00  0.00     0.000 C 
BRANCH   3   4
ATOM      4  C   UNL     1      -9.337  15.043  -3.006  1.00  0.00     0.000 C 
BRANCH   4   5
ATOM      5  C   UNL     1      -8.455  14.047  -3.780  1.00  0.00     0.006 C 
BRANCH   5   6
ATOM      6  C   UNL     1      -7.052  14.607  -4.053  1.00  0.00     0.053 C 
BRANCH   6   7
ATOM      7  C   UNL     1      -6.726  14.602  -5.514  1.00  0.00     0.041 C 
ATOM      8  O   UNL     1      -7.353  15.354  -6.307  1.00  0.00    -0.550 OA
ATOM      9  O   UNL     1      -5.710  13.788  -5.997  1.00  0.00    -0.550 OA
ENDBRANCH   6   7
ENDBRANCH   5   6
ENDBRANCH   4   5
ENDBRANCH   3   4
ENDBRANCH   2   3
ENDBRANCH   1   2
BRANCH   1  10
ATOM     10  C   UNL     1      -9.577  16.877   0.808  1.00  0.00     0.000 C 
BRANCH  10  11
ATOM     11  C   UNL     1      -8.446  16.227   1.625  1.00  0.00    -0.000 C 
BRANCH  11  12
ATOM     12  C   UNL     1      -7.042  16.818   1.382  1.00  0.00    -0.000 C 
BRANCH  12  13
ATOM     13  C   UNL     1      -5.968  15.796   0.970  1.00  0.00    -0.000 C 
BRANCH  13  14
ATOM     14  C   UNL     1      -6.112  15.338  -0.491  1.00  0.00    -0.000 C 
BRANCH  14  15
ATOM     15  C   UNL     1      -6.138  13.808  -0.626  1.00  0.00    -0.003 C 
ATOM     16  C   UNL     1      -7.491  13.205  -0.248  1.00  0.00     0.004 C 
ENDBRANCH  14  15
ENDBRANCH  13  14
ENDBRANCH  12  13
ENDBRANCH  11  12
ENDBRANCH  10  11
ENDBRANCH   1  10
TORSDOF 12
ENDMDL
MODEL 2
REMARK VINA RESULT:    -3.620      3.951      6.442
REMARK INTER + INTRA:          -8.175
REMARK INTER:                  -6.256
REMARK INTRA:                  -1.919
REMARK UNBOUND:                -2.015
REMARK SMILES CCCCCCCCCCCCCC(=O)[O-]
REMARK SMILES IDX 8 1 9 2 10 3 11 4 12 5 13 6 14 7 15 8 16 9 7 10 6 11 5 12
REMARK SMILES IDX 4 13 3 14 2 15 1 16
REMARK H PARENT
REMARK Flexibility Score: inf
ROOT
ATOM      1  C   UNL     1      -6.968  13.692  -1.701  1.00  0.00     0.000 C 
ENDROOT
BRANCH   1   2
ATOM      2  C   UNL     1      -6.240  13.935  -0.368  1.00  0.00     0.000 C 
BRANCH   2   3
ATOM      3  C   UNL     1      -6.011  15.431  -0.087  1.00  0.00     0.000 C 
BRANCH   3   4
ATOM      4  C   UNL     1      -6.201  15.788   1.396  1.00  0.00     0.000 C 
BRANCH   4   5
ATOM      5  C   UNL     1      -6.485  17.285   1.613  1.00  0.00     0.006 C 
BRANCH   5   6
ATOM      6  C   UNL     1      -6.490  17.662   3.101  1.00  0.00     0.053 C 
BRANCH   6   7
ATOM      7  C   UNL     1      -7.782  18.303   3.507  1.00  0.00     0.041 C 
ATOM      8  O   UNL     1      -8.846  17.628   3.527  1.00  0.00    -0.550 OA
ATOM      9  O   UNL     1      -7.806  19.637   3.892  1.00  0.00    -0.550 OA
ENDBRANCH   6   7
ENDBRANCH   5   6
ENDBRANCH   4   5
ENDBRANCH   3   4
ENDBRANCH   2   3
ENDBRANCH   1   2
BRANCH   1  10
ATOM     10  C   UNL     1      -6.673  14.783  -2.744  1.00  0.00     0.000 C 
BRANCH  10  11
ATOM     11  C   UNL     1      -7.862  15.043  -3.686  1.00  0.00    -0.000 C 
BRANCH  11  12
ATOM     12  C   UNL     1      -9.081  15.720  -3.027  1.00  0.00    -0.000 C 
BRANCH  12  13
ATOM     13  C   UNL     1      -8.754  16.950  -2.162  1.00  0.00    -0.000 C 
BRANCH  13  14
ATOM     14  C   UNL     1      -9.424  16.900  -0.778  1.00  0.00    -0.000 C 
BRANCH  14  15
ATOM     15  C   UNL     1     -10.188  15.588  -0.543  1.00  0.00    -0.003 C 
ATOM     16  C   UNL     1      -9.701  14.835   0.695  1.00  0.00     0.004 C 
ENDBRANCH  14  15
ENDBRANCH  13  14
ENDBRANCH  12  13
ENDBRANCH  11  12
ENDBRANCH  10  11
ENDBRANCH   1  10
TORSDOF 12
ENDMDL
MODEL 3
REMARK VINA RESULT:    -3.605      0.803      1.346
REMARK INTER + INTRA:          -8.148
REMARK INTER:                  -6.161
REMARK INTRA:                  -1.987
REMARK UNBOUND:                -2.015
REMARK SMILES CCCCCCCCCCCCCC(=O)[O-]
REMARK SMILES IDX 8 1 9 2 10 3 11 4 12 5 13 6 14 7 15 8 16 9 7 10 6 11 5 12
REMARK SMILES IDX 4 13 3 14 2 15 1 16
REMARK H PARENT
REMARK Flexibility Score: inf
ROOT
ATOM      1  C   UNL     1      -8.850  17.246  -1.889  1.00  0.00     0.000 C 
ENDROOT
BRANCH   1   2
ATOM      2  C   UNL     1      -8.737  16.368  -3.145  1.00  0.00     0.000 C 
BRANCH   2   3
ATOM      3  C   UNL     1      -9.179  14.916  -2.890  1.00  0.00     0.000 C 
BRANCH   3   4
ATOM      4  C   UNL     1      -8.312  13.894  -3.642  1.00  0.00     0.000 C 
BRANCH   4   5
ATOM      5  C   UNL     1      -6.897  14.421  -3.940  1.00  0.00     0.006 C 
BRANCH   5   6
ATOM      6  C   UNL     1      -6.343  13.877  -5.264  1.00  0.00     0.053 C 
BRANCH   6   7
ATOM      7  C   UNL     1      -7.001  14.518  -6.447  1.00  0.00     0.041 C 
ATOM      8  O   UNL     1      -7.251  15.753  -6.443  1.00  0.00    -0.550 OA
ATOM      9  O   UNL     1      -7.313  13.757  -7.566  1.00  0.00    -0.550 OA
ENDBRANCH   6   7
ENDBRANCH   5   6
ENDBRANCH   4   5
ENDBRANCH   3   4
ENDBRANCH   2   3
ENDBRANCH   1   2
BRANCH   1  10
ATOM     10  C   UNL     1      -9.800  16.653  -0.835  1.00  0.00     0.000 C 
BRANCH  10  11
ATOM     11  C   UNL     1      -9.112  16.419   0.522  1.00  0.00    -0.000 C 
BRANCH  11  12
ATOM     12  C   UNL     1      -7.640  16.875   0.595  1.00  0.00    -0.000 C 
BRANCH  12  13
ATOM     13  C   UNL     1      -6.621  15.748   0.839  1.00  0.00    -0.000 C 
BRANCH  13  14
ATOM     14  C   UNL     1      -6.131  15.095  -0.464  1.00  0.00    -0.000 C 
BRANCH  14  15
ATOM     15  C   UNL     1      -6.168  13.561  -0.401  1.00  0.00    -0.003 C 
ATOM     16  C   UNL     1      -7.558  13.017  -0.068  1.00  0.00     0.004 C 
ENDBRANCH  14  15
ENDBRANCH  13  14
ENDBRANCH  12  13
ENDBRANCH  11  12
ENDBRANCH  10  11
ENDBRANCH   1  10
TORSDOF 12
ENDMDL
MODEL 4
REMARK VINA RESULT:    -3.595      3.945      6.135
REMARK INTER + INTRA:          -8.133
REMARK INTER:                  -6.552
REMARK INTRA:                  -1.581
REMARK UNBOUND:                -2.015
REMARK SMILES CCCCCCCCCCCCCC(=O)[O-]
REMARK SMILES IDX 8 1 9 2 10 3 11 4 12 5 13 6 14 7 15 8 16 9 7 10 6 11 5 12
REMARK SMILES IDX 4 13 3 14 2 15 1 16
REMARK H PARENT
REMARK Flexibility Score: inf
ROOT
ATOM      1  C   UNL     1      -8.177  15.074  -2.168  1.00  0.00     0.000 C 
ENDROOT
BRANCH   1   2
ATOM      2  C   UNL     1      -6.642  14.989  -2.162  1.00  0.00     0.000 C 
BRANCH   2   3
ATOM      3  C   UNL     1      -6.093  14.343  -0.877  1.00  0.00     0.000 C 
BRANCH   3   4
ATOM      4  C   UNL     1      -6.708  14.946   0.395  1.00  0.00     0.000 C 
BRANCH   4   5
ATOM      5  C   UNL     1      -5.767  15.943   1.094  1.00  0.00     0.006 C 
BRANCH   5   6
ATOM      6  C   UNL     1      -6.515  17.180   1.610  1.00  0.00     0.053 C 
BRANCH   6   7
ATOM      7  C   UNL     1      -6.555  17.222   3.107  1.00  0.00     0.041 C 
ATOM      8  O   UNL     1      -6.151  18.243   3.724  1.00  0.00    -0.550 OA
ATOM      9  O   UNL     1      -7.064  16.144   3.819  1.00  0.00    -0.550 OA
ENDBRANCH   6   7
ENDBRANCH   5   6
ENDBRANCH   4   5
ENDBRANCH   3   4
ENDBRANCH   2   3
ENDBRANCH   1   2
BRANCH   1  10
ATOM     10  C   UNL     1      -8.689  16.521  -2.271  1.00  0.00     0.000 C 
BRANCH  10  11
ATOM     11  C   UNL     1      -9.572  16.926  -1.077  1.00  0.00    -0.000 C 
BRANCH  11  12
ATOM     12  C   UNL     1     -10.243  15.751  -0.334  1.00  0.00    -0.000 C 
BRANCH  12  13
ATOM     13  C   UNL     1     -10.237  15.864   1.200  1.00  0.00    -0.000 C 
BRANCH  13  14
ATOM     14  C   UNL     1     -10.060  17.310   1.691  1.00  0.00    -0.000 C 
BRANCH  14  15
ATOM     15  C   UNL     1     -10.523  17.498   3.144  1.00  0.00    -0.003 C 
ATOM     16  C   UNL     1     -11.573  18.600   3.291  1.00  0.00     0.004 C 
ENDBRANCH  14  15
ENDBRANCH  13  14
ENDBRANCH  12  13
ENDBRANCH  11  12
ENDBRANCH  10  11
ENDBRANCH   1  10
TORSDOF 12
ENDMDL
MODEL 5
REMARK VINA RESULT:    -3.555      4.130      6.352
REMARK INTER + INTRA:          -8.063
REMARK INTER:                  -6.268
REMARK INTRA:                  -1.795
REMARK UNBOUND:                -2.015
REMARK SMILES CCCCCCCCCCCCCC(=O)[O-]
REMARK SMILES IDX 8 1 9 2 10 3 11 4 12 5 13 6 14 7 15 8 16 9 7 10 6 11 5 12
REMARK SMILES IDX 4 13 3 14 2 15 1 16
REMARK H PARENT
REMARK Flexibility Score: inf
ROOT
ATOM      1  C   UNL     1      -8.579  14.462   0.957  1.00  0.00     0.000 C 
ENDROOT
BRANCH   1   2
ATOM      2  C   UNL     1      -7.147  14.728   1.450  1.00  0.00     0.000 C 
BRANCH   2   3
ATOM      3  C   UNL     1      -6.461  15.868   0.676  1.00  0.00     0.000 C 
BRANCH   3   4
ATOM      4  C   UNL     1      -6.292  17.139   1.523  1.00  0.00     0.000 C 
BRANCH   4   5
ATOM      5  C   UNL     1      -6.559  16.894   3.019  1.00  0.00     0.006 C 
BRANCH   5   6
ATOM      6  C   UNL     1      -6.404  18.174   3.852  1.00  0.00     0.053 C 
BRANCH   6   7
ATOM      7  C   UNL     1      -7.627  19.036   3.781  1.00  0.00     0.041 C 
ATOM      8  O   UNL     1      -7.536  20.280   3.950  1.00  0.00    -0.550 OA
ATOM      9  O   UNL     1      -8.862  18.467   3.499  1.00  0.00    -0.550 OA
ENDBRANCH   6   7
ENDBRANCH   5   6
ENDBRANCH   4   5
ENDBRANCH   3   4
ENDBRANCH   2   3
ENDBRANCH   1   2
BRANCH   1  10
ATOM     10  C   UNL     1      -9.616  15.383   1.624  1.00  0.00     0.000 C 
BRANCH  10  11
ATOM     11  C   UNL     1     -10.117  16.493   0.684  1.00  0.00    -0.000 C 
BRANCH  11  12
ATOM     12  C   UNL     1     -10.003  16.174  -0.822  1.00  0.00    -0.000 C 
BRANCH  12  13
ATOM     13  C   UNL     1      -9.232  17.216  -1.651  1.00  0.00    -0.000 C 
BRANCH  13  14
ATOM     14  C   UNL     1      -8.567  16.610  -2.899  1.00  0.00    -0.000 C 
BRANCH  14  15
ATOM     15  C   UNL     1      -8.309  15.103  -2.752  1.00  0.00    -0.003 C 
ATOM     16  C   UNL     1      -6.819  14.756  -2.763  1.00  0.00     0.004 C 
ENDBRANCH  14  15
ENDBRANCH  13  14
ENDBRANCH  12  13
ENDBRANCH  11  12
ENDBRANCH  10  11
ENDBRANCH   1  10
TORSDOF 12
ENDMDL
MODEL 6
REMARK VINA RESULT:    -3.500      3.928      6.292
REMARK INTER + INTRA:          -7.970
REMARK INTER:                  -6.765
REMARK INTRA:                  -1.205
REMARK UNBOUND:                -2.015
REMARK SMILES CCCCCCCCCCCCCC(=O)[O-]
REMARK SMILES IDX 8 1 9 2 10 3 11 4 12 5 13 6 14 7 15 8 16 9 7 10 6 11 5 12
REMARK SMILES IDX 4 13 3 14 2 15 1 16
REMARK H PARENT
REMARK Flexibility Score: inf
ROOT
ATOM      1  C   UNL     1      -8.820  17.324  -2.041  1.00  0.00     0.000 C 
ENDROOT
BRANCH   1   2
ATOM      2  C   UNL     1      -9.804  16.799  -0.983  1.00  0.00     0.000 C 
BRANCH   2   3
ATOM      3  C   UNL     1      -9.132  16.568   0.383  1.00  0.00     0.000 C 
BRANCH   3   4
ATOM      4  C   UNL     1      -7.632  16.259   0.258  1.00  0.00     0.000 C 
BRANCH   4   5
ATOM      5  C   UNL     1      -6.915  16.244   1.620  1.00  0.00     0.006 C 
BRANCH   5   6
ATOM      6  C   UNL     1      -6.378  17.628   2.007  1.00  0.00     0.053 C 
BRANCH   6   7
ATOM      7  C   UNL     1      -6.950  18.104   3.306  1.00  0.00     0.041 C 
ATOM      8  O   UNL     1      -8.185  18.330   3.410  1.00  0.00    -0.550 OA
ATOM      9  O   UNL     1      -6.125  18.271   4.410  1.00  0.00    -0.550 OA
ENDBRANCH   6   7
ENDBRANCH   5   6
ENDBRANCH   4   5
ENDBRANCH   3   4
ENDBRANCH   2   3
ENDBRANCH   1   2
BRANCH   1  10
ATOM     10  C   UNL     1      -8.758  16.427  -3.289  1.00  0.00     0.000 C 
BRANCH  10  11
ATOM     11  C   UNL     1      -9.176  14.975  -2.999  1.00  0.00    -0.000 C 
BRANCH  11  12
ATOM     12  C   UNL     1      -8.013  13.964  -2.923  1.00  0.00    -0.000 C 
BRANCH  12  13
ATOM     13  C   UNL     1      -6.696  14.436  -3.564  1.00  0.00    -0.000 C 
BRANCH  13  14
ATOM     14  C   UNL     1      -6.522  13.933  -5.007  1.00  0.00    -0.000 C 
BRANCH  14  15
ATOM     15  C   UNL     1      -6.839  15.017  -6.049  1.00  0.00    -0.003 C 
ATOM     16  C   UNL     1      -7.585  14.466  -7.264  1.00  0.00     0.004 C 
ENDBRANCH  14  15
ENDBRANCH  13  14
ENDBRANCH  12  13
ENDBRANCH  11  12
ENDBRANCH  10  11
ENDBRANCH   1  10
TORSDOF 12
ENDMDL
MODEL 7
REMARK VINA RESULT:    -3.493      2.060      3.914
REMARK INTER + INTRA:          -7.959
REMARK INTER:                  -6.344
REMARK INTRA:                  -1.615
REMARK UNBOUND:                -2.015
REMARK SMILES CCCCCCCCCCCCCC(=O)[O-]
REMARK SMILES IDX 8 1 9 2 10 3 11 4 12 5 13 6 14 7 15 8 16 9 7 10 6 11 5 12
REMARK SMILES IDX 4 13 3 14 2 15 1 16
REMARK H PARENT
REMARK Flexibility Score: inf
ROOT
ATOM      1  C   UNL     1      -8.244  13.980  -3.759  1.00  0.00     0.000 C 
ENDROOT
BRANCH   1   2
ATOM      2  C   UNL     1      -6.856  14.556  -4.083  1.00  0.00     0.000 C 
BRANCH   2   3
ATOM      3  C   UNL     1      -6.500  14.429  -5.575  1.00  0.00     0.000 C 
BRANCH   3   4
ATOM      4  C   UNL     1      -7.395  15.298  -6.472  1.00  0.00     0.000 C 
BRANCH   4   5
ATOM      5  C   UNL     1      -7.805  14.582  -7.772  1.00  0.00     0.006 C 
BRANCH   5   6
ATOM      6  C   UNL     1      -8.899  13.533  -7.534  1.00  0.00     0.053 C 
BRANCH   6   7
ATOM      7  C   UNL     1     -10.217  14.167  -7.208  1.00  0.00     0.041 C 
ATOM      8  O   UNL     1     -10.656  15.114  -7.913  1.00  0.00    -0.550 OA
ATOM      9  O   UNL     1     -10.973  13.692  -6.145  1.00  0.00    -0.550 OA
ENDBRANCH   6   7
ENDBRANCH   5   6
ENDBRANCH   4   5
ENDBRANCH   3   4
ENDBRANCH   2   3
ENDBRANCH   1   2
BRANCH   1  10
ATOM     10  C   UNL     1      -9.215  15.043  -3.218  1.00  0.00     0.000 C 
BRANCH  10  11
ATOM     11  C   UNL     1      -8.616  16.460  -3.235  1.00  0.00    -0.000 C 
BRANCH  11  12
ATOM     12  C   UNL     1      -9.020  17.355  -2.044  1.00  0.00    -0.000 C 
BRANCH  12  13
ATOM     13  C   UNL     1      -9.285  16.605  -0.727  1.00  0.00    -0.000 C 
BRANCH  13  14
ATOM     14  C   UNL     1      -8.032  16.497   0.159  1.00  0.00    -0.000 C 
BRANCH  14  15
ATOM     15  C   UNL     1      -7.431  15.083   0.155  1.00  0.00    -0.003 C 
ATOM     16  C   UNL     1      -6.139  14.994  -0.658  1.00  0.00     0.004 C 
ENDBRANCH  14  15
ENDBRANCH  13  14
ENDBRANCH  12  13
ENDBRANCH  11  12
ENDBRANCH  10  11
ENDBRANCH   1  10
TORSDOF 12
ENDMDL
MODEL 8
REMARK VINA RESULT:    -3.474      1.786      3.220
REMARK INTER + INTRA:          -7.927
REMARK INTER:                  -7.014
REMARK INTRA:                  -0.913
REMARK UNBOUND:                -2.015
REMARK SMILES CCCCCCCCCCCCCC(=O)[O-]
REMARK SMILES IDX 8 1 9 2 10 3 11 4 12 5 13 6 14 7 15 8 16 9 7 10 6 11 5 12
REMARK SMILES IDX 4 13 3 14 2 15 1 16
REMARK H PARENT
REMARK Flexibility Score: inf
ROOT
ATOM      1  C   UNL     1      -9.381  16.807  -0.021  1.00  0.00     0.000 C 
ENDROOT
BRANCH   1   2
ATOM      2  C   UNL     1      -9.938  16.774  -1.453  1.00  0.00     0.000 C 
BRANCH   2   3
ATOM      3  C   UNL     1      -8.839  16.945  -2.517  1.00  0.00     0.000 C 
BRANCH   3   4
ATOM      4  C   UNL     1      -8.718  15.725  -3.443  1.00  0.00     0.000 C 
BRANCH   4   5
ATOM      5  C   UNL     1      -8.454  16.117  -4.908  1.00  0.00     0.006 C 
BRANCH   5   6
ATOM      6  C   UNL     1      -8.692  14.946  -5.871  1.00  0.00     0.053 C 
BRANCH   6   7
ATOM      7  C   UNL     1      -7.420  14.493  -6.520  1.00  0.00     0.041 C 
ATOM      8  O   UNL     1      -6.318  14.642  -5.929  1.00  0.00    -0.550 OA
ATOM      9  O   UNL     1      -7.455  13.880  -7.766  1.00  0.00    -0.550 OA
ENDBRANCH   6   7
ENDBRANCH   5   6
ENDBRANCH   4   5
ENDBRANCH   3   4
ENDBRANCH   2   3
ENDBRANCH   1   2
BRANCH   1  10
ATOM     10  C   UNL     1      -7.870  16.523   0.034  1.00  0.00     0.000 C 
BRANCH  10  11
ATOM     11  C   UNL     1      -7.385  16.153   1.447  1.00  0.00    -0.000 C 
BRANCH  11  12
ATOM     12  C   UNL     1      -6.373  17.139   2.068  1.00  0.00    -0.000 C 
BRANCH  12  13
ATOM     13  C   UNL     1      -6.970  18.131   3.082  1.00  0.00    -0.000 C 
BRANCH  13  14
ATOM     14  C   UNL     1      -8.349  17.693   3.603  1.00  0.00    -0.000 C 
BRANCH  14  15
ATOM     15  C   UNL     1      -9.437  18.744   3.338  1.00  0.00    -0.003 C 
ATOM     16  C   UNL     1     -10.817  18.122   3.119  1.00  0.00     0.004 C 
ENDBRANCH  14  15
ENDBRANCH  13  14
ENDBRANCH  12  13
ENDBRANCH  11  12
ENDBRANCH  10  11
ENDBRANCH   1  10
TORSDOF 12
ENDMDL
MODEL 9
REMARK VINA RESULT:    -3.450      1.522      2.600
REMARK INTER + INTRA:          -7.886
REMARK INTER:                  -6.351
REMARK INTRA:                  -1.535
REMARK UNBOUND:                -2.015
REMARK SMILES CCCCCCCCCCCCCC(=O)[O-]
REMARK SMILES IDX 8 1 9 2 10 3 11 4 12 5 13 6 14 7 15 8 16 9 7 10 6 11 5 12
REMARK SMILES IDX 4 13 3 14 2 15 1 16
REMARK H PARENT
REMARK Flexibility Score: inf
ROOT
ATOM      1  C   UNL     1     -10.714  15.671   1.952  1.00  0.00     0.000 C 
ENDROOT
BRANCH   1   2
ATOM      2  C   UNL     1      -9.738  15.359   0.806  1.00  0.00     0.000 C 
BRANCH   2   3
ATOM      3  C   UNL     1     -10.313  15.727  -0.574  1.00  0.00     0.000 C 
BRANCH   3   4
ATOM      4  C   UNL     1      -9.787  17.074  -1.092  1.00  0.00     0.000 C 
BRANCH   4   5
ATOM      5  C   UNL     1      -8.816  16.916  -2.276  1.00  0.00     0.006 C 
BRANCH   5   6
ATOM      6  C   UNL     1      -8.991  15.569  -2.991  1.00  0.00     0.053 C 
BRANCH   6   7
ATOM      7  C   UNL     1      -8.193  15.503  -4.257  1.00  0.00     0.041 C 
ATOM      8  O   UNL     1      -8.536  16.186  -5.259  1.00  0.00    -0.550 OA
ATOM      9  O   UNL     1      -7.055  14.710  -4.321  1.00  0.00    -0.550 OA
ENDBRANCH   6   7
ENDBRANCH   5   6
ENDBRANCH   4   5
ENDBRANCH   3   4
ENDBRANCH   2   3
ENDBRANCH   1   2
BRANCH   1  10
ATOM     10  C   UNL     1     -10.047  16.443   3.104  1.00  0.00     0.000 C 
BRANCH  10  11
ATOM     11  C   UNL     1      -9.061  17.515   2.609  1.00  0.00    -0.000 C 
BRANCH  11  12
ATOM     12  C   UNL     1      -7.893  17.822   3.570  1.00  0.00    -0.000 C 
BRANCH  12  13
ATOM     13  C   UNL     1      -6.490  17.586   2.986  1.00  0.00    -0.000 C 
BRANCH  13  14
ATOM     14  C   UNL     1      -6.523  17.178   1.503  1.00  0.00    -0.000 C 
BRANCH  14  15
ATOM     15  C   UNL     1      -5.909  15.791   1.263  1.00  0.00    -0.003 C 
ATOM     16  C   UNL     1      -6.209  15.248  -0.135  1.00  0.00     0.004 C 
ENDBRANCH  14  15
ENDBRANCH  13  14
ENDBRANCH  12  13
ENDBRANCH  11  12
ENDBRANCH  10  11
ENDBRANCH   1  10
TORSDOF 12
ENDMDL
