MODEL 1
REMARK VINA RESULT:    -3.990      0.000      0.000
REMARK INTER + INTRA:         -12.659
REMARK INTER:                  -8.654
REMARK INTRA:                  -4.005
REMARK UNBOUND:                -4.005
REMARK SMILES CCCCCCCCCCCCCCCCCCCCCC(=O)[O-]
REMARK SMILES IDX 12 1 11 2 10 3 9 4 8 5 7 6 6 7 5 8 4 9 3 10 2 11 1 12 13 13
REMARK SMILES IDX 14 14 15 15 16 16 17 17 18 18 19 19 20 20 21 21 22 22 23 23
REMARK SMILES IDX 24 24
REMARK H PARENT
REMARK Flexibility Score: inf
ROOT
ATOM      1  C   UNL     1       0.088  25.688  54.030  1.00  0.00     0.000 C 
ENDROOT
BRANCH   1   2
ATOM      2  C   UNL     1       1.585  25.693  54.395  1.00  0.00     0.000 C 
BRANCH   2   3
ATOM      3  C   UNL     1       2.518  25.960  53.194  1.00  0.00     0.000 C 
BRANCH   3   4
ATOM      4  C   UNL     1       1.750  26.098  51.869  1.00  0.00    -0.000 C 
BRANCH   4   5
ATOM      5  C   UNL     1       2.339  25.233  50.740  1.00  0.00    -0.000 C 
BRANCH   5   6
ATOM      6  C   UNL     1       1.396  24.153  50.180  1.00  0.00    -0.000 C 
BRANCH   6   7
ATOM      7  C   UNL     1       0.576  23.451  51.274  1.00  0.00    -0.000 C 
BRANCH   7   8
ATOM      8  C   UNL     1       1.239  22.159  51.785  1.00  0.00    -0.000 C 
BRANCH   8   9
ATOM      9  C   UNL     1       1.949  22.276  53.149  1.00  0.00    -0.000 C 
BRANCH   9  10
ATOM     10  C   UNL     1       3.439  21.891  53.149  1.00  0.00    -0.000 C 
BRANCH  10  11
ATOM     11  C   UNL     1       4.113  22.117  51.788  1.00  0.00    -0.003 C 
ATOM     12  C   UNL     1       5.243  23.136  51.899  1.00  0.00     0.004 C 
ENDBRANCH  10  11
ENDBRANCH   9  10
ENDBRANCH   8   9
ENDBRANCH   7   8
ENDBRANCH   6   7
ENDBRANCH   5   6
ENDBRANCH   4   5
ENDBRANCH   3   4
ENDBRANCH   2   3
ENDBRANCH   1   2
BRANCH   1  13
ATOM     13  C   UNL     1      -0.716  24.507  54.603  1.00  0.00     0.000 C 
BRANCH  13  14
ATOM     14  C   UNL     1      -2.139  24.857  55.090  1.00  0.00     0.000 C 
BRANCH  14  15
ATOM     15  C   UNL     1      -2.275  25.060  56.609  1.00  0.00     0.000 C 
BRANCH  15  16
ATOM     16  C   UNL     1      -1.685  26.398  57.086  1.00  0.00     0.000 C 
BRANCH  16  17
ATOM     17  C   UNL     1      -0.732  26.228  58.281  1.00  0.00     0.000 C 
BRANCH  17  18
ATOM     18  C   UNL     1       0.568  25.499  57.895  1.00  0.00     0.000 C 
BRANCH  18  19
ATOM     19  C   UNL     1       0.866  24.301  58.811  1.00  0.00     0.000 C 
BRANCH  19  20
ATOM     20  C   UNL     1       0.274  22.984  58.281  1.00  0.00     0.006 C 
BRANCH  20  21
ATOM     21  C   UNL     1       0.955  22.525  56.985  1.00  0.00     0.053 C 
BRANCH  21  22
ATOM     22  C   UNL     1       2.436  22.379  57.159  1.00  0.00     0.041 C 
ATOM     23  O   UNL     1       3.227  23.082  56.478  1.00  0.00    -0.550 OA
ATOM     24  O   UNL     1       2.941  21.439  58.047  1.00  0.00    -0.550 OA
ENDBRANCH  21  22
ENDBRANCH  20  21
ENDBRANCH  19  20
ENDBRANCH  18  19
ENDBRANCH  17  18
ENDBRANCH  16  17
ENDBRANCH  15  16
ENDBRANCH  14  15
ENDBRANCH  13  14
ENDBRANCH   1  13
TORSDOF 20
ENDMDL
MODEL 2
REMARK VINA RESULT:    -3.989      3.104      5.490
REMARK INTER + INTRA:         -12.657
REMARK INTER:                 -10.018
REMARK INTRA:                  -2.640
REMARK UNBOUND:                -4.005
REMARK SMILES CCCCCCCCCCCCCCCCCCCCCC(=O)[O-]
REMARK SMILES IDX 12 1 11 2 10 3 9 4 8 5 7 6 6 7 5 8 4 9 3 10 2 11 1 12 13 13
REMARK SMILES IDX 14 14 15 15 16 16 17 17 18 18 19 19 20 20 21 21 22 22 23 23
REMARK SMILES IDX 24 24
REMARK H PARENT
REMARK Flexibility Score: inf
ROOT
ATOM      1  C   UNL     1       3.895  21.546  52.723  1.00  0.00     0.000 C 
ENDROOT
BRANCH   1   2
ATOM      2  C   UNL     1       2.362  21.592  52.578  1.00  0.00     0.000 C 
BRANCH   2   3
ATOM      3  C   UNL     1       1.880  22.261  51.273  1.00  0.00     0.000 C 
BRANCH   3   4
ATOM      4  C   UNL     1       0.706  23.226  51.502  1.00  0.00    -0.000 C 
BRANCH   4   5
ATOM      5  C   UNL     1       0.951  24.624  50.904  1.00  0.00    -0.000 C 
BRANCH   5   6
ATOM      6  C   UNL     1       2.131  24.719  49.920  1.00  0.00    -0.000 C 
BRANCH   6   7
ATOM      7  C   UNL     1       1.873  23.969  48.604  1.00  0.00    -0.000 C 
BRANCH   7   8
ATOM      8  C   UNL     1       1.190  24.847  47.538  1.00  0.00    -0.000 C 
BRANCH   8   9
ATOM      9  C   UNL     1       1.215  24.282  46.103  1.00  0.00    -0.000 C 
BRANCH   9  10
ATOM     10  C   UNL     1       2.197  23.120  45.872  1.00  0.00    -0.000 C 
BRANCH  10  11
ATOM     11  C   UNL     1       2.160  22.585  44.433  1.00  0.00    -0.003 C 
ATOM     12  C   UNL     1       3.478  22.855  43.713  1.00  0.00     0.004 C 
ENDBRANCH  10  11
ENDBRANCH   9  10
ENDBRANCH   8   9
ENDBRANCH   7   8
ENDBRANCH   6   7
ENDBRANCH   5   6
ENDBRANCH   4   5
ENDBRANCH   3   4
ENDBRANCH   2   3
ENDBRANCH   1   2
BRANCH   1  13
ATOM     13  C   UNL     1       4.657  22.599  51.898  1.00  0.00     0.000 C 
BRANCH  13  14
ATOM     14  C   UNL     1       5.205  23.795  52.707  1.00  0.00     0.000 C 
BRANCH  14  15
ATOM     15  C   UNL     1       4.175  24.894  53.021  1.00  0.00     0.000 C 
BRANCH  15  16
ATOM     16  C   UNL     1       3.939  25.075  54.531  1.00  0.00     0.000 C 
BRANCH  16  17
ATOM     17  C   UNL     1       2.576  24.526  54.983  1.00  0.00     0.000 C 
BRANCH  17  18
ATOM     18  C   UNL     1       2.709  23.241  55.820  1.00  0.00     0.000 C 
BRANCH  18  19
ATOM     19  C   UNL     1       4.091  23.109  56.481  1.00  0.00     0.000 C 
BRANCH  19  20
ATOM     20  C   UNL     1       4.800  21.793  56.119  1.00  0.00     0.006 C 
BRANCH  20  21
ATOM     21  C   UNL     1       6.286  21.815  56.499  1.00  0.00     0.053 C 
BRANCH  21  22
ATOM     22  C   UNL     1       6.623  20.735  57.481  1.00  0.00     0.041 C 
ATOM     23  O   UNL     1       7.749  20.173  57.444  1.00  0.00    -0.550 OA
ATOM     24  O   UNL     1       5.680  20.325  58.413  1.00  0.00    -0.550 OA
ENDBRANCH  21  22
ENDBRANCH  20  21
ENDBRANCH  19  20
ENDBRANCH  18  19
ENDBRANCH  17  18
ENDBRANCH  16  17
ENDBRANCH  15  16
ENDBRANCH  14  15
ENDBRANCH  13  14
ENDBRANCH   1  13
TORSDOF 20
ENDMDL
MODEL 3
REMARK VINA RESULT:    -3.982      2.157      6.041
REMARK INTER + INTRA:         -12.642
REMARK INTER:                  -9.191
REMARK INTRA:                  -3.451
REMARK UNBOUND:                -4.005
REMARK SMILES CCCCCCCCCCCCCCCCCCCCCC(=O)[O-]
REMARK SMILES IDX 12 1 11 2 10 3 9 4 8 5 7 6 6 7 5 8 4 9 3 10 2 11 1 12 13 13
REMARK SMILES IDX 14 14 15 15 16 16 17 17 18 18 19 19 20 20 21 21 22 22 23 23
REMARK SMILES IDX 24 24
REMARK H PARENT
REMARK Flexibility Score: inf
ROOT
ATOM      1  C   UNL     1       1.060  22.412  51.618  1.00  0.00     0.000 C 
ENDROOT
BRANCH   1   2
ATOM      2  C   UNL     1       0.837  23.846  51.102  1.00  0.00     0.000 C 
BRANCH   2   3
ATOM      3  C   UNL     1       0.973  24.928  52.195  1.00  0.00     0.000 C 
BRANCH   3   4
ATOM      4  C   UNL     1       0.203  24.573  53.478  1.00  0.00    -0.000 C 
BRANCH   4   5
ATOM      5  C   UNL     1       1.121  24.090  54.615  1.00  0.00    -0.000 C 
BRANCH   5   6
ATOM      6  C   UNL     1       1.736  25.205  55.481  1.00  0.00    -0.000 C 
BRANCH   6   7
ATOM      7  C   UNL     1       1.853  24.814  56.963  1.00  0.00    -0.000 C 
BRANCH   7   8
ATOM      8  C   UNL     1       0.995  23.590  57.330  1.00  0.00    -0.000 C 
BRANCH   8   9
ATOM      9  C   UNL     1      -0.367  23.907  57.979  1.00  0.00    -0.000 C 
BRANCH   9  10
ATOM     10  C   UNL     1      -1.599  23.490  57.156  1.00  0.00    -0.000 C 
BRANCH  10  11
ATOM     11  C   UNL     1      -2.251  24.668  56.419  1.00  0.00    -0.003 C 
ATOM     12  C   UNL     1      -1.810  26.001  57.018  1.00  0.00     0.004 C 
ENDBRANCH  10  11
ENDBRANCH   9  10
ENDBRANCH   8   9
ENDBRANCH   7   8
ENDBRANCH   6   7
ENDBRANCH   5   6
ENDBRANCH   4   5
ENDBRANCH   3   4
ENDBRANCH   2   3
ENDBRANCH   1   2
BRANCH   1  13
ATOM     13  C   UNL     1       2.466  21.841  51.359  1.00  0.00     0.000 C 
BRANCH  13  14
ATOM     14  C   UNL     1       3.356  22.688  50.424  1.00  0.00     0.000 C 
BRANCH  14  15
ATOM     15  C   UNL     1       4.739  23.049  50.994  1.00  0.00     0.000 C 
BRANCH  15  16
ATOM     16  C   UNL     1       4.787  24.467  51.590  1.00  0.00     0.000 C 
BRANCH  16  17
ATOM     17  C   UNL     1       4.525  24.476  53.105  1.00  0.00     0.000 C 
BRANCH  17  18
ATOM     18  C   UNL     1       5.243  23.324  53.831  1.00  0.00     0.000 C 
BRANCH  18  19
ATOM     19  C   UNL     1       4.264  22.371  54.537  1.00  0.00     0.000 C 
BRANCH  19  20
ATOM     20  C   UNL     1       4.553  22.227  56.040  1.00  0.00     0.006 C 
BRANCH  20  21
ATOM     21  C   UNL     1       5.263  20.908  56.368  1.00  0.00     0.053 C 
BRANCH  21  22
ATOM     22  C   UNL     1       6.658  21.137  56.863  1.00  0.00     0.041 C 
ATOM     23  O   UNL     1       7.541  20.255  56.702  1.00  0.00    -0.550 OA
ATOM     24  O   UNL     1       6.972  22.310  57.535  1.00  0.00    -0.550 OA
ENDBRANCH  21  22
ENDBRANCH  20  21
ENDBRANCH  19  20
ENDBRANCH  18  19
ENDBRANCH  17  18
ENDBRANCH  16  17
ENDBRANCH  15  16
ENDBRANCH  14  15
ENDBRANCH  13  14
ENDBRANCH   1  13
TORSDOF 20
ENDMDL
MODEL 4
REMARK VINA RESULT:    -3.975      3.214      7.042
REMARK INTER + INTRA:         -12.629
REMARK INTER:                  -9.049
REMARK INTRA:                  -3.580
REMARK UNBOUND:                -4.005
REMARK SMILES CCCCCCCCCCCCCCCCCCCCCC(=O)[O-]
REMARK SMILES IDX 12 1 11 2 10 3 9 4 8 5 7 6 6 7 5 8 4 9 3 10 2 11 1 12 13 13
REMARK SMILES IDX 14 14 15 15 16 16 17 17 18 18 19 19 20 20 21 21 22 22 23 23
REMARK SMILES IDX 24 24
REMARK H PARENT
REMARK Flexibility Score: inf
ROOT
ATOM      1  C   UNL     1       1.585  22.773  54.550  1.00  0.00     0.000 C 
ENDROOT
BRANCH   1   2
ATOM      2  C   UNL     1       2.505  23.904  55.047  1.00  0.00     0.000 C 
BRANCH   2   3
ATOM      3  C   UNL     1       1.767  25.232  55.321  1.00  0.00     0.000 C 
BRANCH   3   4
ATOM      4  C   UNL     1       0.553  25.434  54.399  1.00  0.00    -0.000 C 
BRANCH   4   5
ATOM      5  C   UNL     1      -0.746  25.726  55.173  1.00  0.00    -0.000 C 
BRANCH   5   6
ATOM      6  C   UNL     1      -1.905  24.747  54.904  1.00  0.00    -0.000 C 
BRANCH   6   7
ATOM      7  C   UNL     1      -2.228  23.859  56.116  1.00  0.00    -0.000 C 
BRANCH   7   8
ATOM      8  C   UNL     1      -1.363  24.186  57.348  1.00  0.00    -0.000 C 
BRANCH   8   9
ATOM      9  C   UNL     1      -0.459  23.039  57.844  1.00  0.00    -0.000 C 
BRANCH   9  10
ATOM     10  C   UNL     1       0.794  23.481  58.620  1.00  0.00    -0.000 C 
BRANCH  10  11
ATOM     11  C   UNL     1       1.554  22.303  59.247  1.00  0.00    -0.003 C 
ATOM     12  C   UNL     1       2.058  21.342  58.174  1.00  0.00     0.004 C 
ENDBRANCH  10  11
ENDBRANCH   9  10
ENDBRANCH   8   9
ENDBRANCH   7   8
ENDBRANCH   6   7
ENDBRANCH   5   6
ENDBRANCH   4   5
ENDBRANCH   3   4
ENDBRANCH   2   3
ENDBRANCH   1   2
BRANCH   1  13
ATOM     13  C   UNL     1       1.964  22.183  53.179  1.00  0.00     0.000 C 
BRANCH  13  14
ATOM     14  C   UNL     1       3.431  21.719  53.048  1.00  0.00     0.000 C 
BRANCH  14  15
ATOM     15  C   UNL     1       4.161  22.220  51.790  1.00  0.00     0.000 C 
BRANCH  15  16
ATOM     16  C   UNL     1       5.220  23.292  52.102  1.00  0.00     0.000 C 
BRANCH  16  17
ATOM     17  C   UNL     1       4.611  24.697  52.237  1.00  0.00     0.000 C 
BRANCH  17  18
ATOM     18  C   UNL     1       3.904  25.157  50.949  1.00  0.00     0.000 C 
BRANCH  18  19
ATOM     19  C   UNL     1       2.442  25.567  51.193  1.00  0.00     0.000 C 
BRANCH  19  20
ATOM     20  C   UNL     1       1.438  24.606  50.533  1.00  0.00     0.006 C 
BRANCH  20  21
ATOM     21  C   UNL     1       1.974  24.022  49.221  1.00  0.00     0.053 C 
BRANCH  21  22
ATOM     22  C   UNL     1       1.551  24.837  48.037  1.00  0.00     0.041 C 
ATOM     23  O   UNL     1       0.851  24.319  47.127  1.00  0.00    -0.550 OA
ATOM     24  O   UNL     1       1.961  26.158  47.921  1.00  0.00    -0.550 OA
ENDBRANCH  21  22
ENDBRANCH  20  21
ENDBRANCH  19  20
ENDBRANCH  18  19
ENDBRANCH  17  18
ENDBRANCH  16  17
ENDBRANCH  15  16
ENDBRANCH  14  15
ENDBRANCH  13  14
ENDBRANCH   1  13
TORSDOF 20
ENDMDL
MODEL 5
REMARK VINA RESULT:    -3.942      3.014      5.267
REMARK INTER + INTRA:         -12.555
REMARK INTER:                  -9.684
REMARK INTRA:                  -2.871
REMARK UNBOUND:                -4.005
REMARK SMILES CCCCCCCCCCCCCCCCCCCCCC(=O)[O-]
REMARK SMILES IDX 12 1 11 2 10 3 9 4 8 5 7 6 6 7 5 8 4 9 3 10 2 11 1 12 13 13
REMARK SMILES IDX 14 14 15 15 16 16 17 17 18 18 19 19 20 20 21 21 22 22 23 23
REMARK SMILES IDX 24 24
REMARK H PARENT
REMARK Flexibility Score: inf
ROOT
ATOM      1  C   UNL     1       4.928  22.929  52.177  1.00  0.00     0.000 C 
ENDROOT
BRANCH   1   2
ATOM      2  C   UNL     1       3.842  21.904  52.554  1.00  0.00     0.000 C 
BRANCH   2   3
ATOM      3  C   UNL     1       2.983  21.438  51.358  1.00  0.00     0.000 C 
BRANCH   3   4
ATOM      4  C   UNL     1       2.724  22.564  50.344  1.00  0.00    -0.000 C 
BRANCH   4   5
ATOM      5  C   UNL     1       1.481  23.406  50.685  1.00  0.00    -0.000 C 
BRANCH   5   6
ATOM      6  C   UNL     1       1.160  24.535  49.690  1.00  0.00    -0.000 C 
BRANCH   6   7
ATOM      7  C   UNL     1       1.848  24.346  48.329  1.00  0.00    -0.000 C 
BRANCH   7   8
ATOM      8  C   UNL     1       0.922  24.656  47.139  1.00  0.00    -0.000 C 
BRANCH   8   9
ATOM      9  C   UNL     1       1.359  24.057  45.787  1.00  0.00    -0.000 C 
BRANCH   9  10
ATOM     10  C   UNL     1       2.417  22.942  45.874  1.00  0.00    -0.000 C 
BRANCH  10  11
ATOM     11  C   UNL     1       3.180  22.740  44.558  1.00  0.00    -0.003 C 
ATOM     12  C   UNL     1       3.258  24.040  43.763  1.00  0.00     0.004 C 
ENDBRANCH  10  11
ENDBRANCH   9  10
ENDBRANCH   8   9
ENDBRANCH   7   8
ENDBRANCH   6   7
ENDBRANCH   5   6
ENDBRANCH   4   5
ENDBRANCH   3   4
ENDBRANCH   2   3
ENDBRANCH   1   2
BRANCH   1  13
ATOM     13  C   UNL     1       4.833  24.276  52.917  1.00  0.00     0.000 C 
BRANCH  13  14
ATOM     14  C   UNL     1       4.274  25.447  52.078  1.00  0.00     0.000 C 
BRANCH  14  15
ATOM     15  C   UNL     1       3.073  26.178  52.702  1.00  0.00     0.000 C 
BRANCH  15  16
ATOM     16  C   UNL     1       2.621  25.553  54.033  1.00  0.00     0.000 C 
BRANCH  16  17
ATOM     17  C   UNL     1       1.243  24.878  53.926  1.00  0.00     0.000 C 
BRANCH  17  18
ATOM     18  C   UNL     1       1.245  23.448  54.495  1.00  0.00     0.000 C 
BRANCH  18  19
ATOM     19  C   UNL     1       2.136  23.310  55.741  1.00  0.00     0.000 C 
BRANCH  19  20
ATOM     20  C   UNL     1       1.362  23.523  57.053  1.00  0.00     0.006 C 
BRANCH  20  21
ATOM     21  C   UNL     1      -0.053  22.936  56.990  1.00  0.00     0.053 C 
BRANCH  21  22
ATOM     22  C   UNL     1      -1.098  24.009  56.962  1.00  0.00     0.041 C 
ATOM     23  O   UNL     1      -0.837  25.160  57.400  1.00  0.00    -0.550 OA
ATOM     24  O   UNL     1      -2.371  23.727  56.486  1.00  0.00    -0.550 OA
ENDBRANCH  21  22
ENDBRANCH  20  21
ENDBRANCH  19  20
ENDBRANCH  18  19
ENDBRANCH  17  18
ENDBRANCH  16  17
ENDBRANCH  15  16
ENDBRANCH  14  15
ENDBRANCH  13  14
ENDBRANCH   1  13
TORSDOF 20
ENDMDL
MODEL 6
REMARK VINA RESULT:    -3.941      1.924      3.256
REMARK INTER + INTRA:         -12.554
REMARK INTER:                  -9.070
REMARK INTRA:                  -3.484
REMARK UNBOUND:                -4.005
REMARK SMILES CCCCCCCCCCCCCCCCCCCCCC(=O)[O-]
REMARK SMILES IDX 12 1 11 2 10 3 9 4 8 5 7 6 6 7 5 8 4 9 3 10 2 11 1 12 13 13
REMARK SMILES IDX 14 14 15 15 16 16 17 17 18 18 19 19 20 20 21 21 22 22 23 23
REMARK SMILES IDX 24 24
REMARK H PARENT
REMARK Flexibility Score: inf
ROOT
ATOM      1  C   UNL     1      -2.027  25.445  56.304  1.00  0.00     0.000 C 
ENDROOT
BRANCH   1   2
ATOM      2  C   UNL     1      -1.294  25.980  55.059  1.00  0.00     0.000 C 
BRANCH   2   3
ATOM      3  C   UNL     1       0.213  26.227  55.282  1.00  0.00     0.000 C 
BRANCH   3   4
ATOM      4  C   UNL     1       1.086  25.575  54.197  1.00  0.00    -0.000 C 
BRANCH   4   5
ATOM      5  C   UNL     1       0.527  24.227  53.708  1.00  0.00    -0.000 C 
BRANCH   5   6
ATOM      6  C   UNL     1       0.510  24.039  52.179  1.00  0.00    -0.000 C 
BRANCH   6   7
ATOM      7  C   UNL     1       0.966  22.637  51.745  1.00  0.00    -0.000 C 
BRANCH   7   8
ATOM      8  C   UNL     1       1.706  21.875  52.859  1.00  0.00    -0.000 C 
BRANCH   8   9
ATOM      9  C   UNL     1       3.128  21.397  52.501  1.00  0.00    -0.000 C 
BRANCH   9  10
ATOM     10  C   UNL     1       3.826  22.193  51.384  1.00  0.00    -0.000 C 
BRANCH  10  11
ATOM     11  C   UNL     1       4.815  23.236  51.924  1.00  0.00    -0.003 C 
ATOM     12  C   UNL     1       6.022  23.378  51.000  1.00  0.00     0.004 C 
ENDBRANCH  10  11
ENDBRANCH   9  10
ENDBRANCH   8   9
ENDBRANCH   7   8
ENDBRANCH   6   7
ENDBRANCH   5   6
ENDBRANCH   4   5
ENDBRANCH   3   4
ENDBRANCH   2   3
ENDBRANCH   1   2
BRANCH   1  13
ATOM     13  C   UNL     1      -2.065  23.910  56.425  1.00  0.00     0.000 C 
BRANCH  13  14
ATOM     14  C   UNL     1      -1.253  23.326  57.601  1.00  0.00     0.000 C 
BRANCH  14  15
ATOM     15  C   UNL     1       0.230  23.053  57.296  1.00  0.00     0.000 C 
BRANCH  15  16
ATOM     16  C   UNL     1       1.182  23.834  58.218  1.00  0.00     0.000 C 
BRANCH  16  17
ATOM     17  C   UNL     1       2.654  23.698  57.793  1.00  0.00     0.000 C 
BRANCH  17  18
ATOM     18  C   UNL     1       2.820  22.870  56.507  1.00  0.00     0.000 C 
BRANCH  18  19
ATOM     19  C   UNL     1       3.728  23.558  55.475  1.00  0.00     0.000 C 
BRANCH  19  20
ATOM     20  C   UNL     1       5.162  23.000  55.478  1.00  0.00     0.006 C 
BRANCH  20  21
ATOM     21  C   UNL     1       5.206  21.526  55.901  1.00  0.00     0.053 C 
BRANCH  21  22
ATOM     22  C   UNL     1       6.086  21.319  57.096  1.00  0.00     0.041 C 
ATOM     23  O   UNL     1       5.970  22.062  58.106  1.00  0.00    -0.550 OA
ATOM     24  O   UNL     1       7.059  20.329  57.079  1.00  0.00    -0.550 OA
ENDBRANCH  21  22
ENDBRANCH  20  21
ENDBRANCH  19  20
ENDBRANCH  18  19
ENDBRANCH  17  18
ENDBRANCH  16  17
ENDBRANCH  15  16
ENDBRANCH  14  15
ENDBRANCH  13  14
ENDBRANCH   1  13
TORSDOF 20
ENDMDL
MODEL 7
REMARK VINA RESULT:    -3.924      2.705      5.861
REMARK INTER + INTRA:         -12.517
REMARK INTER:                  -9.840
REMARK INTRA:                  -2.677
REMARK UNBOUND:                -4.005
REMARK SMILES CCCCCCCCCCCCCCCCCCCCCC(=O)[O-]
REMARK SMILES IDX 12 1 11 2 10 3 9 4 8 5 7 6 6 7 5 8 4 9 3 10 2 11 1 12 13 13
REMARK SMILES IDX 14 14 15 15 16 16 17 17 18 18 19 19 20 20 21 21 22 22 23 23
REMARK SMILES IDX 24 24
REMARK H PARENT
REMARK Flexibility Score: inf
ROOT
ATOM      1  C   UNL     1      -2.134  23.745  56.437  1.00  0.00     0.000 C 
ENDROOT
BRANCH   1   2
ATOM      2  C   UNL     1      -1.015  24.181  57.404  1.00  0.00     0.000 C 
BRANCH   2   3
ATOM      3  C   UNL     1      -0.065  23.035  57.812  1.00  0.00     0.000 C 
BRANCH   3   4
ATOM      4  C   UNL     1       0.840  22.578  56.656  1.00  0.00    -0.000 C 
BRANCH   4   5
ATOM      5  C   UNL     1       1.977  23.571  56.355  1.00  0.00    -0.000 C 
BRANCH   5   6
ATOM      6  C   UNL     1       3.045  23.701  57.456  1.00  0.00    -0.000 C 
BRANCH   6   7
ATOM      7  C   UNL     1       3.938  22.455  57.572  1.00  0.00    -0.000 C 
BRANCH   7   8
ATOM      8  C   UNL     1       4.726  22.160  56.282  1.00  0.00    -0.000 C 
BRANCH   8   9
ATOM      9  C   UNL     1       5.449  20.798  56.247  1.00  0.00    -0.000 C 
BRANCH   9  10
ATOM     10  C   UNL     1       6.798  20.753  56.988  1.00  0.00    -0.000 C 
BRANCH  10  11
ATOM     11  C   UNL     1       6.682  20.164  58.401  1.00  0.00    -0.003 C 
ATOM     12  C   UNL     1       6.952  18.662  58.393  1.00  0.00     0.004 C 
ENDBRANCH  10  11
ENDBRANCH   9  10
ENDBRANCH   8   9
ENDBRANCH   7   8
ENDBRANCH   6   7
ENDBRANCH   5   6
ENDBRANCH   4   5
ENDBRANCH   3   4
ENDBRANCH   2   3
ENDBRANCH   1   2
BRANCH   1  13
ATOM     13  C   UNL     1      -2.137  24.471  55.080  1.00  0.00     0.000 C 
BRANCH  13  14
ATOM     14  C   UNL     1      -1.158  25.661  54.970  1.00  0.00     0.000 C 
BRANCH  14  15
ATOM     15  C   UNL     1      -0.058  25.500  53.906  1.00  0.00     0.000 C 
BRANCH  15  16
ATOM     16  C   UNL     1       0.029  24.069  53.349  1.00  0.00     0.000 C 
BRANCH  16  17
ATOM     17  C   UNL     1       0.673  24.020  51.954  1.00  0.00     0.000 C 
BRANCH  17  18
ATOM     18  C   UNL     1       1.411  22.694  51.695  1.00  0.00     0.000 C 
BRANCH  18  19
ATOM     19  C   UNL     1       1.976  22.072  52.982  1.00  0.00     0.000 C 
BRANCH  19  20
ATOM     20  C   UNL     1       3.418  21.564  52.815  1.00  0.00     0.006 C 
BRANCH  20  21
ATOM     21  C   UNL     1       4.071  22.091  51.531  1.00  0.00     0.053 C 
BRANCH  21  22
ATOM     22  C   UNL     1       5.229  22.993  51.828  1.00  0.00     0.041 C 
ATOM     23  O   UNL     1       5.419  23.417  52.998  1.00  0.00    -0.550 OA
ATOM     24  O   UNL     1       6.077  23.395  50.805  1.00  0.00    -0.550 OA
ENDBRANCH  21  22
ENDBRANCH  20  21
ENDBRANCH  19  20
ENDBRANCH  18  19
ENDBRANCH  17  18
ENDBRANCH  16  17
ENDBRANCH  15  16
ENDBRANCH  14  15
ENDBRANCH  13  14
ENDBRANCH   1  13
TORSDOF 20
ENDMDL
MODEL 8
REMARK VINA RESULT:    -3.908      1.536      2.421
REMARK INTER + INTRA:         -12.481
REMARK INTER:                  -9.153
REMARK INTRA:                  -3.329
REMARK UNBOUND:                -4.005
REMARK SMILES CCCCCCCCCCCCCCCCCCCCCC(=O)[O-]
REMARK SMILES IDX 12 1 11 2 10 3 9 4 8 5 7 6 6 7 5 8 4 9 3 10 2 11 1 12 13 13
REMARK SMILES IDX 14 14 15 15 16 16 17 17 18 18 19 19 20 20 21 21 22 22 23 23
REMARK SMILES IDX 24 24
REMARK H PARENT
REMARK Flexibility Score: inf
ROOT
ATOM      1  C   UNL     1       0.049  25.864  54.297  1.00  0.00     0.000 C 
ENDROOT
BRANCH   1   2
ATOM      2  C   UNL     1       1.515  25.570  53.924  1.00  0.00     0.000 C 
BRANCH   2   3
ATOM      3  C   UNL     1       1.894  26.010  52.494  1.00  0.00     0.000 C 
BRANCH   3   4
ATOM      4  C   UNL     1       0.995  25.371  51.422  1.00  0.00    -0.000 C 
BRANCH   4   5
ATOM      5  C   UNL     1       1.454  23.958  51.018  1.00  0.00    -0.000 C 
BRANCH   5   6
ATOM      6  C   UNL     1       0.747  22.803  51.753  1.00  0.00    -0.000 C 
BRANCH   6   7
ATOM      7  C   UNL     1       1.718  21.924  52.556  1.00  0.00    -0.000 C 
BRANCH   7   8
ATOM      8  C   UNL     1       3.166  22.001  52.038  1.00  0.00    -0.000 C 
BRANCH   8   9
ATOM      9  C   UNL     1       4.234  22.321  53.104  1.00  0.00    -0.000 C 
BRANCH   9  10
ATOM     10  C   UNL     1       4.797  23.753  53.059  1.00  0.00    -0.000 C 
BRANCH  10  11
ATOM     11  C   UNL     1       6.217  23.817  52.480  1.00  0.00    -0.003 C 
ATOM     12  C   UNL     1       6.199  23.652  50.963  1.00  0.00     0.004 C 
ENDBRANCH  10  11
ENDBRANCH   9  10
ENDBRANCH   8   9
ENDBRANCH   7   8
ENDBRANCH   6   7
ENDBRANCH   5   6
ENDBRANCH   4   5
ENDBRANCH   3   4
ENDBRANCH   2   3
ENDBRANCH   1   2
BRANCH   1  13
ATOM     13  C   UNL     1      -0.861  24.625  54.381  1.00  0.00     0.000 C 
BRANCH  13  14
ATOM     14  C   UNL     1      -1.984  24.706  55.438  1.00  0.00     0.000 C 
BRANCH  14  15
ATOM     15  C   UNL     1      -1.853  23.709  56.603  1.00  0.00     0.000 C 
BRANCH  15  16
ATOM     16  C   UNL     1      -0.737  24.089  57.591  1.00  0.00     0.000 C 
BRANCH  16  17
ATOM     17  C   UNL     1       0.240  22.930  57.848  1.00  0.00     0.000 C 
BRANCH  17  18
ATOM     18  C   UNL     1       0.862  22.388  56.548  1.00  0.00     0.000 C 
BRANCH  18  19
ATOM     19  C   UNL     1       2.270  22.949  56.289  1.00  0.00     0.000 C 
BRANCH  19  20
ATOM     20  C   UNL     1       3.281  22.542  57.374  1.00  0.00     0.006 C 
BRANCH  20  21
ATOM     21  C   UNL     1       4.438  21.713  56.804  1.00  0.00     0.053 C 
BRANCH  21  22
ATOM     22  C   UNL     1       5.740  22.450  56.882  1.00  0.00     0.041 C 
ATOM     23  O   UNL     1       6.617  22.285  55.994  1.00  0.00    -0.550 OA
ATOM     24  O   UNL     1       5.999  23.290  57.957  1.00  0.00    -0.550 OA
ENDBRANCH  21  22
ENDBRANCH  20  21
ENDBRANCH  19  20
ENDBRANCH  18  19
ENDBRANCH  17  18
ENDBRANCH  16  17
ENDBRANCH  15  16
ENDBRANCH  14  15
ENDBRANCH  13  14
ENDBRANCH   1  13
TORSDOF 20
ENDMDL
MODEL 9
REMARK VINA RESULT:    -3.900      2.350      5.425
REMARK INTER + INTRA:         -12.464
REMARK INTER:                  -8.624
REMARK INTRA:                  -3.840
REMARK UNBOUND:                -4.005
REMARK SMILES CCCCCCCCCCCCCCCCCCCCCC(=O)[O-]
REMARK SMILES IDX 12 1 11 2 10 3 9 4 8 5 7 6 6 7 5 8 4 9 3 10 2 11 1 12 13 13
REMARK SMILES IDX 14 14 15 15 16 16 17 17 18 18 19 19 20 20 21 21 22 22 23 23
REMARK SMILES IDX 24 24
REMARK H PARENT
REMARK Flexibility Score: inf
ROOT
ATOM      1  C   UNL     1      -2.008  23.736  56.517  1.00  0.00     0.000 C 
ENDROOT
BRANCH   1   2
ATOM      2  C   UNL     1      -0.786  23.421  57.400  1.00  0.00     0.000 C 
BRANCH   2   3
ATOM      3  C   UNL     1       0.397  22.800  56.627  1.00  0.00     0.000 C 
BRANCH   3   4
ATOM      4  C   UNL     1       1.762  23.223  57.196  1.00  0.00    -0.000 C 
BRANCH   4   5
ATOM      5  C   UNL     1       1.757  23.356  58.730  1.00  0.00    -0.000 C 
BRANCH   5   6
ATOM      6  C   UNL     1       2.706  22.400  59.475  1.00  0.00    -0.000 C 
BRANCH   6   7
ATOM      7  C   UNL     1       2.455  20.923  59.133  1.00  0.00    -0.000 C 
BRANCH   7   8
ATOM      8  C   UNL     1       3.633  20.271  58.385  1.00  0.00    -0.000 C 
BRANCH   8   9
ATOM      9  C   UNL     1       4.956  21.062  58.419  1.00  0.00    -0.000 C 
BRANCH   9  10
ATOM     10  C   UNL     1       5.682  21.186  57.068  1.00  0.00    -0.000 C 
BRANCH  10  11
ATOM     11  C   UNL     1       4.744  21.594  55.922  1.00  0.00    -0.003 C 
ATOM     12  C   UNL     1       5.118  22.966  55.369  1.00  0.00     0.004 C 
ENDBRANCH  10  11
ENDBRANCH   9  10
ENDBRANCH   8   9
ENDBRANCH   7   8
ENDBRANCH   6   7
ENDBRANCH   5   6
ENDBRANCH   4   5
ENDBRANCH   3   4
ENDBRANCH   2   3
ENDBRANCH   1   2
BRANCH   1  13
ATOM     13  C   UNL     1      -2.462  25.207  56.538  1.00  0.00     0.000 C 
BRANCH  13  14
ATOM     14  C   UNL     1      -1.436  26.202  57.124  1.00  0.00     0.000 C 
BRANCH  14  15
ATOM     15  C   UNL     1      -0.604  26.967  56.080  1.00  0.00     0.000 C 
BRANCH  15  16
ATOM     16  C   UNL     1       0.875  26.542  56.069  1.00  0.00     0.000 C 
BRANCH  16  17
ATOM     17  C   UNL     1       1.326  26.023  54.693  1.00  0.00     0.000 C 
BRANCH  17  18
ATOM     18  C   UNL     1       0.139  25.630  53.796  1.00  0.00     0.000 C 
BRANCH  18  19
ATOM     19  C   UNL     1       0.217  24.169  53.322  1.00  0.00     0.000 C 
BRANCH  19  20
ATOM     20  C   UNL     1       1.643  23.744  52.934  1.00  0.00     0.006 C 
BRANCH  20  21
ATOM     21  C   UNL     1       1.932  22.285  53.308  1.00  0.00     0.053 C 
BRANCH  21  22
ATOM     22  C   UNL     1       2.667  21.568  52.217  1.00  0.00     0.041 C 
ATOM     23  O   UNL     1       3.500  20.667  52.498  1.00  0.00    -0.550 OA
ATOM     24  O   UNL     1       2.458  21.922  50.891  1.00  0.00    -0.550 OA
ENDBRANCH  21  22
ENDBRANCH  20  21
ENDBRANCH  19  20
ENDBRANCH  18  19
ENDBRANCH  17  18
ENDBRANCH  16  17
ENDBRANCH  15  16
ENDBRANCH  14  15
ENDBRANCH  13  14
ENDBRANCH   1  13
TORSDOF 20
ENDMDL
