MODEL 1
REMARK VINA RESULT:    -8.038      0.000      0.000
REMARK INTER + INTRA:          -9.955
REMARK INTER:                  -9.682
REMARK INTRA:                  -0.273
REMARK UNBOUND:                -0.273
REMARK SMILES Oc1cc(O)c2cc(O)c(-c3ccc(O)c(O)c3)[o+]c2c1.[Cl-]
REMARK SMILES IDX 10 1 19 2 20 3 21 4 2 5 3 6 4 7 6 8 7 9 8 10 11 11 12 12
REMARK SMILES IDX 13 13 14 14 18 15 16 16 15 17 17 19 9 21 1 23 5 25
REMARK H PARENT 15 18 17 20 9 22 1 24 5 26
REMARK Flexibility Score: inf
ROOT
ATOM      1  C   UNL     1       0.742 -26.822  -0.120  1.00  0.00     0.402 A 
ATOM      2  O   UNL     1       1.185 -27.385   1.001  1.00  0.00    -0.202 OA
ATOM      3  C   UNL     1       2.321 -28.071   1.074  1.00  0.00     0.368 A 
ATOM      4  C   UNL     1       2.702 -28.629   2.297  1.00  0.00     0.162 A 
ATOM      5  C   UNL     1       3.890 -29.358   2.401  1.00  0.00     0.128 A 
ATOM      6  C   UNL     1       4.700 -29.531   1.277  1.00  0.00     0.093 A 
ATOM      7  C   UNL     1       4.341 -28.982   0.039  1.00  0.00     0.136 A 
ATOM      8  C   UNL     1       3.138 -28.238  -0.070  1.00  0.00     0.125 A 
ATOM      9  C   UNL     1       2.706 -27.642  -1.267  1.00  0.00     0.078 A 
ATOM     10  C   UNL     1       1.508 -26.919  -1.297  1.00  0.00     0.223 A 
ENDROOT
BRANCH   1  11
ATOM     11  C   UNL     1      -0.544 -26.091  -0.075  1.00  0.00     0.087 A 
ATOM     12  C   UNL     1      -1.771 -26.772   0.024  1.00  0.00     0.022 A 
ATOM     13  C   UNL     1      -2.971 -26.059   0.088  1.00  0.00     0.051 A 
ATOM     14  C   UNL     1      -2.963 -24.659   0.068  1.00  0.00     0.157 A 
ATOM     15  C   UNL     1      -0.542 -24.686  -0.074  1.00  0.00     0.068 A 
ATOM     16  C   UNL     1      -1.746 -23.970  -0.010  1.00  0.00     0.158 A 
BRANCH  14  17
ATOM     17  O   UNL     1      -4.159 -23.945   0.131  1.00  0.00    -0.504 OA
ATOM     18  H   UNL     1      -4.186 -22.943  -0.014  1.00  0.00     0.293 HD
ENDBRANCH  14  17
BRANCH  16  19
ATOM     19  O   UNL     1      -1.740 -22.577  -0.023  1.00  0.00    -0.504 OA
ATOM     20  H   UNL     1      -1.261 -22.055  -0.747  1.00  0.00     0.293 HD
ENDBRANCH  16  19
ENDBRANCH   1  11
BRANCH  10  21
ATOM     21  O   UNL     1       1.104 -26.285  -2.470  1.00  0.00    -0.500 OA
ATOM     22  H   UNL     1       0.128 -26.094  -2.664  1.00  0.00     0.294 HD
ENDBRANCH  10  21
BRANCH   5  23
ATOM     23  O   UNL     1       4.276 -29.917   3.617  1.00  0.00    -0.507 OA
ATOM     24  H   UNL     1       3.648 -30.506   4.152  1.00  0.00     0.293 HD
ENDBRANCH   5  23
BRANCH   7  25
ATOM     25  O   UNL     1       5.205 -29.202  -1.037  1.00  0.00    -0.507 OA
ATOM     26  H   UNL     1       5.182 -30.019  -1.630  1.00  0.00     0.293 HD
ENDBRANCH   7  25
TORSDOF 6
ENDMDL
MODEL 2
REMARK VINA RESULT:    -7.852      0.752      1.546
REMARK INTER + INTRA:          -9.731
REMARK INTER:                  -9.645
REMARK INTRA:                  -0.086
REMARK UNBOUND:                -0.273
REMARK SMILES Oc1cc(O)c2cc(O)c(-c3ccc(O)c(O)c3)[o+]c2c1.[Cl-]
REMARK SMILES IDX 10 1 19 2 20 3 21 4 2 5 3 6 4 7 6 8 7 9 8 10 11 11 12 12
REMARK SMILES IDX 13 13 14 14 18 15 16 16 15 17 17 19 9 21 1 23 5 25
REMARK H PARENT 15 18 17 20 9 22 1 24 5 26
REMARK Flexibility Score: inf
ROOT
ATOM      1  C   UNL     1       0.627 -26.891  -0.085  1.00  0.00     0.402 A 
ATOM      2  O   UNL     1       1.063 -27.453   1.040  1.00  0.00    -0.202 OA
ATOM      3  C   UNL     1       2.217 -28.105   1.130  1.00  0.00     0.368 A 
ATOM      4  C   UNL     1       2.588 -28.664   2.355  1.00  0.00     0.162 A 
ATOM      5  C   UNL     1       3.796 -29.358   2.478  1.00  0.00     0.128 A 
ATOM      6  C   UNL     1       4.635 -29.493   1.370  1.00  0.00     0.093 A 
ATOM      7  C   UNL     1       4.287 -28.942   0.131  1.00  0.00     0.136 A 
ATOM      8  C   UNL     1       3.064 -28.234   0.003  1.00  0.00     0.125 A 
ATOM      9  C   UNL     1       2.640 -27.637  -1.197  1.00  0.00     0.078 A 
ATOM     10  C   UNL     1       1.421 -26.952  -1.245  1.00  0.00     0.223 A 
ENDROOT
BRANCH   1  11
ATOM     11  C   UNL     1      -0.682 -26.201  -0.061  1.00  0.00     0.087 A 
ATOM     12  C   UNL     1      -0.810 -24.859  -0.460  1.00  0.00     0.022 A 
ATOM     13  C   UNL     1      -2.061 -24.235  -0.452  1.00  0.00     0.051 A 
ATOM     14  C   UNL     1      -3.201 -24.945  -0.057  1.00  0.00     0.157 A 
ATOM     15  C   UNL     1      -1.833 -26.913   0.314  1.00  0.00     0.068 A 
ATOM     16  C   UNL     1      -3.088 -26.288   0.324  1.00  0.00     0.158 A 
BRANCH  14  17
ATOM     17  O   UNL     1      -4.450 -24.326  -0.046  1.00  0.00    -0.504 OA
ATOM     18  H   UNL     1      -4.985 -24.227   0.808  1.00  0.00     0.293 HD
ENDBRANCH  14  17
BRANCH  16  19
ATOM     19  O   UNL     1      -4.225 -26.995   0.709  1.00  0.00    -0.504 OA
ATOM     20  H   UNL     1      -4.255 -28.007   0.681  1.00  0.00     0.293 HD
ENDBRANCH  16  19
ENDBRANCH   1  11
BRANCH  10  21
ATOM     21  O   UNL     1       1.024 -26.316  -2.421  1.00  0.00    -0.500 OA
ATOM     22  H   UNL     1       0.666 -26.837  -3.213  1.00  0.00     0.294 HD
ENDBRANCH  10  21
BRANCH   5  23
ATOM     23  O   UNL     1       4.172 -29.918   3.697  1.00  0.00    -0.507 OA
ATOM     24  H   UNL     1       4.933 -30.584   3.761  1.00  0.00     0.293 HD
ENDBRANCH   5  23
BRANCH   7  25
ATOM     25  O   UNL     1       5.180 -29.122  -0.928  1.00  0.00    -0.507 OA
ATOM     26  H   UNL     1       5.161 -29.907  -1.563  1.00  0.00     0.293 HD
ENDBRANCH   7  25
TORSDOF 6
ENDMDL
MODEL 3
REMARK VINA RESULT:    -7.594      2.292      6.811
REMARK INTER + INTRA:          -9.421
REMARK INTER:                  -9.831
REMARK INTRA:                   0.410
REMARK UNBOUND:                -0.273
REMARK SMILES Oc1cc(O)c2cc(O)c(-c3ccc(O)c(O)c3)[o+]c2c1.[Cl-]
REMARK SMILES IDX 10 1 19 2 20 3 21 4 2 5 3 6 4 7 6 8 7 9 8 10 11 11 12 12
REMARK SMILES IDX 13 13 14 14 18 15 16 16 15 17 17 19 9 21 1 23 5 25
REMARK H PARENT 15 18 17 20 9 22 1 24 5 26
REMARK Flexibility Score: inf
ROOT
ATOM      1  C   UNL     1       3.570 -28.783   1.256  1.00  0.00     0.402 A 
ATOM      2  O   UNL     1       2.423 -28.128   1.105  1.00  0.00    -0.202 OA
ATOM      3  C   UNL     1       2.043 -27.575  -0.043  1.00  0.00     0.368 A 
ATOM      4  C   UNL     1       0.820 -26.904  -0.103  1.00  0.00     0.162 A 
ATOM      5  C   UNL     1       0.398 -26.311  -1.296  1.00  0.00     0.128 A 
ATOM      6  C   UNL     1       1.204 -26.388  -2.434  1.00  0.00     0.093 A 
ATOM      7  C   UNL     1       2.435 -27.056  -2.401  1.00  0.00     0.136 A 
ATOM      8  C   UNL     1       2.866 -27.662  -1.192  1.00  0.00     0.125 A 
ATOM      9  C   UNL     1       4.078 -28.363  -1.069  1.00  0.00     0.078 A 
ATOM     10  C   UNL     1       4.433 -28.938   0.155  1.00  0.00     0.223 A 
ENDROOT
BRANCH   1  11
ATOM     11  C   UNL     1       3.884 -29.347   2.589  1.00  0.00     0.087 A 
ATOM     12  C   UNL     1       5.110 -29.988   2.843  1.00  0.00     0.022 A 
ATOM     13  C   UNL     1       5.394 -30.491   4.116  1.00  0.00     0.051 A 
ATOM     14  C   UNL     1       4.465 -30.349   5.154  1.00  0.00     0.157 A 
ATOM     15  C   UNL     1       2.966 -29.190   3.640  1.00  0.00     0.068 A 
ATOM     16  C   UNL     1       3.249 -29.695   4.917  1.00  0.00     0.158 A 
BRANCH  14  17
ATOM     17  O   UNL     1       4.744 -30.851   6.424  1.00  0.00    -0.504 OA
ATOM     18  H   UNL     1       5.098 -31.791   6.557  1.00  0.00     0.293 HD
ENDBRANCH  14  17
BRANCH  16  19
ATOM     19  O   UNL     1       2.330 -29.549   5.954  1.00  0.00    -0.504 OA
ATOM     20  H   UNL     1       1.576 -30.212   6.091  1.00  0.00     0.293 HD
ENDBRANCH  16  19
ENDBRANCH   1  11
BRANCH  10  21
ATOM     21  O   UNL     1       5.611 -29.676   0.265  1.00  0.00    -0.500 OA
ATOM     22  H   UNL     1       5.695 -30.607  -0.127  1.00  0.00     0.294 HD
ENDBRANCH  10  21
BRANCH   5  23
ATOM     23  O   UNL     1      -0.821 -25.639  -1.363  1.00  0.00    -0.507 OA
ATOM     24  H   UNL     1      -1.703 -26.135  -1.307  1.00  0.00     0.293 HD
ENDBRANCH   5  23
BRANCH   7  25
ATOM     25  O   UNL     1       3.183 -27.087  -3.581  1.00  0.00    -0.507 OA
ATOM     26  H   UNL     1       3.142 -26.381  -4.301  1.00  0.00     0.293 HD
ENDBRANCH   7  25
TORSDOF 6
ENDMDL
MODEL 4
REMARK VINA RESULT:    -7.269      1.495      6.842
REMARK INTER + INTRA:          -9.029
REMARK INTER:                  -9.378
REMARK INTRA:                   0.350
REMARK UNBOUND:                -0.273
REMARK SMILES Oc1cc(O)c2cc(O)c(-c3ccc(O)c(O)c3)[o+]c2c1.[Cl-]
REMARK SMILES IDX 10 1 19 2 20 3 21 4 2 5 3 6 4 7 6 8 7 9 8 10 11 11 12 12
REMARK SMILES IDX 13 13 14 14 18 15 16 16 15 17 17 19 9 21 1 23 5 25
REMARK H PARENT 15 18 17 20 9 22 1 24 5 26
REMARK Flexibility Score: inf
ROOT
ATOM      1  C   UNL     1       0.637 -26.946  -0.328  1.00  0.00     0.402 A 
ATOM      2  O   UNL     1      -0.498 -26.890   0.363  1.00  0.00    -0.202 OA
ATOM      3  C   UNL     1      -1.565 -26.209  -0.040  1.00  0.00     0.368 A 
ATOM      4  C   UNL     1      -2.712 -26.207   0.757  1.00  0.00     0.162 A 
ATOM      5  C   UNL     1      -3.848 -25.497   0.358  1.00  0.00     0.128 A 
ATOM      6  C   UNL     1      -3.836 -24.785  -0.843  1.00  0.00     0.093 A 
ATOM      7  C   UNL     1      -2.700 -24.771  -1.661  1.00  0.00     0.136 A 
ATOM      8  C   UNL     1      -1.545 -25.493  -1.262  1.00  0.00     0.125 A 
ATOM      9  C   UNL     1      -0.366 -25.546  -2.024  1.00  0.00     0.078 A 
ATOM     10  C   UNL     1       0.731 -26.283  -1.566  1.00  0.00     0.223 A 
ENDROOT
BRANCH   1  11
ATOM     11  C   UNL     1       1.760 -27.731   0.233  1.00  0.00     0.087 A 
ATOM     12  C   UNL     1       2.835 -28.149  -0.572  1.00  0.00     0.022 A 
ATOM     13  C   UNL     1       3.897 -28.869  -0.015  1.00  0.00     0.051 A 
ATOM     14  C   UNL     1       3.905 -29.169   1.353  1.00  0.00     0.157 A 
ATOM     15  C   UNL     1       1.785 -28.018   1.607  1.00  0.00     0.068 A 
ATOM     16  C   UNL     1       2.849 -28.741   2.167  1.00  0.00     0.158 A 
BRANCH  14  17
ATOM     17  O   UNL     1       4.961 -29.888   1.911  1.00  0.00    -0.504 OA
ATOM     18  H   UNL     1       5.009 -30.072   2.906  1.00  0.00     0.293 HD
ENDBRANCH  14  17
BRANCH  16  19
ATOM     19  O   UNL     1       2.863 -29.035   3.529  1.00  0.00    -0.504 OA
ATOM     20  H   UNL     1       3.720 -29.002   4.069  1.00  0.00     0.293 HD
ENDBRANCH  16  19
ENDBRANCH   1  11
BRANCH  10  21
ATOM     21  O   UNL     1       1.883 -26.378  -2.346  1.00  0.00    -0.500 OA
ATOM     22  H   UNL     1       2.600 -25.662  -2.326  1.00  0.00     0.294 HD
ENDBRANCH  10  21
BRANCH   5  23
ATOM     23  O   UNL     1      -4.995 -25.490   1.148  1.00  0.00    -0.507 OA
ATOM     24  H   UNL     1      -5.794 -26.074   0.928  1.00  0.00     0.293 HD
ENDBRANCH   5  23
BRANCH   7  25
ATOM     25  O   UNL     1      -2.768 -24.033  -2.846  1.00  0.00    -0.507 OA
ATOM     26  H   UNL     1      -2.333 -24.308  -3.715  1.00  0.00     0.293 HD
ENDBRANCH   7  25
TORSDOF 6
ENDMDL
MODEL 5
REMARK VINA RESULT:    -7.221      1.829      2.833
REMARK INTER + INTRA:          -8.971
REMARK INTER:                  -9.279
REMARK INTRA:                   0.308
REMARK UNBOUND:                -0.273
REMARK SMILES Oc1cc(O)c2cc(O)c(-c3ccc(O)c(O)c3)[o+]c2c1.[Cl-]
REMARK SMILES IDX 10 1 19 2 20 3 21 4 2 5 3 6 4 7 6 8 7 9 8 10 11 11 12 12
REMARK SMILES IDX 13 13 14 14 18 15 16 16 15 17 17 19 9 21 1 23 5 25
REMARK H PARENT 15 18 17 20 9 22 1 24 5 26
REMARK Flexibility Score: inf
ROOT
ATOM      1  C   UNL     1       2.492 -28.040   0.411  1.00  0.00     0.402 A 
ATOM      2  O   UNL     1       2.462 -28.288   1.718  1.00  0.00    -0.202 OA
ATOM      3  C   UNL     1       3.406 -28.976   2.351  1.00  0.00     0.368 A 
ATOM      4  C   UNL     1       3.286 -29.189   3.726  1.00  0.00     0.162 A 
ATOM      5  C   UNL     1       4.263 -29.912   4.417  1.00  0.00     0.128 A 
ATOM      6  C   UNL     1       5.364 -30.426   3.729  1.00  0.00     0.093 A 
ATOM      7  C   UNL     1       5.509 -30.227   2.350  1.00  0.00     0.136 A 
ATOM      8  C   UNL     1       4.521 -29.490   1.645  1.00  0.00     0.125 A 
ATOM      9  C   UNL     1       4.590 -29.231   0.266  1.00  0.00     0.078 A 
ATOM     10  C   UNL     1       3.579 -28.493  -0.359  1.00  0.00     0.223 A 
ENDROOT
BRANCH   1  11
ATOM     11  C   UNL     1       1.374 -27.269  -0.180  1.00  0.00     0.087 A 
ATOM     12  C   UNL     1       1.529 -26.564  -1.387  1.00  0.00     0.022 A 
ATOM     13  C   UNL     1       0.452 -25.863  -1.938  1.00  0.00     0.051 A 
ATOM     14  C   UNL     1      -0.795 -25.867  -1.300  1.00  0.00     0.157 A 
ATOM     15  C   UNL     1       0.116 -27.286   0.444  1.00  0.00     0.068 A 
ATOM     16  C   UNL     1      -0.964 -26.583  -0.108  1.00  0.00     0.158 A 
BRANCH  14  17
ATOM     17  O   UNL     1      -1.869 -25.168  -1.846  1.00  0.00    -0.504 OA
ATOM     18  H   UNL     1      -2.018 -25.121  -2.847  1.00  0.00     0.293 HD
ENDBRANCH  14  17
BRANCH  16  19
ATOM     19  O   UNL     1      -2.207 -26.592   0.521  1.00  0.00    -0.504 OA
ATOM     20  H   UNL     1      -2.795 -25.766   0.547  1.00  0.00     0.293 HD
ENDBRANCH  16  19
ENDBRANCH   1  11
BRANCH  10  21
ATOM     21  O   UNL     1       3.671 -28.192  -1.717  1.00  0.00    -0.500 OA
ATOM     22  H   UNL     1       3.520 -28.896  -2.431  1.00  0.00     0.294 HD
ENDBRANCH  10  21
BRANCH   5  23
ATOM     23  O   UNL     1       4.150 -30.128   5.789  1.00  0.00    -0.507 OA
ATOM     24  H   UNL     1       3.719 -30.966   6.159  1.00  0.00     0.293 HD
ENDBRANCH   5  23
BRANCH   7  25
ATOM     25  O   UNL     1       6.638 -30.774   1.735  1.00  0.00    -0.507 OA
ATOM     26  H   UNL     1       6.874 -31.756   1.747  1.00  0.00     0.293 HD
ENDBRANCH   7  25
TORSDOF 6
ENDMDL
MODEL 6
REMARK VINA RESULT:    -7.165      2.544      4.663
REMARK INTER + INTRA:          -8.904
REMARK INTER:                  -9.388
REMARK INTRA:                   0.484
REMARK UNBOUND:                -0.273
REMARK SMILES Oc1cc(O)c2cc(O)c(-c3ccc(O)c(O)c3)[o+]c2c1.[Cl-]
REMARK SMILES IDX 10 1 19 2 20 3 21 4 2 5 3 6 4 7 6 8 7 9 8 10 11 11 12 12
REMARK SMILES IDX 13 13 14 14 18 15 16 16 15 17 17 19 9 21 1 23 5 25
REMARK H PARENT 15 18 17 20 9 22 1 24 5 26
REMARK Flexibility Score: inf
ROOT
ATOM      1  C   UNL     1       3.510 -28.866   1.398  1.00  0.00     0.402 A 
ATOM      2  O   UNL     1       3.016 -29.024   2.624  1.00  0.00    -0.202 OA
ATOM      3  C   UNL     1       3.656 -29.675   3.590  1.00  0.00     0.368 A 
ATOM      4  C   UNL     1       3.054 -29.792   4.845  1.00  0.00     0.162 A 
ATOM      5  C   UNL     1       3.704 -30.474   5.878  1.00  0.00     0.128 A 
ATOM      6  C   UNL     1       4.959 -31.043   5.654  1.00  0.00     0.093 A 
ATOM      7  C   UNL     1       5.584 -30.941   4.405  1.00  0.00     0.136 A 
ATOM      8  C   UNL     1       4.930 -30.246   3.354  1.00  0.00     0.125 A 
ATOM      9  C   UNL     1       5.486 -30.082   2.074  1.00  0.00     0.078 A 
ATOM     10  C   UNL     1       4.783 -29.381   1.089  1.00  0.00     0.223 A 
ENDROOT
BRANCH   1  11
ATOM     11  C   UNL     1       2.696 -28.129   0.406  1.00  0.00     0.087 A 
ATOM     12  C   UNL     1       1.499 -27.488   0.771  1.00  0.00     0.022 A 
ATOM     13  C   UNL     1       0.759 -26.778  -0.179  1.00  0.00     0.051 A 
ATOM     14  C   UNL     1       1.211 -26.686  -1.502  1.00  0.00     0.157 A 
ATOM     15  C   UNL     1       3.154 -28.016  -0.918  1.00  0.00     0.068 A 
ATOM     16  C   UNL     1       2.412 -27.305  -1.872  1.00  0.00     0.158 A 
BRANCH  14  17
ATOM     17  O   UNL     1       0.476 -25.981  -2.452  1.00  0.00    -0.504 OA
ATOM     18  H   UNL     1       0.797 -25.886  -3.408  1.00  0.00     0.293 HD
ENDBRANCH  14  17
BRANCH  16  19
ATOM     19  O   UNL     1       2.863 -27.206  -3.186  1.00  0.00    -0.504 OA
ATOM     20  H   UNL     1       2.220 -27.092  -3.960  1.00  0.00     0.293 HD
ENDBRANCH  16  19
ENDBRANCH   1  11
BRANCH  10  21
ATOM     21  O   UNL     1       5.355 -29.175  -0.165  1.00  0.00    -0.500 OA
ATOM     22  H   UNL     1       6.252 -28.715  -0.272  1.00  0.00     0.294 HD
ENDBRANCH  10  21
BRANCH   5  23
ATOM     23  O   UNL     1       3.110 -30.594   7.133  1.00  0.00    -0.507 OA
ATOM     24  H   UNL     1       3.565 -31.091   7.889  1.00  0.00     0.293 HD
ENDBRANCH   5  23
BRANCH   7  25
ATOM     25  O   UNL     1       6.838 -31.539   4.262  1.00  0.00    -0.507 OA
ATOM     26  H   UNL     1       6.984 -32.519   4.069  1.00  0.00     0.293 HD
ENDBRANCH   7  25
TORSDOF 6
ENDMDL
MODEL 7
REMARK VINA RESULT:    -7.121      6.747      8.135
REMARK INTER + INTRA:          -8.851
REMARK INTER:                  -8.500
REMARK INTRA:                  -0.352
REMARK UNBOUND:                -0.273
REMARK SMILES Oc1cc(O)c2cc(O)c(-c3ccc(O)c(O)c3)[o+]c2c1.[Cl-]
REMARK SMILES IDX 10 1 19 2 20 3 21 4 2 5 3 6 4 7 6 8 7 9 8 10 11 11 12 12
REMARK SMILES IDX 13 13 14 14 18 15 16 16 15 17 17 19 9 21 1 23 5 25
REMARK H PARENT 15 18 17 20 9 22 1 24 5 26
REMARK Flexibility Score: inf
ROOT
ATOM      1  C   UNL     1       5.482 -30.285   4.604  1.00  0.00     0.402 A 
ATOM      2  O   UNL     1       5.523 -30.027   3.299  1.00  0.00    -0.202 OA
ATOM      3  C   UNL     1       6.656 -29.866   2.623  1.00  0.00     0.368 A 
ATOM      4  C   UNL     1       6.598 -29.594   1.254  1.00  0.00     0.162 A 
ATOM      5  C   UNL     1       7.773 -29.418   0.519  1.00  0.00     0.128 A 
ATOM      6  C   UNL     1       9.012 -29.513   1.155  1.00  0.00     0.093 A 
ATOM      7  C   UNL     1       9.099 -29.785   2.526  1.00  0.00     0.136 A 
ATOM      8  C   UNL     1       7.908 -29.968   3.276  1.00  0.00     0.125 A 
ATOM      9  C   UNL     1       7.898 -30.257   4.651  1.00  0.00     0.078 A 
ATOM     10  C   UNL     1       6.684 -30.428   5.323  1.00  0.00     0.223 A 
ENDROOT
BRANCH   1  11
ATOM     11  C   UNL     1       4.157 -30.433   5.246  1.00  0.00     0.087 A 
ATOM     12  C   UNL     1       3.474 -29.326   5.781  1.00  0.00     0.022 A 
ATOM     13  C   UNL     1       2.213 -29.487   6.362  1.00  0.00     0.051 A 
ATOM     14  C   UNL     1       1.611 -30.751   6.405  1.00  0.00     0.157 A 
ATOM     15  C   UNL     1       3.539 -31.695   5.274  1.00  0.00     0.068 A 
ATOM     16  C   UNL     1       2.274 -31.857   5.858  1.00  0.00     0.158 A 
BRANCH  14  17
ATOM     17  O   UNL     1       0.355 -30.915   6.985  1.00  0.00    -0.504 OA
ATOM     18  H   UNL     1      -0.393 -31.398   6.503  1.00  0.00     0.293 HD
ENDBRANCH  14  17
BRANCH  16  19
ATOM     19  O   UNL     1       1.670 -33.112   5.895  1.00  0.00    -0.504 OA
ATOM     20  H   UNL     1       0.774 -33.282   5.454  1.00  0.00     0.293 HD
ENDBRANCH  16  19
ENDBRANCH   1  11
BRANCH  10  21
ATOM     21  O   UNL     1       6.674 -30.764   6.676  1.00  0.00    -0.500 OA
ATOM     22  H   UNL     1       6.558 -31.722   6.986  1.00  0.00     0.294 HD
ENDBRANCH  10  21
BRANCH   5  23
ATOM     23  O   UNL     1       7.722 -29.146  -0.847  1.00  0.00    -0.507 OA
ATOM     24  H   UNL     1       7.222 -28.343  -1.209  1.00  0.00     0.293 HD
ENDBRANCH   5  23
BRANCH   7  25
ATOM     25  O   UNL     1      10.376 -29.862   3.088  1.00  0.00    -0.507 OA
ATOM     26  H   UNL     1      10.608 -29.551   4.020  1.00  0.00     0.293 HD
ENDBRANCH   7  25
TORSDOF 6
ENDMDL
MODEL 8
REMARK VINA RESULT:    -6.820      3.417      8.218
REMARK INTER + INTRA:          -8.488
REMARK INTER:                  -8.176
REMARK INTRA:                  -0.313
REMARK UNBOUND:                -0.273
REMARK SMILES Oc1cc(O)c2cc(O)c(-c3ccc(O)c(O)c3)[o+]c2c1.[Cl-]
REMARK SMILES IDX 10 1 19 2 20 3 21 4 2 5 3 6 4 7 6 8 7 9 8 10 11 11 12 12
REMARK SMILES IDX 13 13 14 14 18 15 16 16 15 17 17 19 9 21 1 23 5 25
REMARK H PARENT 15 18 17 20 9 22 1 24 5 26
REMARK Flexibility Score: inf
ROOT
ATOM      1  C   UNL     1       4.356 -29.907   2.585  1.00  0.00     0.402 A 
ATOM      2  O   UNL     1       4.925 -29.658   1.409  1.00  0.00    -0.202 OA
ATOM      3  C   UNL     1       4.327 -28.973   0.439  1.00  0.00     0.368 A 
ATOM      4  C   UNL     1       5.005 -28.765  -0.764  1.00  0.00     0.162 A 
ATOM      5  C   UNL     1       4.398 -28.051  -1.802  1.00  0.00     0.128 A 
ATOM      6  C   UNL     1       3.108 -27.544  -1.635  1.00  0.00     0.093 A 
ATOM      7  C   UNL     1       2.407 -27.738  -0.438  1.00  0.00     0.136 A 
ATOM      8  C   UNL     1       3.020 -28.460   0.619  1.00  0.00     0.125 A 
ATOM      9  C   UNL     1       2.398 -28.692   1.857  1.00  0.00     0.078 A 
ATOM     10  C   UNL     1       3.067 -29.409   2.854  1.00  0.00     0.223 A 
ENDROOT
BRANCH   1  11
ATOM     11  C   UNL     1       5.122 -30.690   3.581  1.00  0.00     0.087 A 
ATOM     12  C   UNL     1       5.235 -32.088   3.484  1.00  0.00     0.022 A 
ATOM     13  C   UNL     1       5.983 -32.804   4.423  1.00  0.00     0.051 A 
ATOM     14  C   UNL     1       6.638 -32.133   5.463  1.00  0.00     0.157 A 
ATOM     15  C   UNL     1       5.799 -30.021   4.615  1.00  0.00     0.068 A 
ATOM     16  C   UNL     1       6.549 -30.739   5.558  1.00  0.00     0.158 A 
BRANCH  14  17
ATOM     17  O   UNL     1       7.384 -32.844   6.402  1.00  0.00    -0.504 OA
ATOM     18  H   UNL     1       6.960 -33.216   7.244  1.00  0.00     0.293 HD
ENDBRANCH  14  17
BRANCH  16  19
ATOM     19  O   UNL     1       7.208 -30.073   6.589  1.00  0.00    -0.504 OA
ATOM     20  H   UNL     1       6.704 -29.696   7.384  1.00  0.00     0.293 HD
ENDBRANCH  16  19
ENDBRANCH   1  11
BRANCH  10  21
ATOM     21  O   UNL     1       2.471 -29.596   4.101  1.00  0.00    -0.500 OA
ATOM     22  H   UNL     1       1.861 -30.383   4.287  1.00  0.00     0.294 HD
ENDBRANCH  10  21
BRANCH   5  23
ATOM     23  O   UNL     1       5.068 -27.840  -3.005  1.00  0.00    -0.507 OA
ATOM     24  H   UNL     1       4.965 -28.476  -3.787  1.00  0.00     0.293 HD
ENDBRANCH   5  23
BRANCH   7  25
ATOM     25  O   UNL     1       1.120 -27.201  -0.351  1.00  0.00    -0.507 OA
ATOM     26  H   UNL     1       0.467 -27.157  -1.120  1.00  0.00     0.293 HD
ENDBRANCH   7  25
TORSDOF 6
ENDMDL
MODEL 9
REMARK VINA RESULT:    -6.790      1.593      3.362
REMARK INTER + INTRA:          -8.452
REMARK INTER:                  -8.447
REMARK INTRA:                  -0.005
REMARK UNBOUND:                -0.273
REMARK SMILES Oc1cc(O)c2cc(O)c(-c3ccc(O)c(O)c3)[o+]c2c1.[Cl-]
REMARK SMILES IDX 10 1 19 2 20 3 21 4 2 5 3 6 4 7 6 8 7 9 8 10 11 11 12 12
REMARK SMILES IDX 13 13 14 14 18 15 16 16 15 17 17 19 9 21 1 23 5 25
REMARK H PARENT 15 18 17 20 9 22 1 24 5 26
REMARK Flexibility Score: inf
ROOT
ATOM      1  C   UNL     1       0.677 -26.873  -0.488  1.00  0.00     0.402 A 
ATOM      2  O   UNL     1       1.205 -26.592  -1.676  1.00  0.00    -0.202 OA
ATOM      3  C   UNL     1       2.410 -27.005  -2.054  1.00  0.00     0.368 A 
ATOM      4  C   UNL     1       2.881 -26.657  -3.322  1.00  0.00     0.162 A 
ATOM      5  C   UNL     1       4.147 -27.075  -3.745  1.00  0.00     0.128 A 
ATOM      6  C   UNL     1       4.945 -27.843  -2.895  1.00  0.00     0.093 A 
ATOM      7  C   UNL     1       4.496 -28.207  -1.619  1.00  0.00     0.136 A 
ATOM      8  C   UNL     1       3.211 -27.787  -1.187  1.00  0.00     0.125 A 
ATOM      9  C   UNL     1       2.674 -28.115   0.069  1.00  0.00     0.078 A 
ATOM     10  C   UNL     1       1.397 -27.668   0.424  1.00  0.00     0.223 A 
ENDROOT
BRANCH   1  11
ATOM     11  C   UNL     1      -0.672 -26.347  -0.180  1.00  0.00     0.087 A 
ATOM     12  C   UNL     1      -1.683 -27.178   0.336  1.00  0.00     0.022 A 
ATOM     13  C   UNL     1      -2.942 -26.654   0.641  1.00  0.00     0.051 A 
ATOM     14  C   UNL     1      -3.205 -25.292   0.449  1.00  0.00     0.157 A 
ATOM     15  C   UNL     1      -0.936 -24.978  -0.351  1.00  0.00     0.068 A 
ATOM     16  C   UNL     1      -2.199 -24.451  -0.045  1.00  0.00     0.158 A 
BRANCH  14  17
ATOM     17  O   UNL     1      -4.460 -24.766   0.751  1.00  0.00    -0.504 OA
ATOM     18  H   UNL     1      -4.987 -24.229   0.073  1.00  0.00     0.293 HD
ENDBRANCH  14  17
BRANCH  16  19
ATOM     19  O   UNL     1      -2.461 -23.095  -0.228  1.00  0.00    -0.504 OA
ATOM     20  H   UNL     1      -3.014 -22.567   0.437  1.00  0.00     0.293 HD
ENDBRANCH  16  19
ENDBRANCH   1  11
BRANCH  10  21
ATOM     21  O   UNL     1       0.844 -28.035   1.650  1.00  0.00    -0.500 OA
ATOM     22  H   UNL     1       1.311 -27.835   2.526  1.00  0.00     0.294 HD
ENDBRANCH  10  21
BRANCH   5  23
ATOM     23  O   UNL     1       4.623 -26.731  -5.008  1.00  0.00    -0.507 OA
ATOM     24  H   UNL     1       5.600 -26.513  -5.165  1.00  0.00     0.293 HD
ENDBRANCH   5  23
BRANCH   7  25
ATOM     25  O   UNL     1       5.355 -28.975  -0.829  1.00  0.00    -0.507 OA
ATOM     26  H   UNL     1       5.568 -28.781   0.138  1.00  0.00     0.293 HD
ENDBRANCH   7  25
TORSDOF 6
ENDMDL
