MODEL 1
REMARK VINA RESULT:    -6.765      0.000      0.000
REMARK INTER + INTRA:          -7.525
REMARK INTER:                  -7.358
REMARK INTRA:                  -0.167
REMARK UNBOUND:                -0.167
REMARK SMILES C[C@H]1[C@H](C)CC[C@@]2(C(=O)[O-])CC[C@@]3(C)C(=CC[C@H]4[C@@]5(C)CC[C@@H](O)C(C)(C)[C@H]5CC[C@@]43C)[C@@H]12
REMARK SMILES IDX 7 1 6 2 11 3 33 4 5 5 12 6 15 7 2 8 3 9 13 10 16 11 1 12
REMARK SMILES IDX 4 13 14 14 31 15 17 16 18 17 30 18 32 19 19 20 29 21 28 22
REMARK SMILES IDX 21 23 20 24 25 25 22 26 23 27 26 28 27 29 8 30 9 31 10 32
REMARK SMILES IDX 24 33
REMARK H PARENT 24 34
REMARK Flexibility Score: inf
ROOT
ATOM      1  C   UNL     1       8.039 -32.276   5.688  1.00  0.00     0.017 C 
ATOM      2  C   UNL     1       7.763 -32.807   7.124  1.00  0.00     0.014 C 
ATOM      3  C   UNL     1       7.088 -31.102   5.361  1.00  0.00     0.014 C 
ATOM      4  C   UNL     1       9.531 -31.803   5.493  1.00  0.00     0.030 C 
ATOM      5  C   UNL     1       8.383 -31.971   8.240  1.00  0.00     0.004 C 
ATOM      6  C   UNL     1       7.208 -30.660   3.892  1.00  0.00     0.013 C 
ATOM      7  C   UNL     1       9.762 -31.018   4.182  1.00  0.00    -0.063 C 
ATOM      8  C   UNL     1      10.255 -31.150   6.733  1.00  0.00    -0.003 C 
ATOM      9  C   UNL     1       9.902 -31.839   8.075  1.00  0.00    -0.011 C 
ATOM     10  C   UNL     1       8.646 -30.185   3.474  1.00  0.00    -0.006 C 
ATOM     11  C   UNL     1      10.996 -31.148   3.618  1.00  0.00    -0.027 C 
ATOM     12  C   UNL     1      10.109 -29.626   6.866  1.00  0.00     0.008 C 
ATOM     13  C   UNL     1      10.632 -33.184   8.245  1.00  0.00     0.008 C 
ATOM     14  C   UNL     1       8.744 -28.709   3.964  1.00  0.00     0.017 C 
ATOM     15  C   UNL     1       8.858 -30.320   1.880  1.00  0.00    -0.020 C 
ATOM     16  C   UNL     1      11.371 -30.735   2.211  1.00  0.00     0.032 C 
ATOM     17  C   UNL     1      10.319 -29.832   1.531  1.00  0.00     0.006 C 
ATOM     18  C   UNL     1       7.841 -29.467   1.033  1.00  0.00     0.008 C 
ATOM     19  C   UNL     1       8.667 -31.844   1.505  1.00  0.00     0.012 C 
ATOM     20  C   UNL     1      10.583 -29.419   0.010  1.00  0.00    -0.025 C 
ATOM     21  C   UNL     1       8.383 -28.104   0.572  1.00  0.00     0.005 C 
ATOM     22  C   UNL     1       9.635 -28.187  -0.374  1.00  0.00     0.003 C 
ATOM     23  C   UNL     1      10.364 -30.616  -0.958  1.00  0.00     0.010 C 
ATOM     24  C   UNL     1      12.075 -28.977  -0.090  1.00  0.00     0.012 C 
ATOM     25  C   UNL     1       9.359 -27.938  -1.943  1.00  0.00    -0.006 C 
ATOM     26  C   UNL     1      10.404 -30.233  -2.433  1.00  0.00     0.033 C 
ATOM     27  C   UNL     1       9.261 -29.263  -2.760  1.00  0.00     0.120 C 
ATOM     28  C   UNL     1       8.061 -27.119  -2.207  1.00  0.00     0.014 C 
ATOM     29  C   UNL     1      10.490 -27.059  -2.563  1.00  0.00     0.014 C 
ENDROOT
BRANCH   1  30
ATOM     30  C   UNL     1       7.709 -33.456   4.766  1.00  0.00     0.048 C 
ATOM     31  O   UNL     1       6.538 -33.921   4.726  1.00  0.00    -0.550 OA
ATOM     32  O   UNL     1       8.704 -34.117   4.052  1.00  0.00    -0.550 OA
ENDBRANCH   1  30
BRANCH  27  33
ATOM     33  O   UNL     1       8.024 -29.896  -2.528  1.00  0.00    -0.393 OA
ATOM     34  H   UNL     1       7.395 -29.197  -2.209  1.00  0.00     0.210 HD
ENDBRANCH  27  33
TORSDOF 2
ENDMDL
MODEL 2
REMARK VINA RESULT:    -6.293      1.587      7.859
REMARK INTER + INTRA:          -7.012
REMARK INTER:                  -6.832
REMARK INTRA:                  -0.181
REMARK UNBOUND:                -0.167
REMARK SMILES C[C@H]1[C@H](C)CC[C@@]2(C(=O)[O-])CC[C@@]3(C)C(=CC[C@H]4[C@@]5(C)CC[C@@H](O)C(C)(C)[C@H]5CC[C@@]43C)[C@@H]12
REMARK SMILES IDX 7 1 6 2 11 3 33 4 5 5 12 6 15 7 2 8 3 9 13 10 16 11 1 12
REMARK SMILES IDX 4 13 14 14 31 15 17 16 18 17 30 18 32 19 19 20 29 21 28 22
REMARK SMILES IDX 21 23 20 24 25 25 22 26 23 27 26 28 27 29 8 30 9 31 10 32
REMARK SMILES IDX 24 33
REMARK H PARENT 24 34
REMARK Flexibility Score: inf
ROOT
ATOM      1  C   UNL     1       8.859 -28.817  -1.973  1.00  0.00     0.017 C 
ATOM      2  C   UNL     1       9.315 -28.299  -3.367  1.00  0.00     0.014 C 
ATOM      3  C   UNL     1       9.173 -30.324  -1.833  1.00  0.00     0.014 C 
ATOM      4  C   UNL     1       9.538 -28.033  -0.784  1.00  0.00     0.030 C 
ATOM      5  C   UNL     1      10.810 -28.016  -3.481  1.00  0.00     0.004 C 
ATOM      6  C   UNL     1       8.585 -30.914  -0.540  1.00  0.00     0.013 C 
ATOM      7  C   UNL     1       9.325 -28.701   0.594  1.00  0.00    -0.063 C 
ATOM      8  C   UNL     1      11.016 -27.528  -0.997  1.00  0.00    -0.003 C 
ATOM      9  C   UNL     1      11.278 -27.001  -2.430  1.00  0.00    -0.011 C 
ATOM     10  C   UNL     1       9.106 -30.236   0.778  1.00  0.00    -0.006 C 
ATOM     11  C   UNL     1       9.264 -27.857   1.663  1.00  0.00    -0.027 C 
ATOM     12  C   UNL     1      12.125 -28.508  -0.584  1.00  0.00     0.008 C 
ATOM     13  C   UNL     1      10.672 -25.602  -2.652  1.00  0.00     0.008 C 
ATOM     14  C   UNL     1      10.486 -30.904   1.059  1.00  0.00     0.017 C 
ATOM     15  C   UNL     1       8.061 -30.450   1.989  1.00  0.00    -0.020 C 
ATOM     16  C   UNL     1       8.776 -28.221   3.048  1.00  0.00     0.032 C 
ATOM     17  C   UNL     1       8.643 -29.742   3.276  1.00  0.00     0.006 C 
ATOM     18  C   UNL     1       7.798 -31.962   2.337  1.00  0.00     0.008 C 
ATOM     19  C   UNL     1       6.691 -29.791   1.553  1.00  0.00     0.012 C 
ATOM     20  C   UNL     1       8.045 -30.222   4.679  1.00  0.00    -0.025 C 
ATOM     21  C   UNL     1       8.632 -32.499   3.513  1.00  0.00     0.005 C 
ATOM     22  C   UNL     1       8.365 -31.778   4.883  1.00  0.00     0.003 C 
ATOM     23  C   UNL     1       6.518 -29.948   4.779  1.00  0.00     0.010 C 
ATOM     24  C   UNL     1       8.764 -29.394   5.787  1.00  0.00     0.012 C 
ATOM     25  C   UNL     1       7.452 -32.580   5.943  1.00  0.00    -0.006 C 
ATOM     26  C   UNL     1       5.859 -30.565   6.006  1.00  0.00     0.033 C 
ATOM     27  C   UNL     1       5.969 -32.095   5.955  1.00  0.00     0.120 C 
ATOM     28  C   UNL     1       7.449 -34.117   5.698  1.00  0.00     0.014 C 
ATOM     29  C   UNL     1       8.032 -32.430   7.385  1.00  0.00     0.014 C 
ENDROOT
BRANCH   1  30
ATOM     30  C   UNL     1       7.337 -28.623  -1.963  1.00  0.00     0.048 C 
ATOM     31  O   UNL     1       6.612 -29.265  -2.770  1.00  0.00    -0.550 OA
ATOM     32  O   UNL     1       6.736 -27.655  -1.164  1.00  0.00    -0.550 OA
ENDBRANCH   1  30
BRANCH  27  33
ATOM     33  O   UNL     1       5.283 -32.581   4.825  1.00  0.00    -0.393 OA
ATOM     34  H   UNL     1       5.040 -31.794   4.271  1.00  0.00     0.210 HD
ENDBRANCH  27  33
TORSDOF 2
ENDMDL
MODEL 3
REMARK VINA RESULT:    -6.182      2.437      7.737
REMARK INTER + INTRA:          -6.892
REMARK INTER:                  -6.713
REMARK INTRA:                  -0.179
REMARK UNBOUND:                -0.167
REMARK SMILES C[C@H]1[C@H](C)CC[C@@]2(C(=O)[O-])CC[C@@]3(C)C(=CC[C@H]4[C@@]5(C)CC[C@@H](O)C(C)(C)[C@H]5CC[C@@]43C)[C@@H]12
REMARK SMILES IDX 7 1 6 2 11 3 33 4 5 5 12 6 15 7 2 8 3 9 13 10 16 11 1 12
REMARK SMILES IDX 4 13 14 14 31 15 17 16 18 17 30 18 32 19 19 20 29 21 28 22
REMARK SMILES IDX 21 23 20 24 25 25 22 26 23 27 26 28 27 29 8 30 9 31 10 32
REMARK SMILES IDX 24 33
REMARK H PARENT 24 34
REMARK Flexibility Score: inf
ROOT
ATOM      1  C   UNL     1      10.708 -28.681  -0.362  1.00  0.00     0.017 C 
ATOM      2  C   UNL     1      11.571 -28.036  -1.484  1.00  0.00     0.014 C 
ATOM      3  C   UNL     1       9.530 -27.750   0.008  1.00  0.00     0.014 C 
ATOM      4  C   UNL     1      10.142 -30.095  -0.771  1.00  0.00     0.030 C 
ATOM      5  C   UNL     1      10.995 -28.178  -2.889  1.00  0.00     0.004 C 
ATOM      6  C   UNL     1       8.752 -28.269   1.229  1.00  0.00     0.013 C 
ATOM      7  C   UNL     1       9.063 -30.630   0.198  1.00  0.00    -0.063 C 
ATOM      8  C   UNL     1       9.768 -30.318  -2.286  1.00  0.00    -0.003 C 
ATOM      9  C   UNL     1      10.765 -29.647  -3.264  1.00  0.00    -0.011 C 
ATOM     10  C   UNL     1       8.134 -29.702   1.044  1.00  0.00    -0.006 C 
ATOM     11  C   UNL     1       9.007 -31.984   0.339  1.00  0.00    -0.027 C 
ATOM     12  C   UNL     1       8.325 -29.964  -2.678  1.00  0.00     0.008 C 
ATOM     13  C   UNL     1      12.082 -30.438  -3.380  1.00  0.00     0.008 C 
ATOM     14  C   UNL     1       6.811 -29.472   0.253  1.00  0.00     0.017 C 
ATOM     15  C   UNL     1       7.883 -30.412   2.470  1.00  0.00    -0.020 C 
ATOM     16  C   UNL     1       8.260 -32.729   1.426  1.00  0.00     0.032 C 
ATOM     17  C   UNL     1       7.268 -31.843   2.210  1.00  0.00     0.006 C 
ATOM     18  C   UNL     1       6.899 -29.618   3.407  1.00  0.00     0.008 C 
ATOM     19  C   UNL     1       9.284 -30.523   3.196  1.00  0.00     0.012 C 
ATOM     20  C   UNL     1       6.500 -32.518   3.439  1.00  0.00    -0.025 C 
ATOM     21  C   UNL     1       5.444 -30.116   3.370  1.00  0.00     0.005 C 
ATOM     22  C   UNL     1       5.252 -31.601   3.848  1.00  0.00     0.003 C 
ATOM     23  C   UNL     1       7.445 -32.749   4.652  1.00  0.00     0.010 C 
ATOM     24  C   UNL     1       5.986 -33.906   2.949  1.00  0.00     0.012 C 
ATOM     25  C   UNL     1       4.654 -31.799   5.332  1.00  0.00    -0.006 C 
ATOM     26  C   UNL     1       6.726 -33.201   5.918  1.00  0.00     0.033 C 
ATOM     27  C   UNL     1       5.754 -32.112   6.393  1.00  0.00     0.120 C 
ATOM     28  C   UNL     1       3.850 -30.562   5.831  1.00  0.00     0.014 C 
ATOM     29  C   UNL     1       3.608 -32.958   5.348  1.00  0.00     0.014 C 
ENDROOT
BRANCH   1  30
ATOM     30  C   UNL     1      11.652 -28.791   0.842  1.00  0.00     0.048 C 
ATOM     31  O   UNL     1      12.116 -27.750   1.381  1.00  0.00    -0.550 OA
ATOM     32  O   UNL     1      12.115 -30.026   1.287  1.00  0.00    -0.550 OA
ENDBRANCH   1  30
BRANCH  27  33
ATOM     33  O   UNL     1       6.474 -30.946   6.717  1.00  0.00    -0.393 OA
ATOM     34  H   UNL     1       6.291 -30.746   7.672  1.00  0.00     0.210 HD
ENDBRANCH  27  33
TORSDOF 2
ENDMDL
MODEL 4
REMARK VINA RESULT:    -5.878      1.727      2.565
REMARK INTER + INTRA:          -6.561
REMARK INTER:                  -6.839
REMARK INTRA:                   0.278
REMARK UNBOUND:                -0.167
REMARK SMILES C[C@H]1[C@H](C)CC[C@@]2(C(=O)[O-])CC[C@@]3(C)C(=CC[C@H]4[C@@]5(C)CC[C@@H](O)C(C)(C)[C@H]5CC[C@@]43C)[C@@H]12
REMARK SMILES IDX 7 1 6 2 11 3 33 4 5 5 12 6 15 7 2 8 3 9 13 10 16 11 1 12
REMARK SMILES IDX 4 13 14 14 31 15 17 16 18 17 30 18 32 19 19 20 29 21 28 22
REMARK SMILES IDX 21 23 20 24 25 25 22 26 23 27 26 28 27 29 8 30 9 31 10 32
REMARK SMILES IDX 24 33
REMARK H PARENT 24 34
REMARK Flexibility Score: inf
ROOT
ATOM      1  C   UNL     1       7.638 -30.641   5.065  1.00  0.00     0.017 C 
ATOM      2  C   UNL     1       7.268 -31.042   6.522  1.00  0.00     0.014 C 
ATOM      3  C   UNL     1       8.545 -29.390   5.070  1.00  0.00     0.014 C 
ATOM      4  C   UNL     1       8.361 -31.803   4.282  1.00  0.00     0.030 C 
ATOM      5  C   UNL     1       8.356 -31.813   7.264  1.00  0.00     0.004 C 
ATOM      6  C   UNL     1       8.794 -28.857   3.648  1.00  0.00     0.013 C 
ATOM      7  C   UNL     1       8.986 -31.347   2.944  1.00  0.00    -0.063 C 
ATOM      8  C   UNL     1       9.309 -32.755   5.107  1.00  0.00    -0.003 C 
ATOM      9  C   UNL     1       8.759 -33.089   6.516  1.00  0.00    -0.011 C 
ATOM     10  C   UNL     1       9.478 -29.889   2.679  1.00  0.00    -0.006 C 
ATOM     11  C   UNL     1       9.023 -32.283   1.953  1.00  0.00    -0.027 C 
ATOM     12  C   UNL     1      10.779 -32.316   5.204  1.00  0.00     0.008 C 
ATOM     13  C   UNL     1       7.619 -34.125   6.461  1.00  0.00     0.008 C 
ATOM     14  C   UNL     1      10.998 -29.810   3.014  1.00  0.00     0.017 C 
ATOM     15  C   UNL     1       9.167 -29.528   1.139  1.00  0.00    -0.020 C 
ATOM     16  C   UNL     1       9.302 -32.010   0.491  1.00  0.00     0.032 C 
ATOM     17  C   UNL     1       9.878 -30.602   0.225  1.00  0.00     0.006 C 
ATOM     18  C   UNL     1       9.677 -28.102   0.707  1.00  0.00     0.008 C 
ATOM     19  C   UNL     1       7.597 -29.575   0.949  1.00  0.00     0.012 C 
ATOM     20  C   UNL     1      10.119 -30.187  -1.300  1.00  0.00    -0.025 C 
ATOM     21  C   UNL     1      11.043 -28.102  -0.000  1.00  0.00     0.005 C 
ATOM     22  C   UNL     1      11.075 -28.904  -1.352  1.00  0.00     0.003 C 
ATOM     23  C   UNL     1       8.779 -29.916  -2.042  1.00  0.00     0.010 C 
ATOM     24  C   UNL     1      10.826 -31.391  -1.994  1.00  0.00     0.012 C 
ATOM     25  C   UNL     1      11.045 -28.023  -2.702  1.00  0.00    -0.006 C 
ATOM     26  C   UNL     1       8.954 -29.323  -3.435  1.00  0.00     0.033 C 
ATOM     27  C   UNL     1       9.625 -27.946  -3.345  1.00  0.00     0.120 C 
ATOM     28  C   UNL     1      11.549 -26.566  -2.486  1.00  0.00     0.014 C 
ATOM     29  C   UNL     1      12.034 -28.610  -3.758  1.00  0.00     0.014 C 
ENDROOT
BRANCH   1  30
ATOM     30  C   UNL     1       6.299 -30.283   4.408  1.00  0.00     0.048 C 
ATOM     31  O   UNL     1       5.421 -29.655   5.059  1.00  0.00    -0.550 OA
ATOM     32  O   UNL     1       5.972 -30.742   3.135  1.00  0.00    -0.550 OA
ENDBRANCH   1  30
BRANCH  27  33
ATOM     33  O   UNL     1       8.802 -27.065  -2.618  1.00  0.00    -0.393 OA
ATOM     34  H   UNL     1       8.336 -26.489  -3.279  1.00  0.00     0.210 HD
ENDBRANCH  27  33
TORSDOF 2
ENDMDL
MODEL 5
REMARK VINA RESULT:    -5.405      2.178      3.919
REMARK INTER + INTRA:          -6.047
REMARK INTER:                  -6.007
REMARK INTRA:                  -0.039
REMARK UNBOUND:                -0.167
REMARK SMILES C[C@H]1[C@H](C)CC[C@@]2(C(=O)[O-])CC[C@@]3(C)C(=CC[C@H]4[C@@]5(C)CC[C@@H](O)C(C)(C)[C@H]5CC[C@@]43C)[C@@H]12
REMARK SMILES IDX 7 1 6 2 11 3 33 4 5 5 12 6 15 7 2 8 3 9 13 10 16 11 1 12
REMARK SMILES IDX 4 13 14 14 31 15 17 16 18 17 30 18 32 19 19 20 29 21 28 22
REMARK SMILES IDX 21 23 20 24 25 25 22 26 23 27 26 28 27 29 8 30 9 31 10 32
REMARK SMILES IDX 24 33
REMARK H PARENT 24 34
REMARK Flexibility Score: inf
ROOT
ATOM      1  C   UNL     1       7.726 -31.388   5.207  1.00  0.00     0.017 C 
ATOM      2  C   UNL     1       7.188 -31.979   6.542  1.00  0.00     0.014 C 
ATOM      3  C   UNL     1       8.787 -32.332   4.595  1.00  0.00     0.014 C 
ATOM      4  C   UNL     1       6.582 -31.139   4.150  1.00  0.00     0.030 C 
ATOM      5  C   UNL     1       6.140 -33.076   6.374  1.00  0.00     0.004 C 
ATOM      6  C   UNL     1       9.469 -31.706   3.366  1.00  0.00     0.013 C 
ATOM      7  C   UNL     1       7.113 -30.823   2.732  1.00  0.00    -0.063 C 
ATOM      8  C   UNL     1       5.371 -32.148   4.138  1.00  0.00    -0.003 C 
ATOM      9  C   UNL     1       4.936 -32.591   5.558  1.00  0.00    -0.011 C 
ATOM     10  C   UNL     1       8.487 -31.337   2.196  1.00  0.00    -0.006 C 
ATOM     11  C   UNL     1       6.339 -29.993   1.977  1.00  0.00    -0.027 C 
ATOM     12  C   UNL     1       5.529 -33.375   3.227  1.00  0.00     0.008 C 
ATOM     13  C   UNL     1       4.133 -31.496   6.285  1.00  0.00     0.008 C 
ATOM     14  C   UNL     1       8.251 -32.674   1.430  1.00  0.00     0.017 C 
ATOM     15  C   UNL     1       9.116 -30.190   1.254  1.00  0.00    -0.020 C 
ATOM     16  C   UNL     1       6.769 -29.304   0.700  1.00  0.00     0.032 C 
ATOM     17  C   UNL     1       8.079 -29.866   0.107  1.00  0.00     0.006 C 
ATOM     18  C   UNL     1      10.479 -30.601   0.581  1.00  0.00     0.008 C 
ATOM     19  C   UNL     1       9.370 -28.919   2.161  1.00  0.00     0.012 C 
ATOM     20  C   UNL     1       8.664 -29.141  -1.192  1.00  0.00    -0.025 C 
ATOM     21  C   UNL     1      10.345 -31.129  -0.858  1.00  0.00     0.005 C 
ATOM     22  C   UNL     1       9.755 -30.090  -1.879  1.00  0.00     0.003 C 
ATOM     23  C   UNL     1       9.268 -27.749  -0.853  1.00  0.00     0.010 C 
ATOM     24  C   UNL     1       7.469 -28.929  -2.171  1.00  0.00     0.012 C 
ATOM     25  C   UNL     1      10.815 -29.388  -2.872  1.00  0.00    -0.006 C 
ATOM     26  C   UNL     1      10.018 -27.102  -2.011  1.00  0.00     0.033 C 
ATOM     27  C   UNL     1      11.230 -27.959  -2.403  1.00  0.00     0.120 C 
ATOM     28  C   UNL     1      12.115 -30.224  -3.057  1.00  0.00     0.014 C 
ATOM     29  C   UNL     1      10.226 -29.284  -4.313  1.00  0.00     0.014 C 
ENDROOT
BRANCH   1  30
ATOM     30  C   UNL     1       8.403 -30.072   5.608  1.00  0.00     0.048 C 
ATOM     31  O   UNL     1       7.993 -28.978   5.133  1.00  0.00    -0.550 OA
ATOM     32  O   UNL     1       9.551 -30.060   6.394  1.00  0.00    -0.550 OA
ENDBRANCH   1  30
BRANCH  27  33
ATOM     33  O   UNL     1      12.125 -28.036  -1.319  1.00  0.00    -0.393 OA
ATOM     34  H   UNL     1      12.613 -28.896  -1.404  1.00  0.00     0.210 HD
ENDBRANCH  27  33
TORSDOF 2
ENDMDL
MODEL 6
REMARK VINA RESULT:    -5.392      1.717      7.820
REMARK INTER + INTRA:          -6.032
REMARK INTER:                  -5.843
REMARK INTRA:                  -0.189
REMARK UNBOUND:                -0.167
REMARK SMILES C[C@H]1[C@H](C)CC[C@@]2(C(=O)[O-])CC[C@@]3(C)C(=CC[C@H]4[C@@]5(C)CC[C@@H](O)C(C)(C)[C@H]5CC[C@@]43C)[C@@H]12
REMARK SMILES IDX 7 1 6 2 11 3 33 4 5 5 12 6 15 7 2 8 3 9 13 10 16 11 1 12
REMARK SMILES IDX 4 13 14 14 31 15 17 16 18 17 30 18 32 19 19 20 29 21 28 22
REMARK SMILES IDX 21 23 20 24 25 25 22 26 23 27 26 28 27 29 8 30 9 31 10 32
REMARK SMILES IDX 24 33
REMARK H PARENT 24 34
REMARK Flexibility Score: inf
ROOT
ATOM      1  C   UNL     1      10.932 -31.560  -1.264  1.00  0.00     0.017 C 
ATOM      2  C   UNL     1      11.400 -31.336  -2.730  1.00  0.00     0.014 C 
ATOM      3  C   UNL     1      12.125 -31.406  -0.293  1.00  0.00     0.014 C 
ATOM      4  C   UNL     1       9.783 -30.568  -0.836  1.00  0.00     0.030 C 
ATOM      5  C   UNL     1      11.557 -29.871  -3.129  1.00  0.00     0.004 C 
ATOM      6  C   UNL     1      11.743 -31.788   1.148  1.00  0.00     0.013 C 
ATOM      7  C   UNL     1       9.496 -30.577   0.683  1.00  0.00    -0.063 C 
ATOM      8  C   UNL     1       9.815 -29.113  -1.444  1.00  0.00    -0.003 C 
ATOM      9  C   UNL     1      10.256 -29.084  -2.928  1.00  0.00    -0.011 C 
ATOM     10  C   UNL     1      10.572 -30.936   1.757  1.00  0.00    -0.006 C 
ATOM     11  C   UNL     1       8.208 -30.321   1.048  1.00  0.00    -0.027 C 
ATOM     12  C   UNL     1      10.603 -28.069  -0.638  1.00  0.00     0.008 C 
ATOM     13  C   UNL     1       9.134 -29.551  -3.875  1.00  0.00     0.008 C 
ATOM     14  C   UNL     1      11.243 -29.618   2.246  1.00  0.00     0.017 C 
ATOM     15  C   UNL     1       9.839 -31.734   2.952  1.00  0.00    -0.020 C 
ATOM     16  C   UNL     1       7.615 -30.561   2.420  1.00  0.00     0.032 C 
ATOM     17  C   UNL     1       8.674 -30.825   3.512  1.00  0.00     0.006 C 
ATOM     18  C   UNL     1      10.794 -32.100   4.148  1.00  0.00     0.008 C 
ATOM     19  C   UNL     1       9.263 -33.075   2.342  1.00  0.00     0.012 C 
ATOM     20  C   UNL     1       8.141 -31.181   4.977  1.00  0.00    -0.025 C 
ATOM     21  C   UNL     1      10.741 -31.116   5.329  1.00  0.00     0.005 C 
ATOM     22  C   UNL     1       9.337 -31.014   6.028  1.00  0.00     0.003 C 
ATOM     23  C   UNL     1       7.539 -32.614   5.038  1.00  0.00     0.010 C 
ATOM     24  C   UNL     1       7.010 -30.161   5.310  1.00  0.00     0.012 C 
ATOM     25  C   UNL     1       9.186 -31.784   7.437  1.00  0.00    -0.006 C 
ATOM     26  C   UNL     1       7.200 -33.081   6.449  1.00  0.00     0.033 C 
ATOM     27  C   UNL     1       8.475 -33.166   7.299  1.00  0.00     0.120 C 
ATOM     28  C   UNL     1      10.551 -32.020   8.147  1.00  0.00     0.014 C 
ATOM     29  C   UNL     1       8.380 -30.913   8.451  1.00  0.00     0.014 C 
ENDROOT
BRANCH   1  30
ATOM     30  C   UNL     1      10.446 -33.015  -1.228  1.00  0.00     0.048 C 
ATOM     31  O   UNL     1      11.267 -33.961  -1.372  1.00  0.00    -0.550 OA
ATOM     32  O   UNL     1       9.091 -33.323  -1.164  1.00  0.00    -0.550 OA
ENDBRANCH   1  30
BRANCH  27  33
ATOM     33  O   UNL     1       9.351 -34.119   6.744  1.00  0.00    -0.393 OA
ATOM     34  H   UNL     1       9.515 -33.850   5.802  1.00  0.00     0.210 HD
ENDBRANCH  27  33
TORSDOF 2
ENDMDL
MODEL 7
REMARK VINA RESULT:    -5.107      1.645      7.824
REMARK INTER + INTRA:          -5.722
REMARK INTER:                  -5.531
REMARK INTRA:                  -0.191
REMARK UNBOUND:                -0.167
REMARK SMILES C[C@H]1[C@H](C)CC[C@@]2(C(=O)[O-])CC[C@@]3(C)C(=CC[C@H]4[C@@]5(C)CC[C@@H](O)C(C)(C)[C@H]5CC[C@@]43C)[C@@H]12
REMARK SMILES IDX 7 1 6 2 11 3 33 4 5 5 12 6 15 7 2 8 3 9 13 10 16 11 1 12
REMARK SMILES IDX 4 13 14 14 31 15 17 16 18 17 30 18 32 19 19 20 29 21 28 22
REMARK SMILES IDX 21 23 20 24 25 25 22 26 23 27 26 28 27 29 8 30 9 31 10 32
REMARK SMILES IDX 24 33
REMARK H PARENT 24 34
REMARK Flexibility Score: inf
ROOT
ATOM      1  C   UNL     1      10.205 -30.545  -0.919  1.00  0.00     0.017 C 
ATOM      2  C   UNL     1      10.430 -30.150  -2.407  1.00  0.00     0.014 C 
ATOM      3  C   UNL     1      11.253 -29.852  -0.018  1.00  0.00     0.014 C 
ATOM      4  C   UNL     1       8.758 -30.179  -0.408  1.00  0.00     0.030 C 
ATOM      5  C   UNL     1       9.880 -28.780  -2.791  1.00  0.00     0.004 C 
ATOM      6  C   UNL     1      11.175 -30.347   1.436  1.00  0.00     0.013 C 
ATOM      7  C   UNL     1       8.599 -30.298   1.125  1.00  0.00    -0.063 C 
ATOM      8  C   UNL     1       8.088 -28.878  -0.993  1.00  0.00    -0.003 C 
ATOM      9  C   UNL     1       8.378 -28.670  -2.501  1.00  0.00    -0.011 C 
ATOM     10  C   UNL     1       9.783 -30.115   2.127  1.00  0.00    -0.006 C 
ATOM     11  C   UNL     1       7.361 -30.652   1.570  1.00  0.00    -0.027 C 
ATOM     12  C   UNL     1       8.361 -27.578  -0.219  1.00  0.00     0.008 C 
ATOM     13  C   UNL     1       7.536 -29.609  -3.386  1.00  0.00     0.008 C 
ATOM     14  C   UNL     1       9.808 -28.629   2.597  1.00  0.00     0.017 C 
ATOM     15  C   UNL     1       9.566 -31.143   3.351  1.00  0.00    -0.020 C 
ATOM     16  C   UNL     1       7.026 -31.119   2.971  1.00  0.00     0.032 C 
ATOM     17  C   UNL     1       8.152 -30.858   3.994  1.00  0.00     0.006 C 
ATOM     18  C   UNL     1      10.654 -31.019   4.482  1.00  0.00     0.008 C 
ATOM     19  C   UNL     1       9.630 -32.607   2.754  1.00  0.00     0.012 C 
ATOM     20  C   UNL     1       7.929 -31.399   5.481  1.00  0.00    -0.025 C 
ATOM     21  C   UNL     1      10.230 -30.152   5.680  1.00  0.00     0.005 C 
ATOM     22  C   UNL     1       8.979 -30.692   6.462  1.00  0.00     0.003 C 
ATOM     23  C   UNL     1       8.050 -32.947   5.555  1.00  0.00     0.010 C 
ATOM     24  C   UNL     1       6.480 -31.002   5.897  1.00  0.00     0.012 C 
ATOM     25  C   UNL     1       9.280 -31.428   7.865  1.00  0.00    -0.006 C 
ATOM     26  C   UNL     1       8.047 -33.500   6.976  1.00  0.00     0.033 C 
ATOM     27  C   UNL     1       9.269 -32.984   7.748  1.00  0.00     0.120 C 
ATOM     28  C   UNL     1      10.642 -31.007   8.489  1.00  0.00     0.014 C 
ATOM     29  C   UNL     1       8.228 -31.007   8.939  1.00  0.00     0.014 C 
ENDROOT
BRANCH   1  30
ATOM     30  C   UNL     1      10.438 -32.060  -0.878  1.00  0.00     0.048 C 
ATOM     31  O   UNL     1      11.593 -32.529  -1.068  1.00  0.00    -0.550 OA
ATOM     32  O   UNL     1       9.377 -32.952  -0.758  1.00  0.00    -0.550 OA
ENDBRANCH   1  30
BRANCH  27  33
ATOM     33  O   UNL     1      10.448 -33.440   7.126  1.00  0.00    -0.393 OA
ATOM     34  H   UNL     1      10.414 -33.139   6.181  1.00  0.00     0.210 HD
ENDBRANCH  27  33
TORSDOF 2
ENDMDL
MODEL 8
REMARK VINA RESULT:    -4.983      1.983      7.903
REMARK INTER + INTRA:          -5.587
REMARK INTER:                  -5.454
REMARK INTRA:                  -0.133
REMARK UNBOUND:                -0.167
REMARK SMILES C[C@H]1[C@H](C)CC[C@@]2(C(=O)[O-])CC[C@@]3(C)C(=CC[C@H]4[C@@]5(C)CC[C@@H](O)C(C)(C)[C@H]5CC[C@@]43C)[C@@H]12
REMARK SMILES IDX 7 1 6 2 11 3 33 4 5 5 12 6 15 7 2 8 3 9 13 10 16 11 1 12
REMARK SMILES IDX 4 13 14 14 31 15 17 16 18 17 30 18 32 19 19 20 29 21 28 22
REMARK SMILES IDX 21 23 20 24 25 25 22 26 23 27 26 28 27 29 8 30 9 31 10 32
REMARK SMILES IDX 24 33
REMARK H PARENT 24 34
REMARK Flexibility Score: inf
ROOT
ATOM      1  C   UNL     1       9.818 -28.424   0.216  1.00  0.00     0.017 C 
ATOM      2  C   UNL     1       9.763 -27.595  -1.099  1.00  0.00     0.014 C 
ATOM      3  C   UNL     1       9.336 -27.566   1.409  1.00  0.00     0.014 C 
ATOM      4  C   UNL     1       8.951 -29.739   0.140  1.00  0.00     0.030 C 
ATOM      5  C   UNL     1       8.374 -27.481  -1.720  1.00  0.00     0.004 C 
ATOM      6  C   UNL     1       9.536 -28.289   2.752  1.00  0.00     0.013 C 
ATOM      7  C   UNL     1       8.761 -30.431   1.509  1.00  0.00    -0.063 C 
ATOM      8  C   UNL     1       7.624 -29.687  -0.709  1.00  0.00    -0.003 C 
ATOM      9  C   UNL     1       7.767 -28.859  -2.011  1.00  0.00    -0.011 C 
ATOM     10  C   UNL     1       8.781 -29.662   2.868  1.00  0.00    -0.006 C 
ATOM     11  C   UNL     1       8.644 -31.789   1.480  1.00  0.00    -0.027 C 
ATOM     12  C   UNL     1       6.359 -29.260   0.052  1.00  0.00     0.008 C 
ATOM     13  C   UNL     1       8.540 -29.625  -3.102  1.00  0.00     0.008 C 
ATOM     14  C   UNL     1       7.316 -29.288   3.247  1.00  0.00     0.017 C 
ATOM     15  C   UNL     1       9.478 -30.613   3.970  1.00  0.00    -0.020 C 
ATOM     16  C   UNL     1       8.747 -32.710   2.677  1.00  0.00     0.032 C 
ATOM     17  C   UNL     1       8.674 -31.972   4.031  1.00  0.00     0.006 C 
ATOM     18  C   UNL     1       9.503 -29.992   5.416  1.00  0.00     0.008 C 
ATOM     19  C   UNL     1      10.970 -30.860   3.505  1.00  0.00     0.012 C 
ATOM     20  C   UNL     1       8.867 -32.849   5.354  1.00  0.00    -0.025 C 
ATOM     21  C   UNL     1       8.362 -30.467   6.332  1.00  0.00     0.005 C 
ATOM     22  C   UNL     1       8.360 -32.012   6.620  1.00  0.00     0.003 C 
ATOM     23  C   UNL     1      10.345 -33.298   5.536  1.00  0.00     0.010 C 
ATOM     24  C   UNL     1       7.987 -34.124   5.186  1.00  0.00     0.012 C 
ATOM     25  C   UNL     1       8.909 -32.467   8.066  1.00  0.00    -0.006 C 
ATOM     26  C   UNL     1      10.627 -33.963   6.878  1.00  0.00     0.033 C 
ATOM     27  C   UNL     1      10.385 -32.970   8.023  1.00  0.00     0.120 C 
ATOM     28  C   UNL     1       8.824 -31.334   9.130  1.00  0.00     0.014 C 
ATOM     29  C   UNL     1       8.017 -33.604   8.656  1.00  0.00     0.014 C 
ENDROOT
BRANCH   1  30
ATOM     30  C   UNL     1      11.304 -28.752   0.409  1.00  0.00     0.048 C 
ATOM     31  O   UNL     1      12.092 -27.879   0.864  1.00  0.00    -0.550 OA
ATOM     32  O   UNL     1      11.840 -29.961  -0.026  1.00  0.00    -0.550 OA
ENDBRANCH   1  30
BRANCH  27  33
ATOM     33  O   UNL     1      11.274 -31.884   7.902  1.00  0.00    -0.393 OA
ATOM     34  H   UNL     1      11.179 -31.337   8.725  1.00  0.00     0.210 HD
ENDBRANCH  27  33
TORSDOF 2
ENDMDL
MODEL 9
REMARK VINA RESULT:    -4.312      1.919      2.930
REMARK INTER + INTRA:          -4.857
REMARK INTER:                  -5.504
REMARK INTRA:                   0.647
REMARK UNBOUND:                -0.167
REMARK SMILES C[C@H]1[C@H](C)CC[C@@]2(C(=O)[O-])CC[C@@]3(C)C(=CC[C@H]4[C@@]5(C)CC[C@@H](O)C(C)(C)[C@H]5CC[C@@]43C)[C@@H]12
REMARK SMILES IDX 7 1 6 2 11 3 33 4 5 5 12 6 15 7 2 8 3 9 13 10 16 11 1 12
REMARK SMILES IDX 4 13 14 14 31 15 17 16 18 17 30 18 32 19 19 20 29 21 28 22
REMARK SMILES IDX 21 23 20 24 25 25 22 26 23 27 26 28 27 29 8 30 9 31 10 32
REMARK SMILES IDX 24 33
REMARK H PARENT 24 34
REMARK Flexibility Score: inf
ROOT
ATOM      1  C   UNL     1       8.201 -30.509   5.717  1.00  0.00     0.017 C 
ATOM      2  C   UNL     1       7.914 -30.212   7.217  1.00  0.00     0.014 C 
ATOM      3  C   UNL     1       8.914 -29.305   5.061  1.00  0.00     0.014 C 
ATOM      4  C   UNL     1       9.076 -31.805   5.513  1.00  0.00     0.030 C 
ATOM      5  C   UNL     1       9.114 -30.397   8.141  1.00  0.00     0.004 C 
ATOM      6  C   UNL     1       9.062 -29.486   3.540  1.00  0.00     0.013 C 
ATOM      7  C   UNL     1       9.608 -31.967   4.070  1.00  0.00    -0.063 C 
ATOM      8  C   UNL     1      10.165 -32.126   6.606  1.00  0.00    -0.003 C 
ATOM      9  C   UNL     1       9.690 -31.816   8.047  1.00  0.00    -0.011 C 
ATOM     10  C   UNL     1       9.876 -30.761   3.115  1.00  0.00    -0.006 C 
ATOM     11  C   UNL     1       9.768 -33.248   3.634  1.00  0.00    -0.027 C 
ATOM     12  C   UNL     1      11.555 -31.517   6.365  1.00  0.00     0.008 C 
ATOM     13  C   UNL     1       8.714 -32.884   8.578  1.00  0.00     0.008 C 
ATOM     14  C   UNL     1      11.373 -30.347   3.247  1.00  0.00     0.017 C 
ATOM     15  C   UNL     1       9.494 -31.217   1.615  1.00  0.00    -0.020 C 
ATOM     16  C   UNL     1       9.983 -33.671   2.196  1.00  0.00     0.032 C 
ATOM     17  C   UNL     1      10.341 -32.500   1.256  1.00  0.00     0.006 C 
ATOM     18  C   UNL     1       9.783 -30.117   0.527  1.00  0.00     0.008 C 
ATOM     19  C   UNL     1       7.945 -31.541   1.600  1.00  0.00     0.012 C 
ATOM     20  C   UNL     1      10.497 -32.833  -0.300  1.00  0.00    -0.025 C 
ATOM     21  C   UNL     1      11.124 -30.286  -0.208  1.00  0.00     0.005 C 
ATOM     22  C   UNL     1      11.254 -31.622  -1.025  1.00  0.00     0.003 C 
ATOM     23  C   UNL     1       9.122 -33.114  -0.969  1.00  0.00     0.010 C 
ATOM     24  C   UNL     1      11.364 -34.125  -0.404  1.00  0.00     0.012 C 
ATOM     25  C   UNL     1      11.076 -31.500  -2.623  1.00  0.00    -0.006 C 
ATOM     26  C   UNL     1       9.188 -33.237  -2.487  1.00  0.00     0.033 C 
ATOM     27  C   UNL     1       9.651 -31.912  -3.107  1.00  0.00     0.120 C 
ATOM     28  C   UNL     1      11.363 -30.066  -3.155  1.00  0.00     0.014 C 
ATOM     29  C   UNL     1      12.125 -32.391  -3.358  1.00  0.00     0.014 C 
ENDROOT
BRANCH   1  30
ATOM     30  C   UNL     1       6.815 -30.673   5.081  1.00  0.00     0.048 C 
ATOM     31  O   UNL     1       6.520 -30.039   4.031  1.00  0.00    -0.550 OA
ATOM     32  O   UNL     1       5.816 -31.416   5.704  1.00  0.00    -0.550 OA
ENDBRANCH   1  30
BRANCH  27  33
ATOM     33  O   UNL     1       8.717 -30.900  -2.812  1.00  0.00    -0.393 OA
ATOM     34  H   UNL     1       9.230 -30.118  -2.481  1.00  0.00     0.210 HD
ENDBRANCH  27  33
TORSDOF 2
ENDMDL
