MODEL 1
REMARK VINA RESULT:    -5.371      0.000      0.000
REMARK INTER + INTRA:          -9.801
REMARK INTER:                  -7.883
REMARK INTRA:                  -1.918
REMARK UNBOUND:                -1.918
REMARK SMILES O=c1c(O[C@H]2O[C@@H](CO)[C@@H](O)[C@@H](O)[C@@H]2O)c(-c2ccc(O)c(O)c2)oc2cc(O)cc(O)c12
REMARK SMILES IDX 4 1 3 2 16 3 25 4 2 5 26 6 1 7 33 8 27 9 31 10 28 11 30 12
REMARK SMILES IDX 17 13 18 14 19 15 20 16 24 17 22 18 21 19 23 21 32 23 29 25
REMARK SMILES IDX 5 27 14 28 6 29 12 30 7 31 10 32 15 33 13 35 8 37 9 38 11 40
REMARK H PARENT 21 20 23 22 32 24 29 26 15 34 13 36 9 39 11 41
REMARK Flexibility Score: inf
ROOT
ATOM      1  O   UNL     1       6.606  -5.118   5.006  1.00  0.00    -0.454 OA
ENDROOT
BRANCH   1   2
ATOM      2  C   UNL     1       5.428  -5.887   4.908  1.00  0.00     0.214 A 
ATOM      3  C   UNL     1       4.257  -5.357   5.470  1.00  0.00     0.180 A 
ATOM      4  O   UNL     1       3.120  -6.042   5.457  1.00  0.00    -0.452 OA
ATOM      5  C   UNL     1       5.351  -7.152   4.281  1.00  0.00     0.239 A 
ATOM      6  C   UNL     1       3.009  -7.242   4.901  1.00  0.00     0.146 A 
ATOM      7  O   UNL     1       6.362  -7.645   3.715  1.00  0.00    -0.285 OA
ATOM      8  C   UNL     1       4.124  -7.852   4.277  1.00  0.00     0.111 A 
ATOM      9  C   UNL     1       1.771  -7.891   4.927  1.00  0.00     0.094 A 
ATOM     10  C   UNL     1       3.966  -9.131   3.687  1.00  0.00     0.134 A 
ATOM     11  C   UNL     1       1.622  -9.151   4.340  1.00  0.00     0.123 A 
ATOM     12  C   UNL     1       2.718  -9.769   3.732  1.00  0.00     0.093 A 
BRANCH   3  13
ATOM     13  C   UNL     1       4.275  -4.037   6.116  1.00  0.00     0.025 A 
ATOM     14  C   UNL     1       4.390  -3.939   7.508  1.00  0.00     0.016 A 
ATOM     15  C   UNL     1       4.394  -2.685   8.124  1.00  0.00     0.051 A 
ATOM     16  C   UNL     1       4.296  -1.517   7.352  1.00  0.00     0.157 A 
ATOM     17  C   UNL     1       4.170  -2.873   5.341  1.00  0.00     0.062 A 
ATOM     18  C   UNL     1       4.189  -1.614   5.952  1.00  0.00     0.158 A 
BRANCH  16  19
ATOM     19  O   UNL     1       4.308  -0.267   7.967  1.00  0.00    -0.504 OA
ATOM     20  H   UNL     1       4.219  -0.168   8.972  1.00  0.00     0.293 HD
ENDBRANCH  16  19
BRANCH  18  21
ATOM     21  O   UNL     1       4.109  -0.472   5.154  1.00  0.00    -0.504 OA
ATOM     22  H   UNL     1       4.116  -0.529   4.146  1.00  0.00     0.293 HD
ENDBRANCH  18  21
ENDBRANCH   3  13
BRANCH  10  23
ATOM     23  O   UNL     1       5.038  -9.774   3.066  1.00  0.00    -0.507 OA
ATOM     24  H   UNL     1       5.841  -9.260   2.723  1.00  0.00     0.293 HD
ENDBRANCH  10  23
BRANCH  11  25
ATOM     25  O   UNL     1       0.389  -9.796   4.348  1.00  0.00    -0.508 OA
ATOM     26  H   UNL     1      -0.462  -9.306   4.598  1.00  0.00     0.293 HD
ENDBRANCH  11  25
ENDBRANCH   1   2
BRANCH   1  27
ATOM     27  C   UNL     1       7.720  -5.352   5.868  1.00  0.00     0.339 C 
ATOM     28  C   UNL     1       8.043  -4.095   6.698  1.00  0.00     0.214 C 
ATOM     29  O   UNL     1       8.849  -5.830   5.154  1.00  0.00    -0.332 OA
ATOM     30  C   UNL     1       8.688  -2.977   5.851  1.00  0.00     0.180 C 
ATOM     31  C   UNL     1       9.397  -4.890   4.236  1.00  0.00     0.179 C 
ATOM     32  C   UNL     1       9.762  -3.524   4.884  1.00  0.00     0.177 C 
BRANCH  28  33
ATOM     33  O   UNL     1       8.866  -4.433   7.787  1.00  0.00    -0.384 OA
ATOM     34  H   UNL     1       8.804  -5.415   7.929  1.00  0.00     0.211 HD
ENDBRANCH  28  33
BRANCH  30  35
ATOM     35  O   UNL     1       7.727  -2.188   5.194  1.00  0.00    -0.387 OA
ATOM     36  H   UNL     1       6.895  -2.194   5.728  1.00  0.00     0.211 HD
ENDBRANCH  30  35
BRANCH  31  37
ATOM     37  C   UNL     1       8.589  -4.812   2.921  1.00  0.00     0.191 C 
BRANCH  37  38
ATOM     38  O   UNL     1       8.286  -6.104   2.466  1.00  0.00    -0.394 OA
ATOM     39  H   UNL     1       7.381  -6.060   2.058  1.00  0.00     0.210 HD
ENDBRANCH  37  38
ENDBRANCH  31  37
BRANCH  32  40
ATOM     40  O   UNL     1      10.072  -2.575   3.896  1.00  0.00    -0.387 OA
ATOM     41  H   UNL     1       9.867  -2.993   3.017  1.00  0.00     0.211 HD
ENDBRANCH  32  40
ENDBRANCH   1  27
TORSDOF 12
ENDMDL
MODEL 2
REMARK VINA RESULT:    -5.303      1.171      2.328
REMARK INTER + INTRA:          -9.702
REMARK INTER:                  -7.866
REMARK INTRA:                  -1.836
REMARK UNBOUND:                -1.918
REMARK SMILES O=c1c(O[C@H]2O[C@@H](CO)[C@@H](O)[C@@H](O)[C@@H]2O)c(-c2ccc(O)c(O)c2)oc2cc(O)cc(O)c12
REMARK SMILES IDX 4 1 3 2 16 3 25 4 2 5 26 6 1 7 33 8 27 9 31 10 28 11 30 12
REMARK SMILES IDX 17 13 18 14 19 15 20 16 24 17 22 18 21 19 23 21 32 23 29 25
REMARK SMILES IDX 5 27 14 28 6 29 12 30 7 31 10 32 15 33 13 35 8 37 9 38 11 40
REMARK H PARENT 21 20 23 22 32 24 29 26 15 34 13 36 9 39 11 41
REMARK Flexibility Score: inf
ROOT
ATOM      1  O   UNL     1       5.867  -5.624   5.078  1.00  0.00    -0.454 OA
ENDROOT
BRANCH   1   2
ATOM      2  C   UNL     1       4.561  -6.154   5.029  1.00  0.00     0.214 A 
ATOM      3  C   UNL     1       3.527  -5.387   5.588  1.00  0.00     0.180 A 
ATOM      4  O   UNL     1       2.280  -5.840   5.619  1.00  0.00    -0.452 OA
ATOM      5  C   UNL     1       4.228  -7.401   4.454  1.00  0.00     0.239 A 
ATOM      6  C   UNL     1       1.927  -7.014   5.112  1.00  0.00     0.146 A 
ATOM      7  O   UNL     1       5.112  -8.101   3.892  1.00  0.00    -0.285 OA
ATOM      8  C   UNL     1       2.890  -7.851   4.496  1.00  0.00     0.111 A 
ATOM      9  C   UNL     1       0.589  -7.410   5.184  1.00  0.00     0.094 A 
ATOM     10  C   UNL     1       2.475  -9.095   3.960  1.00  0.00     0.134 A 
ATOM     11  C   UNL     1       0.186  -8.638   4.649  1.00  0.00     0.123 A 
ATOM     12  C   UNL     1       1.128  -9.477   4.049  1.00  0.00     0.093 A 
BRANCH   3  13
ATOM     13  C   UNL     1       3.814  -4.074   6.181  1.00  0.00     0.025 A 
ATOM     14  C   UNL     1       4.042  -3.960   7.557  1.00  0.00     0.016 A 
ATOM     15  C   UNL     1       4.301  -2.710   8.124  1.00  0.00     0.051 A 
ATOM     16  C   UNL     1       4.349  -1.563   7.317  1.00  0.00     0.157 A 
ATOM     17  C   UNL     1       3.853  -2.930   5.371  1.00  0.00     0.062 A 
ATOM     18  C   UNL     1       4.129  -1.677   5.931  1.00  0.00     0.158 A 
BRANCH  16  19
ATOM     19  O   UNL     1       4.615  -0.318   7.882  1.00  0.00    -0.504 OA
ATOM     20  H   UNL     1       4.130   0.003   8.712  1.00  0.00     0.293 HD
ENDBRANCH  16  19
BRANCH  18  21
ATOM     21  O   UNL     1       4.187  -0.559   5.098  1.00  0.00    -0.504 OA
ATOM     22  H   UNL     1       3.471   0.154   5.117  1.00  0.00     0.293 HD
ENDBRANCH  18  21
ENDBRANCH   3  13
BRANCH  10  23
ATOM     23  O   UNL     1       3.388  -9.955   3.348  1.00  0.00    -0.507 OA
ATOM     24  H   UNL     1       4.340 -10.044   3.681  1.00  0.00     0.293 HD
ENDBRANCH  10  23
BRANCH  11  25
ATOM     25  O   UNL     1      -1.148  -9.032   4.702  1.00  0.00    -0.508 OA
ATOM     26  H   UNL     1      -1.636  -9.357   3.875  1.00  0.00     0.293 HD
ENDBRANCH  11  25
ENDBRANCH   1   2
BRANCH   1  27
ATOM     27  C   UNL     1       6.590  -5.010   4.011  1.00  0.00     0.339 C 
ATOM     28  C   UNL     1       7.671  -5.962   3.464  1.00  0.00     0.214 C 
ATOM     29  O   UNL     1       7.124  -3.751   4.390  1.00  0.00    -0.332 OA
ATOM     30  C   UNL     1       8.862  -6.123   4.433  1.00  0.00     0.180 C 
ATOM     31  C   UNL     1       8.122  -3.823   5.401  1.00  0.00     0.179 C 
ATOM     32  C   UNL     1       9.301  -4.774   5.046  1.00  0.00     0.177 C 
BRANCH  28  33
ATOM     33  O   UNL     1       8.112  -5.520   2.203  1.00  0.00    -0.384 OA
ATOM     34  H   UNL     1       9.059  -5.797   2.092  1.00  0.00     0.211 HD
ENDBRANCH  28  33
BRANCH  30  35
ATOM     35  O   UNL     1       8.620  -7.103   5.413  1.00  0.00    -0.387 OA
ATOM     36  H   UNL     1       8.254  -6.661   6.218  1.00  0.00     0.211 HD
ENDBRANCH  30  35
BRANCH  31  37
ATOM     37  C   UNL     1       7.520  -4.001   6.812  1.00  0.00     0.191 C 
BRANCH  37  38
ATOM     38  O   UNL     1       7.666  -5.331   7.232  1.00  0.00    -0.394 OA
ATOM     39  H   UNL     1       8.278  -5.319   8.015  1.00  0.00     0.210 HD
ENDBRANCH  37  38
ENDBRANCH  31  37
BRANCH  32  40
ATOM     40  O   UNL     1      10.123  -4.980   6.168  1.00  0.00    -0.387 OA
ATOM     41  H   UNL     1      10.683  -4.165   6.271  1.00  0.00     0.211 HD
ENDBRANCH  32  40
ENDBRANCH   1  27
TORSDOF 12
ENDMDL
MODEL 3
REMARK VINA RESULT:    -5.198      3.777      7.382
REMARK INTER + INTRA:          -9.547
REMARK INTER:                  -8.164
REMARK INTRA:                  -1.383
REMARK UNBOUND:                -1.918
REMARK SMILES O=c1c(O[C@H]2O[C@@H](CO)[C@@H](O)[C@@H](O)[C@@H]2O)c(-c2ccc(O)c(O)c2)oc2cc(O)cc(O)c12
REMARK SMILES IDX 4 1 3 2 16 3 25 4 2 5 26 6 1 7 33 8 27 9 31 10 28 11 30 12
REMARK SMILES IDX 17 13 18 14 19 15 20 16 24 17 22 18 21 19 23 21 32 23 29 25
REMARK SMILES IDX 5 27 14 28 6 29 12 30 7 31 10 32 15 33 13 35 8 37 9 38 11 40
REMARK H PARENT 21 20 23 22 32 24 29 26 15 34 13 36 9 39 11 41
REMARK Flexibility Score: inf
ROOT
ATOM      1  O   UNL     1       4.999   0.734   5.735  1.00  0.00    -0.454 OA
ENDROOT
BRANCH   1   2
ATOM      2  C   UNL     1       5.582  -0.545   5.617  1.00  0.00     0.214 A 
ATOM      3  C   UNL     1       6.980  -0.616   5.527  1.00  0.00     0.180 A 
ATOM      4  O   UNL     1       7.597  -1.781   5.368  1.00  0.00    -0.452 OA
ATOM      5  C   UNL     1       4.851  -1.754   5.584  1.00  0.00     0.239 A 
ATOM      6  C   UNL     1       6.949  -2.937   5.309  1.00  0.00     0.146 A 
ATOM      7  O   UNL     1       3.598  -1.746   5.716  1.00  0.00    -0.285 OA
ATOM      8  C   UNL     1       5.538  -2.978   5.422  1.00  0.00     0.111 A 
ATOM      9  C   UNL     1       7.679  -4.117   5.145  1.00  0.00     0.094 A 
ATOM     10  C   UNL     1       4.880  -4.231   5.362  1.00  0.00     0.134 A 
ATOM     11  C   UNL     1       7.023  -5.352   5.090  1.00  0.00     0.123 A 
ATOM     12  C   UNL     1       5.631  -5.404   5.189  1.00  0.00     0.093 A 
BRANCH   3  13
ATOM     13  C   UNL     1       7.790   0.608   5.576  1.00  0.00     0.025 A 
ATOM     14  C   UNL     1       8.293   1.165   4.394  1.00  0.00     0.016 A 
ATOM     15  C   UNL     1       9.075   2.322   4.440  1.00  0.00     0.051 A 
ATOM     16  C   UNL     1       9.350   2.940   5.670  1.00  0.00     0.157 A 
ATOM     17  C   UNL     1       8.070   1.218   6.807  1.00  0.00     0.062 A 
ATOM     18  C   UNL     1       8.839   2.386   6.858  1.00  0.00     0.158 A 
BRANCH  16  19
ATOM     19  O   UNL     1      10.125   4.098   5.714  1.00  0.00    -0.504 OA
ATOM     20  H   UNL     1      11.097   4.076   5.997  1.00  0.00     0.293 HD
ENDBRANCH  16  19
BRANCH  18  21
ATOM     21  O   UNL     1       9.079   2.987   8.095  1.00  0.00    -0.504 OA
ATOM     22  H   UNL     1       8.324   3.318   8.679  1.00  0.00     0.293 HD
ENDBRANCH  18  21
ENDBRANCH   3  13
BRANCH  10  23
ATOM     23  O   UNL     1       3.492  -4.321   5.464  1.00  0.00    -0.507 OA
ATOM     24  H   UNL     1       2.986  -3.897   6.232  1.00  0.00     0.293 HD
ENDBRANCH  10  23
BRANCH  11  25
ATOM     25  O   UNL     1       7.745  -6.533   4.944  1.00  0.00    -0.508 OA
ATOM     26  H   UNL     1       7.486  -7.228   4.253  1.00  0.00     0.293 HD
ENDBRANCH  11  25
ENDBRANCH   1   2
BRANCH   1  27
ATOM     27  C   UNL     1       4.384   1.298   6.894  1.00  0.00     0.339 C 
ATOM     28  C   UNL     1       2.863   1.432   6.696  1.00  0.00     0.214 C 
ATOM     29  O   UNL     1       4.989   2.526   7.267  1.00  0.00    -0.332 OA
ATOM     30  C   UNL     1       2.493   2.565   5.713  1.00  0.00     0.180 C 
ATOM     31  C   UNL     1       4.814   3.573   6.319  1.00  0.00     0.179 C 
ATOM     32  C   UNL     1       3.326   3.843   5.956  1.00  0.00     0.177 C 
BRANCH  28  33
ATOM     33  O   UNL     1       2.228   1.623   7.937  1.00  0.00    -0.384 OA
ATOM     34  H   UNL     1       1.723   2.477   7.898  1.00  0.00     0.211 HD
ENDBRANCH  28  33
BRANCH  30  35
ATOM     35  O   UNL     1       2.541   2.140   4.373  1.00  0.00    -0.387 OA
ATOM     36  H   UNL     1       1.652   2.281   3.965  1.00  0.00     0.211 HD
ENDBRANCH  30  35
BRANCH  31  37
ATOM     37  C   UNL     1       5.784   3.451   5.122  1.00  0.00     0.191 C 
BRANCH  37  38
ATOM     38  O   UNL     1       6.219   4.724   4.726  1.00  0.00    -0.394 OA
ATOM     39  H   UNL     1       5.412   5.301   4.679  1.00  0.00     0.210 HD
ENDBRANCH  37  38
ENDBRANCH  31  37
BRANCH  32  40
ATOM     40  O   UNL     1       3.236   4.713   4.856  1.00  0.00    -0.387 OA
ATOM     41  H   UNL     1       3.707   5.551   5.109  1.00  0.00     0.211 HD
ENDBRANCH  32  40
ENDBRANCH   1  27
TORSDOF 12
ENDMDL
MODEL 4
REMARK VINA RESULT:    -5.109      1.890      4.710
REMARK INTER + INTRA:          -9.416
REMARK INTER:                  -7.971
REMARK INTRA:                  -1.445
REMARK UNBOUND:                -1.918
REMARK SMILES O=c1c(O[C@H]2O[C@@H](CO)[C@@H](O)[C@@H](O)[C@@H]2O)c(-c2ccc(O)c(O)c2)oc2cc(O)cc(O)c12
REMARK SMILES IDX 4 1 3 2 16 3 25 4 2 5 26 6 1 7 33 8 27 9 31 10 28 11 30 12
REMARK SMILES IDX 17 13 18 14 19 15 20 16 24 17 22 18 21 19 23 21 32 23 29 25
REMARK SMILES IDX 5 27 14 28 6 29 12 30 7 31 10 32 15 33 13 35 8 37 9 38 11 40
REMARK H PARENT 21 20 23 22 32 24 29 26 15 34 13 36 9 39 11 41
REMARK Flexibility Score: inf
ROOT
ATOM      1  O   UNL     1       4.358  -4.114   5.833  1.00  0.00    -0.454 OA
ENDROOT
BRANCH   1   2
ATOM      2  C   UNL     1       3.559  -5.258   5.633  1.00  0.00     0.214 A 
ATOM      3  C   UNL     1       4.214  -6.471   5.369  1.00  0.00     0.180 A 
ATOM      4  O   UNL     1       3.527  -7.580   5.125  1.00  0.00    -0.452 OA
ATOM      5  C   UNL     1       2.146  -5.262   5.683  1.00  0.00     0.239 A 
ATOM      6  C   UNL     1       2.201  -7.624   5.139  1.00  0.00     0.146 A 
ATOM      7  O   UNL     1       1.515  -4.211   5.971  1.00  0.00    -0.285 OA
ATOM      8  C   UNL     1       1.445  -6.461   5.428  1.00  0.00     0.111 A 
ATOM      9  C   UNL     1       1.559  -8.837   4.877  1.00  0.00     0.094 A 
ATOM     10  C   UNL     1       0.031  -6.548   5.441  1.00  0.00     0.134 A 
ATOM     11  C   UNL     1       0.162  -8.915   4.895  1.00  0.00     0.123 A 
ATOM     12  C   UNL     1      -0.594  -7.773   5.167  1.00  0.00     0.093 A 
BRANCH   3  13
ATOM     13  C   UNL     1       5.681  -6.527   5.325  1.00  0.00     0.025 A 
ATOM     14  C   UNL     1       6.412  -6.698   6.506  1.00  0.00     0.016 A 
ATOM     15  C   UNL     1       7.808  -6.738   6.467  1.00  0.00     0.051 A 
ATOM     16  C   UNL     1       8.485  -6.620   5.244  1.00  0.00     0.157 A 
ATOM     17  C   UNL     1       6.354  -6.401   4.101  1.00  0.00     0.062 A 
ATOM     18  C   UNL     1       7.752  -6.457   4.054  1.00  0.00     0.158 A 
BRANCH  16  19
ATOM     19  O   UNL     1       9.878  -6.668   5.205  1.00  0.00    -0.504 OA
ATOM     20  H   UNL     1      10.383  -6.723   4.329  1.00  0.00     0.293 HD
ENDBRANCH  16  19
BRANCH  18  21
ATOM     21  O   UNL     1       8.394  -6.355   2.819  1.00  0.00    -0.504 OA
ATOM     22  H   UNL     1       8.659  -7.175   2.292  1.00  0.00     0.293 HD
ENDBRANCH  18  21
ENDBRANCH   3  13
BRANCH  10  23
ATOM     23  O   UNL     1      -0.756  -5.428   5.715  1.00  0.00    -0.507 OA
ATOM     24  H   UNL     1      -0.416  -4.667   6.291  1.00  0.00     0.293 HD
ENDBRANCH  10  23
BRANCH  11  25
ATOM     25  O   UNL     1      -0.484 -10.124   4.651  1.00  0.00    -0.508 OA
ATOM     26  H   UNL     1      -1.491 -10.210   4.728  1.00  0.00     0.293 HD
ENDBRANCH  11  25
ENDBRANCH   1   2
BRANCH   1  27
ATOM     27  C   UNL     1       4.283  -3.187   6.916  1.00  0.00     0.339 C 
ATOM     28  C   UNL     1       3.449  -1.953   6.523  1.00  0.00     0.214 C 
ATOM     29  O   UNL     1       5.570  -2.835   7.401  1.00  0.00    -0.332 OA
ATOM     30  C   UNL     1       4.190  -1.029   5.533  1.00  0.00     0.180 C 
ATOM     31  C   UNL     1       6.365  -2.112   6.468  1.00  0.00     0.179 C 
ATOM     32  C   UNL     1       5.673  -0.830   5.920  1.00  0.00     0.177 C 
BRANCH  28  33
ATOM     33  O   UNL     1       3.065  -1.242   7.675  1.00  0.00    -0.384 OA
ATOM     34  H   UNL     1       2.968  -1.892   8.421  1.00  0.00     0.211 HD
ENDBRANCH  28  33
BRANCH  30  35
ATOM     35  O   UNL     1       4.036  -1.448   4.200  1.00  0.00    -0.387 OA
ATOM     36  H   UNL     1       3.792  -0.665   3.649  1.00  0.00     0.211 HD
ENDBRANCH  30  35
BRANCH  31  37
ATOM     37  C   UNL     1       7.008  -3.031   5.405  1.00  0.00     0.191 C 
BRANCH  37  38
ATOM     38  O   UNL     1       6.306  -2.929   4.195  1.00  0.00    -0.394 OA
ATOM     39  H   UNL     1       6.066  -3.855   3.924  1.00  0.00     0.210 HD
ENDBRANCH  37  38
ENDBRANCH  31  37
BRANCH  32  40
ATOM     40  O   UNL     1       6.402  -0.298   4.843  1.00  0.00    -0.387 OA
ATOM     41  H   UNL     1       6.343  -0.956   4.099  1.00  0.00     0.211 HD
ENDBRANCH  32  40
ENDBRANCH   1  27
TORSDOF 12
ENDMDL
MODEL 5
REMARK VINA RESULT:    -4.844      1.858      5.166
REMARK INTER + INTRA:          -9.028
REMARK INTER:                  -7.727
REMARK INTRA:                  -1.301
REMARK UNBOUND:                -1.918
REMARK SMILES O=c1c(O[C@H]2O[C@@H](CO)[C@@H](O)[C@@H](O)[C@@H]2O)c(-c2ccc(O)c(O)c2)oc2cc(O)cc(O)c12
REMARK SMILES IDX 4 1 3 2 16 3 25 4 2 5 26 6 1 7 33 8 27 9 31 10 28 11 30 12
REMARK SMILES IDX 17 13 18 14 19 15 20 16 24 17 22 18 21 19 23 21 32 23 29 25
REMARK SMILES IDX 5 27 14 28 6 29 12 30 7 31 10 32 15 33 13 35 8 37 9 38 11 40
REMARK H PARENT 21 20 23 22 32 24 29 26 15 34 13 36 9 39 11 41
REMARK Flexibility Score: inf
ROOT
ATOM      1  O   UNL     1       4.277  -2.791   6.107  1.00  0.00    -0.454 OA
ENDROOT
BRANCH   1   2
ATOM      2  C   UNL     1       3.667  -4.029   5.819  1.00  0.00     0.214 A 
ATOM      3  C   UNL     1       4.503  -5.099   5.463  1.00  0.00     0.180 A 
ATOM      4  O   UNL     1       3.998  -6.282   5.134  1.00  0.00    -0.452 OA
ATOM      5  C   UNL     1       2.273  -4.262   5.867  1.00  0.00     0.239 A 
ATOM      6  C   UNL     1       2.696  -6.536   5.143  1.00  0.00     0.146 A 
ATOM      7  O   UNL     1       1.487  -3.349   6.234  1.00  0.00    -0.285 OA
ATOM      8  C   UNL     1       1.768  -5.534   5.520  1.00  0.00     0.111 A 
ATOM      9  C   UNL     1       2.251  -7.813   4.788  1.00  0.00     0.094 A 
ATOM     10  C   UNL     1       0.386  -5.845   5.525  1.00  0.00     0.134 A 
ATOM     11  C   UNL     1       0.885  -8.113   4.798  1.00  0.00     0.123 A 
ATOM     12  C   UNL     1      -0.040  -7.130   5.156  1.00  0.00     0.093 A 
BRANCH   3  13
ATOM     13  C   UNL     1       5.960  -4.918   5.416  1.00  0.00     0.025 A 
ATOM     14  C   UNL     1       6.705  -4.914   6.602  1.00  0.00     0.016 A 
ATOM     15  C   UNL     1       8.089  -4.728   6.560  1.00  0.00     0.051 A 
ATOM     16  C   UNL     1       8.742  -4.557   5.330  1.00  0.00     0.157 A 
ATOM     17  C   UNL     1       6.608  -4.739   4.185  1.00  0.00     0.062 A 
ATOM     18  C   UNL     1       7.996  -4.568   4.137  1.00  0.00     0.158 A 
BRANCH  16  19
ATOM     19  O   UNL     1      10.124  -4.379   5.288  1.00  0.00    -0.504 OA
ATOM     20  H   UNL     1      10.755  -5.154   5.119  1.00  0.00     0.293 HD
ENDBRANCH  16  19
BRANCH  18  21
ATOM     21  O   UNL     1       8.618  -4.419   2.896  1.00  0.00    -0.504 OA
ATOM     22  H   UNL     1       9.322  -5.069   2.575  1.00  0.00     0.293 HD
ENDBRANCH  18  21
ENDBRANCH   3  13
BRANCH  10  23
ATOM     23  O   UNL     1      -0.565  -4.889   5.883  1.00  0.00    -0.507 OA
ATOM     24  H   UNL     1      -1.072  -4.944   6.758  1.00  0.00     0.293 HD
ENDBRANCH  10  23
BRANCH  11  25
ATOM     25  O   UNL     1       0.436  -9.387   4.461  1.00  0.00    -0.508 OA
ATOM     26  H   UNL     1       0.393  -9.694   3.496  1.00  0.00     0.293 HD
ENDBRANCH  11  25
ENDBRANCH   1   2
BRANCH   1  27
ATOM     27  C   UNL     1       4.730  -1.813   5.170  1.00  0.00     0.339 C 
ATOM     28  C   UNL     1       6.208  -1.458   5.421  1.00  0.00     0.214 C 
ATOM     29  O   UNL     1       3.895  -0.666   5.159  1.00  0.00    -0.332 OA
ATOM     30  C   UNL     1       6.403  -0.606   6.695  1.00  0.00     0.180 C 
ATOM     31  C   UNL     1       3.912   0.078   6.372  1.00  0.00     0.179 C 
ATOM     32  C   UNL     1       5.339   0.508   6.819  1.00  0.00     0.177 C 
BRANCH  28  33
ATOM     33  O   UNL     1       6.745  -0.804   4.298  1.00  0.00    -0.384 OA
ATOM     34  H   UNL     1       7.299  -0.043   4.618  1.00  0.00     0.211 HD
ENDBRANCH  28  33
BRANCH  30  35
ATOM     35  O   UNL     1       6.487  -1.398   7.854  1.00  0.00    -0.387 OA
ATOM     36  H   UNL     1       7.427  -1.679   7.976  1.00  0.00     0.211 HD
ENDBRANCH  30  35
BRANCH  31  37
ATOM     37  C   UNL     1       3.031  -0.562   7.468  1.00  0.00     0.191 C 
BRANCH  37  38
ATOM     38  O   UNL     1       2.253   0.423   8.094  1.00  0.00    -0.394 OA
ATOM     39  H   UNL     1       1.856   0.004   8.903  1.00  0.00     0.210 HD
ENDBRANCH  37  38
ENDBRANCH  31  37
BRANCH  32  40
ATOM     40  O   UNL     1       5.312   1.026   8.125  1.00  0.00    -0.387 OA
ATOM     41  H   UNL     1       4.380   0.926   8.458  1.00  0.00     0.211 HD
ENDBRANCH  32  40
ENDBRANCH   1  27
TORSDOF 12
ENDMDL
MODEL 6
REMARK VINA RESULT:    -4.823      2.006      3.144
REMARK INTER + INTRA:          -8.997
REMARK INTER:                  -7.963
REMARK INTRA:                  -1.034
REMARK UNBOUND:                -1.918
REMARK SMILES O=c1c(O[C@H]2O[C@@H](CO)[C@@H](O)[C@@H](O)[C@@H]2O)c(-c2ccc(O)c(O)c2)oc2cc(O)cc(O)c12
REMARK SMILES IDX 4 1 3 2 16 3 25 4 2 5 26 6 1 7 33 8 27 9 31 10 28 11 30 12
REMARK SMILES IDX 17 13 18 14 19 15 20 16 24 17 22 18 21 19 23 21 32 23 29 25
REMARK SMILES IDX 5 27 14 28 6 29 12 30 7 31 10 32 15 33 13 35 8 37 9 38 11 40
REMARK H PARENT 21 20 23 22 32 24 29 26 15 34 13 36 9 39 11 41
REMARK Flexibility Score: inf
ROOT
ATOM      1  O   UNL     1       5.218  -6.161   4.881  1.00  0.00    -0.454 OA
ENDROOT
BRANCH   1   2
ATOM      2  C   UNL     1       3.842  -6.051   5.167  1.00  0.00     0.214 A 
ATOM      3  C   UNL     1       3.403  -4.886   5.814  1.00  0.00     0.180 A 
ATOM      4  O   UNL     1       2.130  -4.731   6.157  1.00  0.00    -0.452 OA
ATOM      5  C   UNL     1       2.880  -7.035   4.844  1.00  0.00     0.239 A 
ATOM      6  C   UNL     1       1.199  -5.639   5.894  1.00  0.00     0.146 A 
ATOM      7  O   UNL     1       3.215  -8.073   4.215  1.00  0.00    -0.285 OA
ATOM      8  C   UNL     1       1.531  -6.836   5.215  1.00  0.00     0.111 A 
ATOM      9  C   UNL     1      -0.120  -5.391   6.286  1.00  0.00     0.094 A 
ATOM     10  C   UNL     1       0.508  -7.779   4.945  1.00  0.00     0.134 A 
ATOM     11  C   UNL     1      -1.125  -6.325   6.014  1.00  0.00     0.123 A 
ATOM     12  C   UNL     1      -0.807  -7.515   5.355  1.00  0.00     0.093 A 
BRANCH   3  13
ATOM     13  C   UNL     1       4.358  -3.822   6.155  1.00  0.00     0.025 A 
ATOM     14  C   UNL     1       4.964  -3.802   7.417  1.00  0.00     0.016 A 
ATOM     15  C   UNL     1       5.862  -2.783   7.747  1.00  0.00     0.051 A 
ATOM     16  C   UNL     1       6.171  -1.783   6.812  1.00  0.00     0.157 A 
ATOM     17  C   UNL     1       4.658  -2.820   5.221  1.00  0.00     0.062 A 
ATOM     18  C   UNL     1       5.569  -1.807   5.541  1.00  0.00     0.158 A 
BRANCH  16  19
ATOM     19  O   UNL     1       7.072  -0.771   7.140  1.00  0.00    -0.504 OA
ATOM     20  H   UNL     1       7.931  -0.636   6.620  1.00  0.00     0.293 HD
ENDBRANCH  16  19
BRANCH  18  21
ATOM     21  O   UNL     1       5.869  -0.837   4.582  1.00  0.00    -0.504 OA
ATOM     22  H   UNL     1       6.374  -1.067   3.738  1.00  0.00     0.293 HD
ENDBRANCH  18  21
ENDBRANCH   3  13
BRANCH  10  23
ATOM     23  O   UNL     1       0.789  -8.975   4.284  1.00  0.00    -0.507 OA
ATOM     24  H   UNL     1       0.076  -9.479   3.769  1.00  0.00     0.293 HD
ENDBRANCH  10  23
BRANCH  11  25
ATOM     25  O   UNL     1      -2.443  -6.078   6.386  1.00  0.00    -0.508 OA
ATOM     26  H   UNL     1      -2.717  -6.037   7.361  1.00  0.00     0.293 HD
ENDBRANCH  11  25
ENDBRANCH   1   2
BRANCH   1  27
ATOM     27  C   UNL     1       5.907  -7.307   4.380  1.00  0.00     0.339 C 
ATOM     28  C   UNL     1       6.587  -8.081   5.525  1.00  0.00     0.214 C 
ATOM     29  O   UNL     1       6.817  -6.966   3.345  1.00  0.00    -0.332 OA
ATOM     30  C   UNL     1       7.824  -7.344   6.083  1.00  0.00     0.180 C 
ATOM     31  C   UNL     1       7.902  -6.150   3.771  1.00  0.00     0.179 C 
ATOM     32  C   UNL     1       8.706  -6.752   4.960  1.00  0.00     0.177 C 
BRANCH  28  33
ATOM     33  O   UNL     1       6.930  -9.376   5.096  1.00  0.00    -0.384 OA
ATOM     34  H   UNL     1       7.469  -9.294   4.265  1.00  0.00     0.211 HD
ENDBRANCH  28  33
BRANCH  30  35
ATOM     35  O   UNL     1       7.478  -6.386   7.053  1.00  0.00    -0.387 OA
ATOM     36  H   UNL     1       6.504  -6.224   7.003  1.00  0.00     0.211 HD
ENDBRANCH  30  35
BRANCH  31  37
ATOM     37  C   UNL     1       7.501  -4.665   3.918  1.00  0.00     0.191 C 
BRANCH  37  38
ATOM     38  O   UNL     1       8.588  -3.840   3.594  1.00  0.00    -0.394 OA
ATOM     39  H   UNL     1       8.600  -3.757   2.604  1.00  0.00     0.210 HD
ENDBRANCH  37  38
ENDBRANCH  31  37
BRANCH  32  40
ATOM     40  O   UNL     1       9.603  -5.804   5.479  1.00  0.00    -0.387 OA
ATOM     41  H   UNL     1      10.510  -6.210   5.440  1.00  0.00     0.211 HD
ENDBRANCH  32  40
ENDBRANCH   1  27
TORSDOF 12
ENDMDL
MODEL 7
REMARK VINA RESULT:    -4.772      2.339      7.601
REMARK INTER + INTRA:          -8.922
REMARK INTER:                  -7.143
REMARK INTRA:                  -1.779
REMARK UNBOUND:                -1.918
REMARK SMILES O=c1c(O[C@H]2O[C@@H](CO)[C@@H](O)[C@@H](O)[C@@H]2O)c(-c2ccc(O)c(O)c2)oc2cc(O)cc(O)c12
REMARK SMILES IDX 4 1 3 2 16 3 25 4 2 5 26 6 1 7 33 8 27 9 31 10 28 11 30 12
REMARK SMILES IDX 17 13 18 14 19 15 20 16 24 17 22 18 21 19 23 21 32 23 29 25
REMARK SMILES IDX 5 27 14 28 6 29 12 30 7 31 10 32 15 33 13 35 8 37 9 38 11 40
REMARK H PARENT 21 20 23 22 32 24 29 26 15 34 13 36 9 39 11 41
REMARK Flexibility Score: inf
ROOT
ATOM      1  O   UNL     1       5.086  -4.066   5.982  1.00  0.00    -0.454 OA
ENDROOT
BRANCH   1   2
ATOM      2  C   UNL     1       5.537  -2.742   5.809  1.00  0.00     0.214 A 
ATOM      3  C   UNL     1       6.837  -2.557   5.315  1.00  0.00     0.180 A 
ATOM      4  O   UNL     1       7.347  -1.340   5.168  1.00  0.00    -0.452 OA
ATOM      5  C   UNL     1       4.765  -1.593   6.097  1.00  0.00     0.239 A 
ATOM      6  C   UNL     1       6.667  -0.236   5.448  1.00  0.00     0.146 A 
ATOM      7  O   UNL     1       3.574  -1.706   6.490  1.00  0.00    -0.285 OA
ATOM      8  C   UNL     1       5.334  -0.312   5.921  1.00  0.00     0.111 A 
ATOM      9  C   UNL     1       7.280   1.005   5.259  1.00  0.00     0.094 A 
ATOM     10  C   UNL     1       4.637   0.889   6.203  1.00  0.00     0.134 A 
ATOM     11  C   UNL     1       6.584   2.186   5.536  1.00  0.00     0.123 A 
ATOM     12  C   UNL     1       5.274   2.125   6.014  1.00  0.00     0.093 A 
BRANCH   3  13
ATOM     13  C   UNL     1       7.675  -3.717   4.980  1.00  0.00     0.025 A 
ATOM     14  C   UNL     1       8.625  -4.184   5.896  1.00  0.00     0.016 A 
ATOM     15  C   UNL     1       9.432  -5.278   5.573  1.00  0.00     0.051 A 
ATOM     16  C   UNL     1       9.286  -5.923   4.336  1.00  0.00     0.157 A 
ATOM     17  C   UNL     1       7.531  -4.354   3.739  1.00  0.00     0.062 A 
ATOM     18  C   UNL     1       8.326  -5.460   3.417  1.00  0.00     0.158 A 
BRANCH  16  19
ATOM     19  O   UNL     1      10.087  -7.019   4.017  1.00  0.00    -0.504 OA
ATOM     20  H   UNL     1      10.861  -7.300   4.607  1.00  0.00     0.293 HD
ENDBRANCH  16  19
BRANCH  18  21
ATOM     21  O   UNL     1       8.143  -6.091   2.185  1.00  0.00    -0.504 OA
ATOM     22  H   UNL     1       8.166  -5.574   1.318  1.00  0.00     0.293 HD
ENDBRANCH  18  21
ENDBRANCH   3  13
BRANCH  10  23
ATOM     23  O   UNL     1       3.325   0.864   6.676  1.00  0.00    -0.507 OA
ATOM     24  H   UNL     1       2.739   0.044   6.579  1.00  0.00     0.293 HD
ENDBRANCH  10  23
BRANCH  11  25
ATOM     25  O   UNL     1       7.183   3.427   5.333  1.00  0.00    -0.508 OA
ATOM     26  H   UNL     1       7.252   3.835   4.408  1.00  0.00     0.293 HD
ENDBRANCH  11  25
ENDBRANCH   1   2
BRANCH   1  27
ATOM     27  C   UNL     1       5.153  -4.852   7.173  1.00  0.00     0.339 C 
ATOM     28  C   UNL     1       5.871  -6.188   6.907  1.00  0.00     0.214 C 
ATOM     29  O   UNL     1       3.873  -5.036   7.758  1.00  0.00    -0.332 OA
ATOM     30  C   UNL     1       5.011  -7.168   6.081  1.00  0.00     0.180 C 
ATOM     31  C   UNL     1       2.977  -5.805   6.964  1.00  0.00     0.179 C 
ATOM     32  C   UNL     1       3.541  -7.197   6.558  1.00  0.00     0.177 C 
BRANCH  28  33
ATOM     33  O   UNL     1       6.266  -6.776   8.123  1.00  0.00    -0.384 OA
ATOM     34  H   UNL     1       7.139  -7.228   7.979  1.00  0.00     0.211 HD
ENDBRANCH  28  33
BRANCH  30  35
ATOM     35  O   UNL     1       5.121  -6.935   4.698  1.00  0.00    -0.387 OA
ATOM     36  H   UNL     1       5.485  -6.026   4.560  1.00  0.00     0.211 HD
ENDBRANCH  30  35
BRANCH  31  37
ATOM     37  C   UNL     1       2.344  -4.980   5.821  1.00  0.00     0.191 C 
BRANCH  37  38
ATOM     38  O   UNL     1       1.836  -3.773   6.325  1.00  0.00    -0.394 OA
ATOM     39  H   UNL     1       1.992  -3.083   5.628  1.00  0.00     0.210 HD
ENDBRANCH  37  38
ENDBRANCH  31  37
BRANCH  32  40
ATOM     40  O   UNL     1       2.716  -7.801   5.593  1.00  0.00    -0.387 OA
ATOM     41  H   UNL     1       3.287  -7.991   4.801  1.00  0.00     0.211 HD
ENDBRANCH  32  40
ENDBRANCH   1  27
TORSDOF 12
ENDMDL
MODEL 8
REMARK VINA RESULT:    -4.602      2.259      5.174
REMARK INTER + INTRA:          -8.673
REMARK INTER:                  -7.504
REMARK INTRA:                  -1.169
REMARK UNBOUND:                -1.918
REMARK SMILES O=c1c(O[C@H]2O[C@@H](CO)[C@@H](O)[C@@H](O)[C@@H]2O)c(-c2ccc(O)c(O)c2)oc2cc(O)cc(O)c12
REMARK SMILES IDX 4 1 3 2 16 3 25 4 2 5 26 6 1 7 33 8 27 9 31 10 28 11 30 12
REMARK SMILES IDX 17 13 18 14 19 15 20 16 24 17 22 18 21 19 23 21 32 23 29 25
REMARK SMILES IDX 5 27 14 28 6 29 12 30 7 31 10 32 15 33 13 35 8 37 9 38 11 40
REMARK H PARENT 21 20 23 22 32 24 29 26 15 34 13 36 9 39 11 41
REMARK Flexibility Score: inf
ROOT
ATOM      1  O   UNL     1       5.872  -2.860   6.189  1.00  0.00    -0.454 OA
ENDROOT
BRANCH   1   2
ATOM      2  C   UNL     1       4.725  -3.673   6.089  1.00  0.00     0.214 A 
ATOM      3  C   UNL     1       4.885  -4.960   5.554  1.00  0.00     0.180 A 
ATOM      4  O   UNL     1       3.843  -5.767   5.388  1.00  0.00    -0.452 OA
ATOM      5  C   UNL     1       3.429  -3.277   6.493  1.00  0.00     0.239 A 
ATOM      6  C   UNL     1       2.608  -5.427   5.731  1.00  0.00     0.146 A 
ATOM      7  O   UNL     1       3.244  -2.153   7.029  1.00  0.00    -0.285 OA
ATOM      8  C   UNL     1       2.343  -4.162   6.310  1.00  0.00     0.111 A 
ATOM      9  C   UNL     1       1.570  -6.341   5.525  1.00  0.00     0.094 A 
ATOM     10  C   UNL     1       1.012  -3.837   6.671  1.00  0.00     0.134 A 
ATOM     11  C   UNL     1       0.259  -6.014   5.887  1.00  0.00     0.123 A 
ATOM     12  C   UNL     1      -0.016  -4.765   6.448  1.00  0.00     0.093 A 
BRANCH   3  13
ATOM     13  C   UNL     1       6.213  -5.430   5.137  1.00  0.00     0.025 A 
ATOM     14  C   UNL     1       7.115  -5.921   6.089  1.00  0.00     0.016 A 
ATOM     15  C   UNL     1       8.383  -6.355   5.694  1.00  0.00     0.051 A 
ATOM     16  C   UNL     1       8.756  -6.314   4.342  1.00  0.00     0.157 A 
ATOM     17  C   UNL     1       6.584  -5.380   3.785  1.00  0.00     0.062 A 
ATOM     18  C   UNL     1       7.847  -5.828   3.383  1.00  0.00     0.158 A 
BRANCH  16  19
ATOM     19  O   UNL     1      10.018  -6.754   3.949  1.00  0.00    -0.504 OA
ATOM     20  H   UNL     1      10.737  -6.106   3.650  1.00  0.00     0.293 HD
ENDBRANCH  16  19
BRANCH  18  21
ATOM     21  O   UNL     1       8.180  -5.791   2.028  1.00  0.00    -0.504 OA
ATOM     22  H   UNL     1       8.005  -4.973   1.462  1.00  0.00     0.293 HD
ENDBRANCH  18  21
ENDBRANCH   3  13
BRANCH  10  23
ATOM     23  O   UNL     1       0.702  -2.601   7.240  1.00  0.00    -0.507 OA
ATOM     24  H   UNL     1       1.080  -1.736   6.872  1.00  0.00     0.293 HD
ENDBRANCH  10  23
BRANCH  11  25
ATOM     25  O   UNL     1      -0.776  -6.925   5.700  1.00  0.00    -0.508 OA
ATOM     26  H   UNL     1      -1.393  -7.188   6.460  1.00  0.00     0.293 HD
ENDBRANCH  11  25
ENDBRANCH   1   2
BRANCH   1  27
ATOM     27  C   UNL     1       6.690  -2.387   5.119  1.00  0.00     0.339 C 
ATOM     28  C   UNL     1       8.181  -2.444   5.503  1.00  0.00     0.214 C 
ATOM     29  O   UNL     1       6.296  -1.094   4.684  1.00  0.00    -0.332 OA
ATOM     30  C   UNL     1       8.568  -1.360   6.532  1.00  0.00     0.180 C 
ATOM     31  C   UNL     1       6.484  -0.071   5.654  1.00  0.00     0.179 C 
ATOM     32  C   UNL     1       7.939   0.012   6.199  1.00  0.00     0.177 C 
BRANCH  28  33
ATOM     33  O   UNL     1       8.982  -2.345   4.350  1.00  0.00    -0.384 OA
ATOM     34  H   UNL     1       8.580  -2.918   3.645  1.00  0.00     0.211 HD
ENDBRANCH  28  33
BRANCH  30  35
ATOM     35  O   UNL     1       8.303  -1.764   7.853  1.00  0.00    -0.387 OA
ATOM     36  H   UNL     1       8.672  -2.672   7.985  1.00  0.00     0.211 HD
ENDBRANCH  30  35
BRANCH  31  37
ATOM     37  C   UNL     1       5.368  -0.060   6.723  1.00  0.00     0.191 C 
BRANCH  37  38
ATOM     38  O   UNL     1       5.830  -0.659   7.905  1.00  0.00    -0.394 OA
ATOM     39  H   UNL     1       6.799  -0.835   7.777  1.00  0.00     0.210 HD
ENDBRANCH  37  38
ENDBRANCH  31  37
BRANCH  32  40
ATOM     40  O   UNL     1       8.003   0.872   7.308  1.00  0.00    -0.387 OA
ATOM     41  H   UNL     1       7.328   1.586   7.161  1.00  0.00     0.211 HD
ENDBRANCH  32  40
ENDBRANCH   1  27
TORSDOF 12
ENDMDL
