MODEL 1
REMARK VINA RESULT:    -5.633      0.000      0.000
REMARK INTER + INTRA:          -6.937
REMARK INTER:                  -6.621
REMARK INTRA:                  -0.316
REMARK UNBOUND:                -0.316
REMARK SMILES O=c1cc(-c2ccc(O)c(O)c2)oc2cc(O)cc(O)c12
REMARK SMILES IDX 4 1 3 2 2 3 1 4 21 5 19 6 18 7 16 8 15 9 14 10 13 11 5 12
REMARK SMILES IDX 6 13 7 14 8 15 12 16 10 17 9 18 11 20 20 22 17 24
REMARK H PARENT 9 19 11 21 20 23 17 25
REMARK Flexibility Score: inf
ROOT
ATOM      1  C   UNL     1      35.099 -13.759  -1.832  1.00  0.00     0.138 A 
ATOM      2  C   UNL     1      33.832 -13.709  -1.235  1.00  0.00     0.100 A 
ATOM      3  C   UNL     1      33.599 -12.824  -0.180  1.00  0.00     0.197 A 
ATOM      4  O   UNL     1      32.436 -12.757   0.293  1.00  0.00    -0.289 OA
ATOM      5  C   UNL     1      34.652 -12.008   0.298  1.00  0.00     0.107 A 
ATOM      6  C   UNL     1      34.542 -11.098   1.391  1.00  0.00     0.134 A 
ATOM      7  C   UNL     1      35.619 -10.258   1.700  1.00  0.00     0.093 A 
ATOM      8  C   UNL     1      36.820 -10.336   0.996  1.00  0.00     0.123 A 
ATOM      9  C   UNL     1      36.957 -11.260  -0.042  1.00  0.00     0.094 A 
ATOM     10  C   UNL     1      35.889 -12.087  -0.397  1.00  0.00     0.146 A 
ATOM     11  O   UNL     1      36.055 -12.944  -1.400  1.00  0.00    -0.456 OA
ENDROOT
BRANCH   1  12
ATOM     12  C   UNL     1      35.400 -14.684  -2.954  1.00  0.00     0.021 A 
ATOM     13  C   UNL     1      34.561 -15.767  -3.265  1.00  0.00     0.016 A 
ATOM     14  C   UNL     1      34.875 -16.625  -4.320  1.00  0.00     0.051 A 
ATOM     15  C   UNL     1      36.031 -16.429  -5.083  1.00  0.00     0.157 A 
ATOM     16  C   UNL     1      36.569 -14.495  -3.711  1.00  0.00     0.062 A 
ATOM     17  C   UNL     1      36.891 -15.351  -4.773  1.00  0.00     0.158 A 
BRANCH  15  18
ATOM     18  O   UNL     1      36.286 -17.322  -6.125  1.00  0.00    -0.504 OA
ATOM     19  H   UNL     1      36.939 -17.145  -6.873  1.00  0.00     0.293 HD
ENDBRANCH  15  18
BRANCH  17  20
ATOM     20  O   UNL     1      38.065 -15.093  -5.484  1.00  0.00    -0.504 OA
ATOM     21  H   UNL     1      38.957 -14.904  -5.052  1.00  0.00     0.293 HD
ENDBRANCH  17  20
ENDBRANCH   1  12
BRANCH   6  22
ATOM     22  O   UNL     1      33.417 -10.999   2.216  1.00  0.00    -0.507 OA
ATOM     23  H   UNL     1      32.942 -10.138   2.440  1.00  0.00     0.293 HD
ENDBRANCH   6  22
BRANCH   8  24
ATOM     24  O   UNL     1      37.875  -9.494   1.341  1.00  0.00    -0.508 OA
ATOM     25  H   UNL     1      37.743  -8.709   1.968  1.00  0.00     0.293 HD
ENDBRANCH   8  24
TORSDOF 5
ENDMDL
MODEL 2
REMARK VINA RESULT:    -5.575      2.009      2.729
REMARK INTER + INTRA:          -6.869
REMARK INTER:                  -6.601
REMARK INTRA:                  -0.268
REMARK UNBOUND:                -0.316
REMARK SMILES O=c1cc(-c2ccc(O)c(O)c2)oc2cc(O)cc(O)c12
REMARK SMILES IDX 4 1 3 2 2 3 1 4 21 5 19 6 18 7 16 8 15 9 14 10 13 11 5 12
REMARK SMILES IDX 6 13 7 14 8 15 12 16 10 17 9 18 11 20 20 22 17 24
REMARK H PARENT 9 19 11 21 20 23 17 25
REMARK Flexibility Score: inf
ROOT
ATOM      1  C   UNL     1      34.212 -12.480   0.231  1.00  0.00     0.138 A 
ATOM      2  C   UNL     1      32.993 -11.913   0.625  1.00  0.00     0.100 A 
ATOM      3  C   UNL     1      32.990 -10.790   1.456  1.00  0.00     0.197 A 
ATOM      4  O   UNL     1      31.883 -10.266   1.741  1.00  0.00    -0.289 OA
ATOM      5  C   UNL     1      34.216 -10.255   1.918  1.00  0.00     0.107 A 
ATOM      6  C   UNL     1      34.334  -9.138   2.799  1.00  0.00     0.134 A 
ATOM      7  C   UNL     1      35.602  -8.625   3.096  1.00  0.00     0.093 A 
ATOM      8  C   UNL     1      36.758  -9.222   2.592  1.00  0.00     0.123 A 
ATOM      9  C   UNL     1      36.657 -10.346   1.772  1.00  0.00     0.094 A 
ATOM     10  C   UNL     1      35.404 -10.861   1.430  1.00  0.00     0.146 A 
ATOM     11  O   UNL     1      35.350 -11.925   0.634  1.00  0.00    -0.456 OA
ENDROOT
BRANCH   1  12
ATOM     12  C   UNL     1      34.272 -13.675  -0.649  1.00  0.00     0.021 A 
ATOM     13  C   UNL     1      34.025 -14.968  -0.158  1.00  0.00     0.016 A 
ATOM     14  C   UNL     1      34.098 -16.073  -1.007  1.00  0.00     0.051 A 
ATOM     15  C   UNL     1      34.424 -15.918  -2.359  1.00  0.00     0.157 A 
ATOM     16  C   UNL     1      34.613 -13.520  -2.004  1.00  0.00     0.062 A 
ATOM     17  C   UNL     1      34.687 -14.624  -2.863  1.00  0.00     0.158 A 
BRANCH  15  18
ATOM     18  O   UNL     1      34.478 -17.064  -3.154  1.00  0.00    -0.504 OA
ATOM     19  H   UNL     1      35.334 -17.468  -3.505  1.00  0.00     0.293 HD
ENDBRANCH  15  18
BRANCH  17  20
ATOM     20  O   UNL     1      35.024 -14.389  -4.199  1.00  0.00    -0.504 OA
ATOM     21  H   UNL     1      35.807 -13.823  -4.493  1.00  0.00     0.293 HD
ENDBRANCH  17  20
ENDBRANCH   1  12
BRANCH   6  22
ATOM     22  O   UNL     1      33.248  -8.519   3.426  1.00  0.00    -0.507 OA
ATOM     23  H   UNL     1      33.263  -8.137   4.359  1.00  0.00     0.293 HD
ENDBRANCH   6  22
BRANCH   8  24
ATOM     24  O   UNL     1      38.004  -8.692   2.921  1.00  0.00    -0.508 OA
ATOM     25  H   UNL     1      38.765  -8.673   2.252  1.00  0.00     0.293 HD
ENDBRANCH   8  24
TORSDOF 5
ENDMDL
MODEL 3
REMARK VINA RESULT:    -5.527      1.650      6.970
REMARK INTER + INTRA:          -6.812
REMARK INTER:                  -6.519
REMARK INTRA:                  -0.293
REMARK UNBOUND:                -0.316
REMARK SMILES O=c1cc(-c2ccc(O)c(O)c2)oc2cc(O)cc(O)c12
REMARK SMILES IDX 4 1 3 2 2 3 1 4 21 5 19 6 18 7 16 8 15 9 14 10 13 11 5 12
REMARK SMILES IDX 6 13 7 14 8 15 12 16 10 17 9 18 11 20 20 22 17 24
REMARK H PARENT 9 19 11 21 20 23 17 25
REMARK Flexibility Score: inf
ROOT
ATOM      1  C   UNL     1      35.150 -13.218  -1.966  1.00  0.00     0.138 A 
ATOM      2  C   UNL     1      33.823 -13.341  -2.402  1.00  0.00     0.100 A 
ATOM      3  C   UNL     1      33.536 -14.106  -3.535  1.00  0.00     0.197 A 
ATOM      4  O   UNL     1      32.331 -14.249  -3.865  1.00  0.00    -0.289 OA
ATOM      5  C   UNL     1      34.589 -14.723  -4.251  1.00  0.00     0.107 A 
ATOM      6  C   UNL     1      34.421 -15.493  -5.441  1.00  0.00     0.134 A 
ATOM      7  C   UNL     1      35.523 -16.153  -5.998  1.00  0.00     0.093 A 
ATOM      8  C   UNL     1      36.796 -16.024  -5.444  1.00  0.00     0.123 A 
ATOM      9  C   UNL     1      36.982 -15.231  -4.311  1.00  0.00     0.094 A 
ATOM     10  C   UNL     1      35.896 -14.587  -3.711  1.00  0.00     0.146 A 
ATOM     11  O   UNL     1      36.113 -13.853  -2.625  1.00  0.00    -0.456 OA
ENDROOT
BRANCH   1  12
ATOM     12  C   UNL     1      35.510 -12.416  -0.769  1.00  0.00     0.021 A 
ATOM     13  C   UNL     1      36.843 -12.083  -0.475  1.00  0.00     0.016 A 
ATOM     14  C   UNL     1      37.152 -11.337   0.662  1.00  0.00     0.051 A 
ATOM     15  C   UNL     1      36.144 -10.911   1.534  1.00  0.00     0.157 A 
ATOM     16  C   UNL     1      34.499 -12.000   0.114  1.00  0.00     0.062 A 
ATOM     17  C   UNL     1      34.800 -11.249   1.258  1.00  0.00     0.158 A 
BRANCH  15  18
ATOM     18  O   UNL     1      36.521 -10.165   2.653  1.00  0.00    -0.504 OA
ATOM     19  H   UNL     1      37.272  -9.491   2.655  1.00  0.00     0.293 HD
ENDBRANCH  15  18
BRANCH  17  20
ATOM     20  O   UNL     1      33.741 -10.865   2.083  1.00  0.00    -0.504 OA
ATOM     21  H   UNL     1      33.644  -9.944   2.487  1.00  0.00     0.293 HD
ENDBRANCH  17  20
ENDBRANCH   1  12
BRANCH   6  22
ATOM     22  O   UNL     1      33.208 -15.618  -6.125  1.00  0.00    -0.507 OA
ATOM     23  H   UNL     1      32.323 -15.838  -5.693  1.00  0.00     0.293 HD
ENDBRANCH   6  22
BRANCH   8  24
ATOM     24  O   UNL     1      37.872 -16.683  -6.034  1.00  0.00    -0.508 OA
ATOM     25  H   UNL     1      38.136 -16.511  -6.997  1.00  0.00     0.293 HD
ENDBRANCH   8  24
TORSDOF 5
ENDMDL
MODEL 4
REMARK VINA RESULT:    -5.448      1.487      6.755
REMARK INTER + INTRA:          -6.719
REMARK INTER:                  -6.430
REMARK INTRA:                  -0.290
REMARK UNBOUND:                -0.316
REMARK SMILES O=c1cc(-c2ccc(O)c(O)c2)oc2cc(O)cc(O)c12
REMARK SMILES IDX 4 1 3 2 2 3 1 4 21 5 19 6 18 7 16 8 15 9 14 10 13 11 5 12
REMARK SMILES IDX 6 13 7 14 8 15 12 16 10 17 9 18 11 20 20 22 17 24
REMARK H PARENT 9 19 11 21 20 23 17 25
REMARK Flexibility Score: inf
ROOT
ATOM      1  C   UNL     1      34.830 -13.277  -1.090  1.00  0.00     0.138 A 
ATOM      2  C   UNL     1      34.131 -14.484  -1.219  1.00  0.00     0.100 A 
ATOM      3  C   UNL     1      34.464 -15.369  -2.247  1.00  0.00     0.197 A 
ATOM      4  O   UNL     1      33.861 -16.472  -2.299  1.00  0.00    -0.289 OA
ATOM      5  C   UNL     1      35.482 -15.026  -3.167  1.00  0.00     0.107 A 
ATOM      6  C   UNL     1      35.879 -15.831  -4.277  1.00  0.00     0.134 A 
ATOM      7  C   UNL     1      36.979 -15.443  -5.052  1.00  0.00     0.093 A 
ATOM      8  C   UNL     1      37.657 -14.251  -4.797  1.00  0.00     0.123 A 
ATOM      9  C   UNL     1      37.244 -13.429  -3.747  1.00  0.00     0.094 A 
ATOM     10  C   UNL     1      36.172 -13.807  -2.933  1.00  0.00     0.146 A 
ATOM     11  O   UNL     1      35.819 -13.003  -1.935  1.00  0.00    -0.456 OA
ENDROOT
BRANCH   1  12
ATOM     12  C   UNL     1      34.515 -12.299  -0.017  1.00  0.00     0.021 A 
ATOM     13  C   UNL     1      33.200 -11.866   0.225  1.00  0.00     0.016 A 
ATOM     14  C   UNL     1      32.936 -10.939   1.234  1.00  0.00     0.051 A 
ATOM     15  C   UNL     1      33.971 -10.419   2.018  1.00  0.00     0.157 A 
ATOM     16  C   UNL     1      35.557 -11.766   0.761  1.00  0.00     0.062 A 
ATOM     17  C   UNL     1      35.300 -10.836   1.776  1.00  0.00     0.158 A 
BRANCH  15  18
ATOM     18  O   UNL     1      33.638  -9.497   3.012  1.00  0.00    -0.504 OA
ATOM     19  H   UNL     1      33.255  -8.581   2.827  1.00  0.00     0.293 HD
ENDBRANCH  15  18
BRANCH  17  20
ATOM     20  O   UNL     1      36.386 -10.358   2.513  1.00  0.00    -0.504 OA
ATOM     21  H   UNL     1      36.390 -10.265   3.518  1.00  0.00     0.293 HD
ENDBRANCH  17  20
ENDBRANCH   1  12
BRANCH   6  22
ATOM     22  O   UNL     1      35.218 -16.997  -4.673  1.00  0.00    -0.507 OA
ATOM     23  H   UNL     1      34.318 -17.294  -4.327  1.00  0.00     0.293 HD
ENDBRANCH   6  22
BRANCH   8  24
ATOM     24  O   UNL     1      38.737 -13.890  -5.598  1.00  0.00    -0.508 OA
ATOM     25  H   UNL     1      39.259 -13.037  -5.432  1.00  0.00     0.293 HD
ENDBRANCH   8  24
TORSDOF 5
ENDMDL
MODEL 5
REMARK VINA RESULT:    -5.343      1.508      7.248
REMARK INTER + INTRA:          -6.596
REMARK INTER:                  -6.303
REMARK INTRA:                  -0.293
REMARK UNBOUND:                -0.316
REMARK SMILES O=c1cc(-c2ccc(O)c(O)c2)oc2cc(O)cc(O)c12
REMARK SMILES IDX 4 1 3 2 2 3 1 4 21 5 19 6 18 7 16 8 15 9 14 10 13 11 5 12
REMARK SMILES IDX 6 13 7 14 8 15 12 16 10 17 9 18 11 20 20 22 17 24
REMARK H PARENT 9 19 11 21 20 23 17 25
REMARK Flexibility Score: inf
ROOT
ATOM      1  C   UNL     1      35.338 -13.440  -2.301  1.00  0.00     0.138 A 
ATOM      2  C   UNL     1      36.435 -12.746  -2.829  1.00  0.00     0.100 A 
ATOM      3  C   UNL     1      37.142 -13.287  -3.905  1.00  0.00     0.197 A 
ATOM      4  O   UNL     1      38.083 -12.613  -4.397  1.00  0.00    -0.289 OA
ATOM      5  C   UNL     1      36.765 -14.546  -4.432  1.00  0.00     0.107 A 
ATOM      6  C   UNL     1      37.436 -15.213  -5.500  1.00  0.00     0.134 A 
ATOM      7  C   UNL     1      36.902 -16.401  -6.014  1.00  0.00     0.093 A 
ATOM      8  C   UNL     1      35.758 -16.976  -5.462  1.00  0.00     0.123 A 
ATOM      9  C   UNL     1      35.124 -16.360  -4.383  1.00  0.00     0.094 A 
ATOM     10  C   UNL     1      35.612 -15.155  -3.869  1.00  0.00     0.146 A 
ATOM     11  O   UNL     1      34.971 -14.593  -2.850  1.00  0.00    -0.456 OA
ENDROOT
BRANCH   1  12
ATOM     12  C   UNL     1      34.553 -12.910  -1.157  1.00  0.00     0.021 A 
ATOM     13  C   UNL     1      33.282 -13.415  -0.835  1.00  0.00     0.016 A 
ATOM     14  C   UNL     1      32.564 -12.890   0.240  1.00  0.00     0.051 A 
ATOM     15  C   UNL     1      33.089 -11.849   1.012  1.00  0.00     0.157 A 
ATOM     16  C   UNL     1      35.075 -11.854  -0.390  1.00  0.00     0.062 A 
ATOM     17  C   UNL     1      34.361 -11.322   0.692  1.00  0.00     0.158 A 
BRANCH  15  18
ATOM     18  O   UNL     1      32.320 -11.371   2.075  1.00  0.00    -0.504 OA
ATOM     19  H   UNL     1      31.473 -10.835   1.962  1.00  0.00     0.293 HD
ENDBRANCH  15  18
BRANCH  17  20
ATOM     20  O   UNL     1      34.950 -10.280   1.412  1.00  0.00    -0.504 OA
ATOM     21  H   UNL     1      35.411  -9.489   0.986  1.00  0.00     0.293 HD
ENDBRANCH  17  20
ENDBRANCH   1  12
BRANCH   6  22
ATOM     22  O   UNL     1      38.634 -14.770  -6.068  1.00  0.00    -0.507 OA
ATOM     23  H   UNL     1      39.532 -14.793  -5.610  1.00  0.00     0.293 HD
ENDBRANCH   6  22
BRANCH   8  24
ATOM     24  O   UNL     1      35.264 -18.166  -5.991  1.00  0.00    -0.508 OA
ATOM     25  H   UNL     1      35.882 -18.920  -6.269  1.00  0.00     0.293 HD
ENDBRANCH   8  24
TORSDOF 5
ENDMDL
MODEL 6
REMARK VINA RESULT:    -5.321      1.511      2.890
REMARK INTER + INTRA:          -6.569
REMARK INTER:                  -6.285
REMARK INTRA:                  -0.285
REMARK UNBOUND:                -0.316
REMARK SMILES O=c1cc(-c2ccc(O)c(O)c2)oc2cc(O)cc(O)c12
REMARK SMILES IDX 4 1 3 2 2 3 1 4 21 5 19 6 18 7 16 8 15 9 14 10 13 11 5 12
REMARK SMILES IDX 6 13 7 14 8 15 12 16 10 17 9 18 11 20 20 22 17 24
REMARK H PARENT 9 19 11 21 20 23 17 25
REMARK Flexibility Score: inf
ROOT
ATOM      1  C   UNL     1      36.571 -13.018  -2.475  1.00  0.00     0.138 A 
ATOM      2  C   UNL     1      37.487 -12.032  -2.868  1.00  0.00     0.100 A 
ATOM      3  C   UNL     1      37.784 -10.980  -1.999  1.00  0.00     0.197 A 
ATOM      4  O   UNL     1      38.656 -10.146  -2.354  1.00  0.00    -0.289 OA
ATOM      5  C   UNL     1      37.135 -10.900  -0.744  1.00  0.00     0.107 A 
ATOM      6  C   UNL     1      37.329  -9.852   0.206  1.00  0.00     0.134 A 
ATOM      7  C   UNL     1      36.720  -9.940   1.463  1.00  0.00     0.093 A 
ATOM      8  C   UNL     1      35.878 -11.004   1.785  1.00  0.00     0.123 A 
ATOM      9  C   UNL     1      35.639 -12.008   0.844  1.00  0.00     0.094 A 
ATOM     10  C   UNL     1      36.259 -11.966  -0.407  1.00  0.00     0.146 A 
ATOM     11  O   UNL     1      36.017 -12.949  -1.269  1.00  0.00    -0.456 OA
ENDROOT
BRANCH   1  12
ATOM     12  C   UNL     1      36.218 -14.156  -3.361  1.00  0.00     0.021 A 
ATOM     13  C   UNL     1      34.957 -14.776  -3.302  1.00  0.00     0.016 A 
ATOM     14  C   UNL     1      34.658 -15.850  -4.140  1.00  0.00     0.051 A 
ATOM     15  C   UNL     1      35.605 -16.336  -5.048  1.00  0.00     0.157 A 
ATOM     16  C   UNL     1      37.174 -14.653  -4.263  1.00  0.00     0.062 A 
ATOM     17  C   UNL     1      36.881 -15.731  -5.108  1.00  0.00     0.158 A 
BRANCH  15  18
ATOM     18  O   UNL     1      35.240 -17.413  -5.859  1.00  0.00    -0.504 OA
ATOM     19  H   UNL     1      35.299 -18.379  -5.575  1.00  0.00     0.293 HD
ENDBRANCH  15  18
BRANCH  17  20
ATOM     20  O   UNL     1      37.880 -16.163  -5.984  1.00  0.00    -0.504 OA
ATOM     21  H   UNL     1      37.764 -16.918  -6.644  1.00  0.00     0.293 HD
ENDBRANCH  17  20
ENDBRANCH   1  12
BRANCH   6  22
ATOM     22  O   UNL     1      38.083  -8.702  -0.044  1.00  0.00    -0.507 OA
ATOM     23  H   UNL     1      38.316  -8.353  -0.961  1.00  0.00     0.293 HD
ENDBRANCH   6  22
BRANCH   8  24
ATOM     24  O   UNL     1      35.278 -11.050   3.041  1.00  0.00    -0.508 OA
ATOM     25  H   UNL     1      34.496 -11.667   3.232  1.00  0.00     0.293 HD
ENDBRANCH   8  24
TORSDOF 5
ENDMDL
MODEL 7
REMARK VINA RESULT:    -5.259      2.183      7.548
REMARK INTER + INTRA:          -6.497
REMARK INTER:                  -6.237
REMARK INTRA:                  -0.260
REMARK UNBOUND:                -0.316
REMARK SMILES O=c1cc(-c2ccc(O)c(O)c2)oc2cc(O)cc(O)c12
REMARK SMILES IDX 4 1 3 2 2 3 1 4 21 5 19 6 18 7 16 8 15 9 14 10 13 11 5 12
REMARK SMILES IDX 6 13 7 14 8 15 12 16 10 17 9 18 11 20 20 22 17 24
REMARK H PARENT 9 19 11 21 20 23 17 25
REMARK Flexibility Score: inf
ROOT
ATOM      1  C   UNL     1      34.517 -11.731   0.285  1.00  0.00     0.138 A 
ATOM      2  C   UNL     1      35.308 -11.232  -0.760  1.00  0.00     0.100 A 
ATOM      3  C   UNL     1      35.675 -12.075  -1.811  1.00  0.00     0.197 A 
ATOM      4  O   UNL     1      36.332 -11.583  -2.764  1.00  0.00    -0.289 OA
ATOM      5  C   UNL     1      35.274 -13.432  -1.797  1.00  0.00     0.107 A 
ATOM      6  C   UNL     1      35.622 -14.393  -2.793  1.00  0.00     0.134 A 
ATOM      7  C   UNL     1      35.070 -15.678  -2.734  1.00  0.00     0.093 A 
ATOM      8  C   UNL     1      34.232 -16.056  -1.686  1.00  0.00     0.123 A 
ATOM      9  C   UNL     1      33.926 -15.141  -0.677  1.00  0.00     0.094 A 
ATOM     10  C   UNL     1      34.434 -13.840  -0.726  1.00  0.00     0.146 A 
ATOM     11  O   UNL     1      34.108 -12.994   0.246  1.00  0.00    -0.456 OA
ENDROOT
BRANCH   1  12
ATOM     12  C   UNL     1      34.100 -10.878   1.427  1.00  0.00     0.021 A 
ATOM     13  C   UNL     1      32.804 -10.341   1.514  1.00  0.00     0.016 A 
ATOM     14  C   UNL     1      32.444  -9.535   2.595  1.00  0.00     0.051 A 
ATOM     15  C   UNL     1      33.364  -9.239   3.606  1.00  0.00     0.157 A 
ATOM     16  C   UNL     1      35.029 -10.570   2.435  1.00  0.00     0.062 A 
ATOM     17  C   UNL     1      34.675  -9.762   3.524  1.00  0.00     0.158 A 
BRANCH  15  18
ATOM     18  O   UNL     1      32.939  -8.428   4.660  1.00  0.00    -0.504 OA
ATOM     19  H   UNL     1      32.950  -8.710   5.629  1.00  0.00     0.293 HD
ENDBRANCH  15  18
BRANCH  17  20
ATOM     20  O   UNL     1      35.650  -9.507   4.491  1.00  0.00    -0.504 OA
ATOM     21  H   UNL     1      36.628  -9.735   4.380  1.00  0.00     0.293 HD
ENDBRANCH  17  20
ENDBRANCH   1  12
BRANCH   6  22
ATOM     22  O   UNL     1      36.519 -14.146  -3.837  1.00  0.00    -0.507 OA
ATOM     23  H   UNL     1      36.568 -14.679  -4.692  1.00  0.00     0.293 HD
ENDBRANCH   6  22
BRANCH   8  24
ATOM     24  O   UNL     1      33.713 -17.349  -1.653  1.00  0.00    -0.508 OA
ATOM     25  H   UNL     1      32.715 -17.518  -1.606  1.00  0.00     0.293 HD
ENDBRANCH   8  24
TORSDOF 5
ENDMDL
MODEL 8
REMARK VINA RESULT:    -5.159      3.027      4.174
REMARK INTER + INTRA:          -6.379
REMARK INTER:                  -6.087
REMARK INTRA:                  -0.293
REMARK UNBOUND:                -0.316
REMARK SMILES O=c1cc(-c2ccc(O)c(O)c2)oc2cc(O)cc(O)c12
REMARK SMILES IDX 4 1 3 2 2 3 1 4 21 5 19 6 18 7 16 8 15 9 14 10 13 11 5 12
REMARK SMILES IDX 6 13 7 14 8 15 12 16 10 17 9 18 11 20 20 22 17 24
REMARK H PARENT 9 19 11 21 20 23 17 25
REMARK Flexibility Score: inf
ROOT
ATOM      1  C   UNL     1      33.148 -11.988  -0.647  1.00  0.00     0.138 A 
ATOM      2  C   UNL     1      33.112 -10.931  -1.566  1.00  0.00     0.100 A 
ATOM      3  C   UNL     1      32.799  -9.643  -1.126  1.00  0.00     0.197 A 
ATOM      4  O   UNL     1      32.836  -8.705  -1.962  1.00  0.00    -0.289 OA
ATOM      5  C   UNL     1      32.489  -9.422   0.237  1.00  0.00     0.107 A 
ATOM      6  C   UNL     1      32.116  -8.161   0.791  1.00  0.00     0.134 A 
ATOM      7  C   UNL     1      31.945  -8.040   2.176  1.00  0.00     0.093 A 
ATOM      8  C   UNL     1      32.074  -9.144   3.018  1.00  0.00     0.123 A 
ATOM      9  C   UNL     1      32.386 -10.394   2.481  1.00  0.00     0.094 A 
ATOM     10  C   UNL     1      32.597 -10.540   1.107  1.00  0.00     0.146 A 
ATOM     11  O   UNL     1      32.906 -11.744   0.637  1.00  0.00    -0.456 OA
ENDROOT
BRANCH   1  12
ATOM     12  C   UNL     1      33.474 -13.377  -1.062  1.00  0.00     0.021 A 
ATOM     13  C   UNL     1      33.837 -14.362  -0.128  1.00  0.00     0.016 A 
ATOM     14  C   UNL     1      34.148 -15.655  -0.550  1.00  0.00     0.051 A 
ATOM     15  C   UNL     1      34.111 -15.995  -1.906  1.00  0.00     0.157 A 
ATOM     16  C   UNL     1      33.451 -13.714  -2.427  1.00  0.00     0.062 A 
ATOM     17  C   UNL     1      33.760 -15.010  -2.858  1.00  0.00     0.158 A 
BRANCH  15  18
ATOM     18  O   UNL     1      34.431 -17.307  -2.260  1.00  0.00    -0.504 OA
ATOM     19  H   UNL     1      35.123 -17.867  -1.785  1.00  0.00     0.293 HD
ENDBRANCH  15  18
BRANCH  17  20
ATOM     20  O   UNL     1      33.706 -15.272  -4.229  1.00  0.00    -0.504 OA
ATOM     21  H   UNL     1      32.849 -15.401  -4.746  1.00  0.00     0.293 HD
ENDBRANCH  17  20
ENDBRANCH   1  12
BRANCH   6  22
ATOM     22  O   UNL     1      31.878  -7.013   0.030  1.00  0.00    -0.507 OA
ATOM     23  H   UNL     1      30.963  -6.653  -0.199  1.00  0.00     0.293 HD
ENDBRANCH   6  22
BRANCH   8  24
ATOM     24  O   UNL     1      31.882  -8.988   4.389  1.00  0.00    -0.508 OA
ATOM     25  H   UNL     1      32.550  -9.348   5.062  1.00  0.00     0.293 HD
ENDBRANCH   8  24
TORSDOF 5
ENDMDL
MODEL 9
REMARK VINA RESULT:    -3.489      2.222      3.791
REMARK INTER + INTRA:          -4.417
REMARK INTER:                  -4.130
REMARK INTRA:                  -0.287
REMARK UNBOUND:                -0.316
REMARK SMILES O=c1cc(-c2ccc(O)c(O)c2)oc2cc(O)cc(O)c12
REMARK SMILES IDX 4 1 3 2 2 3 1 4 21 5 19 6 18 7 16 8 15 9 14 10 13 11 5 12
REMARK SMILES IDX 6 13 7 14 8 15 12 16 10 17 9 18 11 20 20 22 17 24
REMARK H PARENT 9 19 11 21 20 23 17 25
REMARK Flexibility Score: inf
ROOT
ATOM      1  C   UNL     1      34.098 -12.159  -0.567  1.00  0.00     0.138 A 
ATOM      2  C   UNL     1      35.468 -12.042  -0.295  1.00  0.00     0.100 A 
ATOM      3  C   UNL     1      35.890 -11.362   0.849  1.00  0.00     0.197 A 
ATOM      4  O   UNL     1      37.122 -11.328   1.099  1.00  0.00    -0.289 OA
ATOM      5  C   UNL     1      34.933 -10.770   1.708  1.00  0.00     0.107 A 
ATOM      6  C   UNL     1      35.248 -10.020   2.881  1.00  0.00     0.134 A 
ATOM      7  C   UNL     1      34.214  -9.581   3.716  1.00  0.00     0.093 A 
ATOM      8  C   UNL     1      32.877  -9.811   3.393  1.00  0.00     0.123 A 
ATOM      9  C   UNL     1      32.556 -10.498   2.221  1.00  0.00     0.094 A 
ATOM     10  C   UNL     1      33.566 -10.979   1.384  1.00  0.00     0.146 A 
ATOM     11  O   UNL     1      33.219 -11.641   0.284  1.00  0.00    -0.456 OA
ENDROOT
BRANCH   1  12
ATOM     12  C   UNL     1      33.596 -12.869  -1.770  1.00  0.00     0.021 A 
ATOM     13  C   UNL     1      32.349 -12.563  -2.343  1.00  0.00     0.016 A 
ATOM     14  C   UNL     1      31.900 -13.255  -3.468  1.00  0.00     0.051 A 
ATOM     15  C   UNL     1      32.674 -14.268  -4.044  1.00  0.00     0.157 A 
ATOM     16  C   UNL     1      34.368 -13.896  -2.340  1.00  0.00     0.062 A 
ATOM     17  C   UNL     1      33.924 -14.594  -3.470  1.00  0.00     0.158 A 
BRANCH  15  18
ATOM     18  O   UNL     1      32.167 -14.918  -5.170  1.00  0.00    -0.504 OA
ATOM     19  H   UNL     1      31.183 -15.027  -5.363  1.00  0.00     0.293 HD
ENDBRANCH  15  18
BRANCH  17  20
ATOM     20  O   UNL     1      34.751 -15.595  -3.984  1.00  0.00    -0.504 OA
ATOM     21  H   UNL     1      34.442 -16.308  -4.629  1.00  0.00     0.293 HD
ENDBRANCH  17  20
ENDBRANCH   1  12
BRANCH   6  22
ATOM     22  O   UNL     1      36.547  -9.660   3.253  1.00  0.00    -0.507 OA
ATOM     23  H   UNL     1      36.778  -8.900   3.874  1.00  0.00     0.293 HD
ENDBRANCH   6  22
BRANCH   8  24
ATOM     24  O   UNL     1      31.875  -9.346   4.241  1.00  0.00    -0.508 OA
ATOM     25  H   UNL     1      31.188  -8.669   3.928  1.00  0.00     0.293 HD
ENDBRANCH   8  24
TORSDOF 5
ENDMDL
