MODEL 1
REMARK VINA RESULT:    -5.290      0.000      0.000
REMARK INTER + INTRA:         -11.918
REMARK INTER:                  -9.930
REMARK INTRA:                  -1.988
REMARK UNBOUND:                -1.988
REMARK SMILES CCCCCCCCC=CCCCCCCCC(=O)[O-]
REMARK SMILES IDX 10 1 9 2 11 3 12 4 13 5 14 6 15 7 16 8 17 9 18 10 19 11
REMARK SMILES IDX 20 12 8 13 7 14 6 15 5 16 4 17 3 18 2 19 1 20
REMARK H PARENT
REMARK Flexibility Score: inf
ROOT
ATOM      1  C   UNL     1      26.304  11.282  34.528  1.00  0.00    -0.031 C 
ATOM      2  C   UNL     1      27.541  11.783  34.711  1.00  0.00    -0.031 C 
ENDROOT
BRANCH   1   3
ATOM      3  C   UNL     1      25.046  12.096  34.338  1.00  0.00     0.027 C 
BRANCH   3   4
ATOM      4  C   UNL     1      24.370  12.482  35.663  1.00  0.00     0.004 C 
BRANCH   4   5
ATOM      5  C   UNL     1      22.837  12.461  35.567  1.00  0.00     0.000 C 
BRANCH   5   6
ATOM      6  C   UNL     1      22.372  12.809  34.145  1.00  0.00     0.000 C 
BRANCH   6   7
ATOM      7  C   UNL     1      20.915  13.297  34.102  1.00  0.00     0.000 C 
BRANCH   7   8
ATOM      8  C   UNL     1      20.208  13.164  35.462  1.00  0.00     0.006 C 
BRANCH   8   9
ATOM      9  C   UNL     1      18.971  12.259  35.384  1.00  0.00     0.053 C 
BRANCH   9  10
ATOM     10  C   UNL     1      19.339  10.838  35.082  1.00  0.00     0.041 C 
ATOM     11  O   UNL     1      20.086  10.197  35.867  1.00  0.00    -0.550 OA
ATOM     12  O   UNL     1      18.880  10.232  33.920  1.00  0.00    -0.550 OA
ENDBRANCH   9  10
ENDBRANCH   8   9
ENDBRANCH   7   8
ENDBRANCH   6   7
ENDBRANCH   5   6
ENDBRANCH   4   5
ENDBRANCH   3   4
ENDBRANCH   1   3
BRANCH   2  13
ATOM     13  C   UNL     1      27.897  13.251  34.726  1.00  0.00     0.027 C 
BRANCH  13  14
ATOM     14  C   UNL     1      27.897  13.858  33.312  1.00  0.00     0.004 C 
BRANCH  14  15
ATOM     15  C   UNL     1      28.503  12.956  32.216  1.00  0.00     0.000 C 
BRANCH  15  16
ATOM     16  C   UNL     1      27.516  12.473  31.138  1.00  0.00     0.000 C 
BRANCH  16  17
ATOM     17  C   UNL     1      27.634  10.967  30.848  1.00  0.00    -0.000 C 
BRANCH  17  18
ATOM     18  C   UNL     1      26.302  10.215  31.030  1.00  0.00    -0.000 C 
BRANCH  18  19
ATOM     19  C   UNL     1      25.066  10.931  30.457  1.00  0.00    -0.003 C 
ATOM     20  C   UNL     1      23.799  10.691  31.277  1.00  0.00     0.004 C 
ENDBRANCH  18  19
ENDBRANCH  17  18
ENDBRANCH  16  17
ENDBRANCH  15  16
ENDBRANCH  14  15
ENDBRANCH  13  14
ENDBRANCH   2  13
TORSDOF 15
ENDMDL
MODEL 2
REMARK VINA RESULT:    -5.240      1.120      3.136
REMARK INTER + INTRA:         -11.822
REMARK INTER:                  -9.538
REMARK INTRA:                  -2.284
REMARK UNBOUND:                -1.988
REMARK SMILES CCCCCCCCC=CCCCCCCCC(=O)[O-]
REMARK SMILES IDX 10 1 9 2 11 3 12 4 13 5 14 6 15 7 16 8 17 9 18 10 19 11
REMARK SMILES IDX 20 12 8 13 7 14 6 15 5 16 4 17 3 18 2 19 1 20
REMARK H PARENT
REMARK Flexibility Score: inf
ROOT
ATOM      1  C   UNL     1      24.700  10.771  31.870  1.00  0.00    -0.031 C 
ATOM      2  C   UNL     1      25.723  10.295  31.136  1.00  0.00    -0.031 C 
ENDROOT
BRANCH   1   3
ATOM      3  C   UNL     1      24.269  12.217  31.942  1.00  0.00     0.027 C 
BRANCH   3   4
ATOM      4  C   UNL     1      22.826  12.442  31.466  1.00  0.00     0.004 C 
BRANCH   4   5
ATOM      5  C   UNL     1      21.805  12.317  32.607  1.00  0.00     0.000 C 
BRANCH   5   6
ATOM      6  C   UNL     1      21.219  13.690  32.971  1.00  0.00     0.000 C 
BRANCH   6   7
ATOM      7  C   UNL     1      20.890  13.814  34.467  1.00  0.00     0.000 C 
BRANCH   7   8
ATOM      8  C   UNL     1      21.138  12.505  35.237  1.00  0.00     0.006 C 
BRANCH   8   9
ATOM      9  C   UNL     1      19.859  11.975  35.900  1.00  0.00     0.053 C 
BRANCH   9  10
ATOM     10  C   UNL     1      19.497  10.610  35.397  1.00  0.00     0.041 C 
ATOM     11  O   UNL     1      19.293  10.420  34.170  1.00  0.00    -0.550 OA
ATOM     12  O   UNL     1      19.356   9.555  36.290  1.00  0.00    -0.550 OA
ENDBRANCH   9  10
ENDBRANCH   8   9
ENDBRANCH   7   8
ENDBRANCH   6   7
ENDBRANCH   5   6
ENDBRANCH   4   5
ENDBRANCH   3   4
ENDBRANCH   1   3
BRANCH   2  13
ATOM     13  C   UNL     1      26.607  11.117  30.227  1.00  0.00     0.027 C 
BRANCH  13  14
ATOM     14  C   UNL     1      28.013  11.316  30.819  1.00  0.00     0.004 C 
BRANCH  14  15
ATOM     15  C   UNL     1      28.342  12.762  31.246  1.00  0.00     0.000 C 
BRANCH  15  16
ATOM     16  C   UNL     1      27.983  13.120  32.700  1.00  0.00     0.000 C 
BRANCH  16  17
ATOM     17  C   UNL     1      28.309  11.991  33.693  1.00  0.00    -0.000 C 
BRANCH  17  18
ATOM     18  C   UNL     1      27.092  11.561  34.533  1.00  0.00    -0.000 C 
BRANCH  18  19
ATOM     19  C   UNL     1      26.226  12.717  35.065  1.00  0.00    -0.003 C 
ATOM     20  C   UNL     1      24.883  12.252  35.626  1.00  0.00     0.004 C 
ENDBRANCH  18  19
ENDBRANCH  17  18
ENDBRANCH  16  17
ENDBRANCH  15  16
ENDBRANCH  14  15
ENDBRANCH  13  14
ENDBRANCH   2  13
TORSDOF 15
ENDMDL
MODEL 3
REMARK VINA RESULT:    -5.200      2.157      6.589
REMARK INTER + INTRA:         -11.748
REMARK INTER:                  -9.961
REMARK INTRA:                  -1.787
REMARK UNBOUND:                -1.988
REMARK SMILES CCCCCCCCC=CCCCCCCCC(=O)[O-]
REMARK SMILES IDX 10 1 9 2 11 3 12 4 13 5 14 6 15 7 16 8 17 9 18 10 19 11
REMARK SMILES IDX 20 12 8 13 7 14 6 15 5 16 4 17 3 18 2 19 1 20
REMARK H PARENT
REMARK Flexibility Score: inf
ROOT
ATOM      1  C   UNL     1      26.599  11.941  34.412  1.00  0.00    -0.031 C 
ATOM      2  C   UNL     1      25.450  11.607  35.031  1.00  0.00    -0.031 C 
ENDROOT
BRANCH   1   3
ATOM      3  C   UNL     1      27.267  13.294  34.472  1.00  0.00     0.027 C 
BRANCH   3   4
ATOM      4  C   UNL     1      27.808  13.761  33.112  1.00  0.00     0.004 C 
BRANCH   4   5
ATOM      5  C   UNL     1      28.617  12.669  32.397  1.00  0.00     0.000 C 
BRANCH   5   6
ATOM      6  C   UNL     1      28.770  12.989  30.902  1.00  0.00     0.000 C 
BRANCH   6   7
ATOM      7  C   UNL     1      28.489  11.774  30.005  1.00  0.00     0.000 C 
BRANCH   7   8
ATOM      8  C   UNL     1      26.995  11.621  29.669  1.00  0.00     0.006 C 
BRANCH   8   9
ATOM      9  C   UNL     1      26.283  10.659  30.628  1.00  0.00     0.053 C 
BRANCH   9  10
ATOM     10  C   UNL     1      25.020  11.251  31.175  1.00  0.00     0.041 C 
ATOM     11  O   UNL     1      24.931  12.493  31.362  1.00  0.00    -0.550 OA
ATOM     12  O   UNL     1      23.951  10.428  31.504  1.00  0.00    -0.550 OA
ENDBRANCH   9  10
ENDBRANCH   8   9
ENDBRANCH   7   8
ENDBRANCH   6   7
ENDBRANCH   5   6
ENDBRANCH   4   5
ENDBRANCH   3   4
ENDBRANCH   1   3
BRANCH   2  13
ATOM     13  C   UNL     1      24.639  12.517  35.923  1.00  0.00     0.027 C 
BRANCH  13  14
ATOM     14  C   UNL     1      23.139  12.466  35.585  1.00  0.00     0.004 C 
BRANCH  14  15
ATOM     15  C   UNL     1      22.804  12.598  34.084  1.00  0.00     0.000 C 
BRANCH  15  16
ATOM     16  C   UNL     1      21.509  13.365  33.761  1.00  0.00     0.000 C 
BRANCH  16  17
ATOM     17  C   UNL     1      20.753  13.821  35.020  1.00  0.00    -0.000 C 
BRANCH  17  18
ATOM     18  C   UNL     1      19.302  13.305  35.068  1.00  0.00    -0.000 C 
BRANCH  18  19
ATOM     19  C   UNL     1      19.038  12.198  36.104  1.00  0.00    -0.003 C 
ATOM     20  C   UNL     1      19.762  10.891  35.783  1.00  0.00     0.004 C 
ENDBRANCH  18  19
ENDBRANCH  17  18
ENDBRANCH  16  17
ENDBRANCH  15  16
ENDBRANCH  14  15
ENDBRANCH  13  14
ENDBRANCH   2  13
TORSDOF 15
ENDMDL
MODEL 4
REMARK VINA RESULT:    -5.163      2.433      6.583
REMARK INTER + INTRA:         -11.679
REMARK INTER:                  -9.491
REMARK INTRA:                  -2.187
REMARK UNBOUND:                -1.988
REMARK SMILES CCCCCCCCC=CCCCCCCCC(=O)[O-]
REMARK SMILES IDX 10 1 9 2 11 3 12 4 13 5 14 6 15 7 16 8 17 9 18 10 19 11
REMARK SMILES IDX 20 12 8 13 7 14 6 15 5 16 4 17 3 18 2 19 1 20
REMARK H PARENT
REMARK Flexibility Score: inf
ROOT
ATOM      1  C   UNL     1      25.178  10.854  31.860  1.00  0.00    -0.031 C 
ATOM      2  C   UNL     1      24.356  11.919  31.793  1.00  0.00    -0.031 C 
ENDROOT
BRANCH   1   3
ATOM      3  C   UNL     1      25.993  10.301  30.715  1.00  0.00     0.027 C 
BRANCH   3   4
ATOM      4  C   UNL     1      27.476  10.696  30.783  1.00  0.00     0.004 C 
BRANCH   4   5
ATOM      5  C   UNL     1      27.770  12.003  30.030  1.00  0.00     0.000 C 
BRANCH   5   6
ATOM      6  C   UNL     1      28.481  13.014  30.943  1.00  0.00     0.000 C 
BRANCH   6   7
ATOM      7  C   UNL     1      28.441  12.605  32.423  1.00  0.00     0.000 C 
BRANCH   7   8
ATOM      8  C   UNL     1      27.726  13.645  33.304  1.00  0.00     0.006 C 
BRANCH   8   9
ATOM      9  C   UNL     1      27.623  13.190  34.766  1.00  0.00     0.053 C 
BRANCH   9  10
ATOM     10  C   UNL     1      26.559  12.152  34.953  1.00  0.00     0.041 C 
ATOM     11  O   UNL     1      25.371  12.496  35.185  1.00  0.00    -0.550 OA
ATOM     12  O   UNL     1      26.886  10.803  34.898  1.00  0.00    -0.550 OA
ENDBRANCH   9  10
ENDBRANCH   8   9
ENDBRANCH   7   8
ENDBRANCH   6   7
ENDBRANCH   5   6
ENDBRANCH   4   5
ENDBRANCH   3   4
ENDBRANCH   1   3
BRANCH   2  13
ATOM     13  C   UNL     1      24.124  12.771  30.567  1.00  0.00     0.027 C 
BRANCH  13  14
ATOM     14  C   UNL     1      22.627  13.010  30.308  1.00  0.00     0.004 C 
BRANCH  14  15
ATOM     15  C   UNL     1      21.699  12.689  31.499  1.00  0.00     0.000 C 
BRANCH  15  16
ATOM     16  C   UNL     1      20.839  13.862  32.002  1.00  0.00     0.000 C 
BRANCH  16  17
ATOM     17  C   UNL     1      21.106  14.213  33.476  1.00  0.00    -0.000 C 
BRANCH  17  18
ATOM     18  C   UNL     1      21.889  13.115  34.220  1.00  0.00    -0.000 C 
BRANCH  18  19
ATOM     19  C   UNL     1      21.228  12.606  35.514  1.00  0.00    -0.003 C 
ATOM     20  C   UNL     1      20.473  11.291  35.325  1.00  0.00     0.004 C 
ENDBRANCH  18  19
ENDBRANCH  17  18
ENDBRANCH  16  17
ENDBRANCH  15  16
ENDBRANCH  14  15
ENDBRANCH  13  14
ENDBRANCH   2  13
TORSDOF 15
ENDMDL
MODEL 5
REMARK VINA RESULT:    -5.134      0.974      2.108
REMARK INTER + INTRA:         -11.624
REMARK INTER:                  -9.708
REMARK INTRA:                  -1.916
REMARK UNBOUND:                -1.988
REMARK SMILES CCCCCCCCC=CCCCCCCCC(=O)[O-]
REMARK SMILES IDX 10 1 9 2 11 3 12 4 13 5 14 6 15 7 16 8 17 9 18 10 19 11
REMARK SMILES IDX 20 12 8 13 7 14 6 15 5 16 4 17 3 18 2 19 1 20
REMARK H PARENT
REMARK Flexibility Score: inf
ROOT
ATOM      1  C   UNL     1      24.155  12.634  34.742  1.00  0.00    -0.031 C 
ATOM      2  C   UNL     1      25.246  12.176  35.384  1.00  0.00    -0.031 C 
ENDROOT
BRANCH   1   3
ATOM      3  C   UNL     1      23.647  12.135  33.410  1.00  0.00     0.027 C 
BRANCH   3   4
ATOM      4  C   UNL     1      22.119  12.223  33.275  1.00  0.00     0.004 C 
BRANCH   4   5
ATOM      5  C   UNL     1      21.655  13.584  32.734  1.00  0.00     0.000 C 
BRANCH   5   6
ATOM      6  C   UNL     1      20.556  14.183  33.625  1.00  0.00     0.000 C 
BRANCH   6   7
ATOM      7  C   UNL     1      20.565  13.601  35.047  1.00  0.00     0.000 C 
BRANCH   7   8
ATOM      8  C   UNL     1      19.148  13.354  35.593  1.00  0.00     0.006 C 
BRANCH   8   9
ATOM      9  C   UNL     1      19.048  12.031  36.364  1.00  0.00     0.053 C 
BRANCH   9  10
ATOM     10  C   UNL     1      19.341  10.852  35.486  1.00  0.00     0.041 C 
ATOM     11  O   UNL     1      20.084   9.923  35.898  1.00  0.00    -0.550 OA
ATOM     12  O   UNL     1      18.814  10.792  34.202  1.00  0.00    -0.550 OA
ENDBRANCH   9  10
ENDBRANCH   8   9
ENDBRANCH   7   8
ENDBRANCH   6   7
ENDBRANCH   5   6
ENDBRANCH   4   5
ENDBRANCH   3   4
ENDBRANCH   1   3
BRANCH   2  13
ATOM     13  C   UNL     1      26.142  11.059  34.902  1.00  0.00     0.027 C 
BRANCH  13  14
ATOM     14  C   UNL     1      27.599  11.523  34.734  1.00  0.00     0.004 C 
BRANCH  14  15
ATOM     15  C   UNL     1      27.774  13.025  34.425  1.00  0.00     0.000 C 
BRANCH  15  16
ATOM     16  C   UNL     1      28.136  13.362  32.968  1.00  0.00     0.000 C 
BRANCH  16  17
ATOM     17  C   UNL     1      27.181  12.718  31.948  1.00  0.00    -0.000 C 
BRANCH  17  18
ATOM     18  C   UNL     1      27.878  11.683  31.045  1.00  0.00    -0.000 C 
BRANCH  18  19
ATOM     19  C   UNL     1      26.933  10.705  30.324  1.00  0.00    -0.003 C 
ATOM     20  C   UNL     1      25.884  10.091  31.250  1.00  0.00     0.004 C 
ENDBRANCH  18  19
ENDBRANCH  17  18
ENDBRANCH  16  17
ENDBRANCH  15  16
ENDBRANCH  14  15
ENDBRANCH  13  14
ENDBRANCH   2  13
TORSDOF 15
ENDMDL
MODEL 6
REMARK VINA RESULT:    -5.111      3.287      7.318
REMARK INTER + INTRA:         -11.582
REMARK INTER:                  -9.898
REMARK INTRA:                  -1.684
REMARK UNBOUND:                -1.988
REMARK SMILES CCCCCCCCC=CCCCCCCCC(=O)[O-]
REMARK SMILES IDX 10 1 9 2 11 3 12 4 13 5 14 6 15 7 16 8 17 9 18 10 19 11
REMARK SMILES IDX 20 12 8 13 7 14 6 15 5 16 4 17 3 18 2 19 1 20
REMARK H PARENT
REMARK Flexibility Score: inf
ROOT
ATOM      1  C   UNL     1      24.424  11.927  33.047  1.00  0.00    -0.031 C 
ATOM      2  C   UNL     1      23.473  11.844  32.097  1.00  0.00    -0.031 C 
ENDROOT
BRANCH   1   3
ATOM      3  C   UNL     1      24.184  12.242  34.505  1.00  0.00     0.027 C 
BRANCH   3   4
ATOM      4  C   UNL     1      25.460  12.166  35.357  1.00  0.00     0.004 C 
BRANCH   4   5
ATOM      5  C   UNL     1      26.420  11.067  34.879  1.00  0.00     0.000 C 
BRANCH   5   6
ATOM      6  C   UNL     1      27.835  11.626  34.671  1.00  0.00     0.000 C 
BRANCH   6   7
ATOM      7  C   UNL     1      27.842  13.144  34.431  1.00  0.00     0.000 C 
BRANCH   7   8
ATOM      8  C   UNL     1      27.844  13.506  32.936  1.00  0.00     0.006 C 
BRANCH   8   9
ATOM      9  C   UNL     1      28.496  12.413  32.078  1.00  0.00     0.053 C 
BRANCH   9  10
ATOM     10  C   UNL     1      27.927  12.380  30.692  1.00  0.00     0.041 C 
ATOM     11  O   UNL     1      28.481  11.691  29.796  1.00  0.00    -0.550 OA
ATOM     12  O   UNL     1      26.801  13.132  30.384  1.00  0.00    -0.550 OA
ENDBRANCH   9  10
ENDBRANCH   8   9
ENDBRANCH   7   8
ENDBRANCH   6   7
ENDBRANCH   5   6
ENDBRANCH   4   5
ENDBRANCH   3   4
ENDBRANCH   1   3
BRANCH   2  13
ATOM     13  C   UNL     1      21.990  12.021  32.324  1.00  0.00     0.027 C 
BRANCH  13  14
ATOM     14  C   UNL     1      21.571  13.500  32.262  1.00  0.00     0.004 C 
BRANCH  14  15
ATOM     15  C   UNL     1      20.916  14.048  33.548  1.00  0.00     0.000 C 
BRANCH  15  16
ATOM     16  C   UNL     1      19.643  13.313  34.006  1.00  0.00     0.000 C 
BRANCH  16  17
ATOM     17  C   UNL     1      19.374  13.462  35.513  1.00  0.00    -0.000 C 
BRANCH  17  18
ATOM     18  C   UNL     1      19.094  12.117  36.208  1.00  0.00    -0.000 C 
BRANCH  18  19
ATOM     19  C   UNL     1      20.055  10.975  35.830  1.00  0.00    -0.003 C 
ATOM     20  C   UNL     1      19.410   9.593  35.921  1.00  0.00     0.004 C 
ENDBRANCH  18  19
ENDBRANCH  17  18
ENDBRANCH  16  17
ENDBRANCH  15  16
ENDBRANCH  14  15
ENDBRANCH  13  14
ENDBRANCH   2  13
TORSDOF 15
ENDMDL
MODEL 7
REMARK VINA RESULT:    -5.087      1.425      3.639
REMARK INTER + INTRA:         -11.536
REMARK INTER:                  -9.238
REMARK INTRA:                  -2.298
REMARK UNBOUND:                -1.988
REMARK SMILES CCCCCCCCC=CCCCCCCCC(=O)[O-]
REMARK SMILES IDX 10 1 9 2 11 3 12 4 13 5 14 6 15 7 16 8 17 9 18 10 19 11
REMARK SMILES IDX 20 12 8 13 7 14 6 15 5 16 4 17 3 18 2 19 1 20
REMARK H PARENT
REMARK Flexibility Score: inf
ROOT
ATOM      1  C   UNL     1      25.695  10.154  31.126  1.00  0.00    -0.031 C 
ATOM      2  C   UNL     1      27.024  10.371  31.118  1.00  0.00    -0.031 C 
ENDROOT
BRANCH   1   3
ATOM      3  C   UNL     1      24.697  10.788  30.185  1.00  0.00     0.027 C 
BRANCH   3   4
ATOM      4  C   UNL     1      24.209  12.165  30.660  1.00  0.00     0.004 C 
BRANCH   4   5
ATOM      5  C   UNL     1      24.182  12.281  32.191  1.00  0.00     0.000 C 
BRANCH   5   6
ATOM      6  C   UNL     1      22.740  12.241  32.719  1.00  0.00     0.000 C 
BRANCH   6   7
ATOM      7  C   UNL     1      21.756  12.994  31.810  1.00  0.00     0.000 C 
BRANCH   7   8
ATOM      8  C   UNL     1      21.020  14.127  32.546  1.00  0.00     0.006 C 
BRANCH   8   9
ATOM      9  C   UNL     1      21.079  13.959  34.070  1.00  0.00     0.053 C 
BRANCH   9  10
ATOM     10  C   UNL     1      19.851  13.286  34.604  1.00  0.00     0.041 C 
ATOM     11  O   UNL     1      18.816  13.197  33.892  1.00  0.00    -0.550 OA
ATOM     12  O   UNL     1      19.840  12.782  35.898  1.00  0.00    -0.550 OA
ENDBRANCH   9  10
ENDBRANCH   8   9
ENDBRANCH   7   8
ENDBRANCH   6   7
ENDBRANCH   5   6
ENDBRANCH   4   5
ENDBRANCH   3   4
ENDBRANCH   1   3
BRANCH   2  13
ATOM     13  C   UNL     1      27.761  11.263  30.147  1.00  0.00     0.027 C 
BRANCH  13  14
ATOM     14  C   UNL     1      27.983  12.674  30.718  1.00  0.00     0.004 C 
BRANCH  14  15
ATOM     15  C   UNL     1      28.419  12.718  32.198  1.00  0.00     0.000 C 
BRANCH  15  16
ATOM     16  C   UNL     1      27.635  13.698  33.089  1.00  0.00     0.000 C 
BRANCH  16  17
ATOM     17  C   UNL     1      27.639  13.294  34.574  1.00  0.00    -0.000 C 
BRANCH  17  18
ATOM     18  C   UNL     1      27.603  11.768  34.779  1.00  0.00    -0.000 C 
BRANCH  18  19
ATOM     19  C   UNL     1      26.194  11.152  34.851  1.00  0.00    -0.003 C 
ATOM     20  C   UNL     1      25.191  12.034  35.594  1.00  0.00     0.004 C 
ENDBRANCH  18  19
ENDBRANCH  17  18
ENDBRANCH  16  17
ENDBRANCH  15  16
ENDBRANCH  14  15
ENDBRANCH  13  14
ENDBRANCH   2  13
TORSDOF 15
ENDMDL
MODEL 8
REMARK VINA RESULT:    -5.045      2.497      6.902
REMARK INTER + INTRA:         -11.458
REMARK INTER:                  -9.443
REMARK INTRA:                  -2.015
REMARK UNBOUND:                -1.988
REMARK SMILES CCCCCCCCC=CCCCCCCCC(=O)[O-]
REMARK SMILES IDX 10 1 9 2 11 3 12 4 13 5 14 6 15 7 16 8 17 9 18 10 19 11
REMARK SMILES IDX 20 12 8 13 7 14 6 15 5 16 4 17 3 18 2 19 1 20
REMARK H PARENT
REMARK Flexibility Score: inf
ROOT
ATOM      1  C   UNL     1      24.709  11.314  32.142  1.00  0.00    -0.031 C 
ATOM      2  C   UNL     1      23.624  11.878  32.707  1.00  0.00    -0.031 C 
ENDROOT
BRANCH   1   3
ATOM      3  C   UNL     1      24.714  10.510  30.863  1.00  0.00     0.027 C 
BRANCH   3   4
ATOM      4  C   UNL     1      26.115  10.357  30.251  1.00  0.00     0.004 C 
BRANCH   4   5
ATOM      5  C   UNL     1      27.226  10.801  31.213  1.00  0.00     0.000 C 
BRANCH   5   6
ATOM      6  C   UNL     1      28.002  11.998  30.642  1.00  0.00     0.000 C 
BRANCH   6   7
ATOM      7  C   UNL     1      28.414  13.007  31.725  1.00  0.00     0.000 C 
BRANCH   7   8
ATOM      8  C   UNL     1      28.419  12.391  33.135  1.00  0.00     0.006 C 
BRANCH   8   9
ATOM      9  C   UNL     1      27.587  13.215  34.128  1.00  0.00     0.053 C 
BRANCH   9  10
ATOM     10  C   UNL     1      26.654  12.352  34.922  1.00  0.00     0.041 C 
ATOM     11  O   UNL     1      25.728  12.874  35.597  1.00  0.00    -0.550 OA
ATOM     12  O   UNL     1      26.824  10.974  34.938  1.00  0.00    -0.550 OA
ENDBRANCH   9  10
ENDBRANCH   8   9
ENDBRANCH   7   8
ENDBRANCH   6   7
ENDBRANCH   5   6
ENDBRANCH   4   5
ENDBRANCH   3   4
ENDBRANCH   1   3
BRANCH   2  13
ATOM     13  C   UNL     1      22.222  11.834  32.148  1.00  0.00     0.027 C 
BRANCH  13  14
ATOM     14  C   UNL     1      21.699  13.238  31.799  1.00  0.00     0.004 C 
BRANCH  14  15
ATOM     15  C   UNL     1      20.513  13.725  32.657  1.00  0.00     0.000 C 
BRANCH  15  16
ATOM     16  C   UNL     1      20.878  14.225  34.066  1.00  0.00     0.000 C 
BRANCH  16  17
ATOM     17  C   UNL     1      20.181  13.431  35.184  1.00  0.00    -0.000 C 
BRANCH  17  18
ATOM     18  C   UNL     1      20.942  12.149  35.572  1.00  0.00    -0.000 C 
BRANCH  18  19
ATOM     19  C   UNL     1      20.088  10.869  35.607  1.00  0.00    -0.003 C 
ATOM     20  C   UNL     1      19.330  10.618  34.304  1.00  0.00     0.004 C 
ENDBRANCH  18  19
ENDBRANCH  17  18
ENDBRANCH  16  17
ENDBRANCH  15  16
ENDBRANCH  14  15
ENDBRANCH  13  14
ENDBRANCH   2  13
TORSDOF 15
ENDMDL
MODEL 9
REMARK VINA RESULT:    -5.028      1.479      3.332
REMARK INTER + INTRA:         -11.424
REMARK INTER:                  -9.448
REMARK INTRA:                  -1.976
REMARK UNBOUND:                -1.988
REMARK SMILES CCCCCCCCC=CCCCCCCCC(=O)[O-]
REMARK SMILES IDX 10 1 9 2 11 3 12 4 13 5 14 6 15 7 16 8 17 9 18 10 19 11
REMARK SMILES IDX 20 12 8 13 7 14 6 15 5 16 4 17 3 18 2 19 1 20
REMARK H PARENT
REMARK Flexibility Score: inf
ROOT
ATOM      1  C   UNL     1      25.077  11.116  32.227  1.00  0.00    -0.031 C 
ATOM      2  C   UNL     1      25.321  11.302  30.916  1.00  0.00    -0.031 C 
ENDROOT
BRANCH   1   3
ATOM      3  C   UNL     1      24.592  12.176  33.189  1.00  0.00     0.027 C 
BRANCH   3   4
ATOM      4  C   UNL     1      24.787  11.788  34.663  1.00  0.00     0.004 C 
BRANCH   4   5
ATOM      5  C   UNL     1      23.839  12.551  35.600  1.00  0.00     0.000 C 
BRANCH   5   6
ATOM      6  C   UNL     1      22.452  12.719  34.960  1.00  0.00     0.000 C 
BRANCH   6   7
ATOM      7  C   UNL     1      21.360  11.930  35.700  1.00  0.00     0.000 C 
BRANCH   7   8
ATOM      8  C   UNL     1      19.969  12.573  35.559  1.00  0.00     0.006 C 
BRANCH   8   9
ATOM      9  C   UNL     1      19.886  13.511  34.347  1.00  0.00     0.053 C 
BRANCH   9  10
ATOM     10  C   UNL     1      19.251  12.841  33.167  1.00  0.00     0.041 C 
ATOM     11  O   UNL     1      18.078  13.141  32.823  1.00  0.00    -0.550 OA
ATOM     12  O   UNL     1      19.945  11.864  32.465  1.00  0.00    -0.550 OA
ENDBRANCH   9  10
ENDBRANCH   8   9
ENDBRANCH   7   8
ENDBRANCH   6   7
ENDBRANCH   5   6
ENDBRANCH   4   5
ENDBRANCH   3   4
ENDBRANCH   1   3
BRANCH   2  13
ATOM     13  C   UNL     1      25.125  12.597  30.163  1.00  0.00     0.027 C 
BRANCH  13  14
ATOM     14  C   UNL     1      26.463  13.295  29.861  1.00  0.00     0.004 C 
BRANCH  14  15
ATOM     15  C   UNL     1      27.708  12.390  29.967  1.00  0.00     0.000 C 
BRANCH  15  16
ATOM     16  C   UNL     1      28.774  12.848  30.980  1.00  0.00     0.000 C 
BRANCH  16  17
ATOM     17  C   UNL     1      28.171  13.291  32.324  1.00  0.00    -0.000 C 
BRANCH  17  18
ATOM     18  C   UNL     1      28.426  12.280  33.457  1.00  0.00    -0.000 C 
BRANCH  18  19
ATOM     19  C   UNL     1      28.078  12.782  34.870  1.00  0.00    -0.003 C 
ATOM     20  C   UNL     1      27.710  14.265  34.906  1.00  0.00     0.004 C 
ENDBRANCH  18  19
ENDBRANCH  17  18
ENDBRANCH  16  17
ENDBRANCH  15  16
ENDBRANCH  14  15
ENDBRANCH  13  14
ENDBRANCH   2  13
TORSDOF 15
ENDMDL
