MODEL 1
REMARK VINA RESULT:    -3.839      0.000      0.000
REMARK INTER + INTRA:          -9.550
REMARK INTER:                  -6.982
REMARK INTRA:                  -2.568
REMARK UNBOUND:                -2.568
REMARK SMILES CCCCCCCCCCCCCCCC(=O)[O-]
REMARK SMILES IDX 9 1 10 2 11 3 12 4 13 5 14 6 15 7 16 8 17 9 18 10 8 11 7 12
REMARK SMILES IDX 6 13 5 14 4 15 3 16 2 17 1 18
REMARK H PARENT
REMARK Flexibility Score: inf
ROOT
ATOM      1  C   UNL     1      37.370  22.029 224.652  1.00  0.00     0.000 C 
ENDROOT
BRANCH   1   2
ATOM      2  C   UNL     1      37.036  22.234 226.137  1.00  0.00     0.000 C 
BRANCH   2   3
ATOM      3  C   UNL     1      38.290  22.282 227.025  1.00  0.00     0.000 C 
BRANCH   3   4
ATOM      4  C   UNL     1      39.582  22.013 226.240  1.00  0.00     0.000 C 
BRANCH   4   5
ATOM      5  C   UNL     1      40.590  23.153 226.435  1.00  0.00     0.000 C 
BRANCH   5   6
ATOM      6  C   UNL     1      41.694  23.099 225.367  1.00  0.00     0.006 C 
BRANCH   6   7
ATOM      7  C   UNL     1      41.363  23.967 224.146  1.00  0.00     0.053 C 
BRANCH   7   8
ATOM      8  C   UNL     1      40.877  23.144 222.993  1.00  0.00     0.041 C 
ATOM      9  O   UNL     1      41.514  22.119 222.633  1.00  0.00    -0.550 OA
ATOM     10  O   UNL     1      39.701  23.488 222.337  1.00  0.00    -0.550 OA
ENDBRANCH   7   8
ENDBRANCH   6   7
ENDBRANCH   5   6
ENDBRANCH   4   5
ENDBRANCH   3   4
ENDBRANCH   2   3
ENDBRANCH   1   2
BRANCH   1  11
ATOM     11  C   UNL     1      36.559  22.986 223.769  1.00  0.00     0.000 C 
BRANCH  11  12
ATOM     12  C   UNL     1      36.377  24.348 224.455  1.00  0.00    -0.000 C 
BRANCH  12  13
ATOM     13  C   UNL     1      37.170  25.469 223.767  1.00  0.00    -0.000 C 
BRANCH  13  14
ATOM     14  C   UNL     1      38.327  25.997 224.634  1.00  0.00    -0.000 C 
BRANCH  14  15
ATOM     15  C   UNL     1      38.058  25.809 226.143  1.00  0.00    -0.000 C 
BRANCH  15  16
ATOM     16  C   UNL     1      39.086  26.518 227.046  1.00  0.00    -0.000 C 
BRANCH  16  17
ATOM     17  C   UNL     1      40.118  27.374 226.294  1.00  0.00    -0.003 C 
ATOM     18  C   UNL     1      41.553  26.890 226.502  1.00  0.00     0.004 C 
ENDBRANCH  16  17
ENDBRANCH  15  16
ENDBRANCH  14  15
ENDBRANCH  13  14
ENDBRANCH  12  13
ENDBRANCH  11  12
ENDBRANCH   1  11
TORSDOF 14
ENDMDL
MODEL 2
REMARK VINA RESULT:    -3.799      3.271      4.635
REMARK INTER + INTRA:          -9.475
REMARK INTER:                  -7.177
REMARK INTRA:                  -2.299
REMARK UNBOUND:                -2.568
REMARK SMILES CCCCCCCCCCCCCCCC(=O)[O-]
REMARK SMILES IDX 9 1 10 2 11 3 12 4 13 5 14 6 15 7 16 8 17 9 18 10 8 11 7 12
REMARK SMILES IDX 6 13 5 14 4 15 3 16 2 17 1 18
REMARK H PARENT
REMARK Flexibility Score: inf
ROOT
ATOM      1  C   UNL     1      36.831  23.155 223.874  1.00  0.00     0.000 C 
ENDROOT
BRANCH   1   2
ATOM      2  C   UNL     1      37.092  22.261 225.095  1.00  0.00     0.000 C 
BRANCH   2   3
ATOM      3  C   UNL     1      38.069  22.897 226.097  1.00  0.00     0.000 C 
BRANCH   3   4
ATOM      4  C   UNL     1      39.050  21.878 226.695  1.00  0.00     0.000 C 
BRANCH   4   5
ATOM      5  C   UNL     1      39.029  20.566 225.902  1.00  0.00     0.000 C 
BRANCH   5   6
ATOM      6  C   UNL     1      38.579  19.394 226.788  1.00  0.00     0.006 C 
BRANCH   6   7
ATOM      7  C   UNL     1      37.658  18.421 226.042  1.00  0.00     0.053 C 
BRANCH   7   8
ATOM      8  C   UNL     1      36.324  18.292 226.711  1.00  0.00     0.041 C 
ATOM      9  O   UNL     1      35.291  18.754 226.159  1.00  0.00    -0.550 OA
ATOM     10  O   UNL     1      36.217  17.632 227.929  1.00  0.00    -0.550 OA
ENDBRANCH   7   8
ENDBRANCH   6   7
ENDBRANCH   5   6
ENDBRANCH   4   5
ENDBRANCH   3   4
ENDBRANCH   2   3
ENDBRANCH   1   2
BRANCH   1  11
ATOM     11  C   UNL     1      37.991  24.134 223.650  1.00  0.00     0.000 C 
BRANCH  11  12
ATOM     12  C   UNL     1      38.944  23.617 222.562  1.00  0.00    -0.000 C 
BRANCH  12  13
ATOM     13  C   UNL     1      40.420  23.879 222.894  1.00  0.00    -0.000 C 
BRANCH  13  14
ATOM     14  C   UNL     1      41.124  22.647 223.489  1.00  0.00    -0.000 C 
BRANCH  14  15
ATOM     15  C   UNL     1      41.973  23.002 224.729  1.00  0.00    -0.000 C 
BRANCH  15  16
ATOM     16  C   UNL     1      42.021  24.512 225.032  1.00  0.00    -0.000 C 
BRANCH  16  17
ATOM     17  C   UNL     1      41.261  24.936 226.300  1.00  0.00    -0.003 C 
ATOM     18  C   UNL     1      40.185  25.985 226.021  1.00  0.00     0.004 C 
ENDBRANCH  16  17
ENDBRANCH  15  16
ENDBRANCH  14  15
ENDBRANCH  13  14
ENDBRANCH  12  13
ENDBRANCH  11  12
ENDBRANCH   1  11
TORSDOF 14
ENDMDL
MODEL 3
REMARK VINA RESULT:    -3.771      3.288      5.648
REMARK INTER + INTRA:          -9.426
REMARK INTER:                  -7.008
REMARK INTRA:                  -2.418
REMARK UNBOUND:                -2.568
REMARK SMILES CCCCCCCCCCCCCCCC(=O)[O-]
REMARK SMILES IDX 9 1 10 2 11 3 12 4 13 5 14 6 15 7 16 8 17 9 18 10 8 11 7 12
REMARK SMILES IDX 6 13 5 14 4 15 3 16 2 17 1 18
REMARK H PARENT
REMARK Flexibility Score: inf
ROOT
ATOM      1  C   UNL     1      38.927  24.478 223.742  1.00  0.00     0.000 C 
ENDROOT
BRANCH   1   2
ATOM      2  C   UNL     1      37.755  23.643 223.207  1.00  0.00     0.000 C 
BRANCH   2   3
ATOM      3  C   UNL     1      37.232  22.628 224.235  1.00  0.00     0.000 C 
BRANCH   3   4
ATOM      4  C   UNL     1      37.176  23.202 225.658  1.00  0.00     0.000 C 
BRANCH   4   5
ATOM      5  C   UNL     1      37.474  22.117 226.700  1.00  0.00     0.000 C 
BRANCH   5   6
ATOM      6  C   UNL     1      36.753  20.806 226.352  1.00  0.00     0.006 C 
BRANCH   6   7
ATOM      7  C   UNL     1      37.255  19.626 227.193  1.00  0.00     0.053 C 
BRANCH   7   8
ATOM      8  C   UNL     1      36.424  18.397 226.982  1.00  0.00     0.041 C 
ATOM      9  O   UNL     1      36.206  17.608 227.939  1.00  0.00    -0.550 OA
ATOM     10  O   UNL     1      35.861  18.142 225.738  1.00  0.00    -0.550 OA
ENDBRANCH   7   8
ENDBRANCH   6   7
ENDBRANCH   5   6
ENDBRANCH   4   5
ENDBRANCH   3   4
ENDBRANCH   2   3
ENDBRANCH   1   2
BRANCH   1  11
ATOM     11  C   UNL     1      40.258  24.008 223.141  1.00  0.00     0.000 C 
BRANCH  11  12
ATOM     12  C   UNL     1      41.359  23.961 224.210  1.00  0.00    -0.000 C 
BRANCH  12  13
ATOM     13  C   UNL     1      40.839  24.306 225.613  1.00  0.00    -0.000 C 
BRANCH  13  14
ATOM     14  C   UNL     1      41.043  23.162 226.622  1.00  0.00    -0.000 C 
BRANCH  14  15
ATOM     15  C   UNL     1      41.748  21.944 225.986  1.00  0.00    -0.000 C 
BRANCH  15  16
ATOM     16  C   UNL     1      40.857  20.688 225.907  1.00  0.00    -0.000 C 
BRANCH  16  17
ATOM     17  C   UNL     1      40.175  20.470 224.547  1.00  0.00    -0.003 C 
ATOM     18  C   UNL     1      40.799  19.325 223.748  1.00  0.00     0.004 C 
ENDBRANCH  16  17
ENDBRANCH  15  16
ENDBRANCH  14  15
ENDBRANCH  13  14
ENDBRANCH  12  13
ENDBRANCH  11  12
ENDBRANCH   1  11
TORSDOF 14
ENDMDL
MODEL 4
REMARK VINA RESULT:    -3.769      2.597      4.894
REMARK INTER + INTRA:          -9.421
REMARK INTER:                  -7.175
REMARK INTRA:                  -2.247
REMARK UNBOUND:                -2.568
REMARK SMILES CCCCCCCCCCCCCCCC(=O)[O-]
REMARK SMILES IDX 9 1 10 2 11 3 12 4 13 5 14 6 15 7 16 8 17 9 18 10 8 11 7 12
REMARK SMILES IDX 6 13 5 14 4 15 3 16 2 17 1 18
REMARK H PARENT
REMARK Flexibility Score: inf
ROOT
ATOM      1  C   UNL     1      41.675  23.802 224.799  1.00  0.00     0.000 C 
ENDROOT
BRANCH   1   2
ATOM      2  C   UNL     1      41.500  22.487 225.573  1.00  0.00     0.000 C 
BRANCH   2   3
ATOM      3  C   UNL     1      40.678  22.661 226.860  1.00  0.00     0.000 C 
BRANCH   3   4
ATOM      4  C   UNL     1      39.570  21.607 227.002  1.00  0.00     0.000 C 
BRANCH   4   5
ATOM      5  C   UNL     1      38.245  22.123 226.428  1.00  0.00     0.000 C 
BRANCH   5   6
ATOM      6  C   UNL     1      37.821  21.305 225.199  1.00  0.00     0.006 C 
BRANCH   6   7
ATOM      7  C   UNL     1      36.526  20.518 225.444  1.00  0.00     0.053 C 
BRANCH   7   8
ATOM      8  C   UNL     1      36.793  19.061 225.666  1.00  0.00     0.041 C 
ATOM      9  O   UNL     1      35.836  18.261 225.838  1.00  0.00    -0.550 OA
ATOM     10  O   UNL     1      38.097  18.581 225.649  1.00  0.00    -0.550 OA
ENDBRANCH   7   8
ENDBRANCH   6   7
ENDBRANCH   5   6
ENDBRANCH   4   5
ENDBRANCH   3   4
ENDBRANCH   2   3
ENDBRANCH   1   2
BRANCH   1  11
ATOM     11  C   UNL     1      41.008  23.721 223.420  1.00  0.00     0.000 C 
BRANCH  11  12
ATOM     12  C   UNL     1      39.545  24.186 223.488  1.00  0.00    -0.000 C 
BRANCH  12  13
ATOM     13  C   UNL     1      39.312  25.253 224.567  1.00  0.00    -0.000 C 
BRANCH  13  14
ATOM     14  C   UNL     1      37.818  25.503 224.843  1.00  0.00    -0.000 C 
BRANCH  14  15
ATOM     15  C   UNL     1      36.951  25.301 223.582  1.00  0.00    -0.000 C 
BRANCH  15  16
ATOM     16  C   UNL     1      35.868  24.216 223.744  1.00  0.00    -0.000 C 
BRANCH  16  17
ATOM     17  C   UNL     1      35.573  23.408 222.471  1.00  0.00    -0.003 C 
ATOM     18  C   UNL     1      36.479  23.794 221.301  1.00  0.00     0.004 C 
ENDBRANCH  16  17
ENDBRANCH  15  16
ENDBRANCH  14  15
ENDBRANCH  13  14
ENDBRANCH  12  13
ENDBRANCH  11  12
ENDBRANCH   1  11
TORSDOF 14
ENDMDL
MODEL 5
REMARK VINA RESULT:    -3.765      2.347      4.726
REMARK INTER + INTRA:          -9.414
REMARK INTER:                  -7.547
REMARK INTRA:                  -1.867
REMARK UNBOUND:                -2.568
REMARK SMILES CCCCCCCCCCCCCCCC(=O)[O-]
REMARK SMILES IDX 9 1 10 2 11 3 12 4 13 5 14 6 15 7 16 8 17 9 18 10 8 11 7 12
REMARK SMILES IDX 6 13 5 14 4 15 3 16 2 17 1 18
REMARK H PARENT
REMARK Flexibility Score: inf
ROOT
ATOM      1  C   UNL     1      38.261  24.369 226.205  1.00  0.00     0.000 C 
ENDROOT
BRANCH   1   2
ATOM      2  C   UNL     1      39.762  24.280 226.514  1.00  0.00     0.000 C 
BRANCH   2   3
ATOM      3  C   UNL     1      40.626  25.005 225.471  1.00  0.00     0.000 C 
BRANCH   3   4
ATOM      4  C   UNL     1      41.250  24.044 224.448  1.00  0.00     0.000 C 
BRANCH   4   5
ATOM      5  C   UNL     1      40.466  24.062 223.130  1.00  0.00     0.000 C 
BRANCH   5   6
ATOM      6  C   UNL     1      40.087  22.638 222.696  1.00  0.00     0.006 C 
BRANCH   6   7
ATOM      7  C   UNL     1      41.302  21.701 222.653  1.00  0.00     0.053 C 
BRANCH   7   8
ATOM      8  C   UNL     1      41.034  20.409 223.363  1.00  0.00     0.041 C 
ATOM      9  O   UNL     1      40.747  20.408 224.589  1.00  0.00    -0.550 OA
ATOM     10  O   UNL     1      41.067  19.209 222.662  1.00  0.00    -0.550 OA
ENDBRANCH   7   8
ENDBRANCH   6   7
ENDBRANCH   5   6
ENDBRANCH   4   5
ENDBRANCH   3   4
ENDBRANCH   2   3
ENDBRANCH   1   2
BRANCH   1  11
ATOM     11  C   UNL     1      37.954  25.577 225.310  1.00  0.00     0.000 C 
BRANCH  11  12
ATOM     12  C   UNL     1      36.905  25.221 224.245  1.00  0.00    -0.000 C 
BRANCH  12  13
ATOM     13  C   UNL     1      36.473  23.749 224.307  1.00  0.00    -0.000 C 
BRANCH  13  14
ATOM     14  C   UNL     1      36.247  23.136 222.914  1.00  0.00    -0.000 C 
BRANCH  14  15
ATOM     15  C   UNL     1      36.602  24.121 221.779  1.00  0.00    -0.000 C 
BRANCH  15  16
ATOM     16  C   UNL     1      37.055  23.429 220.479  1.00  0.00    -0.000 C 
BRANCH  16  17
ATOM     17  C   UNL     1      36.322  23.899 219.212  1.00  0.00    -0.003 C 
ATOM     18  C   UNL     1      34.822  24.094 219.435  1.00  0.00     0.004 C 
ENDBRANCH  16  17
ENDBRANCH  15  16
ENDBRANCH  14  15
ENDBRANCH  13  14
ENDBRANCH  12  13
ENDBRANCH  11  12
ENDBRANCH   1  11
TORSDOF 14
ENDMDL
MODEL 6
REMARK VINA RESULT:    -3.747      2.630      4.913
REMARK INTER + INTRA:          -9.381
REMARK INTER:                  -6.878
REMARK INTRA:                  -2.503
REMARK UNBOUND:                -2.568
REMARK SMILES CCCCCCCCCCCCCCCC(=O)[O-]
REMARK SMILES IDX 9 1 10 2 11 3 12 4 13 5 14 6 15 7 16 8 17 9 18 10 8 11 7 12
REMARK SMILES IDX 6 13 5 14 4 15 3 16 2 17 1 18
REMARK H PARENT
REMARK Flexibility Score: inf
ROOT
ATOM      1  C   UNL     1      40.731  24.375 226.977  1.00  0.00     0.000 C 
ENDROOT
BRANCH   1   2
ATOM      2  C   UNL     1      39.197  24.342 227.029  1.00  0.00     0.000 C 
BRANCH   2   3
ATOM      3  C   UNL     1      38.625  22.938 226.774  1.00  0.00     0.000 C 
BRANCH   3   4
ATOM      4  C   UNL     1      39.481  21.828 227.403  1.00  0.00     0.000 C 
BRANCH   4   5
ATOM      5  C   UNL     1      39.954  20.831 226.338  1.00  0.00     0.000 C 
BRANCH   5   6
ATOM      6  C   UNL     1      38.820  20.492 225.358  1.00  0.00     0.006 C 
BRANCH   6   7
ATOM      7  C   UNL     1      37.969  19.311 225.841  1.00  0.00     0.053 C 
BRANCH   7   8
ATOM      8  C   UNL     1      36.503  19.579 225.683  1.00  0.00     0.041 C 
ATOM      9  O   UNL     1      36.051  20.742 225.850  1.00  0.00    -0.550 OA
ATOM     10  O   UNL     1      35.642  18.551 225.318  1.00  0.00    -0.550 OA
ENDBRANCH   7   8
ENDBRANCH   6   7
ENDBRANCH   5   6
ENDBRANCH   4   5
ENDBRANCH   3   4
ENDBRANCH   2   3
ENDBRANCH   1   2
BRANCH   1  11
ATOM     11  C   UNL     1      41.225  24.879 225.615  1.00  0.00     0.000 C 
BRANCH  11  12
ATOM     12  C   UNL     1      42.084  23.816 224.913  1.00  0.00    -0.000 C 
BRANCH  12  13
ATOM     13  C   UNL     1      41.319  23.069 223.811  1.00  0.00    -0.000 C 
BRANCH  13  14
ATOM     14  C   UNL     1      40.407  23.994 222.987  1.00  0.00    -0.000 C 
BRANCH  14  15
ATOM     15  C   UNL     1      38.924  23.569 223.063  1.00  0.00    -0.000 C 
BRANCH  15  16
ATOM     16  C   UNL     1      37.992  24.673 223.600  1.00  0.00    -0.000 C 
BRANCH  16  17
ATOM     17  C   UNL     1      36.551  24.216 223.877  1.00  0.00    -0.003 C 
ATOM     18  C   UNL     1      36.141  23.006 223.037  1.00  0.00     0.004 C 
ENDBRANCH  16  17
ENDBRANCH  15  16
ENDBRANCH  14  15
ENDBRANCH  13  14
ENDBRANCH  12  13
ENDBRANCH  11  12
ENDBRANCH   1  11
TORSDOF 14
ENDMDL
MODEL 7
REMARK VINA RESULT:    -3.663      2.764      4.100
REMARK INTER + INTRA:          -9.229
REMARK INTER:                  -6.700
REMARK INTRA:                  -2.530
REMARK UNBOUND:                -2.568
REMARK SMILES CCCCCCCCCCCCCCCC(=O)[O-]
REMARK SMILES IDX 9 1 10 2 11 3 12 4 13 5 14 6 15 7 16 8 17 9 18 10 8 11 7 12
REMARK SMILES IDX 6 13 5 14 4 15 3 16 2 17 1 18
REMARK H PARENT
REMARK Flexibility Score: inf
ROOT
ATOM      1  C   UNL     1      41.000  23.872 223.450  1.00  0.00     0.000 C 
ENDROOT
BRANCH   1   2
ATOM      2  C   UNL     1      41.548  23.338 224.781  1.00  0.00     0.000 C 
BRANCH   2   3
ATOM      3  C   UNL     1      40.882  22.021 225.211  1.00  0.00     0.000 C 
BRANCH   3   4
ATOM      4  C   UNL     1      40.148  22.141 226.554  1.00  0.00     0.000 C 
BRANCH   4   5
ATOM      5  C   UNL     1      38.630  22.036 226.361  1.00  0.00     0.000 C 
BRANCH   5   6
ATOM      6  C   UNL     1      38.270  20.840 225.467  1.00  0.00     0.006 C 
BRANCH   6   7
ATOM      7  C   UNL     1      36.776  20.495 225.532  1.00  0.00     0.053 C 
BRANCH   7   8
ATOM      8  C   UNL     1      36.546  19.116 226.069  1.00  0.00     0.041 C 
ATOM      9  O   UNL     1      36.781  18.860 227.279  1.00  0.00    -0.550 OA
ATOM     10  O   UNL     1      36.039  18.121 225.241  1.00  0.00    -0.550 OA
ENDBRANCH   7   8
ENDBRANCH   6   7
ENDBRANCH   5   6
ENDBRANCH   4   5
ENDBRANCH   3   4
ENDBRANCH   2   3
ENDBRANCH   1   2
BRANCH   1  11
ATOM     11  C   UNL     1      39.980  22.899 222.845  1.00  0.00     0.000 C 
BRANCH  11  12
ATOM     12  C   UNL     1      38.768  23.654 222.278  1.00  0.00    -0.000 C 
BRANCH  12  13
ATOM     13  C   UNL     1      37.560  23.632 223.227  1.00  0.00    -0.000 C 
BRANCH  13  14
ATOM     14  C   UNL     1      36.952  25.029 223.446  1.00  0.00    -0.000 C 
BRANCH  14  15
ATOM     15  C   UNL     1      37.966  26.016 224.064  1.00  0.00    -0.000 C 
BRANCH  15  16
ATOM     16  C   UNL     1      38.363  25.668 225.512  1.00  0.00    -0.000 C 
BRANCH  16  17
ATOM     17  C   UNL     1      39.518  26.508 226.080  1.00  0.00    -0.003 C 
ATOM     18  C   UNL     1      40.284  25.789 227.190  1.00  0.00     0.004 C 
ENDBRANCH  16  17
ENDBRANCH  15  16
ENDBRANCH  14  15
ENDBRANCH  13  14
ENDBRANCH  12  13
ENDBRANCH  11  12
ENDBRANCH   1  11
TORSDOF 14
ENDMDL
MODEL 8
REMARK VINA RESULT:    -3.662      3.572      5.724
REMARK INTER + INTRA:          -9.226
REMARK INTER:                  -7.051
REMARK INTRA:                  -2.175
REMARK UNBOUND:                -2.568
REMARK SMILES CCCCCCCCCCCCCCCC(=O)[O-]
REMARK SMILES IDX 9 1 10 2 11 3 12 4 13 5 14 6 15 7 16 8 17 9 18 10 8 11 7 12
REMARK SMILES IDX 6 13 5 14 4 15 3 16 2 17 1 18
REMARK H PARENT
REMARK Flexibility Score: inf
ROOT
ATOM      1  C   UNL     1      39.948  19.458 224.991  1.00  0.00     0.000 C 
ENDROOT
BRANCH   1   2
ATOM      2  C   UNL     1      40.214  20.624 225.954  1.00  0.00     0.000 C 
BRANCH   2   3
ATOM      3  C   UNL     1      38.964  21.483 226.205  1.00  0.00     0.000 C 
BRANCH   3   4
ATOM      4  C   UNL     1      37.721  20.944 225.481  1.00  0.00     0.000 C 
BRANCH   4   5
ATOM      5  C   UNL     1      36.564  20.730 226.465  1.00  0.00     0.000 C 
BRANCH   5   6
ATOM      6  C   UNL     1      35.750  19.482 226.093  1.00  0.00     0.006 C 
BRANCH   6   7
ATOM      7  C   UNL     1      36.623  18.223 226.007  1.00  0.00     0.053 C 
BRANCH   7   8
ATOM      8  C   UNL     1      37.081  17.770 227.360  1.00  0.00     0.041 C 
ATOM      9  O   UNL     1      38.289  17.895 227.693  1.00  0.00    -0.550 OA
ATOM     10  O   UNL     1      36.169  17.241 228.264  1.00  0.00    -0.550 OA
ENDBRANCH   7   8
ENDBRANCH   6   7
ENDBRANCH   5   6
ENDBRANCH   4   5
ENDBRANCH   3   4
ENDBRANCH   2   3
ENDBRANCH   1   2
BRANCH   1  11
ATOM     11  C   UNL     1      40.774  19.606 223.707  1.00  0.00     0.000 C 
BRANCH  11  12
ATOM     12  C   UNL     1      41.722  20.811 223.798  1.00  0.00    -0.000 C 
BRANCH  12  13
ATOM     13  C   UNL     1      41.459  21.856 222.704  1.00  0.00    -0.000 C 
BRANCH  13  14
ATOM     14  C   UNL     1      40.926  23.185 223.266  1.00  0.00    -0.000 C 
BRANCH  14  15
ATOM     15  C   UNL     1      39.422  23.379 222.975  1.00  0.00    -0.000 C 
BRANCH  15  16
ATOM     16  C   UNL     1      38.784  24.537 223.768  1.00  0.00    -0.000 C 
BRANCH  16  17
ATOM     17  C   UNL     1      37.248  24.570 223.731  1.00  0.00    -0.003 C 
ATOM     18  C   UNL     1      36.650  23.415 222.928  1.00  0.00     0.004 C 
ENDBRANCH  16  17
ENDBRANCH  15  16
ENDBRANCH  14  15
ENDBRANCH  13  14
ENDBRANCH  12  13
ENDBRANCH  11  12
ENDBRANCH   1  11
TORSDOF 14
ENDMDL
MODEL 9
REMARK VINA RESULT:    -3.645      1.850      5.133
REMARK INTER + INTRA:          -9.195
REMARK INTER:                  -6.711
REMARK INTRA:                  -2.484
REMARK UNBOUND:                -2.568
REMARK SMILES CCCCCCCCCCCCCCCC(=O)[O-]
REMARK SMILES IDX 9 1 10 2 11 3 12 4 13 5 14 6 15 7 16 8 17 9 18 10 8 11 7 12
REMARK SMILES IDX 6 13 5 14 4 15 3 16 2 17 1 18
REMARK H PARENT
REMARK Flexibility Score: inf
ROOT
ATOM      1  C   UNL     1      41.034  24.700 226.831  1.00  0.00     0.000 C 
ENDROOT
BRANCH   1   2
ATOM      2  C   UNL     1      39.543  25.068 226.794  1.00  0.00     0.000 C 
BRANCH   2   3
ATOM      3  C   UNL     1      39.260  26.305 225.927  1.00  0.00     0.000 C 
BRANCH   3   4
ATOM      4  C   UNL     1      38.167  26.054 224.878  1.00  0.00     0.000 C 
BRANCH   4   5
ATOM      5  C   UNL     1      37.069  25.140 225.437  1.00  0.00     0.000 C 
BRANCH   5   6
ATOM      6  C   UNL     1      36.387  24.347 224.312  1.00  0.00     0.006 C 
BRANCH   6   7
ATOM      7  C   UNL     1      36.924  24.727 222.926  1.00  0.00     0.053 C 
BRANCH   7   8
ATOM      8  C   UNL     1      36.258  23.944 221.836  1.00  0.00     0.041 C 
ATOM      9  O   UNL     1      36.927  23.532 220.852  1.00  0.00    -0.550 OA
ATOM     10  O   UNL     1      34.905  23.640 221.925  1.00  0.00    -0.550 OA
ENDBRANCH   7   8
ENDBRANCH   6   7
ENDBRANCH   5   6
ENDBRANCH   4   5
ENDBRANCH   3   4
ENDBRANCH   2   3
ENDBRANCH   1   2
BRANCH   1  11
ATOM     11  C   UNL     1      41.698  24.956 225.473  1.00  0.00     0.000 C 
BRANCH  11  12
ATOM     12  C   UNL     1      41.729  23.676 224.625  1.00  0.00    -0.000 C 
BRANCH  12  13
ATOM     13  C   UNL     1      40.610  23.633 223.574  1.00  0.00    -0.000 C 
BRANCH  13  14
ATOM     14  C   UNL     1      39.676  22.422 223.748  1.00  0.00    -0.000 C 
BRANCH  14  15
ATOM     15  C   UNL     1      39.947  21.662 225.064  1.00  0.00    -0.000 C 
BRANCH  15  16
ATOM     16  C   UNL     1      38.749  21.661 226.034  1.00  0.00    -0.000 C 
BRANCH  16  17
ATOM     17  C   UNL     1      37.426  21.177 225.419  1.00  0.00    -0.003 C 
ATOM     18  C   UNL     1      36.561  20.401 226.412  1.00  0.00     0.004 C 
ENDBRANCH  16  17
ENDBRANCH  15  16
ENDBRANCH  14  15
ENDBRANCH  13  14
ENDBRANCH  12  13
ENDBRANCH  11  12
ENDBRANCH   1  11
TORSDOF 14
ENDMDL
