MODEL 1
REMARK VINA RESULT:    -7.279      0.000      0.000
REMARK INTER + INTRA:          -8.862
REMARK INTER:                  -8.555
REMARK INTRA:                  -0.306
REMARK UNBOUND:                -0.306
REMARK SMILES O=c1cc(-c2ccc(O)c(O)c2)oc2cc(O)cc(O)c12
REMARK SMILES IDX 4 1 3 2 2 3 1 4 21 5 19 6 18 7 16 8 15 9 14 10 13 11 5 12
REMARK SMILES IDX 6 13 7 14 8 15 12 16 10 17 9 18 11 20 20 22 17 24
REMARK H PARENT 9 19 11 21 20 23 17 25
REMARK Flexibility Score: inf
ROOT
ATOM      1  C   UNL     1       3.784  36.555  28.037  1.00  0.00     0.138 A 
ATOM      2  C   UNL     1       3.724  36.967  29.376  1.00  0.00     0.100 A 
ATOM      3  C   UNL     1       3.092  36.157  30.319  1.00  0.00     0.197 A 
ATOM      4  O   UNL     1       3.104  36.528  31.522  1.00  0.00    -0.289 OA
ATOM      5  C   UNL     1       2.485  34.945  29.914  1.00  0.00     0.107 A 
ATOM      6  C   UNL     1       1.782  34.054  30.782  1.00  0.00     0.134 A 
ATOM      7  C   UNL     1       1.309  32.835  30.282  1.00  0.00     0.093 A 
ATOM      8  C   UNL     1       1.460  32.499  28.934  1.00  0.00     0.123 A 
ATOM      9  C   UNL     1       2.100  33.383  28.069  1.00  0.00     0.094 A 
ATOM     10  C   UNL     1       2.615  34.592  28.543  1.00  0.00     0.146 A 
ATOM     11  O   UNL     1       3.233  35.398  27.687  1.00  0.00    -0.456 OA
ENDROOT
BRANCH   1  12
ATOM     12  C   UNL     1       4.440  37.379  26.991  1.00  0.00     0.021 A 
ATOM     13  C   UNL     1       4.506  38.783  27.086  1.00  0.00     0.016 A 
ATOM     14  C   UNL     1       5.140  39.531  26.090  1.00  0.00     0.051 A 
ATOM     15  C   UNL     1       5.724  38.893  24.990  1.00  0.00     0.157 A 
ATOM     16  C   UNL     1       5.042  36.746  25.888  1.00  0.00     0.062 A 
ATOM     17  C   UNL     1       5.677  37.498  24.889  1.00  0.00     0.158 A 
BRANCH  15  18
ATOM     18  O   UNL     1       6.355  39.638  23.994  1.00  0.00    -0.504 OA
ATOM     19  H   UNL     1       6.333  40.651  23.996  1.00  0.00     0.293 HD
ENDBRANCH  15  18
BRANCH  17  20
ATOM     20  O   UNL     1       6.262  36.864  23.794  1.00  0.00    -0.504 OA
ATOM     21  H   UNL     1       7.236  37.007  23.557  1.00  0.00     0.293 HD
ENDBRANCH  17  20
ENDBRANCH   1  12
BRANCH   6  22
ATOM     22  O   UNL     1       1.505  34.326  32.125  1.00  0.00    -0.507 OA
ATOM     23  H   UNL     1       2.024  33.963  32.910  1.00  0.00     0.293 HD
ENDBRANCH   6  22
BRANCH   8  24
ATOM     24  O   UNL     1       0.972  31.290  28.444  1.00  0.00    -0.508 OA
ATOM     25  H   UNL     1       0.483  30.634  29.042  1.00  0.00     0.293 HD
ENDBRANCH   8  24
TORSDOF 5
ENDMDL
MODEL 2
REMARK VINA RESULT:    -6.936      2.008      7.249
REMARK INTER + INTRA:          -8.459
REMARK INTER:                  -8.170
REMARK INTRA:                  -0.289
REMARK UNBOUND:                -0.306
REMARK SMILES O=c1cc(-c2ccc(O)c(O)c2)oc2cc(O)cc(O)c12
REMARK SMILES IDX 4 1 3 2 2 3 1 4 21 5 19 6 18 7 16 8 15 9 14 10 13 11 5 12
REMARK SMILES IDX 6 13 7 14 8 15 12 16 10 17 9 18 11 20 20 22 17 24
REMARK H PARENT 9 19 11 21 20 23 17 25
REMARK Flexibility Score: inf
ROOT
ATOM      1  C   UNL     1       3.892  35.932  28.444  1.00  0.00     0.138 A 
ATOM      2  C   UNL     1       3.719  36.000  27.054  1.00  0.00     0.100 A 
ATOM      3  C   UNL     1       4.514  36.865  26.303  1.00  0.00     0.197 A 
ATOM      4  O   UNL     1       4.374  36.863  25.052  1.00  0.00    -0.289 OA
ATOM      5  C   UNL     1       5.462  37.693  26.950  1.00  0.00     0.107 A 
ATOM      6  C   UNL     1       6.304  38.639  26.289  1.00  0.00     0.134 A 
ATOM      7  C   UNL     1       7.273  39.332  27.025  1.00  0.00     0.093 A 
ATOM      8  C   UNL     1       7.393  39.157  28.407  1.00  0.00     0.123 A 
ATOM      9  C   UNL     1       6.543  38.273  29.067  1.00  0.00     0.094 A 
ATOM     10  C   UNL     1       5.589  37.541  28.357  1.00  0.00     0.146 A 
ATOM     11  O   UNL     1       4.810  36.697  29.025  1.00  0.00    -0.456 OA
ENDROOT
BRANCH   1  12
ATOM     12  C   UNL     1       3.072  35.032  29.294  1.00  0.00     0.021 A 
ATOM     13  C   UNL     1       2.863  35.292  30.663  1.00  0.00     0.016 A 
ATOM     14  C   UNL     1       2.077  34.432  31.435  1.00  0.00     0.051 A 
ATOM     15  C   UNL     1       1.481  33.307  30.855  1.00  0.00     0.157 A 
ATOM     16  C   UNL     1       2.457  33.905  28.717  1.00  0.00     0.062 A 
ATOM     17  C   UNL     1       1.669  33.044  29.494  1.00  0.00     0.158 A 
BRANCH  15  18
ATOM     18  O   UNL     1       0.698  32.447  31.625  1.00  0.00    -0.504 OA
ATOM     19  H   UNL     1       0.524  31.490  31.339  1.00  0.00     0.293 HD
ENDBRANCH  15  18
BRANCH  17  20
ATOM     20  O   UNL     1       1.072  31.924  28.918  1.00  0.00    -0.504 OA
ATOM     21  H   UNL     1       0.923  31.857  27.918  1.00  0.00     0.293 HD
ENDBRANCH  17  20
ENDBRANCH   1  12
BRANCH   6  22
ATOM     22  O   UNL     1       6.216  38.951  24.929  1.00  0.00    -0.507 OA
ATOM     23  H   UNL     1       6.904  38.707  24.232  1.00  0.00     0.293 HD
ENDBRANCH   6  22
BRANCH   8  24
ATOM     24  O   UNL     1       8.350  39.862  29.132  1.00  0.00    -0.508 OA
ATOM     25  H   UNL     1       8.087  40.518  29.858  1.00  0.00     0.293 HD
ENDBRANCH   8  24
TORSDOF 5
ENDMDL
MODEL 3
REMARK VINA RESULT:    -6.776      2.772      4.356
REMARK INTER + INTRA:          -8.271
REMARK INTER:                  -8.009
REMARK INTRA:                  -0.262
REMARK UNBOUND:                -0.306
REMARK SMILES O=c1cc(-c2ccc(O)c(O)c2)oc2cc(O)cc(O)c12
REMARK SMILES IDX 4 1 3 2 2 3 1 4 21 5 19 6 18 7 16 8 15 9 14 10 13 11 5 12
REMARK SMILES IDX 6 13 7 14 8 15 12 16 10 17 9 18 11 20 20 22 17 24
REMARK H PARENT 9 19 11 21 20 23 17 25
REMARK Flexibility Score: inf
ROOT
ATOM      1  C   UNL     1       6.694  38.300  25.711  1.00  0.00     0.138 A 
ATOM      2  C   UNL     1       7.005  38.959  26.909  1.00  0.00     0.100 A 
ATOM      3  C   UNL     1       6.247  38.704  28.052  1.00  0.00     0.197 A 
ATOM      4  O   UNL     1       6.585  39.269  29.125  1.00  0.00    -0.289 OA
ATOM      5  C   UNL     1       5.149  37.813  27.986  1.00  0.00     0.107 A 
ATOM      6  C   UNL     1       4.284  37.504  29.080  1.00  0.00     0.134 A 
ATOM      7  C   UNL     1       3.290  36.531  28.919  1.00  0.00     0.093 A 
ATOM      8  C   UNL     1       3.092  35.898  27.689  1.00  0.00     0.123 A 
ATOM      9  C   UNL     1       3.899  36.229  26.603  1.00  0.00     0.094 A 
ATOM     10  C   UNL     1       4.921  37.170  26.740  1.00  0.00     0.146 A 
ATOM     11  O   UNL     1       5.678  37.444  25.682  1.00  0.00    -0.456 OA
ENDROOT
BRANCH   1  12
ATOM     12  C   UNL     1       7.464  38.534  24.463  1.00  0.00     0.021 A 
ATOM     13  C   UNL     1       6.964  39.343  23.425  1.00  0.00     0.016 A 
ATOM     14  C   UNL     1       7.716  39.555  22.266  1.00  0.00     0.051 A 
ATOM     15  C   UNL     1       8.981  38.971  22.128  1.00  0.00     0.157 A 
ATOM     16  C   UNL     1       8.742  37.963  24.321  1.00  0.00     0.062 A 
ATOM     17  C   UNL     1       9.495  38.175  23.158  1.00  0.00     0.158 A 
BRANCH  15  18
ATOM     18  O   UNL     1       9.732  39.178  20.972  1.00  0.00    -0.504 OA
ATOM     19  H   UNL     1       9.505  39.918  20.317  1.00  0.00     0.293 HD
ENDBRANCH  15  18
BRANCH  17  20
ATOM     20  O   UNL     1      10.756  37.597  23.019  1.00  0.00    -0.504 OA
ATOM     21  H   UNL     1      10.903  36.605  23.161  1.00  0.00     0.293 HD
ENDBRANCH  17  20
ENDBRANCH   1  12
BRANCH   6  22
ATOM     22  O   UNL     1       4.342  38.133  30.327  1.00  0.00    -0.507 OA
ATOM     23  H   UNL     1       4.749  39.039  30.502  1.00  0.00     0.293 HD
ENDBRANCH   6  22
BRANCH   8  24
ATOM     24  O   UNL     1       2.091  34.942  27.534  1.00  0.00    -0.508 OA
ATOM     25  H   UNL     1       2.296  33.950  27.561  1.00  0.00     0.293 HD
ENDBRANCH   8  24
TORSDOF 5
ENDMDL
MODEL 4
REMARK VINA RESULT:    -6.753      3.216      8.661
REMARK INTER + INTRA:          -8.244
REMARK INTER:                  -7.982
REMARK INTRA:                  -0.262
REMARK UNBOUND:                -0.306
REMARK SMILES O=c1cc(-c2ccc(O)c(O)c2)oc2cc(O)cc(O)c12
REMARK SMILES IDX 4 1 3 2 2 3 1 4 21 5 19 6 18 7 16 8 15 9 14 10 13 11 5 12
REMARK SMILES IDX 6 13 7 14 8 15 12 16 10 17 9 18 11 20 20 22 17 24
REMARK H PARENT 9 19 11 21 20 23 17 25
REMARK Flexibility Score: inf
ROOT
ATOM      1  C   UNL     1       6.522  38.457  25.719  1.00  0.00     0.138 A 
ATOM      2  C   UNL     1       7.661  37.652  25.582  1.00  0.00     0.100 A 
ATOM      3  C   UNL     1       8.570  37.911  24.556  1.00  0.00     0.197 A 
ATOM      4  O   UNL     1       9.610  37.206  24.494  1.00  0.00    -0.289 OA
ATOM      5  C   UNL     1       8.318  38.960  23.640  1.00  0.00     0.107 A 
ATOM      6  C   UNL     1       9.157  39.295  22.533  1.00  0.00     0.134 A 
ATOM      7  C   UNL     1       8.854  40.417  21.753  1.00  0.00     0.093 A 
ATOM      8  C   UNL     1       7.713  41.183  22.003  1.00  0.00     0.123 A 
ATOM      9  C   UNL     1       6.862  40.836  23.049  1.00  0.00     0.094 A 
ATOM     10  C   UNL     1       7.154  39.742  23.867  1.00  0.00     0.146 A 
ATOM     11  O   UNL     1       6.324  39.456  24.865  1.00  0.00    -0.456 OA
ENDROOT
BRANCH   1  12
ATOM     12  C   UNL     1       5.520  38.225  26.790  1.00  0.00     0.021 A 
ATOM     13  C   UNL     1       4.358  37.461  26.564  1.00  0.00     0.016 A 
ATOM     14  C   UNL     1       3.438  37.250  27.595  1.00  0.00     0.051 A 
ATOM     15  C   UNL     1       3.664  37.790  28.866  1.00  0.00     0.157 A 
ATOM     16  C   UNL     1       5.745  38.753  28.075  1.00  0.00     0.062 A 
ATOM     17  C   UNL     1       4.821  38.541  29.107  1.00  0.00     0.158 A 
BRANCH  15  18
ATOM     18  O   UNL     1       2.746  37.583  29.895  1.00  0.00    -0.504 OA
ATOM     19  H   UNL     1       2.405  36.657  30.123  1.00  0.00     0.293 HD
ENDBRANCH  15  18
BRANCH  17  20
ATOM     20  O   UNL     1       5.045  39.075  30.375  1.00  0.00    -0.504 OA
ATOM     21  H   UNL     1       5.424  38.514  31.128  1.00  0.00     0.293 HD
ENDBRANCH  17  20
ENDBRANCH   1  12
BRANCH   6  22
ATOM     22  O   UNL     1      10.276  38.552  22.146  1.00  0.00    -0.507 OA
ATOM     23  H   UNL     1      11.160  38.942  21.856  1.00  0.00     0.293 HD
ENDBRANCH   6  22
BRANCH   8  24
ATOM     24  O   UNL     1       7.412  42.289  21.212  1.00  0.00    -0.508 OA
ATOM     25  H   UNL     1       6.728  42.978  21.501  1.00  0.00     0.293 HD
ENDBRANCH   8  24
TORSDOF 5
ENDMDL
MODEL 5
REMARK VINA RESULT:    -6.693      1.967      3.066
REMARK INTER + INTRA:          -8.173
REMARK INTER:                  -7.903
REMARK INTRA:                  -0.270
REMARK UNBOUND:                -0.306
REMARK SMILES O=c1cc(-c2ccc(O)c(O)c2)oc2cc(O)cc(O)c12
REMARK SMILES IDX 4 1 3 2 2 3 1 4 21 5 19 6 18 7 16 8 15 9 14 10 13 11 5 12
REMARK SMILES IDX 6 13 7 14 8 15 12 16 10 17 9 18 11 20 20 22 17 24
REMARK H PARENT 9 19 11 21 20 23 17 25
REMARK Flexibility Score: inf
ROOT
ATOM      1  C   UNL     1       5.511  38.332  26.414  1.00  0.00     0.138 A 
ATOM      2  C   UNL     1       5.700  38.972  27.647  1.00  0.00     0.100 A 
ATOM      3  C   UNL     1       5.076  38.468  28.788  1.00  0.00     0.197 A 
ATOM      4  O   UNL     1       5.310  39.030  29.889  1.00  0.00    -0.289 OA
ATOM      5  C   UNL     1       4.229  37.338  28.688  1.00  0.00     0.107 A 
ATOM      6  C   UNL     1       3.512  36.757  29.778  1.00  0.00     0.134 A 
ATOM      7  C   UNL     1       2.781  35.581  29.574  1.00  0.00     0.093 A 
ATOM      8  C   UNL     1       2.693  34.996  28.308  1.00  0.00     0.123 A 
ATOM      9  C   UNL     1       3.348  35.583  27.228  1.00  0.00     0.094 A 
ATOM     10  C   UNL     1       4.113  36.738  27.405  1.00  0.00     0.146 A 
ATOM     11  O   UNL     1       4.735  37.255  26.351  1.00  0.00    -0.456 OA
ENDROOT
BRANCH   1  12
ATOM     12  C   UNL     1       6.147  38.827  25.167  1.00  0.00     0.021 A 
ATOM     13  C   UNL     1       5.784  40.059  24.588  1.00  0.00     0.016 A 
ATOM     14  C   UNL     1       6.408  40.503  23.419  1.00  0.00     0.051 A 
ATOM     15  C   UNL     1       7.408  39.733  22.815  1.00  0.00     0.157 A 
ATOM     16  C   UNL     1       7.162  38.066  24.559  1.00  0.00     0.062 A 
ATOM     17  C   UNL     1       7.787  38.513  23.386  1.00  0.00     0.158 A 
BRANCH  15  18
ATOM     18  O   UNL     1       8.030  40.173  21.648  1.00  0.00    -0.504 OA
ATOM     19  H   UNL     1       8.297  41.143  21.523  1.00  0.00     0.293 HD
ENDBRANCH  15  18
BRANCH  17  20
ATOM     20  O   UNL     1       8.785  37.748  22.784  1.00  0.00    -0.504 OA
ATOM     21  H   UNL     1       8.624  37.258  21.913  1.00  0.00     0.293 HD
ENDBRANCH  17  20
ENDBRANCH   1  12
BRANCH   6  22
ATOM     22  O   UNL     1       3.466  37.303  31.065  1.00  0.00    -0.507 OA
ATOM     23  H   UNL     1       4.133  37.959  31.441  1.00  0.00     0.293 HD
ENDBRANCH   6  22
BRANCH   8  24
ATOM     24  O   UNL     1       1.951  33.834  28.112  1.00  0.00    -0.508 OA
ATOM     25  H   UNL     1       0.941  33.857  28.030  1.00  0.00     0.293 HD
ENDBRANCH   8  24
TORSDOF 5
ENDMDL
MODEL 6
REMARK VINA RESULT:    -6.685      2.144      6.932
REMARK INTER + INTRA:          -8.163
REMARK INTER:                  -7.876
REMARK INTRA:                  -0.287
REMARK UNBOUND:                -0.306
REMARK SMILES O=c1cc(-c2ccc(O)c(O)c2)oc2cc(O)cc(O)c12
REMARK SMILES IDX 4 1 3 2 2 3 1 4 21 5 19 6 18 7 16 8 15 9 14 10 13 11 5 12
REMARK SMILES IDX 6 13 7 14 8 15 12 16 10 17 9 18 11 20 20 22 17 24
REMARK H PARENT 9 19 11 21 20 23 17 25
REMARK Flexibility Score: inf
ROOT
ATOM      1  C   UNL     1       4.282  35.534  29.491  1.00  0.00     0.138 A 
ATOM      2  C   UNL     1       5.517  35.702  30.134  1.00  0.00     0.100 A 
ATOM      3  C   UNL     1       6.494  36.508  29.551  1.00  0.00     0.197 A 
ATOM      4  O   UNL     1       7.570  36.683  30.179  1.00  0.00    -0.289 OA
ATOM      5  C   UNL     1       6.248  37.120  28.299  1.00  0.00     0.107 A 
ATOM      6  C   UNL     1       7.184  37.935  27.591  1.00  0.00     0.134 A 
ATOM      7  C   UNL     1       6.790  38.568  26.406  1.00  0.00     0.093 A 
ATOM      8  C   UNL     1       5.514  38.369  25.871  1.00  0.00     0.123 A 
ATOM      9  C   UNL     1       4.611  37.536  26.527  1.00  0.00     0.094 A 
ATOM     10  C   UNL     1       4.961  36.918  27.730  1.00  0.00     0.146 A 
ATOM     11  O   UNL     1       4.063  36.145  28.332  1.00  0.00    -0.456 OA
ENDROOT
BRANCH   1  12
ATOM     12  C   UNL     1       3.207  34.686  30.065  1.00  0.00     0.021 A 
ATOM     13  C   UNL     1       2.761  34.850  31.390  1.00  0.00     0.016 A 
ATOM     14  C   UNL     1       1.739  34.043  31.899  1.00  0.00     0.051 A 
ATOM     15  C   UNL     1       1.142  33.067  31.094  1.00  0.00     0.157 A 
ATOM     16  C   UNL     1       2.591  33.711  29.259  1.00  0.00     0.062 A 
ATOM     17  C   UNL     1       1.567  32.902  29.770  1.00  0.00     0.158 A 
BRANCH  15  18
ATOM     18  O   UNL     1       0.124  32.260  31.600  1.00  0.00    -0.504 OA
ATOM     19  H   UNL     1      -0.672  31.992  31.033  1.00  0.00     0.293 HD
ENDBRANCH  15  18
BRANCH  17  20
ATOM     20  O   UNL     1       0.968  31.931  28.969  1.00  0.00    -0.504 OA
ATOM     21  H   UNL     1       0.316  32.177  28.235  1.00  0.00     0.293 HD
ENDBRANCH  17  20
ENDBRANCH   1  12
BRANCH   6  22
ATOM     22  O   UNL     1       8.508  38.137  27.994  1.00  0.00    -0.507 OA
ATOM     23  H   UNL     1       9.245  38.494  27.405  1.00  0.00     0.293 HD
ENDBRANCH   6  22
BRANCH   8  24
ATOM     24  O   UNL     1       5.137  38.990  24.683  1.00  0.00    -0.508 OA
ATOM     25  H   UNL     1       5.809  39.482  24.106  1.00  0.00     0.293 HD
ENDBRANCH   8  24
TORSDOF 5
ENDMDL
MODEL 7
REMARK VINA RESULT:    -6.672      2.668      4.437
REMARK INTER + INTRA:          -8.149
REMARK INTER:                  -7.883
REMARK INTRA:                  -0.265
REMARK UNBOUND:                -0.306
REMARK SMILES O=c1cc(-c2ccc(O)c(O)c2)oc2cc(O)cc(O)c12
REMARK SMILES IDX 4 1 3 2 2 3 1 4 21 5 19 6 18 7 16 8 15 9 14 10 13 11 5 12
REMARK SMILES IDX 6 13 7 14 8 15 12 16 10 17 9 18 11 20 20 22 17 24
REMARK H PARENT 9 19 11 21 20 23 17 25
REMARK Flexibility Score: inf
ROOT
ATOM      1  C   UNL     1       5.633  38.087  26.200  1.00  0.00     0.138 A 
ATOM      2  C   UNL     1       4.704  37.045  26.079  1.00  0.00     0.100 A 
ATOM      3  C   UNL     1       4.092  36.530  27.222  1.00  0.00     0.197 A 
ATOM      4  O   UNL     1       3.222  35.633  27.076  1.00  0.00    -0.289 OA
ATOM      5  C   UNL     1       4.440  37.038  28.497  1.00  0.00     0.107 A 
ATOM      6  C   UNL     1       3.907  36.566  29.735  1.00  0.00     0.134 A 
ATOM      7  C   UNL     1       4.254  37.214  30.927  1.00  0.00     0.093 A 
ATOM      8  C   UNL     1       5.160  38.278  30.932  1.00  0.00     0.123 A 
ATOM      9  C   UNL     1       5.724  38.713  29.735  1.00  0.00     0.094 A 
ATOM     10  C   UNL     1       5.371  38.110  28.525  1.00  0.00     0.146 A 
ATOM     11  O   UNL     1       5.920  38.568  27.405  1.00  0.00    -0.456 OA
ENDROOT
BRANCH   1  12
ATOM     12  C   UNL     1       6.318  38.670  25.018  1.00  0.00     0.021 A 
ATOM     13  C   UNL     1       5.950  39.925  24.494  1.00  0.00     0.016 A 
ATOM     14  C   UNL     1       6.619  40.454  23.387  1.00  0.00     0.051 A 
ATOM     15  C   UNL     1       7.669  39.745  22.790  1.00  0.00     0.157 A 
ATOM     16  C   UNL     1       7.382  37.972  24.420  1.00  0.00     0.062 A 
ATOM     17  C   UNL     1       8.052  38.503  23.309  1.00  0.00     0.158 A 
BRANCH  15  18
ATOM     18  O   UNL     1       8.336  40.270  21.684  1.00  0.00    -0.504 OA
ATOM     19  H   UNL     1       8.919  41.095  21.759  1.00  0.00     0.293 HD
ENDBRANCH  15  18
BRANCH  17  20
ATOM     20  O   UNL     1       9.100  37.801  22.715  1.00  0.00    -0.504 OA
ATOM     21  H   UNL     1       9.971  37.634  23.204  1.00  0.00     0.293 HD
ENDBRANCH  17  20
ENDBRANCH   1  12
BRANCH   6  22
ATOM     22  O   UNL     1       3.057  35.462  29.853  1.00  0.00    -0.507 OA
ATOM     23  H   UNL     1       3.122  34.754  30.568  1.00  0.00     0.293 HD
ENDBRANCH   6  22
BRANCH   8  24
ATOM     24  O   UNL     1       5.511  38.906  32.125  1.00  0.00    -0.508 OA
ATOM     25  H   UNL     1       6.338  38.635  32.643  1.00  0.00     0.293 HD
ENDBRANCH   8  24
TORSDOF 5
ENDMDL
MODEL 8
REMARK VINA RESULT:    -6.571      5.353      8.382
REMARK INTER + INTRA:          -8.030
REMARK INTER:                  -7.739
REMARK INTRA:                  -0.291
REMARK UNBOUND:                -0.306
REMARK SMILES O=c1cc(-c2ccc(O)c(O)c2)oc2cc(O)cc(O)c12
REMARK SMILES IDX 4 1 3 2 2 3 1 4 21 5 19 6 18 7 16 8 15 9 14 10 13 11 5 12
REMARK SMILES IDX 6 13 7 14 8 15 12 16 10 17 9 18 11 20 20 22 17 24
REMARK H PARENT 9 19 11 21 20 23 17 25
REMARK Flexibility Score: inf
ROOT
ATOM      1  C   UNL     1       8.283  40.709  22.918  1.00  0.00     0.138 A 
ATOM      2  C   UNL     1       6.907  40.845  23.151  1.00  0.00     0.100 A 
ATOM      3  C   UNL     1       6.274  39.997  24.058  1.00  0.00     0.197 A 
ATOM      4  O   UNL     1       5.050  40.180  24.287  1.00  0.00    -0.289 OA
ATOM      5  C   UNL     1       7.015  38.982  24.710  1.00  0.00     0.107 A 
ATOM      6  C   UNL     1       6.469  38.035  25.629  1.00  0.00     0.134 A 
ATOM      7  C   UNL     1       7.321  37.139  26.285  1.00  0.00     0.093 A 
ATOM      8  C   UNL     1       8.692  37.116  26.014  1.00  0.00     0.123 A 
ATOM      9  C   UNL     1       9.227  38.002  25.082  1.00  0.00     0.094 A 
ATOM     10  C   UNL     1       8.409  38.931  24.435  1.00  0.00     0.146 A 
ATOM     11  O   UNL     1       8.963  39.769  23.566  1.00  0.00    -0.456 OA
ENDROOT
BRANCH   1  12
ATOM     12  C   UNL     1       9.008  41.583  21.961  1.00  0.00     0.021 A 
ATOM     13  C   UNL     1      10.262  41.220  21.431  1.00  0.00     0.016 A 
ATOM     14  C   UNL     1      10.916  42.058  20.523  1.00  0.00     0.051 A 
ATOM     15  C   UNL     1      10.328  43.264  20.124  1.00  0.00     0.157 A 
ATOM     16  C   UNL     1       8.420  42.791  21.544  1.00  0.00     0.062 A 
ATOM     17  C   UNL     1       9.077  43.631  20.634  1.00  0.00     0.158 A 
BRANCH  15  18
ATOM     18  O   UNL     1      10.980  44.103  19.221  1.00  0.00    -0.504 OA
ATOM     19  H   UNL     1      11.732  43.765  18.631  1.00  0.00     0.293 HD
ENDBRANCH  15  18
BRANCH  17  20
ATOM     20  O   UNL     1       8.493  44.831  20.233  1.00  0.00    -0.504 OA
ATOM     21  H   UNL     1       7.570  44.858  19.816  1.00  0.00     0.293 HD
ENDBRANCH  17  20
ENDBRANCH   1  12
BRANCH   6  22
ATOM     22  O   UNL     1       5.105  37.918  25.914  1.00  0.00    -0.507 OA
ATOM     23  H   UNL     1       4.642  37.068  26.200  1.00  0.00     0.293 HD
ENDBRANCH   6  22
BRANCH   8  24
ATOM     24  O   UNL     1       9.529  36.211  26.661  1.00  0.00    -0.508 OA
ATOM     25  H   UNL     1      10.391  35.889  26.236  1.00  0.00     0.293 HD
ENDBRANCH   8  24
TORSDOF 5
ENDMDL
MODEL 9
REMARK VINA RESULT:    -6.525      5.638      8.731
REMARK INTER + INTRA:          -7.976
REMARK INTER:                  -7.707
REMARK INTRA:                  -0.269
REMARK UNBOUND:                -0.306
REMARK SMILES O=c1cc(-c2ccc(O)c(O)c2)oc2cc(O)cc(O)c12
REMARK SMILES IDX 4 1 3 2 2 3 1 4 21 5 19 6 18 7 16 8 15 9 14 10 13 11 5 12
REMARK SMILES IDX 6 13 7 14 8 15 12 16 10 17 9 18 11 20 20 22 17 24
REMARK H PARENT 9 19 11 21 20 23 17 25
REMARK Flexibility Score: inf
ROOT
ATOM      1  C   UNL     1       9.571  40.734  23.121  1.00  0.00     0.138 A 
ATOM      2  C   UNL     1      10.398  40.680  24.252  1.00  0.00     0.100 A 
ATOM      3  C   UNL     1      10.082  39.811  25.296  1.00  0.00     0.197 A 
ATOM      4  O   UNL     1      10.874  39.744  26.272  1.00  0.00    -0.289 OA
ATOM      5  C   UNL     1       8.912  39.017  25.223  1.00  0.00     0.107 A 
ATOM      6  C   UNL     1       8.471  38.120  26.243  1.00  0.00     0.134 A 
ATOM      7  C   UNL     1       7.348  37.315  26.015  1.00  0.00     0.093 A 
ATOM      8  C   UNL     1       6.617  37.415  24.828  1.00  0.00     0.123 A 
ATOM      9  C   UNL     1       7.010  38.323  23.848  1.00  0.00     0.094 A 
ATOM     10  C   UNL     1       8.146  39.116  24.031  1.00  0.00     0.146 A 
ATOM     11  O   UNL     1       8.495  39.957  23.063  1.00  0.00    -0.456 OA
ENDROOT
BRANCH   1  12
ATOM     12  C   UNL     1       9.857  41.643  21.982  1.00  0.00     0.021 A 
ATOM     13  C   UNL     1      10.886  41.374  21.059  1.00  0.00     0.016 A 
ATOM     14  C   UNL     1      11.125  42.242  19.991  1.00  0.00     0.051 A 
ATOM     15  C   UNL     1      10.338  43.387  19.821  1.00  0.00     0.157 A 
ATOM     16  C   UNL     1       9.063  42.790  21.795  1.00  0.00     0.062 A 
ATOM     17  C   UNL     1       9.304  43.660  20.724  1.00  0.00     0.158 A 
BRANCH  15  18
ATOM     18  O   UNL     1      10.576  44.256  18.757  1.00  0.00    -0.504 OA
ATOM     19  H   UNL     1      11.494  44.340  18.336  1.00  0.00     0.293 HD
ENDBRANCH  15  18
BRANCH  17  20
ATOM     20  O   UNL     1       8.519  44.800  20.551  1.00  0.00    -0.504 OA
ATOM     21  H   UNL     1       8.264  45.133  19.629  1.00  0.00     0.293 HD
ENDBRANCH  17  20
ENDBRANCH   1  12
BRANCH   6  22
ATOM     22  O   UNL     1       9.079  37.998  27.496  1.00  0.00    -0.507 OA
ATOM     23  H   UNL     1       9.640  38.708  27.940  1.00  0.00     0.293 HD
ENDBRANCH   6  22
BRANCH   8  24
ATOM     24  O   UNL     1       5.493  36.621  24.617  1.00  0.00    -0.508 OA
ATOM     25  H   UNL     1       5.527  35.800  24.025  1.00  0.00     0.293 HD
ENDBRANCH   8  24
TORSDOF 5
ENDMDL
