MODEL 1
REMARK VINA RESULT:    -4.662      0.000      0.000
REMARK INTER + INTRA:          -5.898
REMARK INTER:                  -5.616
REMARK INTRA:                  -0.282
REMARK UNBOUND:                -0.282
REMARK SMILES O=c1c(O)c(-c2ccc(O)c(O)c2)oc2cc(O)cc(O)c12
REMARK SMILES IDX 5 1 3 2 2 3 1 4 22 5 20 6 19 7 17 8 16 9 15 10 14 11 6 12
REMARK SMILES IDX 7 13 8 14 9 15 13 16 11 17 10 18 12 20 4 22 21 24 18 26
REMARK H PARENT 10 19 12 21 4 23 21 25 18 27
REMARK Flexibility Score: inf
ROOT
ATOM      1  C   UNL     1      27.098   4.531  20.994  1.00  0.00     0.180 A 
ATOM      2  C   UNL     1      28.412   4.930  20.696  1.00  0.00     0.208 A 
ATOM      3  C   UNL     1      28.705   6.301  20.614  1.00  0.00     0.238 A 
ATOM      4  O   UNL     1      29.895   6.653  20.400  1.00  0.00    -0.285 OA
ATOM      5  C   UNL     1      27.678   7.255  20.815  1.00  0.00     0.111 A 
ATOM      6  C   UNL     1      27.853   8.668  20.714  1.00  0.00     0.134 A 
ATOM      7  C   UNL     1      26.798   9.521  21.062  1.00  0.00     0.093 A 
ATOM      8  C   UNL     1      25.557   9.013  21.441  1.00  0.00     0.123 A 
ATOM      9  C   UNL     1      25.355   7.632  21.483  1.00  0.00     0.094 A 
ATOM     10  C   UNL     1      26.401   6.756  21.178  1.00  0.00     0.146 A 
ATOM     11  O   UNL     1      26.172   5.450  21.242  1.00  0.00    -0.452 OA
ENDROOT
BRANCH   1  12
ATOM     12  C   UNL     1      26.706   3.105  21.073  1.00  0.00     0.025 A 
ATOM     13  C   UNL     1      27.011   2.325  22.199  1.00  0.00     0.016 A 
ATOM     14  C   UNL     1      26.652   0.977  22.241  1.00  0.00     0.051 A 
ATOM     15  C   UNL     1      25.997   0.377  21.159  1.00  0.00     0.157 A 
ATOM     16  C   UNL     1      26.069   2.501  19.978  1.00  0.00     0.062 A 
ATOM     17  C   UNL     1      25.705   1.149  20.010  1.00  0.00     0.158 A 
BRANCH  15  18
ATOM     18  O   UNL     1      25.662  -0.974  21.266  1.00  0.00    -0.504 OA
ATOM     19  H   UNL     1      26.323  -1.729  21.157  1.00  0.00     0.293 HD
ENDBRANCH  15  18
BRANCH  17  20
ATOM     20  O   UNL     1      25.064   0.620  18.889  1.00  0.00    -0.504 OA
ATOM     21  H   UNL     1      24.679   1.179  18.141  1.00  0.00     0.293 HD
ENDBRANCH  17  20
ENDBRANCH   1  12
BRANCH   2  22
ATOM     22  O   UNL     1      29.415   3.973  20.523  1.00  0.00    -0.502 OA
ATOM     23  H   UNL     1      29.377   3.271  19.794  1.00  0.00     0.293 HD
ENDBRANCH   2  22
BRANCH   6  24
ATOM     24  O   UNL     1      29.025   9.279  20.258  1.00  0.00    -0.507 OA
ATOM     25  H   UNL     1      29.193   9.558  19.304  1.00  0.00     0.293 HD
ENDBRANCH   6  24
BRANCH   8  26
ATOM     26  O   UNL     1      24.524   9.891  21.763  1.00  0.00    -0.508 OA
ATOM     27  H   UNL     1      23.637   9.869  21.274  1.00  0.00     0.293 HD
ENDBRANCH   8  26
TORSDOF 6
ENDMDL
MODEL 2
REMARK VINA RESULT:    -4.551      2.240      7.006
REMARK INTER + INTRA:          -5.764
REMARK INTER:                  -5.480
REMARK INTRA:                  -0.284
REMARK UNBOUND:                -0.282
REMARK SMILES O=c1c(O)c(-c2ccc(O)c(O)c2)oc2cc(O)cc(O)c12
REMARK SMILES IDX 5 1 3 2 2 3 1 4 22 5 20 6 19 7 17 8 16 9 15 10 14 11 6 12
REMARK SMILES IDX 7 13 8 14 9 15 13 16 11 17 10 18 12 20 4 22 21 24 18 26
REMARK H PARENT 10 19 12 21 4 23 21 25 18 27
REMARK Flexibility Score: inf
ROOT
ATOM      1  C   UNL     1      27.691   6.865  20.855  1.00  0.00     0.180 A 
ATOM      2  C   UNL     1      26.541   7.316  20.184  1.00  0.00     0.208 A 
ATOM      3  C   UNL     1      25.606   6.373  19.727  1.00  0.00     0.238 A 
ATOM      4  O   UNL     1      24.553   6.786  19.174  1.00  0.00    -0.285 OA
ATOM      5  C   UNL     1      25.840   4.991  19.932  1.00  0.00     0.111 A 
ATOM      6  C   UNL     1      24.981   3.948  19.475  1.00  0.00     0.134 A 
ATOM      7  C   UNL     1      25.243   2.624  19.849  1.00  0.00     0.093 A 
ATOM      8  C   UNL     1      26.368   2.299  20.606  1.00  0.00     0.123 A 
ATOM      9  C   UNL     1      27.249   3.305  21.007  1.00  0.00     0.094 A 
ATOM     10  C   UNL     1      26.993   4.640  20.680  1.00  0.00     0.146 A 
ATOM     11  O   UNL     1      27.849   5.568  21.090  1.00  0.00    -0.452 OA
ENDROOT
BRANCH   1  12
ATOM     12  C   UNL     1      28.733   7.796  21.344  1.00  0.00     0.025 A 
ATOM     13  C   UNL     1      28.793   8.184  22.692  1.00  0.00     0.016 A 
ATOM     14  C   UNL     1      29.771   9.082  23.124  1.00  0.00     0.051 A 
ATOM     15  C   UNL     1      30.697   9.619  22.223  1.00  0.00     0.157 A 
ATOM     16  C   UNL     1      29.647   8.351  20.435  1.00  0.00     0.062 A 
ATOM     17  C   UNL     1      30.632   9.252  20.859  1.00  0.00     0.158 A 
BRANCH  15  18
ATOM     18  O   UNL     1      31.652  10.508  22.721  1.00  0.00    -0.504 OA
ATOM     19  H   UNL     1      31.592  10.952  23.626  1.00  0.00     0.293 HD
ENDBRANCH  15  18
BRANCH  17  20
ATOM     20  O   UNL     1      31.514   9.753  19.900  1.00  0.00    -0.504 OA
ATOM     21  H   UNL     1      31.958   9.187  19.191  1.00  0.00     0.293 HD
ENDBRANCH  17  20
ENDBRANCH   1  12
BRANCH   2  22
ATOM     22  O   UNL     1      26.320   8.685  20.010  1.00  0.00    -0.502 OA
ATOM     23  H   UNL     1      27.077   9.350  19.915  1.00  0.00     0.293 HD
ENDBRANCH   2  22
BRANCH   6  24
ATOM     24  O   UNL     1      23.880   4.153  18.638  1.00  0.00    -0.507 OA
ATOM     25  H   UNL     1      23.134   4.806  18.821  1.00  0.00     0.293 HD
ENDBRANCH   6  24
BRANCH   8  26
ATOM     26  O   UNL     1      26.608   0.969  20.945  1.00  0.00    -0.508 OA
ATOM     27  H   UNL     1      26.334   0.208  20.336  1.00  0.00     0.293 HD
ENDBRANCH   8  26
TORSDOF 6
ENDMDL
MODEL 3
REMARK VINA RESULT:    -4.490      1.292      2.842
REMARK INTER + INTRA:          -5.691
REMARK INTER:                  -5.582
REMARK INTRA:                  -0.108
REMARK UNBOUND:                -0.282
REMARK SMILES O=c1c(O)c(-c2ccc(O)c(O)c2)oc2cc(O)cc(O)c12
REMARK SMILES IDX 5 1 3 2 2 3 1 4 22 5 20 6 19 7 17 8 16 9 15 10 14 11 6 12
REMARK SMILES IDX 7 13 8 14 9 15 13 16 11 17 10 18 12 20 4 22 21 24 18 26
REMARK H PARENT 10 19 12 21 4 23 21 25 18 27
REMARK Flexibility Score: inf
ROOT
ATOM      1  C   UNL     1      26.357   4.950  20.694  1.00  0.00     0.180 A 
ATOM      2  C   UNL     1      25.219   5.753  20.500  1.00  0.00     0.208 A 
ATOM      3  C   UNL     1      25.379   7.143  20.386  1.00  0.00     0.238 A 
ATOM      4  O   UNL     1      24.363   7.851  20.158  1.00  0.00    -0.285 OA
ATOM      5  C   UNL     1      26.671   7.715  20.483  1.00  0.00     0.111 A 
ATOM      6  C   UNL     1      26.944   9.114  20.424  1.00  0.00     0.134 A 
ATOM      7  C   UNL     1      28.273   9.558  20.400  1.00  0.00     0.093 A 
ATOM      8  C   UNL     1      29.334   8.660  20.501  1.00  0.00     0.123 A 
ATOM      9  C   UNL     1      29.077   7.293  20.622  1.00  0.00     0.094 A 
ATOM     10  C   UNL     1      27.762   6.817  20.611  1.00  0.00     0.146 A 
ATOM     11  O   UNL     1      27.561   5.510  20.716  1.00  0.00    -0.452 OA
ENDROOT
BRANCH   1  12
ATOM     12  C   UNL     1      26.266   3.480  20.848  1.00  0.00     0.025 A 
ATOM     13  C   UNL     1      26.731   2.836  22.006  1.00  0.00     0.016 A 
ATOM     14  C   UNL     1      26.657   1.447  22.118  1.00  0.00     0.051 A 
ATOM     15  C   UNL     1      26.132   0.673  21.078  1.00  0.00     0.157 A 
ATOM     16  C   UNL     1      25.760   2.704  19.795  1.00  0.00     0.062 A 
ATOM     17  C   UNL     1      25.681   1.309  19.898  1.00  0.00     0.158 A 
BRANCH  15  18
ATOM     18  O   UNL     1      26.082  -0.711  21.256  1.00  0.00    -0.504 OA
ATOM     19  H   UNL     1      26.873  -1.325  21.127  1.00  0.00     0.293 HD
ENDBRANCH  15  18
BRANCH  17  20
ATOM     20  O   UNL     1      25.155   0.604  18.815  1.00  0.00    -0.504 OA
ATOM     21  H   UNL     1      25.716   0.104  18.140  1.00  0.00     0.293 HD
ENDBRANCH  17  20
ENDBRANCH   1  12
BRANCH   2  22
ATOM     22  O   UNL     1      23.956   5.166  20.385  1.00  0.00    -0.502 OA
ATOM     23  H   UNL     1      23.111   5.713  20.273  1.00  0.00     0.293 HD
ENDBRANCH   2  22
BRANCH   6  24
ATOM     24  O   UNL     1      25.956  10.103  20.412  1.00  0.00    -0.507 OA
ATOM     25  H   UNL     1      24.980   9.937  20.223  1.00  0.00     0.293 HD
ENDBRANCH   6  24
BRANCH   8  26
ATOM     26  O   UNL     1      30.643   9.138  20.492  1.00  0.00    -0.508 OA
ATOM     27  H   UNL     1      31.422   8.542  20.242  1.00  0.00     0.293 HD
ENDBRANCH   8  26
TORSDOF 6
ENDMDL
MODEL 4
REMARK VINA RESULT:    -4.345      2.492      6.780
REMARK INTER + INTRA:          -5.516
REMARK INTER:                  -5.184
REMARK INTRA:                  -0.332
REMARK UNBOUND:                -0.282
REMARK SMILES O=c1c(O)c(-c2ccc(O)c(O)c2)oc2cc(O)cc(O)c12
REMARK SMILES IDX 5 1 3 2 2 3 1 4 22 5 20 6 19 7 17 8 16 9 15 10 14 11 6 12
REMARK SMILES IDX 7 13 8 14 9 15 13 16 11 17 10 18 12 20 4 22 21 24 18 26
REMARK H PARENT 10 19 12 21 4 23 21 25 18 27
REMARK Flexibility Score: inf
ROOT
ATOM      1  C   UNL     1      28.805   5.442  21.653  1.00  0.00     0.180 A 
ATOM      2  C   UNL     1      29.581   4.474  22.312  1.00  0.00     0.208 A 
ATOM      3  C   UNL     1      29.032   3.202  22.542  1.00  0.00     0.238 A 
ATOM      4  O   UNL     1      29.751   2.322  23.084  1.00  0.00    -0.285 OA
ATOM      5  C   UNL     1      27.709   2.919  22.123  1.00  0.00     0.111 A 
ATOM      6  C   UNL     1      27.039   1.678  22.341  1.00  0.00     0.134 A 
ATOM      7  C   UNL     1      25.778   1.465  21.768  1.00  0.00     0.093 A 
ATOM      8  C   UNL     1      25.137   2.469  21.045  1.00  0.00     0.123 A 
ATOM      9  C   UNL     1      25.757   3.708  20.878  1.00  0.00     0.094 A 
ATOM     10  C   UNL     1      27.031   3.938  21.405  1.00  0.00     0.146 A 
ATOM     11  O   UNL     1      27.592   5.126  21.215  1.00  0.00    -0.452 OA
ENDROOT
BRANCH   1  12
ATOM     12  C   UNL     1      29.304   6.812  21.398  1.00  0.00     0.025 A 
ATOM     13  C   UNL     1      29.166   7.831  22.354  1.00  0.00     0.016 A 
ATOM     14  C   UNL     1      29.624   9.121  22.081  1.00  0.00     0.051 A 
ATOM     15  C   UNL     1      30.215   9.424  20.849  1.00  0.00     0.157 A 
ATOM     16  C   UNL     1      29.877   7.120  20.154  1.00  0.00     0.062 A 
ATOM     17  C   UNL     1      30.339   8.411  19.870  1.00  0.00     0.158 A 
BRANCH  15  18
ATOM     18  O   UNL     1      30.655  10.733  20.641  1.00  0.00    -0.504 OA
ATOM     19  H   UNL     1      30.292  11.344  19.925  1.00  0.00     0.293 HD
ENDBRANCH  15  18
BRANCH  17  20
ATOM     20  O   UNL     1      30.908   8.639  18.616  1.00  0.00    -0.504 OA
ATOM     21  H   UNL     1      30.381   8.899  17.795  1.00  0.00     0.293 HD
ENDBRANCH  17  20
ENDBRANCH   1  12
BRANCH   2  22
ATOM     22  O   UNL     1      30.892   4.767  22.698  1.00  0.00    -0.502 OA
ATOM     23  H   UNL     1      31.127   5.584  23.247  1.00  0.00     0.293 HD
ENDBRANCH   2  22
BRANCH   6  24
ATOM     24  O   UNL     1      27.551   0.640  23.125  1.00  0.00    -0.507 OA
ATOM     25  H   UNL     1      27.134   0.309  23.981  1.00  0.00     0.293 HD
ENDBRANCH   6  24
BRANCH   8  26
ATOM     26  O   UNL     1      23.875   2.228  20.504  1.00  0.00    -0.508 OA
ATOM     27  H   UNL     1      23.683   2.379  19.521  1.00  0.00     0.293 HD
ENDBRANCH   8  26
TORSDOF 6
ENDMDL
MODEL 5
REMARK VINA RESULT:    -4.178     16.844     19.141
REMARK INTER + INTRA:          -5.315
REMARK INTER:                  -5.126
REMARK INTRA:                  -0.190
REMARK UNBOUND:                -0.282
REMARK SMILES O=c1c(O)c(-c2ccc(O)c(O)c2)oc2cc(O)cc(O)c12
REMARK SMILES IDX 5 1 3 2 2 3 1 4 22 5 20 6 19 7 17 8 16 9 15 10 14 11 6 12
REMARK SMILES IDX 7 13 8 14 9 15 13 16 11 17 10 18 12 20 4 22 21 24 18 26
REMARK H PARENT 10 19 12 21 4 23 21 25 18 27
REMARK Flexibility Score: inf
ROOT
ATOM      1  C   UNL     1      39.368   9.411   8.499  1.00  0.00     0.180 A 
ATOM      2  C   UNL     1      40.717   9.742   8.710  1.00  0.00     0.208 A 
ATOM      3  C   UNL     1      41.650   9.475   7.694  1.00  0.00     0.238 A 
ATOM      4  O   UNL     1      42.847   9.823   7.867  1.00  0.00    -0.285 OA
ATOM      5  C   UNL     1      41.225   8.865   6.489  1.00  0.00     0.111 A 
ATOM      6  C   UNL     1      42.090   8.512   5.411  1.00  0.00     0.134 A 
ATOM      7  C   UNL     1      41.542   8.034   4.213  1.00  0.00     0.093 A 
ATOM      8  C   UNL     1      40.169   7.834   4.079  1.00  0.00     0.123 A 
ATOM      9  C   UNL     1      39.318   8.119   5.150  1.00  0.00     0.094 A 
ATOM     10  C   UNL     1      39.833   8.632   6.344  1.00  0.00     0.146 A 
ATOM     11  O   UNL     1      38.990   8.901   7.333  1.00  0.00    -0.452 OA
ENDROOT
BRANCH   1  12
ATOM     12  C   UNL     1      38.331   9.639   9.532  1.00  0.00     0.025 A 
ATOM     13  C   UNL     1      37.954  10.935   9.916  1.00  0.00     0.016 A 
ATOM     14  C   UNL     1      36.991  11.125  10.908  1.00  0.00     0.051 A 
ATOM     15  C   UNL     1      36.395  10.031  11.544  1.00  0.00     0.157 A 
ATOM     16  C   UNL     1      37.751   8.540  10.184  1.00  0.00     0.062 A 
ATOM     17  C   UNL     1      36.784   8.720  11.181  1.00  0.00     0.158 A 
BRANCH  15  18
ATOM     18  O   UNL     1      35.436  10.289  12.525  1.00  0.00    -0.504 OA
ATOM     19  H   UNL     1      35.630  10.298  13.516  1.00  0.00     0.293 HD
ENDBRANCH  15  18
BRANCH  17  20
ATOM     20  O   UNL     1      36.242   7.580  11.778  1.00  0.00    -0.504 OA
ATOM     21  H   UNL     1      36.245   7.408  12.773  1.00  0.00     0.293 HD
ENDBRANCH  17  20
ENDBRANCH   1  12
BRANCH   2  22
ATOM     22  O   UNL     1      41.112  10.363   9.898  1.00  0.00    -0.502 OA
ATOM     23  H   UNL     1      40.485  10.940  10.444  1.00  0.00     0.293 HD
ENDBRANCH   2  22
BRANCH   6  24
ATOM     24  O   UNL     1      43.485   8.586   5.472  1.00  0.00    -0.507 OA
ATOM     25  H   UNL     1      44.082   7.866   5.846  1.00  0.00     0.293 HD
ENDBRANCH   6  24
BRANCH   8  26
ATOM     26  O   UNL     1      39.659   7.341   2.880  1.00  0.00    -0.508 OA
ATOM     27  H   UNL     1      38.872   7.780   2.419  1.00  0.00     0.293 HD
ENDBRANCH   8  26
TORSDOF 6
ENDMDL
MODEL 6
REMARK VINA RESULT:    -4.081      1.698      7.051
REMARK INTER + INTRA:          -5.198
REMARK INTER:                  -4.879
REMARK INTRA:                  -0.319
REMARK UNBOUND:                -0.282
REMARK SMILES O=c1c(O)c(-c2ccc(O)c(O)c2)oc2cc(O)cc(O)c12
REMARK SMILES IDX 5 1 3 2 2 3 1 4 22 5 20 6 19 7 17 8 16 9 15 10 14 11 6 12
REMARK SMILES IDX 7 13 8 14 9 15 13 16 11 17 10 18 12 20 4 22 21 24 18 26
REMARK H PARENT 10 19 12 21 4 23 21 25 18 27
REMARK Flexibility Score: inf
ROOT
ATOM      1  C   UNL     1      27.015   5.733  20.867  1.00  0.00     0.180 A 
ATOM      2  C   UNL     1      26.087   5.527  19.832  1.00  0.00     0.208 A 
ATOM      3  C   UNL     1      25.597   4.230  19.606  1.00  0.00     0.238 A 
ATOM      4  O   UNL     1      24.727   4.061  18.712  1.00  0.00    -0.285 OA
ATOM      5  C   UNL     1      26.052   3.155  20.407  1.00  0.00     0.111 A 
ATOM      6  C   UNL     1      25.654   1.795  20.239  1.00  0.00     0.134 A 
ATOM      7  C   UNL     1      26.067   0.835  21.172  1.00  0.00     0.093 A 
ATOM      8  C   UNL     1      26.915   1.172  22.225  1.00  0.00     0.123 A 
ATOM      9  C   UNL     1      27.360   2.488  22.364  1.00  0.00     0.094 A 
ATOM     10  C   UNL     1      26.935   3.475  21.470  1.00  0.00     0.146 A 
ATOM     11  O   UNL     1      27.372   4.717  21.643  1.00  0.00    -0.452 OA
ENDROOT
BRANCH   1  12
ATOM     12  C   UNL     1      27.595   7.066  21.150  1.00  0.00     0.025 A 
ATOM     13  C   UNL     1      26.944   7.984  21.988  1.00  0.00     0.016 A 
ATOM     14  C   UNL     1      27.499   9.243  22.221  1.00  0.00     0.051 A 
ATOM     15  C   UNL     1      28.704   9.617  21.616  1.00  0.00     0.157 A 
ATOM     16  C   UNL     1      28.792   7.446  20.524  1.00  0.00     0.062 A 
ATOM     17  C   UNL     1      29.358   8.707  20.752  1.00  0.00     0.158 A 
BRANCH  15  18
ATOM     18  O   UNL     1      29.207  10.889  21.894  1.00  0.00    -0.504 OA
ATOM     19  H   UNL     1      28.659  11.639  22.288  1.00  0.00     0.293 HD
ENDBRANCH  15  18
BRANCH  17  20
ATOM     20  O   UNL     1      30.556   9.011  20.105  1.00  0.00    -0.504 OA
ATOM     21  H   UNL     1      30.847   8.598  19.230  1.00  0.00     0.293 HD
ENDBRANCH  17  20
ENDBRANCH   1  12
BRANCH   2  22
ATOM     22  O   UNL     1      25.635   6.606  19.067  1.00  0.00    -0.502 OA
ATOM     23  H   UNL     1      26.255   7.333  18.734  1.00  0.00     0.293 HD
ENDBRANCH   2  22
BRANCH   6  24
ATOM     24  O   UNL     1      24.882   1.333  19.169  1.00  0.00    -0.507 OA
ATOM     25  H   UNL     1      23.967   1.682  18.929  1.00  0.00     0.293 HD
ENDBRANCH   6  24
BRANCH   8  26
ATOM     26  O   UNL     1      27.319   0.187  23.125  1.00  0.00    -0.508 OA
ATOM     27  H   UNL     1      28.095   0.335  23.758  1.00  0.00     0.293 HD
ENDBRANCH   8  26
TORSDOF 6
ENDMDL
MODEL 7
REMARK VINA RESULT:    -3.824      1.701      6.939
REMARK INTER + INTRA:          -4.888
REMARK INTER:                  -5.286
REMARK INTRA:                   0.397
REMARK UNBOUND:                -0.282
REMARK SMILES O=c1c(O)c(-c2ccc(O)c(O)c2)oc2cc(O)cc(O)c12
REMARK SMILES IDX 5 1 3 2 2 3 1 4 22 5 20 6 19 7 17 8 16 9 15 10 14 11 6 12
REMARK SMILES IDX 7 13 8 14 9 15 13 16 11 17 10 18 12 20 4 22 21 24 18 26
REMARK H PARENT 10 19 12 21 4 23 21 25 18 27
REMARK Flexibility Score: inf
ROOT
ATOM      1  C   UNL     1      26.694   5.732  20.667  1.00  0.00     0.180 A 
ATOM      2  C   UNL     1      27.467   5.373  21.784  1.00  0.00     0.208 A 
ATOM      3  C   UNL     1      27.539   4.021  22.156  1.00  0.00     0.238 A 
ATOM      4  O   UNL     1      28.276   3.700  23.125  1.00  0.00    -0.285 OA
ATOM      5  C   UNL     1      26.825   3.047  21.417  1.00  0.00     0.111 A 
ATOM      6  C   UNL     1      26.793   1.655  21.730  1.00  0.00     0.134 A 
ATOM      7  C   UNL     1      26.160   0.765  20.854  1.00  0.00     0.093 A 
ATOM      8  C   UNL     1      25.502   1.222  19.714  1.00  0.00     0.123 A 
ATOM      9  C   UNL     1      25.474   2.589  19.430  1.00  0.00     0.094 A 
ATOM     10  C   UNL     1      26.129   3.498  20.266  1.00  0.00     0.146 A 
ATOM     11  O   UNL     1      26.088   4.788  19.955  1.00  0.00    -0.452 OA
ENDROOT
BRANCH   1  12
ATOM     12  C   UNL     1      26.549   7.138  20.227  1.00  0.00     0.025 A 
ATOM     13  C   UNL     1      25.452   7.554  19.456  1.00  0.00     0.016 A 
ATOM     14  C   UNL     1      25.349   8.881  19.034  1.00  0.00     0.051 A 
ATOM     15  C   UNL     1      26.340   9.813  19.360  1.00  0.00     0.157 A 
ATOM     16  C   UNL     1      27.555   8.067  20.536  1.00  0.00     0.062 A 
ATOM     17  C   UNL     1      27.461   9.400  20.118  1.00  0.00     0.158 A 
BRANCH  15  18
ATOM     18  O   UNL     1      26.175  11.125  18.910  1.00  0.00    -0.504 OA
ATOM     19  H   UNL     1      26.079  11.380  17.938  1.00  0.00     0.293 HD
ENDBRANCH  15  18
BRANCH  17  20
ATOM     20  O   UNL     1      28.493  10.270  20.473  1.00  0.00    -0.504 OA
ATOM     21  H   UNL     1      28.362  11.252  20.668  1.00  0.00     0.293 HD
ENDBRANCH  17  20
ENDBRANCH   1  12
BRANCH   2  22
ATOM     22  O   UNL     1      28.181   6.348  22.487  1.00  0.00    -0.502 OA
ATOM     23  H   UNL     1      29.190   6.416  22.447  1.00  0.00     0.293 HD
ENDBRANCH   2  22
BRANCH   6  24
ATOM     24  O   UNL     1      27.341   1.103  22.892  1.00  0.00    -0.507 OA
ATOM     25  H   UNL     1      26.920   1.155  23.806  1.00  0.00     0.293 HD
ENDBRANCH   6  24
BRANCH   8  26
ATOM     26  O   UNL     1      24.868   0.310  18.872  1.00  0.00    -0.508 OA
ATOM     27  H   UNL     1      24.737   0.501  17.887  1.00  0.00     0.293 HD
ENDBRANCH   8  26
TORSDOF 6
ENDMDL
