MODEL 1
REMARK VINA RESULT:    -5.313      0.000      0.000
REMARK INTER + INTRA:         -11.237
REMARK INTER:                  -9.971
REMARK INTRA:                  -1.265
REMARK UNBOUND:                -1.265
REMARK SMILES CCCCCCCCC=CCCCCCCCC(=O)[O-]
REMARK SMILES IDX 10 1 9 2 11 3 12 4 13 5 14 6 15 7 16 8 17 9 18 10 19 11
REMARK SMILES IDX 20 12 8 13 7 14 6 15 5 16 4 17 3 18 2 19 1 20
REMARK H PARENT
REMARK Flexibility Score: inf
ROOT
ATOM      1  C   UNL     1       0.896  -4.249   8.806  1.00  0.00    -0.031 C 
ATOM      2  C   UNL     1       0.969  -3.113   9.525  1.00  0.00    -0.031 C 
ENDROOT
BRANCH   1   3
ATOM      3  C   UNL     1      -0.353  -4.781   8.144  1.00  0.00     0.027 C 
BRANCH   3   4
ATOM      4  C   UNL     1      -0.031  -5.449   6.801  1.00  0.00     0.004 C 
BRANCH   4   5
ATOM      5  C   UNL     1      -0.455  -6.928   6.776  1.00  0.00     0.000 C 
BRANCH   5   6
ATOM      6  C   UNL     1      -1.461  -7.274   7.885  1.00  0.00     0.000 C 
BRANCH   6   7
ATOM      7  C   UNL     1      -1.894  -8.750   7.848  1.00  0.00     0.000 C 
BRANCH   7   8
ATOM      8  C   UNL     1      -2.929  -9.094   8.935  1.00  0.00     0.006 C 
BRANCH   8   9
ATOM      9  C   UNL     1      -4.349  -9.343   8.405  1.00  0.00     0.053 C 
BRANCH   9  10
ATOM     10  C   UNL     1      -5.165  -8.088   8.369  1.00  0.00     0.041 C 
ATOM     11  O   UNL     1      -5.014  -7.260   7.433  1.00  0.00    -0.550 OA
ATOM     12  O   UNL     1      -6.115  -7.848   9.354  1.00  0.00    -0.550 OA
ENDBRANCH   9  10
ENDBRANCH   8   9
ENDBRANCH   7   8
ENDBRANCH   6   7
ENDBRANCH   5   6
ENDBRANCH   4   5
ENDBRANCH   3   4
ENDBRANCH   1   3
BRANCH   2  13
ATOM     13  C   UNL     1      -0.175  -2.154   9.743  1.00  0.00     0.027 C 
BRANCH  13  14
ATOM     14  C   UNL     1       0.215  -0.704   9.420  1.00  0.00     0.004 C 
BRANCH  14  15
ATOM     15  C   UNL     1      -0.847  -0.001   8.557  1.00  0.00     0.000 C 
BRANCH  15  16
ATOM     16  C   UNL     1      -1.162  -0.767   7.260  1.00  0.00     0.000 C 
BRANCH  16  17
ATOM     17  C   UNL     1      -1.192   0.099   5.986  1.00  0.00    -0.000 C 
BRANCH  17  18
ATOM     18  C   UNL     1      -1.503  -0.697   4.700  1.00  0.00    -0.000 C 
BRANCH  18  19
ATOM     19  C   UNL     1      -1.475  -2.215   4.934  1.00  0.00    -0.003 C 
ATOM     20  C   UNL     1      -1.444  -2.976   3.612  1.00  0.00     0.004 C 
ENDBRANCH  18  19
ENDBRANCH  17  18
ENDBRANCH  16  17
ENDBRANCH  15  16
ENDBRANCH  14  15
ENDBRANCH  13  14
ENDBRANCH   2  13
TORSDOF 15
ENDMDL
MODEL 2
REMARK VINA RESULT:    -5.242      1.624      3.197
REMARK INTER + INTRA:         -11.105
REMARK INTER:                 -10.443
REMARK INTRA:                  -0.662
REMARK UNBOUND:                -1.265
REMARK SMILES CCCCCCCCC=CCCCCCCCC(=O)[O-]
REMARK SMILES IDX 10 1 9 2 11 3 12 4 13 5 14 6 15 7 16 8 17 9 18 10 19 11
REMARK SMILES IDX 20 12 8 13 7 14 6 15 5 16 4 17 3 18 2 19 1 20
REMARK H PARENT
REMARK Flexibility Score: inf
ROOT
ATOM      1  C   UNL     1       0.897  -1.424  10.062  1.00  0.00    -0.031 C 
ATOM      2  C   UNL     1       0.184  -0.567   9.306  1.00  0.00    -0.031 C 
ENDROOT
BRANCH   1   3
ATOM      3  C   UNL     1       0.802  -2.930   9.994  1.00  0.00     0.027 C 
BRANCH   3   4
ATOM      4  C   UNL     1       2.181  -3.565   9.771  1.00  0.00     0.004 C 
BRANCH   4   5
ATOM      5  C   UNL     1       2.100  -4.822   8.886  1.00  0.00     0.000 C 
BRANCH   5   6
ATOM      6  C   UNL     1       0.654  -5.286   8.649  1.00  0.00     0.000 C 
BRANCH   6   7
ATOM      7  C   UNL     1       0.336  -5.480   7.156  1.00  0.00     0.000 C 
BRANCH   7   8
ATOM      8  C   UNL     1      -0.387  -6.809   6.870  1.00  0.00     0.006 C 
BRANCH   8   9
ATOM      9  C   UNL     1      -1.622  -7.063   7.748  1.00  0.00     0.053 C 
BRANCH   9  10
ATOM     10  C   UNL     1      -1.858  -8.523   7.979  1.00  0.00     0.041 C 
ATOM     11  O   UNL     1      -2.673  -8.902   8.861  1.00  0.00    -0.550 OA
ATOM     12  O   UNL     1      -1.201  -9.467   7.199  1.00  0.00    -0.550 OA
ENDBRANCH   9  10
ENDBRANCH   8   9
ENDBRANCH   7   8
ENDBRANCH   6   7
ENDBRANCH   5   6
ENDBRANCH   4   5
ENDBRANCH   3   4
ENDBRANCH   1   3
BRANCH   2  13
ATOM     13  C   UNL     1      -0.790  -0.971   8.227  1.00  0.00     0.027 C 
BRANCH  13  14
ATOM     14  C   UNL     1      -1.459   0.242   7.566  1.00  0.00     0.004 C 
BRANCH  14  15
ATOM     15  C   UNL     1      -1.023   0.411   6.100  1.00  0.00     0.000 C 
BRANCH  15  16
ATOM     16  C   UNL     1      -1.618  -0.663   5.174  1.00  0.00     0.000 C 
BRANCH  16  17
ATOM     17  C   UNL     1      -1.341  -2.117   5.605  1.00  0.00    -0.000 C 
BRANCH  17  18
ATOM     18  C   UNL     1      -1.549  -3.151   4.477  1.00  0.00    -0.000 C 
BRANCH  18  19
ATOM     19  C   UNL     1      -1.307  -2.549   3.085  1.00  0.00    -0.003 C 
ATOM     20  C   UNL     1      -1.465  -3.604   1.994  1.00  0.00     0.004 C 
ENDBRANCH  18  19
ENDBRANCH  17  18
ENDBRANCH  16  17
ENDBRANCH  15  16
ENDBRANCH  14  15
ENDBRANCH  13  14
ENDBRANCH   2  13
TORSDOF 15
ENDMDL
MODEL 3
REMARK VINA RESULT:    -5.156      2.299      7.045
REMARK INTER + INTRA:         -10.943
REMARK INTER:                 -10.139
REMARK INTRA:                  -0.803
REMARK UNBOUND:                -1.265
REMARK SMILES CCCCCCCCC=CCCCCCCCC(=O)[O-]
REMARK SMILES IDX 10 1 9 2 11 3 12 4 13 5 14 6 15 7 16 8 17 9 18 10 19 11
REMARK SMILES IDX 20 12 8 13 7 14 6 15 5 16 4 17 3 18 2 19 1 20
REMARK H PARENT
REMARK Flexibility Score: inf
ROOT
ATOM      1  C   UNL     1       1.179  -3.275   9.952  1.00  0.00    -0.031 C 
ATOM      2  C   UNL     1       1.719  -4.443   9.556  1.00  0.00    -0.031 C 
ENDROOT
BRANCH   1   3
ATOM      3  C   UNL     1       0.132  -2.496   9.190  1.00  0.00     0.027 C 
BRANCH   3   4
ATOM      4  C   UNL     1      -0.214  -1.182   9.902  1.00  0.00     0.004 C 
BRANCH   4   5
ATOM      5  C   UNL     1      -0.165   0.022   8.944  1.00  0.00     0.000 C 
BRANCH   5   6
ATOM      6  C   UNL     1      -1.481   0.220   8.176  1.00  0.00     0.000 C 
BRANCH   6   7
ATOM      7  C   UNL     1      -1.275   0.229   6.651  1.00  0.00     0.000 C 
BRANCH   7   8
ATOM      8  C   UNL     1      -1.414  -1.171   6.024  1.00  0.00     0.006 C 
BRANCH   8   9
ATOM      9  C   UNL     1      -1.580  -1.169   4.496  1.00  0.00     0.053 C 
BRANCH   9  10
ATOM     10  C   UNL     1      -1.499  -2.548   3.919  1.00  0.00     0.041 C 
ATOM     11  O   UNL     1      -1.409  -2.711   2.674  1.00  0.00    -0.550 OA
ATOM     12  O   UNL     1      -1.492  -3.655   4.759  1.00  0.00    -0.550 OA
ENDBRANCH   9  10
ENDBRANCH   8   9
ENDBRANCH   7   8
ENDBRANCH   6   7
ENDBRANCH   5   6
ENDBRANCH   4   5
ENDBRANCH   3   4
ENDBRANCH   1   3
BRANCH   2  13
ATOM     13  C   UNL     1       1.327  -5.197   8.310  1.00  0.00     0.027 C 
BRANCH  13  14
ATOM     14  C   UNL     1      -0.112  -5.728   8.382  1.00  0.00     0.004 C 
BRANCH  14  15
ATOM     15  C   UNL     1      -0.570  -6.331   7.043  1.00  0.00     0.000 C 
BRANCH  15  16
ATOM     16  C   UNL     1      -1.128  -7.757   7.192  1.00  0.00     0.000 C 
BRANCH  16  17
ATOM     17  C   UNL     1      -2.058  -7.966   8.403  1.00  0.00    -0.000 C 
BRANCH  17  18
ATOM     18  C   UNL     1      -3.039  -9.147   8.238  1.00  0.00    -0.000 C 
BRANCH  18  19
ATOM     19  C   UNL     1      -4.472  -8.773   8.644  1.00  0.00    -0.003 C 
ATOM     20  C   UNL     1      -5.392  -8.716   7.427  1.00  0.00     0.004 C 
ENDBRANCH  18  19
ENDBRANCH  17  18
ENDBRANCH  16  17
ENDBRANCH  15  16
ENDBRANCH  14  15
ENDBRANCH  13  14
ENDBRANCH   2  13
TORSDOF 15
ENDMDL
MODEL 4
REMARK VINA RESULT:    -4.924      1.200      4.123
REMARK INTER + INTRA:         -10.506
REMARK INTER:                 -10.095
REMARK INTRA:                  -0.412
REMARK UNBOUND:                -1.265
REMARK SMILES CCCCCCCCC=CCCCCCCCC(=O)[O-]
REMARK SMILES IDX 10 1 9 2 11 3 12 4 13 5 14 6 15 7 16 8 17 9 18 10 19 11
REMARK SMILES IDX 20 12 8 13 7 14 6 15 5 16 4 17 3 18 2 19 1 20
REMARK H PARENT
REMARK Flexibility Score: inf
ROOT
ATOM      1  C   UNL     1      -1.512  -1.032   4.137  1.00  0.00    -0.031 C 
ATOM      2  C   UNL     1      -1.346  -0.298   5.254  1.00  0.00    -0.031 C 
ENDROOT
BRANCH   1   3
ATOM      3  C   UNL     1      -1.520  -2.542   4.083  1.00  0.00     0.027 C 
BRANCH   3   4
ATOM      4  C   UNL     1      -1.521  -3.151   5.491  1.00  0.00     0.004 C 
BRANCH   4   5
ATOM      5  C   UNL     1      -0.861  -4.541   5.518  1.00  0.00     0.000 C 
BRANCH   5   6
ATOM      6  C   UNL     1      -0.405  -4.951   6.927  1.00  0.00     0.000 C 
BRANCH   6   7
ATOM      7  C   UNL     1      -0.387  -6.478   7.118  1.00  0.00     0.000 C 
BRANCH   7   8
ATOM      8  C   UNL     1      -1.269  -6.940   8.293  1.00  0.00     0.006 C 
BRANCH   8   9
ATOM      9  C   UNL     1      -2.368  -7.942   7.907  1.00  0.00     0.053 C 
BRANCH   9  10
ATOM     10  C   UNL     1      -3.720  -7.504   8.381  1.00  0.00     0.041 C 
ATOM     11  O   UNL     1      -4.697  -7.493   7.588  1.00  0.00    -0.550 OA
ATOM     12  O   UNL     1      -3.907  -7.138   9.708  1.00  0.00    -0.550 OA
ENDBRANCH   9  10
ENDBRANCH   8   9
ENDBRANCH   7   8
ENDBRANCH   6   7
ENDBRANCH   5   6
ENDBRANCH   4   5
ENDBRANCH   3   4
ENDBRANCH   1   3
BRANCH   2  13
ATOM     13  C   UNL     1      -1.195  -0.862   6.644  1.00  0.00     0.027 C 
BRANCH  13  14
ATOM     14  C   UNL     1      -1.139   0.239   7.713  1.00  0.00     0.004 C 
BRANCH  14  15
ATOM     15  C   UNL     1      -0.590  -0.285   9.052  1.00  0.00     0.000 C 
BRANCH  15  16
ATOM     16  C   UNL     1      -0.294  -1.794   9.023  1.00  0.00     0.000 C 
BRANCH  16  17
ATOM     17  C   UNL     1       0.852  -2.247   9.948  1.00  0.00    -0.000 C 
BRANCH  17  18
ATOM     18  C   UNL     1       1.096  -3.772   9.935  1.00  0.00    -0.000 C 
BRANCH  18  19
ATOM     19  C   UNL     1       2.456  -4.138   9.321  1.00  0.00    -0.003 C 
ATOM     20  C   UNL     1       2.890  -5.540   9.741  1.00  0.00     0.004 C 
ENDBRANCH  18  19
ENDBRANCH  17  18
ENDBRANCH  16  17
ENDBRANCH  15  16
ENDBRANCH  14  15
ENDBRANCH  13  14
ENDBRANCH   2  13
TORSDOF 15
ENDMDL
MODEL 5
REMARK VINA RESULT:    -4.522      3.823      5.247
REMARK INTER + INTRA:          -9.753
REMARK INTER:                  -8.886
REMARK INTRA:                  -0.867
REMARK UNBOUND:                -1.265
REMARK SMILES CCCCCCCCC=CCCCCCCCC(=O)[O-]
REMARK SMILES IDX 10 1 9 2 11 3 12 4 13 5 14 6 15 7 16 8 17 9 18 10 19 11
REMARK SMILES IDX 20 12 8 13 7 14 6 15 5 16 4 17 3 18 2 19 1 20
REMARK H PARENT
REMARK Flexibility Score: inf
ROOT
ATOM      1  C   UNL     1       2.146  -4.669   9.218  1.00  0.00    -0.031 C 
ATOM      2  C   UNL     1       3.169  -3.826   9.451  1.00  0.00    -0.031 C 
ENDROOT
BRANCH   1   3
ATOM      3  C   UNL     1       0.714  -4.436   9.639  1.00  0.00     0.027 C 
BRANCH   3   4
ATOM      4  C   UNL     1      -0.263  -4.777   8.506  1.00  0.00     0.004 C 
BRANCH   4   5
ATOM      5  C   UNL     1       0.397  -5.640   7.416  1.00  0.00     0.000 C 
BRANCH   5   6
ATOM      6  C   UNL     1      -0.484  -6.823   6.985  1.00  0.00     0.000 C 
BRANCH   6   7
ATOM      7  C   UNL     1      -1.596  -7.129   8.003  1.00  0.00     0.000 C 
BRANCH   7   8
ATOM      8  C   UNL     1      -2.150  -8.560   7.865  1.00  0.00     0.006 C 
BRANCH   8   9
ATOM      9  C   UNL     1      -3.452  -8.815   8.641  1.00  0.00     0.053 C 
BRANCH   9  10
ATOM     10  C   UNL     1      -4.664  -8.436   7.847  1.00  0.00     0.041 C 
ATOM     11  O   UNL     1      -4.962  -7.223   7.685  1.00  0.00    -0.550 OA
ATOM     12  O   UNL     1      -5.446  -9.421   7.259  1.00  0.00    -0.550 OA
ENDBRANCH   9  10
ENDBRANCH   8   9
ENDBRANCH   7   8
ENDBRANCH   6   7
ENDBRANCH   5   6
ENDBRANCH   4   5
ENDBRANCH   3   4
ENDBRANCH   1   3
BRANCH   2  13
ATOM     13  C   UNL     1       3.046  -2.482  10.124  1.00  0.00     0.027 C 
BRANCH  13  14
ATOM     14  C   UNL     1       4.252  -1.576   9.837  1.00  0.00     0.004 C 
BRANCH  14  15
ATOM     15  C   UNL     1       3.850  -0.094   9.743  1.00  0.00     0.000 C 
BRANCH  15  16
ATOM     16  C   UNL     1       4.752   0.708   8.790  1.00  0.00     0.000 C 
BRANCH  16  17
ATOM     17  C   UNL     1       5.938  -0.080   8.201  1.00  0.00    -0.000 C 
BRANCH  17  18
ATOM     18  C   UNL     1       7.317   0.407   8.694  1.00  0.00    -0.000 C 
BRANCH  18  19
ATOM     19  C   UNL     1       8.294  -0.754   8.929  1.00  0.00    -0.003 C 
ATOM     20  C   UNL     1       9.247  -0.447  10.081  1.00  0.00     0.004 C 
ENDBRANCH  18  19
ENDBRANCH  17  18
ENDBRANCH  16  17
ENDBRANCH  15  16
ENDBRANCH  14  15
ENDBRANCH  13  14
ENDBRANCH   2  13
TORSDOF 15
ENDMDL
MODEL 6
REMARK VINA RESULT:    -4.479      2.558      7.398
REMARK INTER + INTRA:          -9.672
REMARK INTER:                  -8.549
REMARK INTRA:                  -1.124
REMARK UNBOUND:                -1.265
REMARK SMILES CCCCCCCCC=CCCCCCCCC(=O)[O-]
REMARK SMILES IDX 10 1 9 2 11 3 12 4 13 5 14 6 15 7 16 8 17 9 18 10 19 11
REMARK SMILES IDX 20 12 8 13 7 14 6 15 5 16 4 17 3 18 2 19 1 20
REMARK H PARENT
REMARK Flexibility Score: inf
ROOT
ATOM      1  C   UNL     1       0.604  -4.590   8.604  1.00  0.00    -0.031 C 
ATOM      2  C   UNL     1       0.059  -5.750   8.194  1.00  0.00    -0.031 C 
ENDROOT
BRANCH   1   3
ATOM      3  C   UNL     1       0.071  -3.723   9.721  1.00  0.00     0.027 C 
BRANCH   3   4
ATOM      4  C   UNL     1       0.636  -2.299   9.640  1.00  0.00     0.004 C 
BRANCH   4   5
ATOM      5  C   UNL     1      -0.439  -1.236   9.927  1.00  0.00     0.000 C 
BRANCH   5   6
ATOM      6  C   UNL     1      -0.346  -0.031   8.979  1.00  0.00     0.000 C 
BRANCH   6   7
ATOM      7  C   UNL     1      -1.553   0.064   8.029  1.00  0.00     0.000 C 
BRANCH   7   8
ATOM      8  C   UNL     1      -1.172  -0.186   6.558  1.00  0.00     0.006 C 
BRANCH   8   9
ATOM      9  C   UNL     1      -1.233  -1.661   6.128  1.00  0.00     0.053 C 
BRANCH   9  10
ATOM     10  C   UNL     1      -1.541  -1.809   4.670  1.00  0.00     0.041 C 
ATOM     11  O   UNL     1      -1.806  -0.796   3.971  1.00  0.00    -0.550 OA
ATOM     12  O   UNL     1      -1.505  -3.064   4.075  1.00  0.00    -0.550 OA
ENDBRANCH   9  10
ENDBRANCH   8   9
ENDBRANCH   7   8
ENDBRANCH   6   7
ENDBRANCH   5   6
ENDBRANCH   4   5
ENDBRANCH   3   4
ENDBRANCH   1   3
BRANCH   2  13
ATOM     13  C   UNL     1      -1.146  -6.407   8.821  1.00  0.00     0.027 C 
BRANCH  13  14
ATOM     14  C   UNL     1      -1.905  -7.295   7.825  1.00  0.00     0.004 C 
BRANCH  14  15
ATOM     15  C   UNL     1      -2.217  -8.683   8.412  1.00  0.00     0.000 C 
BRANCH  15  16
ATOM     16  C   UNL     1      -3.657  -9.142   8.125  1.00  0.00     0.000 C 
BRANCH  16  17
ATOM     17  C   UNL     1      -4.708  -8.657   9.141  1.00  0.00    -0.000 C 
BRANCH  17  18
ATOM     18  C   UNL     1      -5.964  -8.038   8.491  1.00  0.00    -0.000 C 
BRANCH  18  19
ATOM     19  C   UNL     1      -5.789  -6.540   8.198  1.00  0.00    -0.003 C 
ATOM     20  C   UNL     1      -7.060  -5.763   8.525  1.00  0.00     0.004 C 
ENDBRANCH  18  19
ENDBRANCH  17  18
ENDBRANCH  16  17
ENDBRANCH  15  16
ENDBRANCH  14  15
ENDBRANCH  13  14
ENDBRANCH   2  13
TORSDOF 15
ENDMDL
MODEL 7
REMARK VINA RESULT:    -4.365      2.986      8.116
REMARK INTER + INTRA:          -9.459
REMARK INTER:                  -8.547
REMARK INTRA:                  -0.912
REMARK UNBOUND:                -1.265
REMARK SMILES CCCCCCCCC=CCCCCCCCC(=O)[O-]
REMARK SMILES IDX 10 1 9 2 11 3 12 4 13 5 14 6 15 7 16 8 17 9 18 10 19 11
REMARK SMILES IDX 20 12 8 13 7 14 6 15 5 16 4 17 3 18 2 19 1 20
REMARK H PARENT
REMARK Flexibility Score: inf
ROOT
ATOM      1  C   UNL     1      -0.002  -5.479   7.078  1.00  0.00    -0.031 C 
ATOM      2  C   UNL     1      -0.565  -6.700   7.128  1.00  0.00    -0.031 C 
ENDROOT
BRANCH   1   3
ATOM      3  C   UNL     1      -0.316  -4.337   8.017  1.00  0.00     0.027 C 
BRANCH   3   4
ATOM      4  C   UNL     1       0.675  -4.288   9.187  1.00  0.00     0.004 C 
BRANCH   4   5
ATOM      5  C   UNL     1       0.891  -2.853   9.699  1.00  0.00     0.000 C 
BRANCH   5   6
ATOM      6  C   UNL     1      -0.360  -1.974   9.543  1.00  0.00     0.000 C 
BRANCH   6   7
ATOM      7  C   UNL     1      -0.016  -0.528   9.143  1.00  0.00     0.000 C 
BRANCH   7   8
ATOM      8  C   UNL     1      -0.945   0.021   8.044  1.00  0.00     0.006 C 
BRANCH   8   9
ATOM      9  C   UNL     1      -1.161  -0.934   6.860  1.00  0.00     0.053 C 
BRANCH   9  10
ATOM     10  C   UNL     1      -1.270  -0.201   5.558  1.00  0.00     0.041 C 
ATOM     11  O   UNL     1      -1.118   1.048   5.519  1.00  0.00    -0.550 OA
ATOM     12  O   UNL     1      -1.509  -0.902   4.383  1.00  0.00    -0.550 OA
ENDBRANCH   9  10
ENDBRANCH   8   9
ENDBRANCH   7   8
ENDBRANCH   6   7
ENDBRANCH   5   6
ENDBRANCH   4   5
ENDBRANCH   3   4
ENDBRANCH   1   3
BRANCH   2  13
ATOM     13  C   UNL     1      -1.565  -7.150   8.163  1.00  0.00     0.027 C 
BRANCH  13  14
ATOM     14  C   UNL     1      -2.181  -8.514   7.821  1.00  0.00     0.004 C 
BRANCH  14  15
ATOM     15  C   UNL     1      -2.358  -9.395   9.070  1.00  0.00     0.000 C 
BRANCH  15  16
ATOM     16  C   UNL     1      -3.834  -9.676   9.397  1.00  0.00     0.000 C 
BRANCH  16  17
ATOM     17  C   UNL     1      -4.813  -9.441   8.230  1.00  0.00    -0.000 C 
BRANCH  17  18
ATOM     18  C   UNL     1      -6.207 -10.068   8.452  1.00  0.00    -0.000 C 
BRANCH  18  19
ATOM     19  C   UNL     1      -7.344  -9.092   8.115  1.00  0.00    -0.003 C 
ATOM     20  C   UNL     1      -8.399  -9.757   7.236  1.00  0.00     0.004 C 
ENDBRANCH  18  19
ENDBRANCH  17  18
ENDBRANCH  16  17
ENDBRANCH  15  16
ENDBRANCH  14  15
ENDBRANCH  13  14
ENDBRANCH   2  13
TORSDOF 15
ENDMDL
MODEL 8
REMARK VINA RESULT:    -4.326     10.424     12.872
REMARK INTER + INTRA:          -9.385
REMARK INTER:                  -8.312
REMARK INTRA:                  -1.073
REMARK UNBOUND:                -1.265
REMARK SMILES CCCCCCCCC=CCCCCCCCC(=O)[O-]
REMARK SMILES IDX 10 1 9 2 11 3 12 4 13 5 14 6 15 7 16 8 17 9 18 10 19 11
REMARK SMILES IDX 20 12 8 13 7 14 6 15 5 16 4 17 3 18 2 19 1 20
REMARK H PARENT
REMARK Flexibility Score: inf
ROOT
ATOM      1  C   UNL     1       9.925   5.070   8.179  1.00  0.00    -0.031 C 
ATOM      2  C   UNL     1      10.019   6.410   8.262  1.00  0.00    -0.031 C 
ENDROOT
BRANCH   1   3
ATOM      3  C   UNL     1       8.973   4.214   8.982  1.00  0.00     0.027 C 
BRANCH   3   4
ATOM      4  C   UNL     1       9.418   2.745   8.992  1.00  0.00     0.004 C 
BRANCH   4   5
ATOM      5  C   UNL     1       9.360   2.116   7.589  1.00  0.00     0.000 C 
BRANCH   5   6
ATOM      6  C   UNL     1       8.820   0.677   7.608  1.00  0.00     0.000 C 
BRANCH   6   7
ATOM      7  C   UNL     1       8.251   0.281   8.982  1.00  0.00     0.000 C 
BRANCH   7   8
ATOM      8  C   UNL     1       6.911  -0.470   8.876  1.00  0.00     0.006 C 
BRANCH   8   9
ATOM      9  C   UNL     1       5.840   0.255   8.045  1.00  0.00     0.053 C 
BRANCH   9  10
ATOM     10  C   UNL     1       4.897   1.039   8.905  1.00  0.00     0.041 C 
ATOM     11  O   UNL     1       5.178   2.220   9.241  1.00  0.00    -0.550 OA
ATOM     12  O   UNL     1       3.694   0.477   9.310  1.00  0.00    -0.550 OA
ENDBRANCH   9  10
ENDBRANCH   8   9
ENDBRANCH   7   8
ENDBRANCH   6   7
ENDBRANCH   5   6
ENDBRANCH   4   5
ENDBRANCH   3   4
ENDBRANCH   1   3
BRANCH   2  13
ATOM     13  C   UNL     1       9.151   7.286   9.130  1.00  0.00     0.027 C 
BRANCH  13  14
ATOM     14  C   UNL     1       8.536   8.454   8.345  1.00  0.00     0.004 C 
BRANCH  14  15
ATOM     15  C   UNL     1       7.090   8.157   7.910  1.00  0.00     0.000 C 
BRANCH  15  16
ATOM     16  C   UNL     1       6.499   9.259   7.016  1.00  0.00     0.000 C 
BRANCH  16  17
ATOM     17  C   UNL     1       4.959   9.325   6.999  1.00  0.00    -0.000 C 
BRANCH  17  18
ATOM     18  C   UNL     1       4.344   9.134   5.596  1.00  0.00    -0.000 C 
BRANCH  18  19
ATOM     19  C   UNL     1       5.394   8.733   4.550  1.00  0.00    -0.003 C 
ATOM     20  C   UNL     1       5.041   7.399   3.898  1.00  0.00     0.004 C 
ENDBRANCH  18  19
ENDBRANCH  17  18
ENDBRANCH  16  17
ENDBRANCH  15  16
ENDBRANCH  14  15
ENDBRANCH  13  14
ENDBRANCH   2  13
TORSDOF 15
ENDMDL
MODEL 9
REMARK VINA RESULT:    -4.193     15.039     17.651
REMARK INTER + INTRA:          -9.134
REMARK INTER:                  -6.121
REMARK INTRA:                  -3.013
REMARK UNBOUND:                -1.265
REMARK SMILES CCCCCCCCC=CCCCCCCCC(=O)[O-]
REMARK SMILES IDX 10 1 9 2 11 3 12 4 13 5 14 6 15 7 16 8 17 9 18 10 19 11
REMARK SMILES IDX 20 12 8 13 7 14 6 15 5 16 4 17 3 18 2 19 1 20
REMARK H PARENT
REMARK Flexibility Score: inf
ROOT
ATOM      1  C   UNL     1      -5.869   4.796  -4.910  1.00  0.00    -0.031 C 
ATOM      2  C   UNL     1      -6.444   5.981  -5.191  1.00  0.00    -0.031 C 
ENDROOT
BRANCH   1   3
ATOM      3  C   UNL     1      -6.531   3.447  -5.071  1.00  0.00     0.027 C 
BRANCH   3   4
ATOM      4  C   UNL     1      -7.167   2.978  -3.757  1.00  0.00     0.004 C 
BRANCH   4   5
ATOM      5  C   UNL     1      -8.703   3.063  -3.797  1.00  0.00     0.000 C 
BRANCH   5   6
ATOM      6  C   UNL     1      -9.254   4.227  -2.960  1.00  0.00     0.000 C 
BRANCH   6   7
ATOM      7  C   UNL     1      -8.249   4.718  -1.903  1.00  0.00     0.000 C 
BRANCH   7   8
ATOM      8  C   UNL     1      -8.181   6.255  -1.817  1.00  0.00     0.006 C 
BRANCH   8   9
ATOM      9  C   UNL     1      -6.759   6.820  -1.677  1.00  0.00     0.053 C 
BRANCH   9  10
ATOM     10  C   UNL     1      -6.502   7.362  -0.304  1.00  0.00     0.041 C 
ATOM     11  O   UNL     1      -6.763   6.666   0.712  1.00  0.00    -0.550 OA
ATOM     12  O   UNL     1      -5.944   8.624  -0.148  1.00  0.00    -0.550 OA
ENDBRANCH   9  10
ENDBRANCH   8   9
ENDBRANCH   7   8
ENDBRANCH   6   7
ENDBRANCH   5   6
ENDBRANCH   4   5
ENDBRANCH   3   4
ENDBRANCH   1   3
BRANCH   2  13
ATOM     13  C   UNL     1      -7.828   6.154  -5.767  1.00  0.00     0.027 C 
BRANCH  13  14
ATOM     14  C   UNL     1      -8.348   7.590  -5.601  1.00  0.00     0.004 C 
BRANCH  14  15
ATOM     15  C   UNL     1      -7.250   8.547  -5.107  1.00  0.00     0.000 C 
BRANCH  15  16
ATOM     16  C   UNL     1      -6.821   9.564  -6.177  1.00  0.00     0.000 C 
BRANCH  16  17
ATOM     17  C   UNL     1      -5.740   9.062  -7.153  1.00  0.00    -0.000 C 
BRANCH  17  18
ATOM     18  C   UNL     1      -6.268   8.787  -8.578  1.00  0.00    -0.000 C 
BRANCH  18  19
ATOM     19  C   UNL     1      -6.226   7.295  -8.936  1.00  0.00    -0.003 C 
ATOM     20  C   UNL     1      -4.957   6.636  -8.401  1.00  0.00     0.004 C 
ENDBRANCH  18  19
ENDBRANCH  17  18
ENDBRANCH  16  17
ENDBRANCH  15  16
ENDBRANCH  14  15
ENDBRANCH  13  14
ENDBRANCH   2  13
TORSDOF 15
ENDMDL
