MODEL 1
REMARK VINA RESULT:    -4.197      0.000      0.000
REMARK INTER + INTRA:         -12.579
REMARK INTER:                  -9.104
REMARK INTRA:                  -3.475
REMARK UNBOUND:                -3.475
REMARK SMILES CCCCCCCCCCCCCCCCCCCCCC(=O)[O-]
REMARK SMILES IDX 12 1 11 2 10 3 9 4 8 5 7 6 6 7 5 8 4 9 3 10 2 11 1 12 13 13
REMARK SMILES IDX 14 14 15 15 16 16 17 17 18 18 19 19 20 20 21 21 22 22 23 23
REMARK SMILES IDX 24 24
REMARK H PARENT
REMARK Flexibility Score: inf
ROOT
ATOM      1  C   UNL     1       1.864  15.885  10.574  1.00  0.00     0.000 C 
ENDROOT
BRANCH   1   2
ATOM      2  C   UNL     1       1.202  15.398   9.266  1.00  0.00     0.000 C 
BRANCH   2   3
ATOM      3  C   UNL     1       1.325  13.875   9.083  1.00  0.00     0.000 C 
BRANCH   3   4
ATOM      4  C   UNL     1       1.765  13.486   7.663  1.00  0.00    -0.000 C 
BRANCH   4   5
ATOM      5  C   UNL     1       3.296  13.484   7.497  1.00  0.00    -0.000 C 
BRANCH   5   6
ATOM      6  C   UNL     1       4.023  12.956   8.743  1.00  0.00    -0.000 C 
BRANCH   6   7
ATOM      7  C   UNL     1       4.588  11.536   8.544  1.00  0.00    -0.000 C 
BRANCH   7   8
ATOM      8  C   UNL     1       3.548  10.442   8.874  1.00  0.00    -0.000 C 
BRANCH   8   9
ATOM      9  C   UNL     1       2.834  10.649  10.224  1.00  0.00    -0.000 C 
BRANCH   9  10
ATOM     10  C   UNL     1       1.408  10.080  10.297  1.00  0.00    -0.000 C 
BRANCH  10  11
ATOM     11  C   UNL     1       0.450  10.975  11.098  1.00  0.00    -0.003 C 
ATOM     12  C   UNL     1       0.559  10.693  12.595  1.00  0.00     0.004 C 
ENDBRANCH  10  11
ENDBRANCH   9  10
ENDBRANCH   8   9
ENDBRANCH   7   8
ENDBRANCH   6   7
ENDBRANCH   5   6
ENDBRANCH   4   5
ENDBRANCH   3   4
ENDBRANCH   2   3
ENDBRANCH   1   2
BRANCH   1  13
ATOM     13  C   UNL     1       2.416  14.744  11.450  1.00  0.00     0.000 C 
BRANCH  13  14
ATOM     14  C   UNL     1       3.842  14.969  11.984  1.00  0.00     0.000 C 
BRANCH  14  15
ATOM     15  C   UNL     1       4.159  14.097  13.213  1.00  0.00     0.000 C 
BRANCH  15  16
ATOM     16  C   UNL     1       3.865  12.608  12.969  1.00  0.00     0.000 C 
BRANCH  16  17
ATOM     17  C   UNL     1       5.141  11.792  12.694  1.00  0.00     0.000 C 
BRANCH  17  18
ATOM     18  C   UNL     1       6.337  12.270  13.532  1.00  0.00     0.000 C 
BRANCH  18  19
ATOM     19  C   UNL     1       7.663  12.225  12.753  1.00  0.00     0.000 C 
BRANCH  19  20
ATOM     20  C   UNL     1       7.469  12.417  11.238  1.00  0.00     0.006 C 
BRANCH  20  21
ATOM     21  C   UNL     1       8.468  11.634  10.373  1.00  0.00     0.053 C 
BRANCH  21  22
ATOM     22  C   UNL     1       8.317  10.153  10.543  1.00  0.00     0.041 C 
ATOM     23  O   UNL     1       9.296   9.454  10.919  1.00  0.00    -0.550 OA
ATOM     24  O   UNL     1       7.091   9.547  10.304  1.00  0.00    -0.550 OA
ENDBRANCH  21  22
ENDBRANCH  20  21
ENDBRANCH  19  20
ENDBRANCH  18  19
ENDBRANCH  17  18
ENDBRANCH  16  17
ENDBRANCH  15  16
ENDBRANCH  14  15
ENDBRANCH  13  14
ENDBRANCH   1  13
TORSDOF 20
ENDMDL
MODEL 2
REMARK VINA RESULT:    -4.119      2.527      5.822
REMARK INTER + INTRA:         -12.410
REMARK INTER:                  -9.074
REMARK INTRA:                  -3.336
REMARK UNBOUND:                -3.475
REMARK SMILES CCCCCCCCCCCCCCCCCCCCCC(=O)[O-]
REMARK SMILES IDX 12 1 11 2 10 3 9 4 8 5 7 6 6 7 5 8 4 9 3 10 2 11 1 12 13 13
REMARK SMILES IDX 14 14 15 15 16 16 17 17 18 18 19 19 20 20 21 21 22 22 23 23
REMARK SMILES IDX 24 24
REMARK H PARENT
REMARK Flexibility Score: inf
ROOT
ATOM      1  C   UNL     1       2.419  14.249  11.410  1.00  0.00     0.000 C 
ENDROOT
BRANCH   1   2
ATOM      2  C   UNL     1       3.648  14.984  11.990  1.00  0.00     0.000 C 
BRANCH   2   3
ATOM      3  C   UNL     1       4.890  14.078  12.054  1.00  0.00     0.000 C 
BRANCH   3   4
ATOM      4  C   UNL     1       4.532  12.600  12.273  1.00  0.00    -0.000 C 
BRANCH   4   5
ATOM      5  C   UNL     1       5.774  11.689  12.313  1.00  0.00    -0.000 C 
BRANCH   5   6
ATOM      6  C   UNL     1       7.079  12.462  12.065  1.00  0.00    -0.000 C 
BRANCH   6   7
ATOM      7  C   UNL     1       7.867  11.924  10.856  1.00  0.00    -0.000 C 
BRANCH   7   8
ATOM      8  C   UNL     1       7.409  10.508  10.442  1.00  0.00    -0.000 C 
BRANCH   8   9
ATOM      9  C   UNL     1       8.515   9.440  10.551  1.00  0.00    -0.000 C 
BRANCH   9  10
ATOM     10  C   UNL     1       8.108   8.035  10.076  1.00  0.00    -0.000 C 
BRANCH  10  11
ATOM     11  C   UNL     1       6.909   8.055   9.116  1.00  0.00    -0.003 C 
ATOM     12  C   UNL     1       6.336   6.653   8.925  1.00  0.00     0.004 C 
ENDBRANCH  10  11
ENDBRANCH   9  10
ENDBRANCH   8   9
ENDBRANCH   7   8
ENDBRANCH   6   7
ENDBRANCH   5   6
ENDBRANCH   4   5
ENDBRANCH   3   4
ENDBRANCH   2   3
ENDBRANCH   1   2
BRANCH   1  13
ATOM     13  C   UNL     1       1.737  15.002  10.251  1.00  0.00     0.000 C 
BRANCH  13  14
ATOM     14  C   UNL     1       1.360  14.127   9.042  1.00  0.00     0.000 C 
BRANCH  14  15
ATOM     15  C   UNL     1       2.366  14.253   7.883  1.00  0.00     0.000 C 
BRANCH  15  16
ATOM     16  C   UNL     1       3.041  12.915   7.541  1.00  0.00     0.000 C 
BRANCH  16  17
ATOM     17  C   UNL     1       4.090  12.499   8.586  1.00  0.00     0.000 C 
BRANCH  17  18
ATOM     18  C   UNL     1       4.097  10.985   8.845  1.00  0.00     0.000 C 
BRANCH  18  19
ATOM     19  C   UNL     1       2.690  10.421   9.108  1.00  0.00     0.000 C 
BRANCH  19  20
ATOM     20  C   UNL     1       2.329  10.399  10.604  1.00  0.00     0.006 C 
BRANCH  20  21
ATOM     21  C   UNL     1       0.872  10.782  10.905  1.00  0.00     0.053 C 
BRANCH  21  22
ATOM     22  C   UNL     1       0.566  10.717  12.370  1.00  0.00     0.041 C 
ATOM     23  O   UNL     1       1.461  10.978  13.218  1.00  0.00    -0.550 OA
ATOM     24  O   UNL     1      -0.713  10.386  12.799  1.00  0.00    -0.550 OA
ENDBRANCH  21  22
ENDBRANCH  20  21
ENDBRANCH  19  20
ENDBRANCH  18  19
ENDBRANCH  17  18
ENDBRANCH  16  17
ENDBRANCH  15  16
ENDBRANCH  14  15
ENDBRANCH  13  14
ENDBRANCH   1  13
TORSDOF 20
ENDMDL
MODEL 3
REMARK VINA RESULT:    -4.010      1.530      2.776
REMARK INTER + INTRA:         -12.174
REMARK INTER:                  -8.377
REMARK INTRA:                  -3.797
REMARK UNBOUND:                -3.475
REMARK SMILES CCCCCCCCCCCCCCCCCCCCCC(=O)[O-]
REMARK SMILES IDX 12 1 11 2 10 3 9 4 8 5 7 6 6 7 5 8 4 9 3 10 2 11 1 12 13 13
REMARK SMILES IDX 14 14 15 15 16 16 17 17 18 18 19 19 20 20 21 21 22 22 23 23
REMARK SMILES IDX 24 24
REMARK H PARENT
REMARK Flexibility Score: inf
ROOT
ATOM      1  C   UNL     1       2.492  14.610  11.306  1.00  0.00     0.000 C 
ENDROOT
BRANCH   1   2
ATOM      2  C   UNL     1       2.626  13.938   9.921  1.00  0.00     0.000 C 
BRANCH   2   3
ATOM      3  C   UNL     1       4.071  13.502   9.623  1.00  0.00     0.000 C 
BRANCH   3   4
ATOM      4  C   UNL     1       4.139  12.183   8.837  1.00  0.00    -0.000 C 
BRANCH   4   5
ATOM      5  C   UNL     1       4.085  10.945   9.752  1.00  0.00    -0.000 C 
BRANCH   5   6
ATOM      6  C   UNL     1       2.714  10.252   9.726  1.00  0.00    -0.000 C 
BRANCH   6   7
ATOM      7  C   UNL     1       2.042  10.212  11.111  1.00  0.00    -0.000 C 
BRANCH   7   8
ATOM      8  C   UNL     1       0.651  10.884  11.106  1.00  0.00    -0.000 C 
BRANCH   8   9
ATOM      9  C   UNL     1       0.376  11.755  12.347  1.00  0.00    -0.000 C 
BRANCH   9  10
ATOM     10  C   UNL     1       1.045  11.268  13.642  1.00  0.00    -0.000 C 
BRANCH  10  11
ATOM     11  C   UNL     1       0.455  11.922  14.900  1.00  0.00    -0.003 C 
ATOM     12  C   UNL     1       0.405  13.441  14.756  1.00  0.00     0.004 C 
ENDBRANCH  10  11
ENDBRANCH   9  10
ENDBRANCH   8   9
ENDBRANCH   7   8
ENDBRANCH   6   7
ENDBRANCH   5   6
ENDBRANCH   4   5
ENDBRANCH   3   4
ENDBRANCH   2   3
ENDBRANCH   1   2
BRANCH   1  13
ATOM     13  C   UNL     1       3.802  14.621  12.118  1.00  0.00     0.000 C 
BRANCH  13  14
ATOM     14  C   UNL     1       3.812  13.691  13.344  1.00  0.00     0.000 C 
BRANCH  14  15
ATOM     15  C   UNL     1       4.600  12.391  13.095  1.00  0.00     0.000 C 
BRANCH  15  16
ATOM     16  C   UNL     1       5.894  12.321  13.921  1.00  0.00     0.000 C 
BRANCH  16  17
ATOM     17  C   UNL     1       7.124  11.975  13.063  1.00  0.00     0.000 C 
BRANCH  17  18
ATOM     18  C   UNL     1       7.062  12.607  11.664  1.00  0.00     0.000 C 
BRANCH  18  19
ATOM     19  C   UNL     1       8.184  12.108  10.737  1.00  0.00     0.000 C 
BRANCH  19  20
ATOM     20  C   UNL     1       8.363  10.580  10.791  1.00  0.00     0.006 C 
BRANCH  20  21
ATOM     21  C   UNL     1       7.543   9.814   9.742  1.00  0.00     0.053 C 
BRANCH  21  22
ATOM     22  C   UNL     1       8.013  10.095   8.347  1.00  0.00     0.041 C 
ATOM     23  O   UNL     1       9.228   9.951   8.045  1.00  0.00    -0.550 OA
ATOM     24  O   UNL     1       7.106  10.499   7.376  1.00  0.00    -0.550 OA
ENDBRANCH  21  22
ENDBRANCH  20  21
ENDBRANCH  19  20
ENDBRANCH  18  19
ENDBRANCH  17  18
ENDBRANCH  16  17
ENDBRANCH  15  16
ENDBRANCH  14  15
ENDBRANCH  13  14
ENDBRANCH   1  13
TORSDOF 20
ENDMDL
MODEL 4
REMARK VINA RESULT:    -3.988      2.987      6.417
REMARK INTER + INTRA:         -12.126
REMARK INTER:                  -8.446
REMARK INTRA:                  -3.681
REMARK UNBOUND:                -3.475
REMARK SMILES CCCCCCCCCCCCCCCCCCCCCC(=O)[O-]
REMARK SMILES IDX 12 1 11 2 10 3 9 4 8 5 7 6 6 7 5 8 4 9 3 10 2 11 1 12 13 13
REMARK SMILES IDX 14 14 15 15 16 16 17 17 18 18 19 19 20 20 21 21 22 22 23 23
REMARK SMILES IDX 24 24
REMARK H PARENT
REMARK Flexibility Score: inf
ROOT
ATOM      1  C   UNL     1       5.251  12.850  12.998  1.00  0.00     0.000 C 
ENDROOT
BRANCH   1   2
ATOM      2  C   UNL     1       5.829  11.690  12.157  1.00  0.00     0.000 C 
BRANCH   2   3
ATOM      3  C   UNL     1       6.610  12.193  10.931  1.00  0.00     0.000 C 
BRANCH   3   4
ATOM      4  C   UNL     1       8.101  12.412  11.231  1.00  0.00    -0.000 C 
BRANCH   4   5
ATOM      5  C   UNL     1       8.675  11.352  12.190  1.00  0.00    -0.000 C 
BRANCH   5   6
ATOM      6  C   UNL     1      10.142  11.015  11.885  1.00  0.00    -0.000 C 
BRANCH   6   7
ATOM      7  C   UNL     1      10.293   9.769  10.992  1.00  0.00    -0.000 C 
BRANCH   7   8
ATOM      8  C   UNL     1       8.936   9.089  10.704  1.00  0.00    -0.000 C 
BRANCH   8   9
ATOM      9  C   UNL     1       8.663   8.853   9.205  1.00  0.00    -0.000 C 
BRANCH   9  10
ATOM     10  C   UNL     1       8.602  10.128   8.349  1.00  0.00    -0.000 C 
BRANCH  10  11
ATOM     11  C   UNL     1       7.244  10.316   7.657  1.00  0.00    -0.003 C 
ATOM     12  C   UNL     1       6.151   9.522   8.369  1.00  0.00     0.004 C 
ENDBRANCH  10  11
ENDBRANCH   9  10
ENDBRANCH   8   9
ENDBRANCH   7   8
ENDBRANCH   6   7
ENDBRANCH   5   6
ENDBRANCH   4   5
ENDBRANCH   3   4
ENDBRANCH   2   3
ENDBRANCH   1   2
BRANCH   1  13
ATOM     13  C   UNL     1       4.809  14.064  12.158  1.00  0.00     0.000 C 
BRANCH  13  14
ATOM     14  C   UNL     1       3.323  14.440  12.295  1.00  0.00     0.000 C 
BRANCH  14  15
ATOM     15  C   UNL     1       2.594  14.477  10.939  1.00  0.00     0.000 C 
BRANCH  15  16
ATOM     16  C   UNL     1       3.308  13.640   9.865  1.00  0.00     0.000 C 
BRANCH  16  17
ATOM     17  C   UNL     1       2.477  12.427   9.413  1.00  0.00     0.000 C 
BRANCH  17  18
ATOM     18  C   UNL     1       3.112  11.091   9.828  1.00  0.00     0.000 C 
BRANCH  18  19
ATOM     19  C   UNL     1       2.197  10.258  10.744  1.00  0.00     0.000 C 
BRANCH  19  20
ATOM     20  C   UNL     1       2.230  10.734  12.207  1.00  0.00     0.006 C 
BRANCH  20  21
ATOM     21  C   UNL     1       0.846  10.829  12.868  1.00  0.00     0.053 C 
BRANCH  21  22
ATOM     22  C   UNL     1       0.262  12.204  12.750  1.00  0.00     0.041 C 
ATOM     23  O   UNL     1       0.350  13.016  13.710  1.00  0.00    -0.550 OA
ATOM     24  O   UNL     1      -0.362  12.596  11.573  1.00  0.00    -0.550 OA
ENDBRANCH  21  22
ENDBRANCH  20  21
ENDBRANCH  19  20
ENDBRANCH  18  19
ENDBRANCH  17  18
ENDBRANCH  16  17
ENDBRANCH  15  16
ENDBRANCH  14  15
ENDBRANCH  13  14
ENDBRANCH   1  13
TORSDOF 20
ENDMDL
MODEL 5
REMARK VINA RESULT:    -3.977      2.102      6.193
REMARK INTER + INTRA:         -12.102
REMARK INTER:                  -9.157
REMARK INTRA:                  -2.945
REMARK UNBOUND:                -3.475
REMARK SMILES CCCCCCCCCCCCCCCCCCCCCC(=O)[O-]
REMARK SMILES IDX 12 1 11 2 10 3 9 4 8 5 7 6 6 7 5 8 4 9 3 10 2 11 1 12 13 13
REMARK SMILES IDX 14 14 15 15 16 16 17 17 18 18 19 19 20 20 21 21 22 22 23 23
REMARK SMILES IDX 24 24
REMARK H PARENT
REMARK Flexibility Score: inf
ROOT
ATOM      1  C   UNL     1       4.632  13.529  11.747  1.00  0.00     0.000 C 
ENDROOT
BRANCH   1   2
ATOM      2  C   UNL     1       5.939  13.852  10.990  1.00  0.00     0.000 C 
BRANCH   2   3
ATOM      3  C   UNL     1       7.062  12.851  11.314  1.00  0.00     0.000 C 
BRANCH   3   4
ATOM      4  C   UNL     1       6.530  11.432  11.570  1.00  0.00    -0.000 C 
BRANCH   4   5
ATOM      5  C   UNL     1       6.797  10.477  10.391  1.00  0.00    -0.000 C 
BRANCH   5   6
ATOM      6  C   UNL     1       7.943  10.962   9.489  1.00  0.00    -0.000 C 
BRANCH   6   7
ATOM      7  C   UNL     1       8.491   9.849   8.575  1.00  0.00    -0.000 C 
BRANCH   7   8
ATOM      8  C   UNL     1       9.854   9.310   9.065  1.00  0.00    -0.000 C 
BRANCH   8   9
ATOM      9  C   UNL     1       9.859   8.889  10.548  1.00  0.00    -0.000 C 
BRANCH   9  10
ATOM     10  C   UNL     1      10.896   9.612  11.423  1.00  0.00    -0.000 C 
BRANCH  10  11
ATOM     11  C   UNL     1      10.288  10.764  12.236  1.00  0.00    -0.003 C 
ATOM     12  C   UNL     1      10.696  12.117  11.659  1.00  0.00     0.004 C 
ENDBRANCH  10  11
ENDBRANCH   9  10
ENDBRANCH   8   9
ENDBRANCH   7   8
ENDBRANCH   6   7
ENDBRANCH   5   6
ENDBRANCH   4   5
ENDBRANCH   3   4
ENDBRANCH   2   3
ENDBRANCH   1   2
BRANCH   1  13
ATOM     13  C   UNL     1       3.691  14.740  11.902  1.00  0.00     0.000 C 
BRANCH  13  14
ATOM     14  C   UNL     1       2.293  14.557  11.284  1.00  0.00     0.000 C 
BRANCH  14  15
ATOM     15  C   UNL     1       1.858  15.765  10.434  1.00  0.00     0.000 C 
BRANCH  15  16
ATOM     16  C   UNL     1       1.510  15.373   8.989  1.00  0.00     0.000 C 
BRANCH  16  17
ATOM     17  C   UNL     1       1.669  13.864   8.732  1.00  0.00     0.000 C 
BRANCH  17  18
ATOM     18  C   UNL     1       2.718  13.558   7.653  1.00  0.00     0.000 C 
BRANCH  18  19
ATOM     19  C   UNL     1       3.815  12.599   8.147  1.00  0.00     0.000 C 
BRANCH  19  20
ATOM     20  C   UNL     1       3.261  11.467   9.031  1.00  0.00     0.006 C 
BRANCH  20  21
ATOM     21  C   UNL     1       2.361  10.471   8.286  1.00  0.00     0.053 C 
BRANCH  21  22
ATOM     22  C   UNL     1       3.066   9.179   8.003  1.00  0.00     0.041 C 
ATOM     23  O   UNL     1       2.469   8.248   7.399  1.00  0.00    -0.550 OA
ATOM     24  O   UNL     1       4.389   9.011   8.390  1.00  0.00    -0.550 OA
ENDBRANCH  21  22
ENDBRANCH  20  21
ENDBRANCH  19  20
ENDBRANCH  18  19
ENDBRANCH  17  18
ENDBRANCH  16  17
ENDBRANCH  15  16
ENDBRANCH  14  15
ENDBRANCH  13  14
ENDBRANCH   1  13
TORSDOF 20
ENDMDL
MODEL 6
REMARK VINA RESULT:    -3.942      1.973      4.133
REMARK INTER + INTRA:         -12.027
REMARK INTER:                  -8.547
REMARK INTRA:                  -3.479
REMARK UNBOUND:                -3.475
REMARK SMILES CCCCCCCCCCCCCCCCCCCCCC(=O)[O-]
REMARK SMILES IDX 12 1 11 2 10 3 9 4 8 5 7 6 6 7 5 8 4 9 3 10 2 11 1 12 13 13
REMARK SMILES IDX 14 14 15 15 16 16 17 17 18 18 19 19 20 20 21 21 22 22 23 23
REMARK SMILES IDX 24 24
REMARK H PARENT
REMARK Flexibility Score: inf
ROOT
ATOM      1  C   UNL     1       4.480  13.596  13.089  1.00  0.00     0.000 C 
ENDROOT
BRANCH   1   2
ATOM      2  C   UNL     1       3.327  14.397  13.735  1.00  0.00     0.000 C 
BRANCH   2   3
ATOM      3  C   UNL     1       1.949  13.961  13.208  1.00  0.00     0.000 C 
BRANCH   3   4
ATOM      4  C   UNL     1       1.749  12.439  13.269  1.00  0.00    -0.000 C 
BRANCH   4   5
ATOM      5  C   UNL     1       1.156  11.867  11.967  1.00  0.00    -0.000 C 
BRANCH   5   6
ATOM      6  C   UNL     1       1.646  10.441  11.673  1.00  0.00    -0.000 C 
BRANCH   6   7
ATOM      7  C   UNL     1       2.344  10.323  10.305  1.00  0.00    -0.000 C 
BRANCH   7   8
ATOM      8  C   UNL     1       3.539  11.294  10.173  1.00  0.00    -0.000 C 
BRANCH   8   9
ATOM      9  C   UNL     1       3.736  11.848   8.749  1.00  0.00    -0.000 C 
BRANCH   9  10
ATOM     10  C   UNL     1       3.490  13.359   8.602  1.00  0.00    -0.000 C 
BRANCH  10  11
ATOM     11  C   UNL     1       2.010  13.739   8.754  1.00  0.00    -0.003 C 
ATOM     12  C   UNL     1       1.836  14.873   9.761  1.00  0.00     0.004 C 
ENDBRANCH  10  11
ENDBRANCH   9  10
ENDBRANCH   8   9
ENDBRANCH   7   8
ENDBRANCH   6   7
ENDBRANCH   5   6
ENDBRANCH   4   5
ENDBRANCH   3   4
ENDBRANCH   2   3
ENDBRANCH   1   2
BRANCH   1  13
ATOM     13  C   UNL     1       5.032  14.236  11.801  1.00  0.00     0.000 C 
BRANCH  13  14
ATOM     14  C   UNL     1       6.255  13.523  11.196  1.00  0.00     0.000 C 
BRANCH  14  15
ATOM     15  C   UNL     1       6.897  12.519  12.172  1.00  0.00     0.000 C 
BRANCH  15  16
ATOM     16  C   UNL     1       6.933  11.090  11.606  1.00  0.00     0.000 C 
BRANCH  16  17
ATOM     17  C   UNL     1       8.350  10.651  11.199  1.00  0.00     0.000 C 
BRANCH  17  18
ATOM     18  C   UNL     1       8.346   9.659  10.027  1.00  0.00     0.000 C 
BRANCH  18  19
ATOM     19  C   UNL     1       8.253  10.357   8.658  1.00  0.00     0.000 C 
BRANCH  19  20
ATOM     20  C   UNL     1       6.940  10.041   7.919  1.00  0.00     0.006 C 
BRANCH  20  21
ATOM     21  C   UNL     1       6.069   8.982   8.610  1.00  0.00     0.053 C 
BRANCH  21  22
ATOM     22  C   UNL     1       6.190   7.641   7.952  1.00  0.00     0.041 C 
ATOM     23  O   UNL     1       6.312   7.555   6.701  1.00  0.00    -0.550 OA
ATOM     24  O   UNL     1       6.186   6.486   8.723  1.00  0.00    -0.550 OA
ENDBRANCH  21  22
ENDBRANCH  20  21
ENDBRANCH  19  20
ENDBRANCH  18  19
ENDBRANCH  17  18
ENDBRANCH  16  17
ENDBRANCH  15  16
ENDBRANCH  14  15
ENDBRANCH  13  14
ENDBRANCH   1  13
TORSDOF 20
ENDMDL
MODEL 7
REMARK VINA RESULT:    -3.917      2.959      7.103
REMARK INTER + INTRA:         -11.973
REMARK INTER:                  -8.169
REMARK INTRA:                  -3.805
REMARK UNBOUND:                -3.475
REMARK SMILES CCCCCCCCCCCCCCCCCCCCCC(=O)[O-]
REMARK SMILES IDX 12 1 11 2 10 3 9 4 8 5 7 6 6 7 5 8 4 9 3 10 2 11 1 12 13 13
REMARK SMILES IDX 14 14 15 15 16 16 17 17 18 18 19 19 20 20 21 21 22 22 23 23
REMARK SMILES IDX 24 24
REMARK H PARENT
REMARK Flexibility Score: inf
ROOT
ATOM      1  C   UNL     1       7.260  10.482   7.910  1.00  0.00     0.000 C 
ENDROOT
BRANCH   1   2
ATOM      2  C   UNL     1       7.193   8.990   7.515  1.00  0.00     0.000 C 
BRANCH   2   3
ATOM      3  C   UNL     1       5.968   8.282   8.121  1.00  0.00     0.000 C 
BRANCH   3   4
ATOM      4  C   UNL     1       6.356   7.096   9.018  1.00  0.00    -0.000 C 
BRANCH   4   5
ATOM      5  C   UNL     1       7.809   6.635   8.795  1.00  0.00    -0.000 C 
BRANCH   5   6
ATOM      6  C   UNL     1       8.548   6.358  10.113  1.00  0.00    -0.000 C 
BRANCH   6   7
ATOM      7  C   UNL     1       9.403   7.552  10.578  1.00  0.00    -0.000 C 
BRANCH   7   8
ATOM      8  C   UNL     1      10.485   7.933   9.543  1.00  0.00    -0.000 C 
BRANCH   8   9
ATOM      9  C   UNL     1      11.356   9.132   9.967  1.00  0.00    -0.000 C 
BRANCH   9  10
ATOM     10  C   UNL     1      11.550   9.288  11.484  1.00  0.00    -0.000 C 
BRANCH  10  11
ATOM     11  C   UNL     1      10.993  10.615  12.021  1.00  0.00    -0.003 C 
ATOM     12  C   UNL     1      11.394  11.781  11.122  1.00  0.00     0.004 C 
ENDBRANCH  10  11
ENDBRANCH   9  10
ENDBRANCH   8   9
ENDBRANCH   7   8
ENDBRANCH   6   7
ENDBRANCH   5   6
ENDBRANCH   4   5
ENDBRANCH   3   4
ENDBRANCH   2   3
ENDBRANCH   1   2
BRANCH   1  13
ATOM     13  C   UNL     1       8.247  10.776   9.056  1.00  0.00     0.000 C 
BRANCH  13  14
ATOM     14  C   UNL     1       7.615  10.823  10.459  1.00  0.00     0.000 C 
BRANCH  14  15
ATOM     15  C   UNL     1       7.731  12.213  11.114  1.00  0.00     0.000 C 
BRANCH  15  16
ATOM     16  C   UNL     1       7.079  12.263  12.505  1.00  0.00     0.000 C 
BRANCH  16  17
ATOM     17  C   UNL     1       5.733  13.009  12.499  1.00  0.00     0.000 C 
BRANCH  17  18
ATOM     18  C   UNL     1       5.541  13.867  11.239  1.00  0.00     0.000 C 
BRANCH  18  19
ATOM     19  C   UNL     1       4.217  13.567  10.513  1.00  0.00     0.000 C 
BRANCH  19  20
ATOM     20  C   UNL     1       4.374  12.510   9.405  1.00  0.00     0.006 C 
BRANCH  20  21
ATOM     21  C   UNL     1       3.993  11.086   9.836  1.00  0.00     0.053 C 
BRANCH  21  22
ATOM     22  C   UNL     1       2.702  11.057  10.596  1.00  0.00     0.041 C 
ATOM     23  O   UNL     1       1.611  11.274  10.004  1.00  0.00    -0.550 OA
ATOM     24  O   UNL     1       2.701  10.772  11.955  1.00  0.00    -0.550 OA
ENDBRANCH  21  22
ENDBRANCH  20  21
ENDBRANCH  19  20
ENDBRANCH  18  19
ENDBRANCH  17  18
ENDBRANCH  16  17
ENDBRANCH  15  16
ENDBRANCH  14  15
ENDBRANCH  13  14
ENDBRANCH   1  13
TORSDOF 20
ENDMDL
MODEL 8
REMARK VINA RESULT:    -3.913      1.490      3.281
REMARK INTER + INTRA:         -11.963
REMARK INTER:                  -8.099
REMARK INTRA:                  -3.865
REMARK UNBOUND:                -3.475
REMARK SMILES CCCCCCCCCCCCCCCCCCCCCC(=O)[O-]
REMARK SMILES IDX 12 1 11 2 10 3 9 4 8 5 7 6 6 7 5 8 4 9 3 10 2 11 1 12 13 13
REMARK SMILES IDX 14 14 15 15 16 16 17 17 18 18 19 19 20 20 21 21 22 22 23 23
REMARK SMILES IDX 24 24
REMARK H PARENT
REMARK Flexibility Score: inf
ROOT
ATOM      1  C   UNL     1       2.565  13.041  13.613  1.00  0.00     0.000 C 
ENDROOT
BRANCH   1   2
ATOM      2  C   UNL     1       1.153  13.109  12.991  1.00  0.00     0.000 C 
BRANCH   2   3
ATOM      3  C   UNL     1       0.932  12.017  11.930  1.00  0.00     0.000 C 
BRANCH   3   4
ATOM      4  C   UNL     1       2.198  11.190  11.662  1.00  0.00    -0.000 C 
BRANCH   4   5
ATOM      5  C   UNL     1       1.991  10.126  10.568  1.00  0.00    -0.000 C 
BRANCH   5   6
ATOM      6  C   UNL     1       3.096  10.155   9.501  1.00  0.00    -0.000 C 
BRANCH   6   7
ATOM      7  C   UNL     1       2.541  10.328   8.075  1.00  0.00    -0.000 C 
BRANCH   7   8
ATOM      8  C   UNL     1       1.428  11.397   8.006  1.00  0.00    -0.000 C 
BRANCH   8   9
ATOM      9  C   UNL     1       1.924  12.783   7.548  1.00  0.00    -0.000 C 
BRANCH   9  10
ATOM     10  C   UNL     1       2.362  13.722   8.684  1.00  0.00    -0.000 C 
BRANCH  10  11
ATOM     11  C   UNL     1       1.207  14.574   9.231  1.00  0.00    -0.003 C 
ATOM     12  C   UNL     1       1.716  15.616  10.223  1.00  0.00     0.004 C 
ENDBRANCH  10  11
ENDBRANCH   9  10
ENDBRANCH   8   9
ENDBRANCH   7   8
ENDBRANCH   6   7
ENDBRANCH   5   6
ENDBRANCH   4   5
ENDBRANCH   3   4
ENDBRANCH   2   3
ENDBRANCH   1   2
BRANCH   1  13
ATOM     13  C   UNL     1       3.435  14.277  13.311  1.00  0.00     0.000 C 
BRANCH  13  14
ATOM     14  C   UNL     1       4.830  13.963  12.739  1.00  0.00     0.000 C 
BRANCH  14  15
ATOM     15  C   UNL     1       4.834  13.882  11.201  1.00  0.00     0.000 C 
BRANCH  15  16
ATOM     16  C   UNL     1       5.527  12.611  10.681  1.00  0.00     0.000 C 
BRANCH  16  17
ATOM     17  C   UNL     1       5.887  11.632  11.812  1.00  0.00     0.000 C 
BRANCH  17  18
ATOM     18  C   UNL     1       7.392  11.328  11.871  1.00  0.00     0.000 C 
BRANCH  18  19
ATOM     19  C   UNL     1       8.172  11.966  10.708  1.00  0.00     0.000 C 
BRANCH  19  20
ATOM     20  C   UNL     1       8.741  10.921   9.731  1.00  0.00     0.006 C 
BRANCH  20  21
ATOM     21  C   UNL     1       7.801  10.573   8.566  1.00  0.00     0.053 C 
BRANCH  21  22
ATOM     22  C   UNL     1       7.062   9.292   8.805  1.00  0.00     0.041 C 
ATOM     23  O   UNL     1       6.097   8.967   8.062  1.00  0.00    -0.550 OA
ATOM     24  O   UNL     1       7.450   8.447   9.836  1.00  0.00    -0.550 OA
ENDBRANCH  21  22
ENDBRANCH  20  21
ENDBRANCH  19  20
ENDBRANCH  18  19
ENDBRANCH  17  18
ENDBRANCH  16  17
ENDBRANCH  15  16
ENDBRANCH  14  15
ENDBRANCH  13  14
ENDBRANCH   1  13
TORSDOF 20
ENDMDL
MODEL 9
REMARK VINA RESULT:    -3.888      1.928      4.452
REMARK INTER + INTRA:         -11.909
REMARK INTER:                  -8.433
REMARK INTRA:                  -3.475
REMARK UNBOUND:                -3.475
REMARK SMILES CCCCCCCCCCCCCCCCCCCCCC(=O)[O-]
REMARK SMILES IDX 12 1 11 2 10 3 9 4 8 5 7 6 6 7 5 8 4 9 3 10 2 11 1 12 13 13
REMARK SMILES IDX 14 14 15 15 16 16 17 17 18 18 19 19 20 20 21 21 22 22 23 23
REMARK SMILES IDX 24 24
REMARK H PARENT
REMARK Flexibility Score: inf
ROOT
ATOM      1  C   UNL     1       3.070  11.353   8.790  1.00  0.00     0.000 C 
ENDROOT
BRANCH   1   2
ATOM      2  C   UNL     1       3.734  12.359   7.824  1.00  0.00     0.000 C 
BRANCH   2   3
ATOM      3  C   UNL     1       3.425  13.819   8.202  1.00  0.00     0.000 C 
BRANCH   3   4
ATOM      4  C   UNL     1       1.990  14.230   7.839  1.00  0.00    -0.000 C 
BRANCH   4   5
ATOM      5  C   UNL     1       1.295  15.015   8.968  1.00  0.00    -0.000 C 
BRANCH   5   6
ATOM      6  C   UNL     1       2.005  14.852  10.321  1.00  0.00    -0.000 C 
BRANCH   6   7
ATOM      7  C   UNL     1       1.454  13.671  11.142  1.00  0.00    -0.000 C 
BRANCH   7   8
ATOM      8  C   UNL     1       2.004  13.656  12.586  1.00  0.00    -0.000 C 
BRANCH   8   9
ATOM      9  C   UNL     1       2.753  12.360  12.953  1.00  0.00    -0.000 C 
BRANCH   9  10
ATOM     10  C   UNL     1       4.264  12.383  12.672  1.00  0.00    -0.000 C 
BRANCH  10  11
ATOM     11  C   UNL     1       4.830  13.807  12.574  1.00  0.00    -0.003 C 
ATOM     12  C   UNL     1       5.534  14.027  11.238  1.00  0.00     0.004 C 
ENDBRANCH  10  11
ENDBRANCH   9  10
ENDBRANCH   8   9
ENDBRANCH   7   8
ENDBRANCH   6   7
ENDBRANCH   5   6
ENDBRANCH   4   5
ENDBRANCH   3   4
ENDBRANCH   2   3
ENDBRANCH   1   2
BRANCH   1  13
ATOM     13  C   UNL     1       4.078  10.502   9.587  1.00  0.00     0.000 C 
BRANCH  13  14
ATOM     14  C   UNL     1       5.558  10.823   9.312  1.00  0.00     0.000 C 
BRANCH  14  15
ATOM     15  C   UNL     1       6.258   9.726   8.488  1.00  0.00     0.000 C 
BRANCH  15  16
ATOM     16  C   UNL     1       7.786   9.895   8.462  1.00  0.00     0.000 C 
BRANCH  16  17
ATOM     17  C   UNL     1       8.499   8.973   9.466  1.00  0.00     0.000 C 
BRANCH  17  18
ATOM     18  C   UNL     1       9.099   9.745  10.651  1.00  0.00     0.000 C 
BRANCH  18  19
ATOM     19  C   UNL     1       9.391  11.218  10.314  1.00  0.00     0.000 C 
BRANCH  19  20
ATOM     20  C   UNL     1       8.676  12.197  11.263  1.00  0.00     0.006 C 
BRANCH  20  21
ATOM     21  C   UNL     1       7.772  11.518  12.302  1.00  0.00     0.053 C 
BRANCH  21  22
ATOM     22  C   UNL     1       8.079  11.973  13.697  1.00  0.00     0.041 C 
ATOM     23  O   UNL     1       9.229  12.402  13.985  1.00  0.00    -0.550 OA
ATOM     24  O   UNL     1       7.092  11.940  14.673  1.00  0.00    -0.550 OA
ENDBRANCH  21  22
ENDBRANCH  20  21
ENDBRANCH  19  20
ENDBRANCH  18  19
ENDBRANCH  17  18
ENDBRANCH  16  17
ENDBRANCH  15  16
ENDBRANCH  14  15
ENDBRANCH  13  14
ENDBRANCH   1  13
TORSDOF 20
ENDMDL
