MODEL 1
REMARK VINA RESULT:    -4.419      0.000      0.000
REMARK INTER + INTRA:          -5.736
REMARK INTER:                  -5.323
REMARK INTRA:                  -0.413
REMARK UNBOUND:                -0.413
REMARK SMILES O=c1c(O)c(-c2ccc(O)cc2O)oc2cc(O)cc(O)c12
REMARK SMILES IDX 5 1 3 2 2 3 1 4 22 5 20 6 19 7 17 8 16 9 15 10 14 11 6 12
REMARK SMILES IDX 8 13 7 14 9 15 11 16 12 17 10 18 13 20 4 22 21 24 18 26
REMARK H PARENT 10 19 13 21 4 23 21 25 18 27
REMARK Flexibility Score: inf
ROOT
ATOM      1  C   UNL     1      20.759  34.040  43.034  1.00  0.00     0.184 A 
ATOM      2  C   UNL     1      22.026  33.711  43.540  1.00  0.00     0.208 A 
ATOM      3  C   UNL     1      22.496  34.374  44.685  1.00  0.00     0.238 A 
ATOM      4  O   UNL     1      23.609  34.037  45.165  1.00  0.00    -0.285 OA
ATOM      5  C   UNL     1      21.696  35.369  45.299  1.00  0.00     0.111 A 
ATOM      6  C   UNL     1      22.087  36.132  46.440  1.00  0.00     0.134 A 
ATOM      7  C   UNL     1      21.164  36.998  47.041  1.00  0.00     0.093 A 
ATOM      8  C   UNL     1      19.890  37.175  46.506  1.00  0.00     0.123 A 
ATOM      9  C   UNL     1      19.516  36.479  45.356  1.00  0.00     0.094 A 
ATOM     10  C   UNL     1      20.402  35.581  44.754  1.00  0.00     0.146 A 
ATOM     11  O   UNL     1      20.004  34.929  43.668  1.00  0.00    -0.451 OA
ENDROOT
BRANCH   1  12
ATOM     12  C   UNL     1      20.214  33.392  41.823  1.00  0.00     0.063 A 
ATOM     13  C   UNL     1      18.896  31.600  40.840  1.00  0.00     0.047 A 
ATOM     14  C   UNL     1      19.432  32.235  41.964  1.00  0.00     0.020 A 
ATOM     15  C   UNL     1      19.123  32.121  39.564  1.00  0.00     0.119 A 
ATOM     16  C   UNL     1      19.882  33.288  39.414  1.00  0.00     0.093 A 
ATOM     17  C   UNL     1      20.419  33.936  40.537  1.00  0.00     0.130 A 
BRANCH  15  18
ATOM     18  O   UNL     1      18.587  31.475  38.452  1.00  0.00    -0.508 OA
ATOM     19  H   UNL     1      17.602  31.541  38.225  1.00  0.00     0.293 HD
ENDBRANCH  15  18
BRANCH  17  20
ATOM     20  O   UNL     1      21.132  35.125  40.380  1.00  0.00    -0.507 OA
ATOM     21  H   UNL     1      20.717  35.938  39.940  1.00  0.00     0.293 HD
ENDBRANCH  17  20
ENDBRANCH   1  12
BRANCH   2  22
ATOM     22  O   UNL     1      22.786  32.713  42.924  1.00  0.00    -0.502 OA
ATOM     23  H   UNL     1      23.778  32.602  43.095  1.00  0.00     0.293 HD
ENDBRANCH   2  22
BRANCH   6  24
ATOM     24  O   UNL     1      23.368  36.098  47.000  1.00  0.00    -0.507 OA
ATOM     25  H   UNL     1      24.160  36.617  46.653  1.00  0.00     0.293 HD
ENDBRANCH   6  24
BRANCH   8  26
ATOM     26  O   UNL     1      19.003  38.057  47.121  1.00  0.00    -0.508 OA
ATOM     27  H   UNL     1      19.246  38.540  47.979  1.00  0.00     0.293 HD
ENDBRANCH   8  26
TORSDOF 6
ENDMDL
MODEL 2
REMARK VINA RESULT:    -4.293      3.049      3.453
REMARK INTER + INTRA:          -5.584
REMARK INTER:                  -5.202
REMARK INTRA:                  -0.383
REMARK UNBOUND:                -0.413
REMARK SMILES O=c1c(O)c(-c2ccc(O)cc2O)oc2cc(O)cc(O)c12
REMARK SMILES IDX 5 1 3 2 2 3 1 4 22 5 20 6 19 7 17 8 16 9 15 10 14 11 6 12
REMARK SMILES IDX 8 13 7 14 9 15 11 16 12 17 10 18 13 20 4 22 21 24 18 26
REMARK H PARENT 10 19 13 21 4 23 21 25 18 27
REMARK Flexibility Score: inf
ROOT
ATOM      1  C   UNL     1      18.657  34.576  43.514  1.00  0.00     0.184 A 
ATOM      2  C   UNL     1      19.310  33.335  43.499  1.00  0.00     0.208 A 
ATOM      3  C   UNL     1      20.526  33.196  44.188  1.00  0.00     0.238 A 
ATOM      4  O   UNL     1      21.080  32.066  44.216  1.00  0.00    -0.285 OA
ATOM      5  C   UNL     1      21.078  34.308  44.870  1.00  0.00     0.111 A 
ATOM      6  C   UNL     1      22.323  34.293  45.567  1.00  0.00     0.134 A 
ATOM      7  C   UNL     1      22.710  35.413  46.314  1.00  0.00     0.093 A 
ATOM      8  C   UNL     1      21.929  36.567  46.336  1.00  0.00     0.123 A 
ATOM      9  C   UNL     1      20.739  36.615  45.610  1.00  0.00     0.094 A 
ATOM     10  C   UNL     1      20.309  35.501  44.884  1.00  0.00     0.146 A 
ATOM     11  O   UNL     1      19.165  35.583  44.216  1.00  0.00    -0.451 OA
ENDROOT
BRANCH   1  12
ATOM     12  C   UNL     1      17.384  34.793  42.795  1.00  0.00     0.063 A 
ATOM     13  C   UNL     1      14.962  34.992  42.874  1.00  0.00     0.047 A 
ATOM     14  C   UNL     1      16.183  34.784  43.521  1.00  0.00     0.020 A 
ATOM     15  C   UNL     1      14.928  35.224  41.497  1.00  0.00     0.119 A 
ATOM     16  C   UNL     1      16.122  35.259  40.767  1.00  0.00     0.093 A 
ATOM     17  C   UNL     1      17.353  35.057  41.410  1.00  0.00     0.130 A 
BRANCH  15  18
ATOM     18  O   UNL     1      13.702  35.425  40.863  1.00  0.00    -0.508 OA
ATOM     19  H   UNL     1      13.432  34.885  40.051  1.00  0.00     0.293 HD
ENDBRANCH  15  18
BRANCH  17  20
ATOM     20  O   UNL     1      18.539  35.143  40.681  1.00  0.00    -0.507 OA
ATOM     21  H   UNL     1      18.772  35.967  40.139  1.00  0.00     0.293 HD
ENDBRANCH  17  20
ENDBRANCH   1  12
BRANCH   2  22
ATOM     22  O   UNL     1      18.733  32.249  42.834  1.00  0.00    -0.502 OA
ATOM     23  H   UNL     1      18.349  31.452  43.326  1.00  0.00     0.293 HD
ENDBRANCH   2  22
BRANCH   6  24
ATOM     24  O   UNL     1      23.222  33.223  45.537  1.00  0.00    -0.507 OA
ATOM     25  H   UNL     1      23.131  32.412  44.944  1.00  0.00     0.293 HD
ENDBRANCH   6  24
BRANCH   8  26
ATOM     26  O   UNL     1      22.353  37.669  47.078  1.00  0.00    -0.508 OA
ATOM     27  H   UNL     1      22.592  37.586  48.060  1.00  0.00     0.293 HD
ENDBRANCH   8  26
TORSDOF 6
ENDMDL
MODEL 3
REMARK VINA RESULT:    -4.167      1.240      2.897
REMARK INTER + INTRA:          -5.433
REMARK INTER:                  -5.051
REMARK INTRA:                  -0.382
REMARK UNBOUND:                -0.413
REMARK SMILES O=c1c(O)c(-c2ccc(O)cc2O)oc2cc(O)cc(O)c12
REMARK SMILES IDX 5 1 3 2 2 3 1 4 22 5 20 6 19 7 17 8 16 9 15 10 14 11 6 12
REMARK SMILES IDX 8 13 7 14 9 15 11 16 12 17 10 18 13 20 4 22 21 24 18 26
REMARK H PARENT 10 19 13 21 4 23 21 25 18 27
REMARK Flexibility Score: inf
ROOT
ATOM      1  C   UNL     1      19.857  34.182  43.268  1.00  0.00     0.184 A 
ATOM      2  C   UNL     1      19.055  35.267  43.652  1.00  0.00     0.208 A 
ATOM      3  C   UNL     1      19.484  36.095  44.702  1.00  0.00     0.238 A 
ATOM      4  O   UNL     1      18.788  37.098  45.006  1.00  0.00    -0.285 OA
ATOM      5  C   UNL     1      20.705  35.815  45.363  1.00  0.00     0.111 A 
ATOM      6  C   UNL     1      21.220  36.563  46.464  1.00  0.00     0.134 A 
ATOM      7  C   UNL     1      22.499  36.275  46.957  1.00  0.00     0.093 A 
ATOM      8  C   UNL     1      23.254  35.228  46.431  1.00  0.00     0.123 A 
ATOM      9  C   UNL     1      22.737  34.452  45.393  1.00  0.00     0.094 A 
ATOM     10  C   UNL     1      21.479  34.737  44.857  1.00  0.00     0.146 A 
ATOM     11  O   UNL     1      21.027  33.982  43.862  1.00  0.00    -0.451 OA
ENDROOT
BRANCH   1  12
ATOM     12  C   UNL     1      19.453  33.263  42.184  1.00  0.00     0.063 A 
ATOM     13  C   UNL     1      18.383  31.185  41.513  1.00  0.00     0.047 A 
ATOM     14  C   UNL     1      18.784  32.074  42.514  1.00  0.00     0.020 A 
ATOM     15  C   UNL     1      18.634  31.479  40.171  1.00  0.00     0.119 A 
ATOM     16  C   UNL     1      19.280  32.673  39.829  1.00  0.00     0.093 A 
ATOM     17  C   UNL     1      19.681  33.575  40.827  1.00  0.00     0.130 A 
BRANCH  15  18
ATOM     18  O   UNL     1      18.233  30.581  39.183  1.00  0.00    -0.508 OA
ATOM     19  H   UNL     1      18.822  30.373  38.386  1.00  0.00     0.293 HD
ENDBRANCH  15  18
BRANCH  17  20
ATOM     20  O   UNL     1      20.279  34.784  40.472  1.00  0.00    -0.507 OA
ATOM     21  H   UNL     1      20.775  34.893  39.595  1.00  0.00     0.293 HD
ENDBRANCH  17  20
ENDBRANCH   1  12
BRANCH   2  22
ATOM     22  O   UNL     1      17.863  35.531  42.970  1.00  0.00    -0.502 OA
ATOM     23  H   UNL     1      17.385  36.421  43.036  1.00  0.00     0.293 HD
ENDBRANCH   2  22
BRANCH   6  24
ATOM     24  O   UNL     1      20.509  37.570  47.123  1.00  0.00    -0.507 OA
ATOM     25  H   UNL     1      19.597  37.902  46.851  1.00  0.00     0.293 HD
ENDBRANCH   6  24
BRANCH   8  26
ATOM     26  O   UNL     1      24.517  34.961  46.957  1.00  0.00    -0.508 OA
ATOM     27  H   UNL     1      25.087  34.199  46.605  1.00  0.00     0.293 HD
ENDBRANCH   8  26
TORSDOF 6
ENDMDL
MODEL 4
REMARK VINA RESULT:    -4.135      2.734      4.197
REMARK INTER + INTRA:          -5.394
REMARK INTER:                  -4.973
REMARK INTRA:                  -0.421
REMARK UNBOUND:                -0.413
REMARK SMILES O=c1c(O)c(-c2ccc(O)cc2O)oc2cc(O)cc(O)c12
REMARK SMILES IDX 5 1 3 2 2 3 1 4 22 5 20 6 19 7 17 8 16 9 15 10 14 11 6 12
REMARK SMILES IDX 8 13 7 14 9 15 11 16 12 17 10 18 13 20 4 22 21 24 18 26
REMARK H PARENT 10 19 13 21 4 23 21 25 18 27
REMARK Flexibility Score: inf
ROOT
ATOM      1  C   UNL     1      19.357  34.829  44.219  1.00  0.00     0.184 A 
ATOM      2  C   UNL     1      19.770  36.016  44.843  1.00  0.00     0.208 A 
ATOM      3  C   UNL     1      21.020  36.050  45.481  1.00  0.00     0.238 A 
ATOM      4  O   UNL     1      21.409  37.132  45.992  1.00  0.00    -0.285 OA
ATOM      5  C   UNL     1      21.832  34.889  45.500  1.00  0.00     0.111 A 
ATOM      6  C   UNL     1      23.098  34.797  46.152  1.00  0.00     0.134 A 
ATOM      7  C   UNL     1      23.873  33.640  45.996  1.00  0.00     0.093 A 
ATOM      8  C   UNL     1      23.399  32.551  45.267  1.00  0.00     0.123 A 
ATOM      9  C   UNL     1      22.137  32.606  44.675  1.00  0.00     0.094 A 
ATOM     10  C   UNL     1      21.356  33.759  44.783  1.00  0.00     0.146 A 
ATOM     11  O   UNL     1      20.166  33.777  44.196  1.00  0.00    -0.451 OA
ENDROOT
BRANCH   1  12
ATOM     12  C   UNL     1      18.046  34.722  43.544  1.00  0.00     0.063 A 
ATOM     13  C   UNL     1      15.625  34.580  43.721  1.00  0.00     0.047 A 
ATOM     14  C   UNL     1      16.881  34.676  44.326  1.00  0.00     0.020 A 
ATOM     15  C   UNL     1      15.517  34.543  42.329  1.00  0.00     0.119 A 
ATOM     16  C   UNL     1      16.671  34.612  41.539  1.00  0.00     0.093 A 
ATOM     17  C   UNL     1      17.936  34.714  42.138  1.00  0.00     0.130 A 
BRANCH  15  18
ATOM     18  O   UNL     1      14.258  34.442  41.739  1.00  0.00    -0.508 OA
ATOM     19  H   UNL     1      13.626  33.684  41.966  1.00  0.00     0.293 HD
ENDBRANCH  15  18
BRANCH  17  20
ATOM     20  O   UNL     1      19.075  34.832  41.341  1.00  0.00    -0.507 OA
ATOM     21  H   UNL     1      19.478  35.735  41.121  1.00  0.00     0.293 HD
ENDBRANCH  17  20
ENDBRANCH   1  12
BRANCH   2  22
ATOM     22  O   UNL     1      18.957  37.151  44.793  1.00  0.00    -0.502 OA
ATOM     23  H   UNL     1      18.939  37.771  43.992  1.00  0.00     0.293 HD
ENDBRANCH   2  22
BRANCH   6  24
ATOM     24  O   UNL     1      23.625  35.794  46.978  1.00  0.00    -0.507 OA
ATOM     25  H   UNL     1      23.319  36.755  46.987  1.00  0.00     0.293 HD
ENDBRANCH   6  24
BRANCH   8  26
ATOM     26  O   UNL     1      24.191  31.410  45.146  1.00  0.00    -0.508 OA
ATOM     27  H   UNL     1      24.638  31.165  44.270  1.00  0.00     0.293 HD
ENDBRANCH   8  26
TORSDOF 6
ENDMDL
MODEL 5
REMARK VINA RESULT:    -4.029      1.908      3.515
REMARK INTER + INTRA:          -5.266
REMARK INTER:                  -4.858
REMARK INTRA:                  -0.408
REMARK UNBOUND:                -0.413
REMARK SMILES O=c1c(O)c(-c2ccc(O)cc2O)oc2cc(O)cc(O)c12
REMARK SMILES IDX 5 1 3 2 2 3 1 4 22 5 20 6 19 7 17 8 16 9 15 10 14 11 6 12
REMARK SMILES IDX 8 13 7 14 9 15 11 16 12 17 10 18 13 20 4 22 21 24 18 26
REMARK H PARENT 10 19 13 21 4 23 21 25 18 27
REMARK Flexibility Score: inf
ROOT
ATOM      1  C   UNL     1      19.849  34.222  43.790  1.00  0.00     0.184 A 
ATOM      2  C   UNL     1      19.729  35.486  44.387  1.00  0.00     0.208 A 
ATOM      3  C   UNL     1      20.764  35.949  45.214  1.00  0.00     0.238 A 
ATOM      4  O   UNL     1      20.676  37.106  45.703  1.00  0.00    -0.285 OA
ATOM      5  C   UNL     1      21.898  35.133  45.445  1.00  0.00     0.111 A 
ATOM      6  C   UNL     1      22.989  35.484  46.297  1.00  0.00     0.134 A 
ATOM      7  C   UNL     1      24.118  34.656  46.350  1.00  0.00     0.093 A 
ATOM      8  C   UNL     1      24.168  33.462  45.633  1.00  0.00     0.123 A 
ATOM      9  C   UNL     1      23.084  33.078  44.844  1.00  0.00     0.094 A 
ATOM     10  C   UNL     1      21.958  33.900  44.743  1.00  0.00     0.146 A 
ATOM     11  O   UNL     1      20.952  33.506  43.972  1.00  0.00    -0.451 OA
ENDROOT
BRANCH   1  12
ATOM     12  C   UNL     1      18.788  33.668  42.923  1.00  0.00     0.063 A 
ATOM     13  C   UNL     1      16.744  32.367  42.715  1.00  0.00     0.047 A 
ATOM     14  C   UNL     1      17.766  32.901  43.504  1.00  0.00     0.020 A 
ATOM     15  C   UNL     1      16.723  32.604  41.338  1.00  0.00     0.119 A 
ATOM     16  C   UNL     1      17.724  33.388  40.752  1.00  0.00     0.093 A 
ATOM     17  C   UNL     1      18.751  33.933  41.538  1.00  0.00     0.130 A 
BRANCH  15  18
ATOM     18  O   UNL     1      15.700  32.061  40.562  1.00  0.00    -0.508 OA
ATOM     19  H   UNL     1      15.895  31.574  39.696  1.00  0.00     0.293 HD
ENDBRANCH  15  18
BRANCH  17  20
ATOM     20  O   UNL     1      19.715  34.752  40.951  1.00  0.00    -0.507 OA
ATOM     21  H   UNL     1      20.580  34.979  41.427  1.00  0.00     0.293 HD
ENDBRANCH  17  20
ENDBRANCH   1  12
BRANCH   2  22
ATOM     22  O   UNL     1      18.607  36.278  44.126  1.00  0.00    -0.502 OA
ATOM     23  H   UNL     1      18.616  37.284  44.237  1.00  0.00     0.293 HD
ENDBRANCH   2  22
BRANCH   6  24
ATOM     24  O   UNL     1      23.001  36.610  47.125  1.00  0.00    -0.507 OA
ATOM     25  H   UNL     1      22.727  37.537  46.838  1.00  0.00     0.293 HD
ENDBRANCH   6  24
BRANCH   8  26
ATOM     26  O   UNL     1      25.302  32.655  45.723  1.00  0.00    -0.508 OA
ATOM     27  H   UNL     1      26.044  32.856  46.384  1.00  0.00     0.293 HD
ENDBRANCH   8  26
TORSDOF 6
ENDMDL
MODEL 6
REMARK VINA RESULT:    -4.012      2.961      5.283
REMARK INTER + INTRA:          -5.246
REMARK INTER:                  -4.826
REMARK INTRA:                  -0.419
REMARK UNBOUND:                -0.413
REMARK SMILES O=c1c(O)c(-c2ccc(O)cc2O)oc2cc(O)cc(O)c12
REMARK SMILES IDX 5 1 3 2 2 3 1 4 22 5 20 6 19 7 17 8 16 9 15 10 14 11 6 12
REMARK SMILES IDX 8 13 7 14 9 15 11 16 12 17 10 18 13 20 4 22 21 24 18 26
REMARK H PARENT 10 19 13 21 4 23 21 25 18 27
REMARK Flexibility Score: inf
ROOT
ATOM      1  C   UNL     1      22.813  33.829  45.595  1.00  0.00     0.184 A 
ATOM      2  C   UNL     1      23.041  35.022  46.297  1.00  0.00     0.208 A 
ATOM      3  C   UNL     1      22.066  36.031  46.261  1.00  0.00     0.238 A 
ATOM      4  O   UNL     1      22.252  37.077  46.937  1.00  0.00    -0.285 OA
ATOM      5  C   UNL     1      20.882  35.838  45.508  1.00  0.00     0.111 A 
ATOM      6  C   UNL     1      19.844  36.808  45.368  1.00  0.00     0.134 A 
ATOM      7  C   UNL     1      18.659  36.460  44.706  1.00  0.00     0.093 A 
ATOM      8  C   UNL     1      18.501  35.203  44.125  1.00  0.00     0.123 A 
ATOM      9  C   UNL     1      19.533  34.267  44.205  1.00  0.00     0.094 A 
ATOM     10  C   UNL     1      20.713  34.571  44.889  1.00  0.00     0.146 A 
ATOM     11  O   UNL     1      21.665  33.649  44.951  1.00  0.00    -0.451 OA
ENDROOT
BRANCH   1  12
ATOM     12  C   UNL     1      23.806  32.735  45.578  1.00  0.00     0.063 A 
ATOM     13  C   UNL     1      24.833  30.845  46.711  1.00  0.00     0.047 A 
ATOM     14  C   UNL     1      23.909  31.893  46.696  1.00  0.00     0.020 A 
ATOM     15  C   UNL     1      25.656  30.618  45.605  1.00  0.00     0.119 A 
ATOM     16  C   UNL     1      25.546  31.438  44.476  1.00  0.00     0.093 A 
ATOM     17  C   UNL     1      24.616  32.488  44.450  1.00  0.00     0.130 A 
BRANCH  15  18
ATOM     18  O   UNL     1      26.578  29.572  45.637  1.00  0.00    -0.508 OA
ATOM     19  H   UNL     1      27.480  29.648  45.183  1.00  0.00     0.293 HD
ENDBRANCH  15  18
BRANCH  17  20
ATOM     20  O   UNL     1      24.480  33.267  43.300  1.00  0.00    -0.507 OA
ATOM     21  H   UNL     1      25.248  33.823  42.942  1.00  0.00     0.293 HD
ENDBRANCH  17  20
ENDBRANCH   1  12
BRANCH   2  22
ATOM     22  O   UNL     1      24.210  35.178  47.047  1.00  0.00    -0.502 OA
ATOM     23  H   UNL     1      24.308  35.894  47.757  1.00  0.00     0.293 HD
ENDBRANCH   2  22
BRANCH   6  24
ATOM     24  O   UNL     1      19.937  38.123  45.833  1.00  0.00    -0.507 OA
ATOM     25  H   UNL     1      19.149  38.702  46.081  1.00  0.00     0.293 HD
ENDBRANCH   6  24
BRANCH   8  26
ATOM     26  O   UNL     1      17.315  34.898  43.461  1.00  0.00    -0.508 OA
ATOM     27  H   UNL     1      17.215  34.047  42.919  1.00  0.00     0.293 HD
ENDBRANCH   8  26
TORSDOF 6
ENDMDL
MODEL 7
REMARK VINA RESULT:    -3.980      2.968      4.757
REMARK INTER + INTRA:          -5.207
REMARK INTER:                  -4.795
REMARK INTRA:                  -0.411
REMARK UNBOUND:                -0.413
REMARK SMILES O=c1c(O)c(-c2ccc(O)cc2O)oc2cc(O)cc(O)c12
REMARK SMILES IDX 5 1 3 2 2 3 1 4 22 5 20 6 19 7 17 8 16 9 15 10 14 11 6 12
REMARK SMILES IDX 8 13 7 14 9 15 11 16 12 17 10 18 13 20 4 22 21 24 18 26
REMARK H PARENT 10 19 13 21 4 23 21 25 18 27
REMARK Flexibility Score: inf
ROOT
ATOM      1  C   UNL     1      19.115  34.977  44.519  1.00  0.00     0.184 A 
ATOM      2  C   UNL     1      19.651  36.153  45.063  1.00  0.00     0.208 A 
ATOM      3  C   UNL     1      20.959  36.133  45.573  1.00  0.00     0.238 A 
ATOM      4  O   UNL     1      21.455  37.205  46.010  1.00  0.00    -0.285 OA
ATOM      5  C   UNL     1      21.707  34.930  45.544  1.00  0.00     0.111 A 
ATOM      6  C   UNL     1      23.026  34.784  46.068  1.00  0.00     0.134 A 
ATOM      7  C   UNL     1      23.719  33.583  45.870  1.00  0.00     0.093 A 
ATOM      8  C   UNL     1      23.117  32.504  45.225  1.00  0.00     0.123 A 
ATOM      9  C   UNL     1      21.806  32.615  44.761  1.00  0.00     0.094 A 
ATOM     10  C   UNL     1      21.102  33.812  44.912  1.00  0.00     0.146 A 
ATOM     11  O   UNL     1      19.861  33.881  44.446  1.00  0.00    -0.451 OA
ENDROOT
BRANCH   1  12
ATOM     12  C   UNL     1      17.739  34.926  43.983  1.00  0.00     0.063 A 
ATOM     13  C   UNL     1      16.253  35.041  42.061  1.00  0.00     0.047 A 
ATOM     14  C   UNL     1      17.540  35.090  42.602  1.00  0.00     0.020 A 
ATOM     15  C   UNL     1      15.151  34.816  42.888  1.00  0.00     0.119 A 
ATOM     16  C   UNL     1      15.339  34.629  44.263  1.00  0.00     0.093 A 
ATOM     17  C   UNL     1      16.629  34.669  44.815  1.00  0.00     0.130 A 
BRANCH  15  18
ATOM     18  O   UNL     1      13.872  34.776  42.335  1.00  0.00    -0.508 OA
ATOM     19  H   UNL     1      13.677  35.171  41.424  1.00  0.00     0.293 HD
ENDBRANCH  15  18
BRANCH  17  20
ATOM     20  O   UNL     1      16.810  34.432  46.178  1.00  0.00    -0.507 OA
ATOM     21  H   UNL     1      16.334  33.674  46.652  1.00  0.00     0.293 HD
ENDBRANCH  17  20
ENDBRANCH   1  12
BRANCH   2  22
ATOM     22  O   UNL     1      18.898  37.331  45.062  1.00  0.00    -0.502 OA
ATOM     23  H   UNL     1      19.302  38.233  44.843  1.00  0.00     0.293 HD
ENDBRANCH   2  22
BRANCH   6  24
ATOM     24  O   UNL     1      23.686  35.770  46.809  1.00  0.00    -0.507 OA
ATOM     25  H   UNL     1      23.339  36.705  46.958  1.00  0.00     0.293 HD
ENDBRANCH   6  24
BRANCH   8  26
ATOM     26  O   UNL     1      23.832  31.318  45.059  1.00  0.00    -0.508 OA
ATOM     27  H   UNL     1      23.610  30.487  45.595  1.00  0.00     0.293 HD
ENDBRANCH   8  26
TORSDOF 6
ENDMDL
MODEL 8
REMARK VINA RESULT:    -3.965      3.485      7.041
REMARK INTER + INTRA:          -5.189
REMARK INTER:                  -4.770
REMARK INTRA:                  -0.420
REMARK UNBOUND:                -0.413
REMARK SMILES O=c1c(O)c(-c2ccc(O)cc2O)oc2cc(O)cc(O)c12
REMARK SMILES IDX 5 1 3 2 2 3 1 4 22 5 20 6 19 7 17 8 16 9 15 10 14 11 6 12
REMARK SMILES IDX 8 13 7 14 9 15 11 16 12 17 10 18 13 20 4 22 21 24 18 26
REMARK H PARENT 10 19 13 21 4 23 21 25 18 27
REMARK Flexibility Score: inf
ROOT
ATOM      1  C   UNL     1      18.313  35.247  44.642  1.00  0.00     0.184 A 
ATOM      2  C   UNL     1      17.168  34.957  45.399  1.00  0.00     0.208 A 
ATOM      3  C   UNL     1      15.948  34.748  44.737  1.00  0.00     0.238 A 
ATOM      4  O   UNL     1      14.937  34.435  45.417  1.00  0.00    -0.285 OA
ATOM      5  C   UNL     1      15.889  34.848  43.325  1.00  0.00     0.111 A 
ATOM      6  C   UNL     1      14.698  34.695  42.552  1.00  0.00     0.134 A 
ATOM      7  C   UNL     1      14.780  34.686  41.154  1.00  0.00     0.093 A 
ATOM      8  C   UNL     1      15.995  34.889  40.502  1.00  0.00     0.123 A 
ATOM      9  C   UNL     1      17.156  35.099  41.247  1.00  0.00     0.094 A 
ATOM     10  C   UNL     1      17.113  35.078  42.644  1.00  0.00     0.146 A 
ATOM     11  O   UNL     1      18.241  35.270  43.316  1.00  0.00    -0.451 OA
ENDROOT
BRANCH   1  12
ATOM     12  C   UNL     1      19.624  35.495  45.278  1.00  0.00     0.063 A 
ATOM     13  C   UNL     1      21.608  34.600  46.363  1.00  0.00     0.047 A 
ATOM     14  C   UNL     1      20.363  34.403  45.761  1.00  0.00     0.020 A 
ATOM     15  C   UNL     1      22.137  35.889  46.478  1.00  0.00     0.119 A 
ATOM     16  C   UNL     1      21.419  36.982  45.978  1.00  0.00     0.093 A 
ATOM     17  C   UNL     1      20.170  36.792  45.367  1.00  0.00     0.130 A 
BRANCH  15  18
ATOM     18  O   UNL     1      23.378  36.072  47.085  1.00  0.00    -0.508 OA
ATOM     19  H   UNL     1      24.039  36.756  46.741  1.00  0.00     0.293 HD
ENDBRANCH  15  18
BRANCH  17  20
ATOM     20  O   UNL     1      19.487  37.883  44.829  1.00  0.00    -0.507 OA
ATOM     21  H   UNL     1      19.923  38.505  44.159  1.00  0.00     0.293 HD
ENDBRANCH  17  20
ENDBRANCH   1  12
BRANCH   2  22
ATOM     22  O   UNL     1      17.260  34.846  46.789  1.00  0.00    -0.502 OA
ATOM     23  H   UNL     1      17.564  35.613  47.376  1.00  0.00     0.293 HD
ENDBRANCH   2  22
BRANCH   6  24
ATOM     24  O   UNL     1      13.419  34.577  43.104  1.00  0.00    -0.507 OA
ATOM     25  H   UNL     1      12.820  35.354  43.337  1.00  0.00     0.293 HD
ENDBRANCH   6  24
BRANCH   8  26
ATOM     26  O   UNL     1      16.035  34.890  39.109  1.00  0.00    -0.508 OA
ATOM     27  H   UNL     1      15.652  34.123  38.568  1.00  0.00     0.293 HD
ENDBRANCH   8  26
TORSDOF 6
ENDMDL
MODEL 9
REMARK VINA RESULT:    -3.689      1.489      2.017
REMARK INTER + INTRA:          -4.857
REMARK INTER:                  -4.446
REMARK INTRA:                  -0.410
REMARK UNBOUND:                -0.413
REMARK SMILES O=c1c(O)c(-c2ccc(O)cc2O)oc2cc(O)cc(O)c12
REMARK SMILES IDX 5 1 3 2 2 3 1 4 22 5 20 6 19 7 17 8 16 9 15 10 14 11 6 12
REMARK SMILES IDX 8 13 7 14 9 15 11 16 12 17 10 18 13 20 4 22 21 24 18 26
REMARK H PARENT 10 19 13 21 4 23 21 25 18 27
REMARK Flexibility Score: inf
ROOT
ATOM      1  C   UNL     1      21.949  33.367  42.752  1.00  0.00     0.184 A 
ATOM      2  C   UNL     1      23.029  32.838  43.473  1.00  0.00     0.208 A 
ATOM      3  C   UNL     1      23.415  33.455  44.674  1.00  0.00     0.238 A 
ATOM      4  O   UNL     1      24.349  32.943  45.344  1.00  0.00    -0.285 OA
ATOM      5  C   UNL     1      22.723  34.605  45.127  1.00  0.00     0.111 A 
ATOM      6  C   UNL     1      23.052  35.335  46.308  1.00  0.00     0.134 A 
ATOM      7  C   UNL     1      22.219  36.380  46.729  1.00  0.00     0.093 A 
ATOM      8  C   UNL     1      21.108  36.761  45.979  1.00  0.00     0.123 A 
ATOM      9  C   UNL     1      20.810  36.093  44.791  1.00  0.00     0.094 A 
ATOM     10  C   UNL     1      21.601  35.024  44.363  1.00  0.00     0.146 A 
ATOM     11  O   UNL     1      21.277  34.407  43.233  1.00  0.00    -0.451 OA
ENDROOT
BRANCH   1  12
ATOM     12  C   UNL     1      21.503  32.776  41.473  1.00  0.00     0.063 A 
ATOM     13  C   UNL     1      21.720  32.654  39.054  1.00  0.00     0.047 A 
ATOM     14  C   UNL     1      22.112  33.197  40.280  1.00  0.00     0.020 A 
ATOM     15  C   UNL     1      20.725  31.675  39.005  1.00  0.00     0.119 A 
ATOM     16  C   UNL     1      20.127  31.231  40.191  1.00  0.00     0.093 A 
ATOM     17  C   UNL     1      20.520  31.766  41.427  1.00  0.00     0.130 A 
BRANCH  15  18
ATOM     18  O   UNL     1      20.339  31.146  37.774  1.00  0.00    -0.508 OA
ATOM     19  H   UNL     1      19.699  30.364  37.711  1.00  0.00     0.293 HD
ENDBRANCH  15  18
BRANCH  17  20
ATOM     20  O   UNL     1      19.953  31.280  42.606  1.00  0.00    -0.507 OA
ATOM     21  H   UNL     1      20.455  30.645  43.215  1.00  0.00     0.293 HD
ENDBRANCH  17  20
ENDBRANCH   1  12
BRANCH   2  22
ATOM     22  O   UNL     1      23.682  31.691  43.012  1.00  0.00    -0.502 OA
ATOM     23  H   UNL     1      23.611  31.375  42.052  1.00  0.00     0.293 HD
ENDBRANCH   2  22
BRANCH   6  24
ATOM     24  O   UNL     1      24.191  35.094  47.082  1.00  0.00    -0.507 OA
ATOM     25  H   UNL     1      24.649  34.200  47.168  1.00  0.00     0.293 HD
ENDBRANCH   6  24
BRANCH   8  26
ATOM     26  O   UNL     1      20.311  37.815  46.420  1.00  0.00    -0.508 OA
ATOM     27  H   UNL     1      20.132  37.968  47.406  1.00  0.00     0.293 HD
ENDBRANCH   8  26
TORSDOF 6
ENDMDL
