MODEL 1
REMARK VINA RESULT:    -1.803      0.000      0.000
REMARK INTER + INTRA:          -2.505
REMARK INTER:                  -2.172
REMARK INTRA:                  -0.333
REMARK UNBOUND:                -0.333
REMARK SMILES O=c1c(O)c(-c2ccc(O)c(O)c2)oc2cc(O)cc(O)c12
REMARK SMILES IDX 5 1 3 2 2 3 1 4 22 5 20 6 19 7 17 8 16 9 15 10 14 11 6 12
REMARK SMILES IDX 7 13 8 14 9 15 13 16 11 17 10 18 12 20 4 22 21 24 18 26
REMARK H PARENT 10 19 12 21 4 23 21 25 18 27
REMARK Flexibility Score: inf
ROOT
ATOM      1  C   UNL     1     -14.891 -21.117  80.421  1.00  0.00     0.180 A 
ATOM      2  C   UNL     1     -15.850 -20.137  80.113  1.00  0.00     0.208 A 
ATOM      3  C   UNL     1     -16.156 -19.882  78.767  1.00  0.00     0.238 A 
ATOM      4  O   UNL     1     -16.976 -18.966  78.496  1.00  0.00    -0.285 OA
ATOM      5  C   UNL     1     -15.511 -20.622  77.746  1.00  0.00     0.111 A 
ATOM      6  C   UNL     1     -15.772 -20.474  76.351  1.00  0.00     0.134 A 
ATOM      7  C   UNL     1     -14.981 -21.165  75.424  1.00  0.00     0.093 A 
ATOM      8  C   UNL     1     -13.985 -22.045  75.842  1.00  0.00     0.123 A 
ATOM      9  C   UNL     1     -13.760 -22.242  77.205  1.00  0.00     0.094 A 
ATOM     10  C   UNL     1     -14.508 -21.539  78.153  1.00  0.00     0.146 A 
ATOM     11  O   UNL     1     -14.256 -21.747  79.440  1.00  0.00    -0.452 OA
ENDROOT
BRANCH   1  12
ATOM     12  C   UNL     1     -14.535 -21.459  81.817  1.00  0.00     0.025 A 
ATOM     13  C   UNL     1     -13.418 -20.853  82.414  1.00  0.00     0.016 A 
ATOM     14  C   UNL     1     -13.051 -21.176  83.722  1.00  0.00     0.051 A 
ATOM     15  C   UNL     1     -13.785 -22.122  84.448  1.00  0.00     0.157 A 
ATOM     16  C   UNL     1     -15.258 -22.424  82.543  1.00  0.00     0.062 A 
ATOM     17  C   UNL     1     -14.888 -22.751  83.856  1.00  0.00     0.158 A 
BRANCH  15  18
ATOM     18  O   UNL     1     -13.424 -22.446  85.754  1.00  0.00    -0.504 OA
ATOM     19  H   UNL     1     -14.099 -22.432  86.510  1.00  0.00     0.293 HD
ENDBRANCH  15  18
BRANCH  17  20
ATOM     20  O   UNL     1     -15.609 -23.702  84.576  1.00  0.00    -0.504 OA
ATOM     21  H   UNL     1     -15.425 -24.693  84.476  1.00  0.00     0.293 HD
ENDBRANCH  17  20
ENDBRANCH   1  12
BRANCH   2  22
ATOM     22  O   UNL     1     -16.460 -19.404  81.136  1.00  0.00    -0.502 OA
ATOM     23  H   UNL     1     -16.283 -18.416  81.276  1.00  0.00     0.293 HD
ENDBRANCH   2  22
BRANCH   6  24
ATOM     24  O   UNL     1     -16.805 -19.692  75.828  1.00  0.00    -0.507 OA
ATOM     25  H   UNL     1     -16.678 -18.927  75.183  1.00  0.00     0.293 HD
ENDBRANCH   6  24
BRANCH   8  26
ATOM     26  O   UNL     1     -13.227 -22.727  74.892  1.00  0.00    -0.508 OA
ATOM     27  H   UNL     1     -12.303 -22.410  74.623  1.00  0.00     0.293 HD
ENDBRANCH   8  26
TORSDOF 6
ENDMDL
MODEL 2
REMARK VINA RESULT:    -1.550      1.907      6.966
REMARK INTER + INTRA:          -2.200
REMARK INTER:                  -1.877
REMARK INTRA:                  -0.323
REMARK UNBOUND:                -0.333
REMARK SMILES O=c1c(O)c(-c2ccc(O)c(O)c2)oc2cc(O)cc(O)c12
REMARK SMILES IDX 5 1 3 2 2 3 1 4 22 5 20 6 19 7 17 8 16 9 15 10 14 11 6 12
REMARK SMILES IDX 7 13 8 14 9 15 13 16 11 17 10 18 12 20 4 22 21 24 18 26
REMARK H PARENT 10 19 12 21 4 23 21 25 18 27
REMARK Flexibility Score: inf
ROOT
ATOM      1  C   UNL     1     -14.204 -22.024  81.014  1.00  0.00     0.180 A 
ATOM      2  C   UNL     1     -13.711 -21.205  82.044  1.00  0.00     0.208 A 
ATOM      3  C   UNL     1     -13.490 -21.765  83.313  1.00  0.00     0.238 A 
ATOM      4  O   UNL     1     -13.100 -21.014  84.244  1.00  0.00    -0.285 OA
ATOM      5  C   UNL     1     -13.748 -23.139  83.531  1.00  0.00     0.111 A 
ATOM      6  C   UNL     1     -13.523 -23.820  84.765  1.00  0.00     0.134 A 
ATOM      7  C   UNL     1     -13.937 -25.151  84.905  1.00  0.00     0.093 A 
ATOM      8  C   UNL     1     -14.508 -25.843  83.838  1.00  0.00     0.123 A 
ATOM      9  C   UNL     1     -14.680 -25.205  82.609  1.00  0.00     0.094 A 
ATOM     10  C   UNL     1     -14.310 -23.867  82.450  1.00  0.00     0.146 A 
ATOM     11  O   UNL     1     -14.499 -23.294  81.267  1.00  0.00    -0.452 OA
ENDROOT
BRANCH   1  12
ATOM     12  C   UNL     1     -14.439 -21.512  79.645  1.00  0.00     0.025 A 
ATOM     13  C   UNL     1     -13.390 -21.529  78.711  1.00  0.00     0.016 A 
ATOM     14  C   UNL     1     -13.583 -21.031  77.420  1.00  0.00     0.051 A 
ATOM     15  C   UNL     1     -14.822 -20.496  77.048  1.00  0.00     0.157 A 
ATOM     16  C   UNL     1     -15.676 -20.954  79.273  1.00  0.00     0.062 A 
ATOM     17  C   UNL     1     -15.870 -20.452  77.977  1.00  0.00     0.158 A 
BRANCH  15  18
ATOM     18  O   UNL     1     -15.020 -20.000  75.761  1.00  0.00    -0.504 OA
ATOM     19  H   UNL     1     -14.785 -19.045  75.518  1.00  0.00     0.293 HD
ENDBRANCH  15  18
BRANCH  17  20
ATOM     20  O   UNL     1     -17.098 -19.906  77.609  1.00  0.00    -0.504 OA
ATOM     21  H   UNL     1     -17.262 -18.906  77.633  1.00  0.00     0.293 HD
ENDBRANCH  17  20
ENDBRANCH   1  12
BRANCH   2  22
ATOM     22  O   UNL     1     -13.483 -19.845  81.812  1.00  0.00    -0.502 OA
ATOM     23  H   UNL     1     -12.691 -19.511  81.275  1.00  0.00     0.293 HD
ENDBRANCH   2  22
BRANCH   6  24
ATOM     24  O   UNL     1     -12.875 -23.250  85.864  1.00  0.00    -0.507 OA
ATOM     25  H   UNL     1     -12.280 -23.753  86.506  1.00  0.00     0.293 HD
ENDBRANCH   6  24
BRANCH   8  26
ATOM     26  O   UNL     1     -14.895 -27.171  84.009  1.00  0.00    -0.508 OA
ATOM     27  H   UNL     1     -14.647 -27.692  84.842  1.00  0.00     0.293 HD
ENDBRANCH   8  26
TORSDOF 6
ENDMDL
MODEL 3
REMARK VINA RESULT:    -1.524      4.929      7.085
REMARK INTER + INTRA:          -2.169
REMARK INTER:                  -1.845
REMARK INTRA:                  -0.323
REMARK UNBOUND:                -0.333
REMARK SMILES O=c1c(O)c(-c2ccc(O)c(O)c2)oc2cc(O)cc(O)c12
REMARK SMILES IDX 5 1 3 2 2 3 1 4 22 5 20 6 19 7 17 8 16 9 15 10 14 11 6 12
REMARK SMILES IDX 7 13 8 14 9 15 13 16 11 17 10 18 12 20 4 22 21 24 18 26
REMARK H PARENT 10 19 12 21 4 23 21 25 18 27
REMARK Flexibility Score: inf
ROOT
ATOM      1  C   UNL     1     -18.314 -23.012  83.789  1.00  0.00     0.180 A 
ATOM      2  C   UNL     1     -19.179 -21.932  83.540  1.00  0.00     0.208 A 
ATOM      3  C   UNL     1     -20.521 -22.193  83.222  1.00  0.00     0.238 A 
ATOM      4  O   UNL     1     -21.276 -21.224  82.948  1.00  0.00    -0.285 OA
ATOM      5  C   UNL     1     -20.986 -23.529  83.173  1.00  0.00     0.111 A 
ATOM      6  C   UNL     1     -22.335 -23.908  82.899  1.00  0.00     0.134 A 
ATOM      7  C   UNL     1     -22.654 -25.263  82.747  1.00  0.00     0.093 A 
ATOM      8  C   UNL     1     -21.689 -26.254  82.921  1.00  0.00     0.123 A 
ATOM      9  C   UNL     1     -20.379 -25.898  83.246  1.00  0.00     0.094 A 
ATOM     10  C   UNL     1     -20.023 -24.552  83.369  1.00  0.00     0.146 A 
ATOM     11  O   UNL     1     -18.764 -24.255  83.670  1.00  0.00    -0.452 OA
ENDROOT
BRANCH   1  12
ATOM     12  C   UNL     1     -16.893 -22.815  84.154  1.00  0.00     0.025 A 
ATOM     13  C   UNL     1     -16.544 -22.632  85.502  1.00  0.00     0.016 A 
ATOM     14  C   UNL     1     -15.212 -22.423  85.867  1.00  0.00     0.051 A 
ATOM     15  C   UNL     1     -14.211 -22.380  84.889  1.00  0.00     0.157 A 
ATOM     16  C   UNL     1     -15.886 -22.750  83.173  1.00  0.00     0.062 A 
ATOM     17  C   UNL     1     -14.548 -22.539  83.539  1.00  0.00     0.158 A 
BRANCH  15  18
ATOM     18  O   UNL     1     -12.880 -22.174  85.249  1.00  0.00    -0.504 OA
ATOM     19  H   UNL     1     -12.195 -21.842  84.580  1.00  0.00     0.293 HD
ENDBRANCH  15  18
BRANCH  17  20
ATOM     20  O   UNL     1     -13.552 -22.481  82.566  1.00  0.00    -0.504 OA
ATOM     21  H   UNL     1     -13.631 -22.994  81.696  1.00  0.00     0.293 HD
ENDBRANCH  17  20
ENDBRANCH   1  12
BRANCH   2  22
ATOM     22  O   UNL     1     -18.693 -20.621  83.573  1.00  0.00    -0.502 OA
ATOM     23  H   UNL     1     -19.300 -19.819  83.699  1.00  0.00     0.293 HD
ENDBRANCH   2  22
BRANCH   6  24
ATOM     24  O   UNL     1     -23.394 -23.003  82.799  1.00  0.00    -0.507 OA
ATOM     25  H   UNL     1     -24.364 -23.230  82.967  1.00  0.00     0.293 HD
ENDBRANCH   6  24
BRANCH   8  26
ATOM     26  O   UNL     1     -22.046 -27.593  82.777  1.00  0.00    -0.508 OA
ATOM     27  H   UNL     1     -21.771 -28.129  81.962  1.00  0.00     0.293 HD
ENDBRANCH   8  26
TORSDOF 6
ENDMDL
MODEL 4
REMARK VINA RESULT:    -1.505      3.914      7.273
REMARK INTER + INTRA:          -2.146
REMARK INTER:                  -1.825
REMARK INTRA:                  -0.321
REMARK UNBOUND:                -0.333
REMARK SMILES O=c1c(O)c(-c2ccc(O)c(O)c2)oc2cc(O)cc(O)c12
REMARK SMILES IDX 5 1 3 2 2 3 1 4 22 5 20 6 19 7 17 8 16 9 15 10 14 11 6 12
REMARK SMILES IDX 7 13 8 14 9 15 13 16 11 17 10 18 12 20 4 22 21 24 18 26
REMARK H PARENT 10 19 12 21 4 23 21 25 18 27
REMARK Flexibility Score: inf
ROOT
ATOM      1  C   UNL     1     -16.459 -24.692  82.410  1.00  0.00     0.180 A 
ATOM      2  C   UNL     1     -15.903 -25.164  83.612  1.00  0.00     0.208 A 
ATOM      3  C   UNL     1     -14.916 -24.398  84.252  1.00  0.00     0.238 A 
ATOM      4  O   UNL     1     -14.385 -24.852  85.299  1.00  0.00    -0.285 OA
ATOM      5  C   UNL     1     -14.509 -23.163  83.694  1.00  0.00     0.111 A 
ATOM      6  C   UNL     1     -13.546 -22.287  84.278  1.00  0.00     0.134 A 
ATOM      7  C   UNL     1     -13.124 -21.154  83.571  1.00  0.00     0.093 A 
ATOM      8  C   UNL     1     -13.676 -20.831  82.333  1.00  0.00     0.123 A 
ATOM      9  C   UNL     1     -14.661 -21.649  81.778  1.00  0.00     0.094 A 
ATOM     10  C   UNL     1     -15.076 -22.806  82.443  1.00  0.00     0.146 A 
ATOM     11  O   UNL     1     -16.009 -23.562  81.876  1.00  0.00    -0.452 OA
ENDROOT
BRANCH   1  12
ATOM     12  C   UNL     1     -17.520 -25.431  81.689  1.00  0.00     0.025 A 
ATOM     13  C   UNL     1     -18.868 -25.170  81.987  1.00  0.00     0.016 A 
ATOM     14  C   UNL     1     -19.885 -25.870  81.334  1.00  0.00     0.051 A 
ATOM     15  C   UNL     1     -19.571 -26.852  80.387  1.00  0.00     0.157 A 
ATOM     16  C   UNL     1     -17.209 -26.432  80.751  1.00  0.00     0.062 A 
ATOM     17  C   UNL     1     -18.231 -27.137  80.098  1.00  0.00     0.158 A 
BRANCH  15  18
ATOM     18  O   UNL     1     -20.583 -27.551  79.732  1.00  0.00    -0.504 OA
ATOM     19  H   UNL     1     -21.035 -28.353  80.157  1.00  0.00     0.293 HD
ENDBRANCH  15  18
BRANCH  17  20
ATOM     20  O   UNL     1     -17.921 -28.124  79.164  1.00  0.00    -0.504 OA
ATOM     21  H   UNL     1     -18.164 -28.024  78.185  1.00  0.00     0.293 HD
ENDBRANCH  17  20
ENDBRANCH   1  12
BRANCH   2  22
ATOM     22  O   UNL     1     -16.305 -26.396  84.135  1.00  0.00    -0.502 OA
ATOM     23  H   UNL     1     -17.258 -26.734  84.059  1.00  0.00     0.293 HD
ENDBRANCH   2  22
BRANCH   6  24
ATOM     24  O   UNL     1     -12.999 -22.467  85.552  1.00  0.00    -0.507 OA
ATOM     25  H   UNL     1     -12.298 -21.871  85.966  1.00  0.00     0.293 HD
ENDBRANCH   6  24
BRANCH   8  26
ATOM     26  O   UNL     1     -13.243 -19.688  81.665  1.00  0.00    -0.508 OA
ATOM     27  H   UNL     1     -13.891 -19.087  81.169  1.00  0.00     0.293 HD
ENDBRANCH   8  26
TORSDOF 6
ENDMDL
MODEL 5
REMARK VINA RESULT:    -1.488      3.761      6.883
REMARK INTER + INTRA:          -2.126
REMARK INTER:                  -1.794
REMARK INTRA:                  -0.332
REMARK UNBOUND:                -0.333
REMARK SMILES O=c1c(O)c(-c2ccc(O)c(O)c2)oc2cc(O)cc(O)c12
REMARK SMILES IDX 5 1 3 2 2 3 1 4 22 5 20 6 19 7 17 8 16 9 15 10 14 11 6 12
REMARK SMILES IDX 7 13 8 14 9 15 13 16 11 17 10 18 12 20 4 22 21 24 18 26
REMARK H PARENT 10 19 12 21 4 23 21 25 18 27
REMARK Flexibility Score: inf
ROOT
ATOM      1  C   UNL     1     -17.021 -23.828  82.429  1.00  0.00     0.180 A 
ATOM      2  C   UNL     1     -16.407 -24.323  83.593  1.00  0.00     0.208 A 
ATOM      3  C   UNL     1     -15.234 -23.708  84.059  1.00  0.00     0.238 A 
ATOM      4  O   UNL     1     -14.661 -24.189  85.071  1.00  0.00    -0.285 OA
ATOM      5  C   UNL     1     -14.699 -22.596  83.366  1.00  0.00     0.111 A 
ATOM      6  C   UNL     1     -13.537 -21.872  83.770  1.00  0.00     0.134 A 
ATOM      7  C   UNL     1     -13.023 -20.871  82.936  1.00  0.00     0.093 A 
ATOM      8  C   UNL     1     -13.662 -20.526  81.746  1.00  0.00     0.123 A 
ATOM      9  C   UNL     1     -14.832 -21.188  81.370  1.00  0.00     0.094 A 
ATOM     10  C   UNL     1     -15.349 -22.215  82.163  1.00  0.00     0.146 A 
ATOM     11  O   UNL     1     -16.458 -22.827  81.764  1.00  0.00    -0.452 OA
ENDROOT
BRANCH   1  12
ATOM     12  C   UNL     1     -18.272 -24.409  81.892  1.00  0.00     0.025 A 
ATOM     13  C   UNL     1     -18.206 -25.370  80.870  1.00  0.00     0.016 A 
ATOM     14  C   UNL     1     -19.375 -25.915  80.333  1.00  0.00     0.051 A 
ATOM     15  C   UNL     1     -20.627 -25.496  80.798  1.00  0.00     0.157 A 
ATOM     16  C   UNL     1     -19.533 -23.976  82.341  1.00  0.00     0.062 A 
ATOM     17  C   UNL     1     -20.707 -24.521  81.801  1.00  0.00     0.158 A 
BRANCH  15  18
ATOM     18  O   UNL     1     -21.796 -26.038  80.267  1.00  0.00    -0.504 OA
ATOM     19  H   UNL     1     -21.946 -27.040  80.229  1.00  0.00     0.293 HD
ENDBRANCH  15  18
BRANCH  17  20
ATOM     20  O   UNL     1     -21.955 -24.095  82.252  1.00  0.00    -0.504 OA
ATOM     21  H   UNL     1     -22.652 -24.753  82.583  1.00  0.00     0.293 HD
ENDBRANCH  17  20
ENDBRANCH   1  12
BRANCH   2  22
ATOM     22  O   UNL     1     -16.942 -25.435  84.251  1.00  0.00    -0.502 OA
ATOM     23  H   UNL     1     -17.902 -25.467  84.573  1.00  0.00     0.293 HD
ENDBRANCH   2  22
BRANCH   6  24
ATOM     24  O   UNL     1     -12.875 -22.073  84.984  1.00  0.00    -0.507 OA
ATOM     25  H   UNL     1     -13.050 -22.842  85.614  1.00  0.00     0.293 HD
ENDBRANCH   6  24
BRANCH   8  26
ATOM     26  O   UNL     1     -13.130 -19.514  80.949  1.00  0.00    -0.508 OA
ATOM     27  H   UNL     1     -12.421 -19.708  80.251  1.00  0.00     0.293 HD
ENDBRANCH   8  26
TORSDOF 6
ENDMDL
MODEL 6
REMARK VINA RESULT:    -1.469      3.875      6.808
REMARK INTER + INTRA:          -2.102
REMARK INTER:                  -1.779
REMARK INTRA:                  -0.323
REMARK UNBOUND:                -0.333
REMARK SMILES O=c1c(O)c(-c2ccc(O)c(O)c2)oc2cc(O)cc(O)c12
REMARK SMILES IDX 5 1 3 2 2 3 1 4 22 5 20 6 19 7 17 8 16 9 15 10 14 11 6 12
REMARK SMILES IDX 7 13 8 14 9 15 13 16 11 17 10 18 12 20 4 22 21 24 18 26
REMARK H PARENT 10 19 12 21 4 23 21 25 18 27
REMARK Flexibility Score: inf
ROOT
ATOM      1  C   UNL     1     -16.844 -23.757  81.571  1.00  0.00     0.180 A 
ATOM      2  C   UNL     1     -16.595 -22.535  80.923  1.00  0.00     0.208 A 
ATOM      3  C   UNL     1     -15.575 -21.702  81.408  1.00  0.00     0.238 A 
ATOM      4  O   UNL     1     -15.392 -20.586  80.856  1.00  0.00    -0.285 OA
ATOM      5  C   UNL     1     -14.805 -22.108  82.524  1.00  0.00     0.111 A 
ATOM      6  C   UNL     1     -13.721 -21.362  83.077  1.00  0.00     0.134 A 
ATOM      7  C   UNL     1     -13.115 -21.797  84.262  1.00  0.00     0.093 A 
ATOM      8  C   UNL     1     -13.510 -22.983  84.879  1.00  0.00     0.123 A 
ATOM      9  C   UNL     1     -14.530 -23.752  84.316  1.00  0.00     0.094 A 
ATOM     10  C   UNL     1     -15.178 -23.325  83.154  1.00  0.00     0.146 A 
ATOM     11  O   UNL     1     -16.149 -24.080  82.655  1.00  0.00    -0.452 OA
ENDROOT
BRANCH   1  12
ATOM     12  C   UNL     1     -17.886 -24.699  81.102  1.00  0.00     0.025 A 
ATOM     13  C   UNL     1     -17.565 -25.655  80.125  1.00  0.00     0.016 A 
ATOM     14  C   UNL     1     -18.538 -26.540  79.654  1.00  0.00     0.051 A 
ATOM     15  C   UNL     1     -19.849 -26.472  80.140  1.00  0.00     0.157 A 
ATOM     16  C   UNL     1     -19.209 -24.621  81.573  1.00  0.00     0.062 A 
ATOM     17  C   UNL     1     -20.187 -25.508  81.098  1.00  0.00     0.158 A 
BRANCH  15  18
ATOM     18  O   UNL     1     -20.822 -27.354  79.674  1.00  0.00    -0.504 OA
ATOM     19  H   UNL     1     -21.360 -27.157  78.839  1.00  0.00     0.293 HD
ENDBRANCH  15  18
BRANCH  17  20
ATOM     20  O   UNL     1     -21.496 -25.434  81.570  1.00  0.00    -0.504 OA
ATOM     21  H   UNL     1     -21.907 -26.183  82.115  1.00  0.00     0.293 HD
ENDBRANCH  17  20
ENDBRANCH   1  12
BRANCH   2  22
ATOM     22  O   UNL     1     -17.381 -22.144  79.834  1.00  0.00    -0.502 OA
ATOM     23  H   UNL     1     -17.890 -22.810  79.264  1.00  0.00     0.293 HD
ENDBRANCH   2  22
BRANCH   6  24
ATOM     24  O   UNL     1     -13.186 -20.212  82.489  1.00  0.00    -0.507 OA
ATOM     25  H   UNL     1     -13.672 -19.332  82.400  1.00  0.00     0.293 HD
ENDBRANCH   6  24
BRANCH   8  26
ATOM     26  O   UNL     1     -12.875 -23.394  86.049  1.00  0.00    -0.508 OA
ATOM     27  H   UNL     1     -11.952 -23.811  86.032  1.00  0.00     0.293 HD
ENDBRANCH   8  26
TORSDOF 6
ENDMDL
MODEL 7
REMARK VINA RESULT:    -1.455      2.148      7.416
REMARK INTER + INTRA:          -2.086
REMARK INTER:                  -1.752
REMARK INTRA:                  -0.334
REMARK UNBOUND:                -0.333
REMARK SMILES O=c1c(O)c(-c2ccc(O)c(O)c2)oc2cc(O)cc(O)c12
REMARK SMILES IDX 5 1 3 2 2 3 1 4 22 5 20 6 19 7 17 8 16 9 15 10 14 11 6 12
REMARK SMILES IDX 7 13 8 14 9 15 13 16 11 17 10 18 12 20 4 22 21 24 18 26
REMARK H PARENT 10 19 12 21 4 23 21 25 18 27
REMARK Flexibility Score: inf
ROOT
ATOM      1  C   UNL     1     -15.677 -22.384  81.813  1.00  0.00     0.180 A 
ATOM      2  C   UNL     1     -14.650 -21.633  82.410  1.00  0.00     0.208 A 
ATOM      3  C   UNL     1     -14.084 -22.088  83.612  1.00  0.00     0.238 A 
ATOM      4  O   UNL     1     -13.202 -21.383  84.169  1.00  0.00    -0.285 OA
ATOM      5  C   UNL     1     -14.540 -23.296  84.192  1.00  0.00     0.111 A 
ATOM      6  C   UNL     1     -14.011 -23.871  85.386  1.00  0.00     0.134 A 
ATOM      7  C   UNL     1     -14.627 -25.001  85.940  1.00  0.00     0.093 A 
ATOM      8  C   UNL     1     -15.709 -25.612  85.310  1.00  0.00     0.123 A 
ATOM      9  C   UNL     1     -16.198 -25.092  84.110  1.00  0.00     0.094 A 
ATOM     10  C   UNL     1     -15.628 -23.945  83.553  1.00  0.00     0.146 A 
ATOM     11  O   UNL     1     -16.128 -23.477  82.416  1.00  0.00    -0.452 OA
ENDROOT
BRANCH   1  12
ATOM     12  C   UNL     1     -16.305 -21.981  80.534  1.00  0.00     0.025 A 
ATOM     13  C   UNL     1     -17.485 -21.220  80.552  1.00  0.00     0.016 A 
ATOM     14  C   UNL     1     -18.106 -20.847  79.358  1.00  0.00     0.051 A 
ATOM     15  C   UNL     1     -17.566 -21.243  78.128  1.00  0.00     0.157 A 
ATOM     16  C   UNL     1     -15.777 -22.393  79.296  1.00  0.00     0.062 A 
ATOM     17  C   UNL     1     -16.402 -22.021  78.097  1.00  0.00     0.158 A 
BRANCH  15  18
ATOM     18  O   UNL     1     -18.181 -20.871  76.934  1.00  0.00    -0.504 OA
ATOM     19  H   UNL     1     -17.725 -21.005  76.039  1.00  0.00     0.293 HD
ENDBRANCH  15  18
BRANCH  17  20
ATOM     20  O   UNL     1     -15.874 -22.426  76.872  1.00  0.00    -0.504 OA
ATOM     21  H   UNL     1     -14.964 -22.866  76.806  1.00  0.00     0.293 HD
ENDBRANCH  17  20
ENDBRANCH   1  12
BRANCH   2  22
ATOM     22  O   UNL     1     -14.229 -20.432  81.831  1.00  0.00    -0.502 OA
ATOM     23  H   UNL     1     -14.849 -19.845  81.284  1.00  0.00     0.293 HD
ENDBRANCH   2  22
BRANCH   6  24
ATOM     24  O   UNL     1     -12.875 -23.394  86.046  1.00  0.00    -0.507 OA
ATOM     25  H   UNL     1     -12.526 -23.752  86.923  1.00  0.00     0.293 HD
ENDBRANCH   6  24
BRANCH   8  26
ATOM     26  O   UNL     1     -16.288 -26.744  85.881  1.00  0.00    -0.508 OA
ATOM     27  H   UNL     1     -17.109 -27.180  85.479  1.00  0.00     0.293 HD
ENDBRANCH   8  26
TORSDOF 6
ENDMDL
MODEL 8
REMARK VINA RESULT:    -1.450      1.464      3.347
REMARK INTER + INTRA:          -2.079
REMARK INTER:                  -1.761
REMARK INTRA:                  -0.318
REMARK UNBOUND:                -0.333
REMARK SMILES O=c1c(O)c(-c2ccc(O)c(O)c2)oc2cc(O)cc(O)c12
REMARK SMILES IDX 5 1 3 2 2 3 1 4 22 5 20 6 19 7 17 8 16 9 15 10 14 11 6 12
REMARK SMILES IDX 7 13 8 14 9 15 13 16 11 17 10 18 12 20 4 22 21 24 18 26
REMARK H PARENT 10 19 12 21 4 23 21 25 18 27
REMARK Flexibility Score: inf
ROOT
ATOM      1  C   UNL     1     -15.222 -20.922  80.541  1.00  0.00     0.180 A 
ATOM      2  C   UNL     1     -14.869 -21.499  79.309  1.00  0.00     0.208 A 
ATOM      3  C   UNL     1     -15.448 -21.000  78.132  1.00  0.00     0.238 A 
ATOM      4  O   UNL     1     -15.168 -21.556  77.038  1.00  0.00    -0.285 OA
ATOM      5  C   UNL     1     -16.360 -19.919  78.198  1.00  0.00     0.111 A 
ATOM      6  C   UNL     1     -16.976 -19.308  77.065  1.00  0.00     0.134 A 
ATOM      7  C   UNL     1     -17.962 -18.332  77.259  1.00  0.00     0.093 A 
ATOM      8  C   UNL     1     -18.307 -17.900  78.538  1.00  0.00     0.123 A 
ATOM      9  C   UNL     1     -17.669 -18.449  79.651  1.00  0.00     0.094 A 
ATOM     10  C   UNL     1     -16.707 -19.450  79.492  1.00  0.00     0.146 A 
ATOM     11  O   UNL     1     -16.130 -19.953  80.577  1.00  0.00    -0.452 OA
ENDROOT
BRANCH   1  12
ATOM     12  C   UNL     1     -14.635 -21.377  81.821  1.00  0.00     0.025 A 
ATOM     13  C   UNL     1     -13.471 -20.760  82.307  1.00  0.00     0.016 A 
ATOM     14  C   UNL     1     -12.888 -21.189  83.502  1.00  0.00     0.051 A 
ATOM     15  C   UNL     1     -13.452 -22.249  84.222  1.00  0.00     0.157 A 
ATOM     16  C   UNL     1     -15.186 -22.456  82.537  1.00  0.00     0.062 A 
ATOM     17  C   UNL     1     -14.600 -22.888  83.736  1.00  0.00     0.158 A 
BRANCH  15  18
ATOM     18  O   UNL     1     -12.875 -22.678  85.416  1.00  0.00    -0.504 OA
ATOM     19  H   UNL     1     -12.525 -23.622  85.526  1.00  0.00     0.293 HD
ENDBRANCH  15  18
BRANCH  17  20
ATOM     20  O   UNL     1     -15.151 -23.952  84.448  1.00  0.00    -0.504 OA
ATOM     21  H   UNL     1     -15.424 -24.813  83.987  1.00  0.00     0.293 HD
ENDBRANCH  17  20
ENDBRANCH   1  12
BRANCH   2  22
ATOM     22  O   UNL     1     -13.982 -22.579  79.268  1.00  0.00    -0.502 OA
ATOM     23  H   UNL     1     -13.687 -23.008  78.398  1.00  0.00     0.293 HD
ENDBRANCH   2  22
BRANCH   6  24
ATOM     24  O   UNL     1     -16.638 -19.599  75.741  1.00  0.00    -0.507 OA
ATOM     25  H   UNL     1     -16.330 -20.502  75.411  1.00  0.00     0.293 HD
ENDBRANCH   6  24
BRANCH   8  26
ATOM     26  O   UNL     1     -19.282 -16.917  78.692  1.00  0.00    -0.508 OA
ATOM     27  H   UNL     1     -19.823 -16.836  79.545  1.00  0.00     0.293 HD
ENDBRANCH   8  26
TORSDOF 6
ENDMDL
MODEL 9
REMARK VINA RESULT:    -1.431      3.649      6.876
REMARK INTER + INTRA:          -2.057
REMARK INTER:                  -1.733
REMARK INTRA:                  -0.323
REMARK UNBOUND:                -0.333
REMARK SMILES O=c1c(O)c(-c2ccc(O)c(O)c2)oc2cc(O)cc(O)c12
REMARK SMILES IDX 5 1 3 2 2 3 1 4 22 5 20 6 19 7 17 8 16 9 15 10 14 11 6 12
REMARK SMILES IDX 7 13 8 14 9 15 13 16 11 17 10 18 12 20 4 22 21 24 18 26
REMARK H PARENT 10 19 12 21 4 23 21 25 18 27
REMARK Flexibility Score: inf
ROOT
ATOM      1  C   UNL     1     -15.494 -24.008  80.647  1.00  0.00     0.180 A 
ATOM      2  C   UNL     1     -15.437 -22.634  80.357  1.00  0.00     0.208 A 
ATOM      3  C   UNL     1     -14.809 -21.771  81.268  1.00  0.00     0.238 A 
ATOM      4  O   UNL     1     -14.808 -20.535  81.028  1.00  0.00    -0.285 OA
ATOM      5  C   UNL     1     -14.231 -22.293  82.450  1.00  0.00     0.111 A 
ATOM      6  C   UNL     1     -13.535 -21.516  83.424  1.00  0.00     0.134 A 
ATOM      7  C   UNL     1     -13.119 -22.118  84.619  1.00  0.00     0.093 A 
ATOM      8  C   UNL     1     -13.316 -23.479  84.846  1.00  0.00     0.123 A 
ATOM      9  C   UNL     1     -13.943 -24.261  83.875  1.00  0.00     0.094 A 
ATOM     10  C   UNL     1     -14.402 -23.682  82.689  1.00  0.00     0.146 A 
ATOM     11  O   UNL     1     -15.002 -24.458  81.795  1.00  0.00    -0.452 OA
ENDROOT
BRANCH   1  12
ATOM     12  C   UNL     1     -16.118 -24.983  79.724  1.00  0.00     0.025 A 
ATOM     13  C   UNL     1     -15.343 -25.567  78.709  1.00  0.00     0.016 A 
ATOM     14  C   UNL     1     -15.917 -26.474  77.814  1.00  0.00     0.051 A 
ATOM     15  C   UNL     1     -17.276 -26.797  77.910  1.00  0.00     0.157 A 
ATOM     16  C   UNL     1     -17.488 -25.295  79.804  1.00  0.00     0.062 A 
ATOM     17  C   UNL     1     -18.064 -26.203  78.903  1.00  0.00     0.158 A 
BRANCH  15  18
ATOM     18  O   UNL     1     -17.851 -27.702  77.020  1.00  0.00    -0.504 OA
ATOM     19  H   UNL     1     -18.336 -27.391  76.187  1.00  0.00     0.293 HD
ENDBRANCH  15  18
BRANCH  17  20
ATOM     20  O   UNL     1     -19.420 -26.516  78.988  1.00  0.00    -0.504 OA
ATOM     21  H   UNL     1     -19.829 -26.872  79.844  1.00  0.00     0.293 HD
ENDBRANCH  17  20
ENDBRANCH   1  12
BRANCH   2  22
ATOM     22  O   UNL     1     -16.032 -22.136  79.194  1.00  0.00    -0.502 OA
ATOM     23  H   UNL     1     -15.941 -22.598  78.296  1.00  0.00     0.293 HD
ENDBRANCH   2  22
BRANCH   6  24
ATOM     24  O   UNL     1     -13.204 -20.169  83.256  1.00  0.00    -0.507 OA
ATOM     25  H   UNL     1     -12.262 -19.814  83.176  1.00  0.00     0.293 HD
ENDBRANCH   6  24
BRANCH   8  26
ATOM     26  O   UNL     1     -12.875 -24.047  86.039  1.00  0.00    -0.508 OA
ATOM     27  H   UNL     1     -12.064 -24.654  86.070  1.00  0.00     0.293 HD
ENDBRANCH   8  26
TORSDOF 6
ENDMDL
