MODEL 1
REMARK VINA RESULT:    -6.096      0.000      0.000
REMARK INTER + INTRA:          -6.452
REMARK INTER:                  -6.452
REMARK INTRA:                   0.000
REMARK UNBOUND:                 0.000
REMARK SMILES O=c1ccc2cc(O)c(O)cc2o1
REMARK SMILES IDX 4 1 3 2 2 3 1 4 13 5 12 6 11 7 9 8 7 9 6 10 5 11 8 12 10 14
REMARK H PARENT 8 13 10 15
REMARK Flexibility Score: inf
ROOT
ATOM      1  C   UNL     1       8.731  29.406   1.018  1.00  0.00     0.019 A 
ATOM      2  C   UNL     1       7.403  29.762   1.252  1.00  0.00     0.094 A 
ATOM      3  C   UNL     1       6.424  29.372   0.333  1.00  0.00     0.336 A 
ATOM      4  O   UNL     1       5.219  29.683   0.528  1.00  0.00    -0.246 OA
ATOM      5  O   UNL     1       6.756  28.670  -0.748  1.00  0.00    -0.423 OA
ATOM      6  C   UNL     1       8.010  28.310  -1.010  1.00  0.00     0.142 A 
ATOM      7  C   UNL     1       8.299  27.574  -2.163  1.00  0.00     0.098 A 
ATOM      8  C   UNL     1       9.619  27.190  -2.445  1.00  0.00     0.161 A 
ATOM      9  C   UNL     1      10.656  27.549  -1.564  1.00  0.00     0.158 A 
ATOM     10  C   UNL     1      10.369  28.287  -0.409  1.00  0.00     0.062 A 
ATOM     11  C   UNL     1       9.051  28.669  -0.127  1.00  0.00     0.022 A 
ENDROOT
BRANCH   9  12
ATOM     12  O   UNL     1      11.977  27.181  -1.820  1.00  0.00    -0.504 OA
ATOM     13  H   UNL     1      12.557  26.733  -1.121  1.00  0.00     0.293 HD
ENDBRANCH   9  12
BRANCH   8  14
ATOM     14  O   UNL     1       9.903  26.456  -3.595  1.00  0.00    -0.504 OA
ATOM     15  H   UNL     1       9.647  26.792  -4.516  1.00  0.00     0.293 HD
ENDBRANCH   8  14
TORSDOF 2
ENDMDL
MODEL 2
REMARK VINA RESULT:    -6.093      1.214      2.289
REMARK INTER + INTRA:          -6.449
REMARK INTER:                  -6.449
REMARK INTRA:                   0.000
REMARK UNBOUND:                 0.000
REMARK SMILES O=c1ccc2cc(O)c(O)cc2o1
REMARK SMILES IDX 4 1 3 2 2 3 1 4 13 5 12 6 11 7 9 8 7 9 6 10 5 11 8 12 10 14
REMARK H PARENT 8 13 10 15
REMARK Flexibility Score: inf
ROOT
ATOM      1  C   UNL     1       6.800  28.727  -0.678  1.00  0.00     0.019 A 
ATOM      2  C   UNL     1       6.593  29.417   0.517  1.00  0.00     0.094 A 
ATOM      3  C   UNL     1       7.686  29.672   1.351  1.00  0.00     0.336 A 
ATOM      4  O   UNL     1       7.518  30.294   2.433  1.00  0.00    -0.246 OA
ATOM      5  O   UNL     1       8.905  29.264   1.008  1.00  0.00    -0.423 OA
ATOM      6  C   UNL     1       9.147  28.603  -0.121  1.00  0.00     0.142 A 
ATOM      7  C   UNL     1      10.449  28.198  -0.428  1.00  0.00     0.098 A 
ATOM      8  C   UNL     1      10.712  27.502  -1.618  1.00  0.00     0.161 A 
ATOM      9  C   UNL     1       9.660  27.209  -2.505  1.00  0.00     0.158 A 
ATOM     10  C   UNL     1       8.354  27.613  -2.200  1.00  0.00     0.062 A 
ATOM     11  C   UNL     1       8.093  28.309  -1.012  1.00  0.00     0.022 A 
ENDROOT
BRANCH   9  12
ATOM     12  O   UNL     1       9.893  26.518  -3.694  1.00  0.00    -0.504 OA
ATOM     13  H   UNL     1      10.324  25.602  -3.709  1.00  0.00     0.293 HD
ENDBRANCH   9  12
BRANCH   8  14
ATOM     14  O   UNL     1      12.012  27.101  -1.921  1.00  0.00    -0.504 OA
ATOM     15  H   UNL     1      12.374  27.141  -2.866  1.00  0.00     0.293 HD
ENDBRANCH   8  14
TORSDOF 2
ENDMDL
MODEL 3
REMARK VINA RESULT:    -5.933      9.373     12.527
REMARK INTER + INTRA:          -6.280
REMARK INTER:                  -6.280
REMARK INTRA:                   0.000
REMARK UNBOUND:                 0.000
REMARK SMILES O=c1ccc2cc(O)c(O)cc2o1
REMARK SMILES IDX 4 1 3 2 2 3 1 4 13 5 12 6 11 7 9 8 7 9 6 10 5 11 8 12 10 14
REMARK H PARENT 8 13 10 15
REMARK Flexibility Score: inf
ROOT
ATOM      1  C   UNL     1       4.271  36.678   3.138  1.00  0.00     0.019 A 
ATOM      2  C   UNL     1       4.028  35.325   2.901  1.00  0.00     0.094 A 
ATOM      3  C   UNL     1       3.385  34.570   3.887  1.00  0.00     0.336 A 
ATOM      4  O   UNL     1       3.156  33.347   3.691  1.00  0.00    -0.246 OA
ATOM      5  O   UNL     1       3.011  35.135   5.032  1.00  0.00    -0.423 OA
ATOM      6  C   UNL     1       3.224  36.421   5.299  1.00  0.00     0.142 A 
ATOM      7  C   UNL     1       2.810  36.959   6.520  1.00  0.00     0.098 A 
ATOM      8  C   UNL     1       3.030  38.316   6.807  1.00  0.00     0.161 A 
ATOM      9  C   UNL     1       3.673  39.136   5.862  1.00  0.00     0.158 A 
ATOM     10  C   UNL     1       4.089  38.599   4.638  1.00  0.00     0.062 A 
ATOM     11  C   UNL     1       3.868  37.246   4.351  1.00  0.00     0.022 A 
ENDROOT
BRANCH   9  12
ATOM     12  O   UNL     1       3.905  40.487   6.121  1.00  0.00    -0.504 OA
ATOM     13  H   UNL     1       4.294  41.110   5.425  1.00  0.00     0.293 HD
ENDBRANCH   9  12
BRANCH   8  14
ATOM     14  O   UNL     1       2.615  38.848   8.026  1.00  0.00    -0.504 OA
ATOM     15  H   UNL     1       2.305  39.809   8.108  1.00  0.00     0.293 HD
ENDBRANCH   8  14
TORSDOF 2
ENDMDL
MODEL 4
REMARK VINA RESULT:    -5.906      9.403     12.574
REMARK INTER + INTRA:          -6.252
REMARK INTER:                  -6.252
REMARK INTRA:                   0.000
REMARK UNBOUND:                 0.000
REMARK SMILES O=c1ccc2cc(O)c(O)cc2o1
REMARK SMILES IDX 4 1 3 2 2 3 1 4 13 5 12 6 11 7 9 8 7 9 6 10 5 11 8 12 10 14
REMARK H PARENT 8 13 10 15
REMARK Flexibility Score: inf
ROOT
ATOM      1  C   UNL     1       3.068  35.136   4.938  1.00  0.00     0.019 A 
ATOM      2  C   UNL     1       3.503  34.662   3.700  1.00  0.00     0.094 A 
ATOM      3  C   UNL     1       4.117  35.551   2.812  1.00  0.00     0.336 A 
ATOM      4  O   UNL     1       4.516  35.142   1.690  1.00  0.00    -0.246 OA
ATOM      5  O   UNL     1       4.284  36.828   3.145  1.00  0.00    -0.423 OA
ATOM      6  C   UNL     1       3.884  37.322   4.314  1.00  0.00     0.142 A 
ATOM      7  C   UNL     1       4.085  38.673   4.608  1.00  0.00     0.098 A 
ATOM      8  C   UNL     1       3.667  39.199   5.841  1.00  0.00     0.161 A 
ATOM      9  C   UNL     1       3.041  38.363   6.783  1.00  0.00     0.158 A 
ATOM     10  C   UNL     1       2.837  37.009   6.490  1.00  0.00     0.062 A 
ATOM     11  C   UNL     1       3.256  36.484   5.261  1.00  0.00     0.022 A 
ENDROOT
BRANCH   9  12
ATOM     12  O   UNL     1       2.615  38.860   8.015  1.00  0.00    -0.504 OA
ATOM     13  H   UNL     1       2.592  39.852   8.216  1.00  0.00     0.293 HD
ENDBRANCH   9  12
BRANCH   8  14
ATOM     14  O   UNL     1       3.870  40.547   6.130  1.00  0.00    -0.504 OA
ATOM     15  H   UNL     1       3.896  41.249   5.400  1.00  0.00     0.293 HD
ENDBRANCH   8  14
TORSDOF 2
ENDMDL
MODEL 5
REMARK VINA RESULT:    -5.658      1.255      4.316
REMARK INTER + INTRA:          -5.989
REMARK INTER:                  -5.989
REMARK INTRA:                   0.000
REMARK UNBOUND:                 0.000
REMARK SMILES O=c1ccc2cc(O)c(O)cc2o1
REMARK SMILES IDX 4 1 3 2 2 3 1 4 13 5 12 6 11 7 9 8 7 9 6 10 5 11 8 12 10 14
REMARK H PARENT 8 13 10 15
REMARK Flexibility Score: inf
ROOT
ATOM      1  C   UNL     1      10.460  29.094   0.494  1.00  0.00     0.019 A 
ATOM      2  C   UNL     1      11.711  28.628   0.088  1.00  0.00     0.094 A 
ATOM      3  C   UNL     1      11.785  27.711  -0.966  1.00  0.00     0.336 A 
ATOM      4  O   UNL     1      12.905  27.280  -1.346  1.00  0.00    -0.246 OA
ATOM      5  O   UNL     1      10.677  27.292  -1.572  1.00  0.00    -0.423 OA
ATOM      6  C   UNL     1       9.464  27.710  -1.217  1.00  0.00     0.142 A 
ATOM      7  C   UNL     1       8.336  27.233  -1.890  1.00  0.00     0.098 A 
ATOM      8  C   UNL     1       7.054  27.671  -1.521  1.00  0.00     0.161 A 
ATOM      9  C   UNL     1       6.905  28.592  -0.468  1.00  0.00     0.158 A 
ATOM     10  C   UNL     1       8.034  29.071   0.208  1.00  0.00     0.062 A 
ATOM     11  C   UNL     1       9.313  28.635  -0.161  1.00  0.00     0.022 A 
ENDROOT
BRANCH   9  12
ATOM     12  O   UNL     1       5.643  29.043  -0.081  1.00  0.00    -0.504 OA
ATOM     13  H   UNL     1       4.791  28.605  -0.409  1.00  0.00     0.293 HD
ENDBRANCH   9  12
BRANCH   8  14
ATOM     14  O   UNL     1       5.932  27.193  -2.195  1.00  0.00    -0.504 OA
ATOM     15  H   UNL     1       6.013  26.543  -2.968  1.00  0.00     0.293 HD
ENDBRANCH   8  14
TORSDOF 2
ENDMDL
MODEL 6
REMARK VINA RESULT:    -5.625      1.768      2.725
REMARK INTER + INTRA:          -5.954
REMARK INTER:                  -5.954
REMARK INTRA:                   0.000
REMARK UNBOUND:                 0.000
REMARK SMILES O=c1ccc2cc(O)c(O)cc2o1
REMARK SMILES IDX 4 1 3 2 2 3 1 4 13 5 12 6 11 7 9 8 7 9 6 10 5 11 8 12 10 14
REMARK H PARENT 8 13 10 15
REMARK Flexibility Score: inf
ROOT
ATOM      1  C   UNL     1       8.313  30.354   1.583  1.00  0.00     0.019 A 
ATOM      2  C   UNL     1       7.466  31.188   2.314  1.00  0.00     0.094 A 
ATOM      3  C   UNL     1       6.088  31.123   2.084  1.00  0.00     0.336 A 
ATOM      4  O   UNL     1       5.308  31.867   2.735  1.00  0.00    -0.246 OA
ATOM      5  O   UNL     1       5.594  30.278   1.183  1.00  0.00    -0.423 OA
ATOM      6  C   UNL     1       6.365  29.467   0.464  1.00  0.00     0.142 A 
ATOM      7  C   UNL     1       5.790  28.601  -0.470  1.00  0.00     0.098 A 
ATOM      8  C   UNL     1       6.598  27.741  -1.231  1.00  0.00     0.161 A 
ATOM      9  C   UNL     1       7.994  27.753  -1.054  1.00  0.00     0.158 A 
ATOM     10  C   UNL     1       8.573  28.620  -0.119  1.00  0.00     0.062 A 
ATOM     11  C   UNL     1       7.766  29.477   0.641  1.00  0.00     0.022 A 
ENDROOT
BRANCH   9  12
ATOM     12  O   UNL     1       8.820  26.910  -1.797  1.00  0.00    -0.504 OA
ATOM     13  H   UNL     1       8.808  26.901  -2.809  1.00  0.00     0.293 HD
ENDBRANCH   9  12
BRANCH   8  14
ATOM     14  O   UNL     1       6.019  26.880  -2.160  1.00  0.00    -0.504 OA
ATOM     15  H   UNL     1       5.188  27.138  -2.679  1.00  0.00     0.293 HD
ENDBRANCH   8  14
TORSDOF 2
ENDMDL
MODEL 7
REMARK VINA RESULT:    -5.622      1.699      4.874
REMARK INTER + INTRA:          -5.950
REMARK INTER:                  -5.950
REMARK INTRA:                   0.000
REMARK UNBOUND:                 0.000
REMARK SMILES O=c1ccc2cc(O)c(O)cc2o1
REMARK SMILES IDX 4 1 3 2 2 3 1 4 13 5 12 6 11 7 9 8 7 9 6 10 5 11 8 12 10 14
REMARK H PARENT 8 13 10 15
REMARK Flexibility Score: inf
ROOT
ATOM      1  C   UNL     1       9.241  27.244  -1.665  1.00  0.00     0.019 A 
ATOM      2  C   UNL     1      10.556  27.238  -1.202  1.00  0.00     0.094 A 
ATOM      3  C   UNL     1      10.879  27.984  -0.064  1.00  0.00     0.336 A 
ATOM      4  O   UNL     1      12.061  27.989   0.369  1.00  0.00    -0.246 OA
ATOM      5  O   UNL     1       9.943  28.688   0.567  1.00  0.00    -0.423 OA
ATOM      6  C   UNL     1       8.676  28.723   0.160  1.00  0.00     0.142 A 
ATOM      7  C   UNL     1       7.736  29.482   0.862  1.00  0.00     0.098 A 
ATOM      8  C   UNL     1       6.399  29.521   0.439  1.00  0.00     0.161 A 
ATOM      9  C   UNL     1       6.003  28.795  -0.700  1.00  0.00     0.158 A 
ATOM     10  C   UNL     1       6.943  28.035  -1.406  1.00  0.00     0.062 A 
ATOM     11  C   UNL     1       8.277  27.994  -0.982  1.00  0.00     0.022 A 
ENDROOT
BRANCH   9  12
ATOM     12  O   UNL     1       4.680  28.818  -1.143  1.00  0.00    -0.504 OA
ATOM     13  H   UNL     1       4.242  29.665  -1.484  1.00  0.00     0.293 HD
ENDBRANCH   9  12
BRANCH   8  14
ATOM     14  O   UNL     1       5.465  30.279   1.143  1.00  0.00    -0.504 OA
ATOM     15  H   UNL     1       5.737  30.869   1.921  1.00  0.00     0.293 HD
ENDBRANCH   8  14
TORSDOF 2
ENDMDL
MODEL 8
REMARK VINA RESULT:    -5.606      7.780     10.621
REMARK INTER + INTRA:          -5.934
REMARK INTER:                  -5.934
REMARK INTRA:                   0.000
REMARK UNBOUND:                 0.000
REMARK SMILES O=c1ccc2cc(O)c(O)cc2o1
REMARK SMILES IDX 4 1 3 2 2 3 1 4 13 5 12 6 11 7 9 8 7 9 6 10 5 11 8 12 10 14
REMARK H PARENT 8 13 10 15
REMARK Flexibility Score: inf
ROOT
ATOM      1  C   UNL     1       0.812  29.081   1.671  1.00  0.00     0.019 A 
ATOM      2  C   UNL     1       1.906  28.438   2.251  1.00  0.00     0.094 A 
ATOM      3  C   UNL     1       2.391  28.899   3.480  1.00  0.00     0.336 A 
ATOM      4  O   UNL     1       3.377  28.331   4.019  1.00  0.00    -0.246 OA
ATOM      5  O   UNL     1       1.815  29.935   4.085  1.00  0.00    -0.423 OA
ATOM      6  C   UNL     1       0.771  30.577   3.567  1.00  0.00     0.142 A 
ATOM      7  C   UNL     1       0.208  31.660   4.248  1.00  0.00     0.098 A 
ATOM      8  C   UNL     1      -0.894  32.341   3.708  1.00  0.00     0.161 A 
ATOM      9  C   UNL     1      -1.434  31.932   2.474  1.00  0.00     0.158 A 
ATOM     10  C   UNL     1      -0.872  30.847   1.790  1.00  0.00     0.062 A 
ATOM     11  C   UNL     1       0.228  30.168   2.330  1.00  0.00     0.022 A 
ENDROOT
BRANCH   9  12
ATOM     12  O   UNL     1      -2.529  32.591   1.915  1.00  0.00    -0.504 OA
ATOM     13  H   UNL     1      -3.475  32.434   2.240  1.00  0.00     0.293 HD
ENDBRANCH   9  12
BRANCH   8  14
ATOM     14  O   UNL     1      -1.452  33.420   4.390  1.00  0.00    -0.504 OA
ATOM     15  H   UNL     1      -2.202  33.972   3.990  1.00  0.00     0.293 HD
ENDBRANCH   8  14
TORSDOF 2
ENDMDL
MODEL 9
REMARK VINA RESULT:    -5.594      1.100      4.600
REMARK INTER + INTRA:          -5.921
REMARK INTER:                  -5.921
REMARK INTRA:                   0.000
REMARK UNBOUND:                 0.000
REMARK SMILES O=c1ccc2cc(O)c(O)cc2o1
REMARK SMILES IDX 4 1 3 2 2 3 1 4 13 5 12 6 11 7 9 8 7 9 6 10 5 11 8 12 10 14
REMARK H PARENT 8 13 10 15
REMARK Flexibility Score: inf
ROOT
ATOM      1  C   UNL     1       9.999  28.226  -0.051  1.00  0.00     0.019 A 
ATOM      2  C   UNL     1      10.297  27.465  -1.181  1.00  0.00     0.094 A 
ATOM      3  C   UNL     1       9.280  27.190  -2.101  1.00  0.00     0.336 A 
ATOM      4  O   UNL     1       9.531  26.505  -3.128  1.00  0.00    -0.246 OA
ATOM      5  O   UNL     1       8.048  27.649  -1.900  1.00  0.00    -0.423 OA
ATOM      6  C   UNL     1       7.720  28.378  -0.836  1.00  0.00     0.142 A 
ATOM      7  C   UNL     1       6.407  28.831  -0.677  1.00  0.00     0.098 A 
ATOM      8  C   UNL     1       6.056  29.602   0.443  1.00  0.00     0.161 A 
ATOM      9  C   UNL     1       7.028  29.917   1.410  1.00  0.00     0.158 A 
ATOM     10  C   UNL     1       8.343  29.463   1.254  1.00  0.00     0.062 A 
ATOM     11  C   UNL     1       8.694  28.695   0.136  1.00  0.00     0.022 A 
ENDROOT
BRANCH   9  12
ATOM     12  O   UNL     1       6.705  30.680   2.532  1.00  0.00    -0.504 OA
ATOM     13  H   UNL     1       5.783  30.658   2.950  1.00  0.00     0.293 HD
ENDBRANCH   9  12
BRANCH   8  14
ATOM     14  O   UNL     1       4.746  30.052   0.597  1.00  0.00    -0.504 OA
ATOM     15  H   UNL     1       4.517  31.039   0.570  1.00  0.00     0.293 HD
ENDBRANCH   8  14
TORSDOF 2
ENDMDL
