MODEL 1
REMARK VINA RESULT:    -7.684      0.000      0.000
REMARK INTER + INTRA:         -12.039
REMARK INTER:                 -10.155
REMARK INTRA:                  -1.884
REMARK UNBOUND:                -1.884
REMARK SMILES CC[C@@H](C=C[C@H](C)[C@@H]1CC[C@@H]2C3=CC[C@H]4C[C@@H](O)CC[C@@]4(C)[C@@H]3CC[C@]21C)C(C)C
REMARK SMILES IDX 6 1 7 2 5 3 4 4 3 5 2 6 1 7 28 8 29 9 30 10 8 11 9 12 26 13
REMARK SMILES IDX 10 14 11 15 25 16 27 17 12 18 24 19 23 20 13 21 21 22 14 23
REMARK SMILES IDX 15 24 20 25 22 26 16 27 19 28 17 29 18 30
REMARK H PARENT 18 31
REMARK Flexibility Score: inf
ROOT
ATOM      1  C   UNL     1      -4.661  26.022  49.213  1.00  0.00     0.012 C 
ATOM      2  C   UNL     1      -5.833  26.777  49.899  1.00  0.00     0.012 C 
ENDROOT
BRANCH   1   3
ATOM      3  C   UNL     1      -3.446  26.973  49.241  1.00  0.00    -0.028 C 
ATOM      4  C   UNL     1      -3.243  27.836  48.281  1.00  0.00    -0.027 C 
BRANCH   4   5
ATOM      5  C   UNL     1      -3.619  27.498  46.820  1.00  0.00     0.014 C 
BRANCH   5   6
ATOM      6  C   UNL     1      -2.361  27.942  45.972  1.00  0.00     0.004 C 
ATOM      7  C   UNL     1      -1.927  26.840  45.029  1.00  0.00     0.004 C 
ENDBRANCH   5   6
BRANCH   5   8
ATOM      8  C   UNL     1      -4.910  28.105  46.174  1.00  0.00    -0.011 C 
ATOM      9  C   UNL     1      -6.032  27.061  45.925  1.00  0.00     0.008 C 
ATOM     10  C   UNL     1      -5.366  29.236  47.141  1.00  0.00     0.008 C 
ENDBRANCH   5   8
ENDBRANCH   4   5
ENDBRANCH   1   3
BRANCH   1  11
ATOM     11  C   UNL     1      -4.455  24.609  49.696  1.00  0.00     0.002 C 
ATOM     12  C   UNL     1      -3.169  24.516  50.653  1.00  0.00     0.005 C 
ATOM     13  C   UNL     1      -4.249  23.527  48.611  1.00  0.00    -0.023 C 
ATOM     14  C   UNL     1      -2.201  23.590  49.892  1.00  0.00     0.009 C 
ATOM     15  C   UNL     1      -3.192  22.648  49.275  1.00  0.00     0.021 C 
ATOM     16  C   UNL     1      -5.527  22.645  48.433  1.00  0.00     0.008 C 
ATOM     17  C   UNL     1      -3.770  24.052  47.185  1.00  0.00     0.012 C 
ATOM     18  C   UNL     1      -2.806  21.474  48.589  1.00  0.00    -0.067 C 
ATOM     19  C   UNL     1      -5.119  21.430  47.620  1.00  0.00     0.009 C 
ATOM     20  C   UNL     1      -4.094  20.610  48.430  1.00  0.00     0.021 C 
ATOM     21  C   UNL     1      -1.925  21.455  47.608  1.00  0.00    -0.027 C 
ATOM     22  C   UNL     1      -3.819  19.164  48.014  1.00  0.00    -0.023 C 
ATOM     23  C   UNL     1      -1.508  20.095  47.025  1.00  0.00     0.031 C 
ATOM     24  C   UNL     1      -2.837  19.263  46.760  1.00  0.00     0.002 C 
ATOM     25  C   UNL     1      -3.103  18.426  49.162  1.00  0.00     0.010 C 
ATOM     26  C   UNL     1      -5.192  18.505  47.675  1.00  0.00     0.012 C 
ATOM     27  C   UNL     1      -2.631  17.790  46.216  1.00  0.00     0.036 C 
ATOM     28  C   UNL     1      -2.597  17.023  48.758  1.00  0.00     0.032 C 
ATOM     29  C   UNL     1      -2.095  16.831  47.264  1.00  0.00     0.114 C 
BRANCH  29  30
ATOM     30  O   UNL     1      -0.757  16.188  47.260  1.00  0.00    -0.393 OA
ATOM     31  H   UNL     1      -1.075  15.337  47.484  1.00  0.00     0.210 HD
ENDBRANCH  29  30
ENDBRANCH   1  11
TORSDOF 6
ENDMDL
MODEL 2
REMARK VINA RESULT:    -7.576      0.902      1.338
REMARK INTER + INTRA:         -11.896
REMARK INTER:                  -9.665
REMARK INTRA:                  -2.230
REMARK UNBOUND:                -1.884
REMARK SMILES CC[C@@H](C=C[C@H](C)[C@@H]1CC[C@@H]2C3=CC[C@H]4C[C@@H](O)CC[C@@]4(C)[C@@H]3CC[C@]21C)C(C)C
REMARK SMILES IDX 6 1 7 2 5 3 4 4 3 5 2 6 1 7 28 8 29 9 30 10 8 11 9 12 26 13
REMARK SMILES IDX 10 14 11 15 25 16 27 17 12 18 24 19 23 20 13 21 21 22 14 23
REMARK SMILES IDX 15 24 20 25 22 26 16 27 19 28 17 29 18 30
REMARK H PARENT 18 31
REMARK Flexibility Score: inf
ROOT
ATOM      1  C   UNL     1      -4.233  25.914  49.273  1.00  0.00     0.012 C 
ATOM      2  C   UNL     1      -5.612  26.570  49.559  1.00  0.00     0.012 C 
ENDROOT
BRANCH   1   3
ATOM      3  C   UNL     1      -3.159  26.924  49.733  1.00  0.00    -0.028 C 
ATOM      4  C   UNL     1      -2.518  27.665  48.870  1.00  0.00    -0.027 C 
BRANCH   4   5
ATOM      5  C   UNL     1      -2.169  27.122  47.464  1.00  0.00     0.014 C 
BRANCH   5   6
ATOM      6  C   UNL     1      -0.593  27.012  47.460  1.00  0.00     0.004 C 
ATOM      7  C   UNL     1      -0.150  25.566  47.535  1.00  0.00     0.004 C 
ENDBRANCH   5   6
BRANCH   5   8
ATOM      8  C   UNL     1      -2.631  27.893  46.181  1.00  0.00    -0.011 C 
ATOM      9  C   UNL     1      -1.766  27.592  44.928  1.00  0.00     0.008 C 
ATOM     10  C   UNL     1      -4.122  27.498  45.973  1.00  0.00     0.008 C 
ENDBRANCH   5   8
ENDBRANCH   4   5
ENDBRANCH   1   3
BRANCH   1  11
ATOM     11  C   UNL     1      -4.103  24.489  49.749  1.00  0.00     0.002 C 
ATOM     12  C   UNL     1      -2.812  24.318  50.689  1.00  0.00     0.005 C 
ATOM     13  C   UNL     1      -3.975  23.401  48.659  1.00  0.00    -0.023 C 
ATOM     14  C   UNL     1      -1.910  23.340  49.912  1.00  0.00     0.009 C 
ATOM     15  C   UNL     1      -2.963  22.459  49.306  1.00  0.00     0.021 C 
ATOM     16  C   UNL     1      -5.305  22.596  48.496  1.00  0.00     0.008 C 
ATOM     17  C   UNL     1      -3.485  23.903  47.228  1.00  0.00     0.012 C 
ATOM     18  C   UNL     1      -2.655  21.268  48.612  1.00  0.00    -0.067 C 
ATOM     19  C   UNL     1      -4.980  21.363  47.674  1.00  0.00     0.009 C 
ATOM     20  C   UNL     1      -3.994  20.481  48.468  1.00  0.00     0.021 C 
ATOM     21  C   UNL     1      -1.790  21.201  47.619  1.00  0.00    -0.027 C 
ATOM     22  C   UNL     1      -3.809  19.022  48.043  1.00  0.00    -0.023 C 
ATOM     23  C   UNL     1      -1.461  19.821  47.026  1.00  0.00     0.031 C 
ATOM     24  C   UNL     1      -2.840  19.069  46.777  1.00  0.00     0.002 C 
ATOM     25  C   UNL     1      -3.122  18.240  49.180  1.00  0.00     0.010 C 
ATOM     26  C   UNL     1      -5.222  18.446  47.722  1.00  0.00     0.012 C 
ATOM     27  C   UNL     1      -2.728  17.588  46.226  1.00  0.00     0.036 C 
ATOM     28  C   UNL     1      -2.705  16.811  48.765  1.00  0.00     0.032 C 
ATOM     29  C   UNL     1      -2.234  16.596  47.264  1.00  0.00     0.114 C 
BRANCH  29  30
ATOM     30  O   UNL     1      -0.937  15.876  47.240  1.00  0.00    -0.393 OA
ATOM     31  H   UNL     1      -0.505  16.467  47.822  1.00  0.00     0.210 HD
ENDBRANCH  29  30
ENDBRANCH   1  11
TORSDOF 6
ENDMDL
MODEL 3
REMARK VINA RESULT:    -7.423      1.163      2.012
REMARK INTER + INTRA:         -11.694
REMARK INTER:                  -9.680
REMARK INTRA:                  -2.014
REMARK UNBOUND:                -1.884
REMARK SMILES CC[C@@H](C=C[C@H](C)[C@@H]1CC[C@@H]2C3=CC[C@H]4C[C@@H](O)CC[C@@]4(C)[C@@H]3CC[C@]21C)C(C)C
REMARK SMILES IDX 6 1 7 2 5 3 4 4 3 5 2 6 1 7 28 8 29 9 30 10 8 11 9 12 26 13
REMARK SMILES IDX 10 14 11 15 25 16 27 17 12 18 24 19 23 20 13 21 21 22 14 23
REMARK SMILES IDX 15 24 20 25 22 26 16 27 19 28 17 29 18 30
REMARK H PARENT 18 31
REMARK Flexibility Score: inf
ROOT
ATOM      1  C   UNL     1      -4.693  25.929  49.659  1.00  0.00     0.012 C 
ATOM      2  C   UNL     1      -6.062  26.342  49.053  1.00  0.00     0.012 C 
ENDROOT
BRANCH   1   3
ATOM      3  C   UNL     1      -4.356  26.972  50.746  1.00  0.00    -0.028 C 
ATOM      4  C   UNL     1      -3.472  27.909  50.530  1.00  0.00    -0.027 C 
BRANCH   4   5
ATOM      5  C   UNL     1      -2.229  27.638  49.651  1.00  0.00     0.014 C 
BRANCH   5   6
ATOM      6  C   UNL     1      -1.000  27.909  50.606  1.00  0.00     0.004 C 
ATOM      7  C   UNL     1      -0.526  26.626  51.257  1.00  0.00     0.004 C 
ENDBRANCH   5   6
BRANCH   5   8
ATOM      8  C   UNL     1      -2.019  28.424  48.312  1.00  0.00    -0.011 C 
ATOM      9  C   UNL     1      -2.403  27.612  47.046  1.00  0.00     0.008 C 
ATOM     10  C   UNL     1      -2.865  29.722  48.456  1.00  0.00     0.008 C 
ENDBRANCH   5   8
ENDBRANCH   4   5
ENDBRANCH   1   3
BRANCH   1  11
ATOM     11  C   UNL     1      -4.584  24.471  50.030  1.00  0.00     0.002 C 
ATOM     12  C   UNL     1      -3.438  24.248  51.132  1.00  0.00     0.005 C 
ATOM     13  C   UNL     1      -4.261  23.485  48.885  1.00  0.00    -0.023 C 
ATOM     14  C   UNL     1      -2.399  23.362  50.419  1.00  0.00     0.009 C 
ATOM     15  C   UNL     1      -3.322  22.513  49.594  1.00  0.00     0.021 C 
ATOM     16  C   UNL     1      -5.525  22.667  48.461  1.00  0.00     0.008 C 
ATOM     17  C   UNL     1      -3.587  24.119  47.588  1.00  0.00     0.012 C 
ATOM     18  C   UNL     1      -2.875  21.393  48.857  1.00  0.00    -0.067 C 
ATOM     19  C   UNL     1      -5.042  21.517  47.598  1.00  0.00     0.009 C 
ATOM     20  C   UNL     1      -4.151  20.592  48.453  1.00  0.00     0.021 C 
ATOM     21  C   UNL     1      -1.874  21.432  48.001  1.00  0.00    -0.027 C 
ATOM     22  C   UNL     1      -3.856  19.180  47.943  1.00  0.00    -0.023 C 
ATOM     23  C   UNL     1      -1.415  20.115  47.352  1.00  0.00     0.031 C 
ATOM     24  C   UNL     1      -2.715  19.357  46.841  1.00  0.00     0.002 C 
ATOM     25  C   UNL     1      -3.314  18.318  49.100  1.00  0.00     0.010 C 
ATOM     26  C   UNL     1      -5.187  18.602  47.370  1.00  0.00     0.012 C 
ATOM     27  C   UNL     1      -2.474  17.932  46.193  1.00  0.00     0.036 C 
ATOM     28  C   UNL     1      -2.792  16.940  48.635  1.00  0.00     0.032 C 
ATOM     29  C   UNL     1      -2.102  16.866  47.207  1.00  0.00     0.114 C 
BRANCH  29  30
ATOM     30  O   UNL     1      -0.791  16.179  47.316  1.00  0.00    -0.393 OA
ATOM     31  H   UNL     1      -0.758  15.923  46.417  1.00  0.00     0.210 HD
ENDBRANCH  29  30
ENDBRANCH   1  11
TORSDOF 6
ENDMDL
MODEL 4
REMARK VINA RESULT:    -7.350      1.775      3.534
REMARK INTER + INTRA:         -11.596
REMARK INTER:                  -9.477
REMARK INTRA:                  -2.120
REMARK UNBOUND:                -1.884
REMARK SMILES CC[C@@H](C=C[C@H](C)[C@@H]1CC[C@@H]2C3=CC[C@H]4C[C@@H](O)CC[C@@]4(C)[C@@H]3CC[C@]21C)C(C)C
REMARK SMILES IDX 6 1 7 2 5 3 4 4 3 5 2 6 1 7 28 8 29 9 30 10 8 11 9 12 26 13
REMARK SMILES IDX 10 14 11 15 25 16 27 17 12 18 24 19 23 20 13 21 21 22 14 23
REMARK SMILES IDX 15 24 20 25 22 26 16 27 19 28 17 29 18 30
REMARK H PARENT 18 31
REMARK Flexibility Score: inf
ROOT
ATOM      1  C   UNL     1      -4.685  26.628  49.227  1.00  0.00     0.012 C 
ATOM      2  C   UNL     1      -5.285  27.633  48.205  1.00  0.00     0.012 C 
ENDROOT
BRANCH   1   3
ATOM      3  C   UNL     1      -4.950  27.214  50.630  1.00  0.00    -0.028 C 
ATOM      4  C   UNL     1      -3.965  27.478  51.447  1.00  0.00    -0.027 C 
BRANCH   4   5
ATOM      5  C   UNL     1      -2.697  26.592  51.471  1.00  0.00     0.014 C 
BRANCH   5   6
ATOM      6  C   UNL     1      -2.774  25.825  52.850  1.00  0.00     0.004 C 
ATOM      7  C   UNL     1      -3.558  26.622  53.871  1.00  0.00     0.004 C 
ENDBRANCH   5   6
BRANCH   5   8
ATOM      8  C   UNL     1      -1.278  27.239  51.325  1.00  0.00    -0.011 C 
ATOM      9  C   UNL     1      -0.136  26.202  51.144  1.00  0.00     0.008 C 
ATOM     10  C   UNL     1      -1.385  28.210  50.113  1.00  0.00     0.008 C 
ENDBRANCH   5   8
ENDBRANCH   4   5
ENDBRANCH   1   3
BRANCH   1  11
ATOM     11  C   UNL     1      -5.062  25.188  48.987  1.00  0.00     0.002 C 
ATOM     12  C   UNL     1      -5.552  24.493  50.349  1.00  0.00     0.005 C 
ATOM     13  C   UNL     1      -3.958  24.266  48.420  1.00  0.00    -0.023 C 
ATOM     14  C   UNL     1      -4.510  23.387  50.602  1.00  0.00     0.009 C 
ATOM     15  C   UNL     1      -4.237  22.975  49.185  1.00  0.00     0.021 C 
ATOM     16  C   UNL     1      -4.193  23.957  46.906  1.00  0.00     0.008 C 
ATOM     17  C   UNL     1      -2.459  24.765  48.628  1.00  0.00     0.012 C 
ATOM     18  C   UNL     1      -3.452  21.847  48.856  1.00  0.00    -0.067 C 
ATOM     19  C   UNL     1      -3.280  22.801  46.542  1.00  0.00     0.009 C 
ATOM     20  C   UNL     1      -3.708  21.555  47.345  1.00  0.00     0.021 C 
ATOM     21  C   UNL     1      -2.239  21.636  49.328  1.00  0.00    -0.027 C 
ATOM     22  C   UNL     1      -3.211  20.182  46.890  1.00  0.00    -0.023 C 
ATOM     23  C   UNL     1      -1.539  20.311  48.981  1.00  0.00     0.031 C 
ATOM     24  C   UNL     1      -1.708  20.078  47.417  1.00  0.00     0.002 C 
ATOM     25  C   UNL     1      -4.060  19.081  47.557  1.00  0.00     0.010 C 
ATOM     26  C   UNL     1      -3.326  20.134  45.335  1.00  0.00     0.012 C 
ATOM     27  C   UNL     1      -1.113  18.724  46.853  1.00  0.00     0.036 C 
ATOM     28  C   UNL     1      -3.500  17.660  47.322  1.00  0.00     0.032 C 
ATOM     29  C   UNL     1      -1.922  17.501  47.247  1.00  0.00     0.114 C 
BRANCH  29  30
ATOM     30  O   UNL     1      -1.481  16.413  48.154  1.00  0.00    -0.393 OA
ATOM     31  H   UNL     1      -2.345  16.177  48.424  1.00  0.00     0.210 HD
ENDBRANCH  29  30
ENDBRANCH   1  11
TORSDOF 6
ENDMDL
MODEL 5
REMARK VINA RESULT:    -7.226      2.649      3.791
REMARK INTER + INTRA:         -11.433
REMARK INTER:                  -9.449
REMARK INTRA:                  -1.984
REMARK UNBOUND:                -1.884
REMARK SMILES CC[C@@H](C=C[C@H](C)[C@@H]1CC[C@@H]2C3=CC[C@H]4C[C@@H](O)CC[C@@]4(C)[C@@H]3CC[C@]21C)C(C)C
REMARK SMILES IDX 6 1 7 2 5 3 4 4 3 5 2 6 1 7 28 8 29 9 30 10 8 11 9 12 26 13
REMARK SMILES IDX 10 14 11 15 25 16 27 17 12 18 24 19 23 20 13 21 21 22 14 23
REMARK SMILES IDX 15 24 20 25 22 26 16 27 19 28 17 29 18 30
REMARK H PARENT 18 31
REMARK Flexibility Score: inf
ROOT
ATOM      1  C   UNL     1      -2.232  26.100  52.705  1.00  0.00     0.012 C 
ATOM      2  C   UNL     1      -3.225  26.736  53.715  1.00  0.00     0.012 C 
ENDROOT
BRANCH   1   3
ATOM      3  C   UNL     1      -0.812  26.455  53.197  1.00  0.00    -0.028 C 
ATOM      4  C   UNL     1      -0.221  27.555  52.812  1.00  0.00    -0.027 C 
BRANCH   4   5
ATOM      5  C   UNL     1      -0.446  28.118  51.389  1.00  0.00     0.014 C 
BRANCH   5   6
ATOM      6  C   UNL     1       1.007  28.406  50.841  1.00  0.00     0.004 C 
ATOM      7  C   UNL     1       1.179  27.847  49.444  1.00  0.00     0.004 C 
ENDBRANCH   5   6
BRANCH   5   8
ATOM      8  C   UNL     1      -1.335  29.390  51.174  1.00  0.00    -0.011 C 
ATOM      9  C   UNL     1      -2.742  29.076  50.599  1.00  0.00     0.008 C 
ATOM     10  C   UNL     1      -1.411  30.084  52.565  1.00  0.00     0.008 C 
ENDBRANCH   5   8
ENDBRANCH   4   5
ENDBRANCH   1   3
BRANCH   1  11
ATOM     11  C   UNL     1      -2.514  24.658  52.367  1.00  0.00     0.002 C 
ATOM     12  C   UNL     1      -1.348  23.704  52.919  1.00  0.00     0.005 C 
ATOM     13  C   UNL     1      -2.664  24.312  50.868  1.00  0.00    -0.023 C 
ATOM     14  C   UNL     1      -0.731  23.090  51.647  1.00  0.00     0.009 C 
ATOM     15  C   UNL     1      -1.971  22.954  50.812  1.00  0.00     0.021 C 
ATOM     16  C   UNL     1      -4.161  24.074  50.483  1.00  0.00     0.008 C 
ATOM     17  C   UNL     1      -2.017  25.349  49.845  1.00  0.00     0.012 C 
ATOM     18  C   UNL     1      -1.987  22.270  49.576  1.00  0.00    -0.067 C 
ATOM     19  C   UNL     1      -4.169  23.419  49.114  1.00  0.00     0.009 C 
ATOM     20  C   UNL     1      -3.487  22.040  49.217  1.00  0.00     0.021 C 
ATOM     21  C   UNL     1      -1.148  22.521  48.589  1.00  0.00    -0.027 C 
ATOM     22  C   UNL     1      -3.703  21.028  48.089  1.00  0.00    -0.023 C 
ATOM     23  C   UNL     1      -1.200  21.626  47.340  1.00  0.00     0.031 C 
ATOM     24  C   UNL     1      -2.725  21.489  46.915  1.00  0.00     0.002 C 
ATOM     25  C   UNL     1      -3.290  19.624  48.572  1.00  0.00     0.010 C 
ATOM     26  C   UNL     1      -5.211  21.081  47.696  1.00  0.00     0.012 C 
ATOM     27  C   UNL     1      -3.014  20.544  45.677  1.00  0.00     0.036 C 
ATOM     28  C   UNL     1      -3.274  18.574  47.438  1.00  0.00     0.032 C 
ATOM     29  C   UNL     1      -2.842  19.069  45.993  1.00  0.00     0.114 C 
BRANCH  29  30
ATOM     30  O   UNL     1      -1.796  18.171  45.444  1.00  0.00    -0.393 OA
ATOM     31  H   UNL     1      -1.676  18.658  44.654  1.00  0.00     0.210 HD
ENDBRANCH  29  30
ENDBRANCH   1  11
TORSDOF 6
ENDMDL
MODEL 6
REMARK VINA RESULT:    -7.219      3.345      8.504
REMARK INTER + INTRA:         -11.424
REMARK INTER:                 -10.824
REMARK INTRA:                  -0.601
REMARK UNBOUND:                -1.884
REMARK SMILES CC[C@@H](C=C[C@H](C)[C@@H]1CC[C@@H]2C3=CC[C@H]4C[C@@H](O)CC[C@@]4(C)[C@@H]3CC[C@]21C)C(C)C
REMARK SMILES IDX 6 1 7 2 5 3 4 4 3 5 2 6 1 7 28 8 29 9 30 10 8 11 9 12 26 13
REMARK SMILES IDX 10 14 11 15 25 16 27 17 12 18 24 19 23 20 13 21 21 22 14 23
REMARK SMILES IDX 15 24 20 25 22 26 16 27 19 28 17 29 18 30
REMARK H PARENT 18 31
REMARK Flexibility Score: inf
ROOT
ATOM      1  C   UNL     1      -3.048  19.952  46.941  1.00  0.00     0.012 C 
ATOM      2  C   UNL     1      -3.233  20.604  45.543  1.00  0.00     0.012 C 
ENDROOT
BRANCH   1   3
ATOM      3  C   UNL     1      -1.579  19.485  47.020  1.00  0.00    -0.028 C 
ATOM      4  C   UNL     1      -1.207  18.340  46.512  1.00  0.00    -0.027 C 
BRANCH   4   5
ATOM      5  C   UNL     1      -2.155  17.118  46.536  1.00  0.00     0.014 C 
BRANCH   5   6
ATOM      6  C   UNL     1      -1.809  16.373  47.886  1.00  0.00     0.004 C 
ATOM      7  C   UNL     1      -2.892  16.593  48.920  1.00  0.00     0.004 C 
ENDBRANCH   5   6
BRANCH   5   8
ATOM      8  C   UNL     1      -2.140  16.083  45.361  1.00  0.00    -0.011 C 
ATOM      9  C   UNL     1      -3.299  16.275  44.347  1.00  0.00     0.008 C 
ATOM     10  C   UNL     1      -0.743  16.233  44.692  1.00  0.00     0.008 C 
ENDBRANCH   5   8
ENDBRANCH   4   5
ENDBRANCH   1   3
BRANCH   1  11
ATOM     11  C   UNL     1      -3.586  20.766  48.091  1.00  0.00     0.002 C 
ATOM     12  C   UNL     1      -5.065  21.300  47.768  1.00  0.00     0.005 C 
ATOM     13  C   UNL     1      -2.771  22.013  48.502  1.00  0.00    -0.023 C 
ATOM     14  C   UNL     1      -4.915  22.833  47.746  1.00  0.00     0.009 C 
ATOM     15  C   UNL     1      -3.891  22.997  48.831  1.00  0.00     0.021 C 
ATOM     16  C   UNL     1      -1.978  21.767  49.827  1.00  0.00     0.008 C 
ATOM     17  C   UNL     1      -1.780  22.593  47.396  1.00  0.00     0.012 C 
ATOM     18  C   UNL     1      -3.512  24.260  49.339  1.00  0.00    -0.067 C 
ATOM     19  C   UNL     1      -1.501  23.122  50.317  1.00  0.00     0.009 C 
ATOM     20  C   UNL     1      -2.730  23.988  50.661  1.00  0.00     0.021 C 
ATOM     21  C   UNL     1      -3.116  25.265  48.583  1.00  0.00    -0.027 C 
ATOM     22  C   UNL     1      -2.530  25.235  51.525  1.00  0.00    -0.023 C 
ATOM     23  C   UNL     1      -2.843  26.621  49.253  1.00  0.00     0.031 C 
ATOM     24  C   UNL     1      -1.949  26.347  50.539  1.00  0.00     0.002 C 
ATOM     25  C   UNL     1      -3.893  25.704  52.073  1.00  0.00     0.010 C 
ATOM     26  C   UNL     1      -1.549  24.854  52.676  1.00  0.00     0.012 C 
ATOM     27  C   UNL     1      -1.605  27.614  51.423  1.00  0.00     0.036 C 
ATOM     28  C   UNL     1      -3.819  27.074  52.784  1.00  0.00     0.032 C 
ATOM     29  C   UNL     1      -2.791  28.140  52.210  1.00  0.00     0.114 C 
BRANCH  29  30
ATOM     30  O   UNL     1      -3.477  29.439  51.999  1.00  0.00    -0.393 OA
ATOM     31  H   UNL     1      -4.208  29.073  51.545  1.00  0.00     0.210 HD
ENDBRANCH  29  30
ENDBRANCH   1  11
TORSDOF 6
ENDMDL
MODEL 7
REMARK VINA RESULT:    -7.102      1.209      2.365
REMARK INTER + INTRA:         -11.269
REMARK INTER:                 -10.886
REMARK INTRA:                  -0.383
REMARK UNBOUND:                -1.884
REMARK SMILES CC[C@@H](C=C[C@H](C)[C@@H]1CC[C@@H]2C3=CC[C@H]4C[C@@H](O)CC[C@@]4(C)[C@@H]3CC[C@]21C)C(C)C
REMARK SMILES IDX 6 1 7 2 5 3 4 4 3 5 2 6 1 7 28 8 29 9 30 10 8 11 9 12 26 13
REMARK SMILES IDX 10 14 11 15 25 16 27 17 12 18 24 19 23 20 13 21 21 22 14 23
REMARK SMILES IDX 15 24 20 25 22 26 16 27 19 28 17 29 18 30
REMARK H PARENT 18 31
REMARK Flexibility Score: inf
ROOT
ATOM      1  C   UNL     1      -4.007  26.190  48.047  1.00  0.00     0.012 C 
ATOM      2  C   UNL     1      -2.710  26.926  47.614  1.00  0.00     0.012 C 
ENDROOT
BRANCH   1   3
ATOM      3  C   UNL     1      -4.939  26.176  46.817  1.00  0.00    -0.028 C 
ATOM      4  C   UNL     1      -5.769  27.160  46.589  1.00  0.00    -0.027 C 
BRANCH   4   5
ATOM      5  C   UNL     1      -6.443  27.914  47.759  1.00  0.00     0.014 C 
BRANCH   5   6
ATOM      6  C   UNL     1      -7.248  26.800  48.539  1.00  0.00     0.004 C 
ATOM      7  C   UNL     1      -6.947  26.854  50.022  1.00  0.00     0.004 C 
ENDBRANCH   5   6
BRANCH   5   8
ATOM      8  C   UNL     1      -7.394  29.126  47.474  1.00  0.00    -0.011 C 
ATOM      9  C   UNL     1      -6.862  30.091  46.381  1.00  0.00     0.008 C 
ATOM     10  C   UNL     1      -8.764  28.499  47.087  1.00  0.00     0.008 C 
ENDBRANCH   5   8
ENDBRANCH   4   5
ENDBRANCH   1   3
BRANCH   1  11
ATOM     11  C   UNL     1      -3.779  24.885  48.767  1.00  0.00     0.002 C 
ATOM     12  C   UNL     1      -2.344  24.874  49.486  1.00  0.00     0.005 C 
ATOM     13  C   UNL     1      -3.828  23.600  47.909  1.00  0.00    -0.023 C 
ATOM     14  C   UNL     1      -1.577  23.742  48.776  1.00  0.00     0.009 C 
ATOM     15  C   UNL     1      -2.708  22.782  48.547  1.00  0.00     0.021 C 
ATOM     16  C   UNL     1      -5.157  22.808  48.140  1.00  0.00     0.008 C 
ATOM     17  C   UNL     1      -3.599  23.798  46.345  1.00  0.00     0.012 C 
ATOM     18  C   UNL     1      -2.510  21.470  48.061  1.00  0.00    -0.067 C 
ATOM     19  C   UNL     1      -4.963  21.430  47.536  1.00  0.00     0.009 C 
ATOM     20  C   UNL     1      -3.844  20.701  48.308  1.00  0.00     0.021 C 
ATOM     21  C   UNL     1      -1.829  21.189  46.968  1.00  0.00    -0.027 C 
ATOM     22  C   UNL     1      -3.717  19.183  48.157  1.00  0.00    -0.023 C 
ATOM     23  C   UNL     1      -1.591  19.712  46.613  1.00  0.00     0.031 C 
ATOM     24  C   UNL     1      -2.982  18.956  46.759  1.00  0.00     0.002 C 
ATOM     25  C   UNL     1      -2.835  18.626  49.291  1.00  0.00     0.010 C 
ATOM     26  C   UNL     1      -5.158  18.587  48.203  1.00  0.00     0.012 C 
ATOM     27  C   UNL     1      -2.949  17.394  46.503  1.00  0.00     0.036 C 
ATOM     28  C   UNL     1      -2.478  17.134  49.103  1.00  0.00     0.032 C 
ATOM     29  C   UNL     1      -2.271  16.616  47.616  1.00  0.00     0.114 C 
BRANCH  29  30
ATOM     30  O   UNL     1      -0.989  15.876  47.514  1.00  0.00    -0.393 OA
ATOM     31  H   UNL     1      -0.835  15.852  48.436  1.00  0.00     0.210 HD
ENDBRANCH  29  30
ENDBRANCH   1  11
TORSDOF 6
ENDMDL
MODEL 8
REMARK VINA RESULT:    -6.893      1.492      2.216
REMARK INTER + INTRA:         -10.993
REMARK INTER:                  -9.010
REMARK INTRA:                  -1.984
REMARK UNBOUND:                -1.884
REMARK SMILES CC[C@@H](C=C[C@H](C)[C@@H]1CC[C@@H]2C3=CC[C@H]4C[C@@H](O)CC[C@@]4(C)[C@@H]3CC[C@]21C)C(C)C
REMARK SMILES IDX 6 1 7 2 5 3 4 4 3 5 2 6 1 7 28 8 29 9 30 10 8 11 9 12 26 13
REMARK SMILES IDX 10 14 11 15 25 16 27 17 12 18 24 19 23 20 13 21 21 22 14 23
REMARK SMILES IDX 15 24 20 25 22 26 16 27 19 28 17 29 18 30
REMARK H PARENT 18 31
REMARK Flexibility Score: inf
ROOT
ATOM      1  C   UNL     1      -3.409  25.930  49.805  1.00  0.00     0.012 C 
ATOM      2  C   UNL     1      -3.604  26.306  51.299  1.00  0.00     0.012 C 
ENDROOT
BRANCH   1   3
ATOM      3  C   UNL     1      -3.078  27.239  49.058  1.00  0.00    -0.028 C 
ATOM      4  C   UNL     1      -4.025  27.994  48.569  1.00  0.00    -0.027 C 
BRANCH   4   5
ATOM      5  C   UNL     1      -5.320  27.370  47.997  1.00  0.00     0.014 C 
BRANCH   5   6
ATOM      6  C   UNL     1      -5.194  27.555  46.433  1.00  0.00     0.004 C 
ATOM      7  C   UNL     1      -4.212  26.562  45.847  1.00  0.00     0.004 C 
ENDBRANCH   5   6
BRANCH   5   8
ATOM      8  C   UNL     1      -6.722  27.891  48.462  1.00  0.00    -0.011 C 
ATOM      9  C   UNL     1      -7.759  27.997  47.313  1.00  0.00     0.008 C 
ATOM     10  C   UNL     1      -7.181  26.909  49.578  1.00  0.00     0.008 C 
ENDBRANCH   5   8
ENDBRANCH   4   5
ENDBRANCH   1   3
BRANCH   1  11
ATOM     11  C   UNL     1      -2.510  24.742  49.567  1.00  0.00     0.002 C 
ATOM     12  C   UNL     1      -1.283  25.139  48.611  1.00  0.00     0.005 C 
ATOM     13  C   UNL     1      -3.160  23.497  48.921  1.00  0.00    -0.023 C 
ATOM     14  C   UNL     1      -1.491  24.272  47.354  1.00  0.00     0.009 C 
ATOM     15  C   UNL     1      -2.038  23.031  47.997  1.00  0.00     0.021 C 
ATOM     16  C   UNL     1      -3.387  22.361  49.970  1.00  0.00     0.008 C 
ATOM     17  C   UNL     1      -4.515  23.754  48.122  1.00  0.00     0.012 C 
ATOM     18  C   UNL     1      -2.247  21.830  47.282  1.00  0.00    -0.067 C 
ATOM     19  C   UNL     1      -3.697  21.095  49.193  1.00  0.00     0.009 C 
ATOM     20  C   UNL     1      -2.464  20.713  48.349  1.00  0.00     0.021 C 
ATOM     21  C   UNL     1      -2.938  21.755  46.162  1.00  0.00    -0.027 C 
ATOM     22  C   UNL     1      -2.373  19.294  47.782  1.00  0.00    -0.023 C 
ATOM     23  C   UNL     1      -2.992  20.407  45.424  1.00  0.00     0.031 C 
ATOM     24  C   UNL     1      -3.326  19.287  46.502  1.00  0.00     0.002 C 
ATOM     25  C   UNL     1      -0.924  19.010  47.339  1.00  0.00     0.010 C 
ATOM     26  C   UNL     1      -2.835  18.313  48.903  1.00  0.00     0.012 C 
ATOM     27  C   UNL     1      -3.362  17.799  45.962  1.00  0.00     0.036 C 
ATOM     28  C   UNL     1      -0.779  17.681  46.564  1.00  0.00     0.032 C 
ATOM     29  C   UNL     1      -1.988  17.245  45.632  1.00  0.00     0.114 C 
BRANCH  29  30
ATOM     30  O   UNL     1      -1.484  16.900  44.279  1.00  0.00    -0.393 OA
ATOM     31  H   UNL     1      -0.739  16.426  44.588  1.00  0.00     0.210 HD
ENDBRANCH  29  30
ENDBRANCH   1  11
TORSDOF 6
ENDMDL
