MODEL 1
REMARK VINA RESULT:    -6.767      0.000      0.000
REMARK INTER + INTRA:          -8.484
REMARK INTER:                  -8.151
REMARK INTRA:                  -0.333
REMARK UNBOUND:                -0.333
REMARK SMILES O=c1c(O)c(-c2ccc(O)c(O)c2)oc2cc(O)cc(O)c12
REMARK SMILES IDX 5 1 3 2 2 3 1 4 22 5 20 6 19 7 17 8 16 9 15 10 14 11 6 12
REMARK SMILES IDX 7 13 8 14 9 15 13 16 11 17 10 18 12 20 4 22 21 24 18 26
REMARK H PARENT 10 19 12 21 4 23 21 25 18 27
REMARK Flexibility Score: inf
ROOT
ATOM      1  C   UNL     1       9.684  11.634 -16.021  1.00  0.00     0.180 A 
ATOM      2  C   UNL     1      10.382  10.444 -16.302  1.00  0.00     0.208 A 
ATOM      3  C   UNL     1      10.048   9.278 -15.596  1.00  0.00     0.238 A 
ATOM      4  O   UNL     1      10.658   8.204 -15.847  1.00  0.00    -0.285 OA
ATOM      5  C   UNL     1       9.040   9.325 -14.609  1.00  0.00     0.111 A 
ATOM      6  C   UNL     1       8.647   8.197 -13.850  1.00  0.00     0.134 A 
ATOM      7  C   UNL     1       7.641   8.327 -12.881  1.00  0.00     0.093 A 
ATOM      8  C   UNL     1       7.025   9.560 -12.655  1.00  0.00     0.123 A 
ATOM      9  C   UNL     1       7.410  10.678 -13.402  1.00  0.00     0.094 A 
ATOM     10  C   UNL     1       8.408  10.568 -14.374  1.00  0.00     0.146 A 
ATOM     11  O   UNL     1       8.751  11.645 -15.073  1.00  0.00    -0.452 OA
ENDROOT
BRANCH   1  12
ATOM     12  C   UNL     1       9.966  12.900 -16.736  1.00  0.00     0.025 A 
ATOM     13  C   UNL     1      10.834  13.840 -16.159  1.00  0.00     0.016 A 
ATOM     14  C   UNL     1      11.098  15.050 -16.807  1.00  0.00     0.051 A 
ATOM     15  C   UNL     1      10.486  15.344 -18.032  1.00  0.00     0.157 A 
ATOM     16  C   UNL     1       9.338  13.207 -17.955  1.00  0.00     0.062 A 
ATOM     17  C   UNL     1       9.598  14.419 -18.606  1.00  0.00     0.158 A 
BRANCH  15  18
ATOM     18  O   UNL     1      10.752  16.551 -18.676  1.00  0.00    -0.504 OA
ATOM     19  H   UNL     1      10.631  17.441 -18.207  1.00  0.00     0.293 HD
ENDBRANCH  15  18
BRANCH  17  20
ATOM     20  O   UNL     1       8.961  14.688 -19.817  1.00  0.00    -0.504 OA
ATOM     21  H   UNL     1       7.976  14.506 -19.960  1.00  0.00     0.293 HD
ENDBRANCH  17  20
ENDBRANCH   1  12
BRANCH   2  22
ATOM     22  O   UNL     1      11.410  10.436 -17.249  1.00  0.00    -0.502 OA
ATOM     23  H   UNL     1      11.240  10.597 -18.235  1.00  0.00     0.293 HD
ENDBRANCH   2  22
BRANCH   6  24
ATOM     24  O   UNL     1       9.244   6.952 -14.052  1.00  0.00    -0.507 OA
ATOM     25  H   UNL     1       8.706   6.144 -14.341  1.00  0.00     0.293 HD
ENDBRANCH   6  24
BRANCH   8  26
ATOM     26  O   UNL     1       6.031   9.663 -11.685  1.00  0.00    -0.508 OA
ATOM     27  H   UNL     1       6.185  10.168 -10.819  1.00  0.00     0.293 HD
ENDBRANCH   8  26
TORSDOF 6
ENDMDL
MODEL 2
REMARK VINA RESULT:    -6.620      1.676      7.268
REMARK INTER + INTRA:          -8.308
REMARK INTER:                  -7.976
REMARK INTRA:                  -0.332
REMARK UNBOUND:                -0.333
REMARK SMILES O=c1c(O)c(-c2ccc(O)c(O)c2)oc2cc(O)cc(O)c12
REMARK SMILES IDX 5 1 3 2 2 3 1 4 22 5 20 6 19 7 17 8 16 9 15 10 14 11 6 12
REMARK SMILES IDX 7 13 8 14 9 15 13 16 11 17 10 18 12 20 4 22 21 24 18 26
REMARK H PARENT 10 19 12 21 4 23 21 25 18 27
REMARK Flexibility Score: inf
ROOT
ATOM      1  C   UNL     1       9.817  12.441 -17.013  1.00  0.00     0.180 A 
ATOM      2  C   UNL     1      10.540  13.554 -16.544  1.00  0.00     0.208 A 
ATOM      3  C   UNL     1      10.535  14.736 -17.301  1.00  0.00     0.238 A 
ATOM      4  O   UNL     1      11.171  15.742 -16.884  1.00  0.00    -0.285 OA
ATOM      5  C   UNL     1       9.828  14.779 -18.520  1.00  0.00     0.111 A 
ATOM      6  C   UNL     1       9.776  15.929 -19.344  1.00  0.00     0.134 A 
ATOM      7  C   UNL     1       9.056  15.890 -20.548  1.00  0.00     0.093 A 
ATOM      8  C   UNL     1       8.392  14.727 -20.944  1.00  0.00     0.123 A 
ATOM      9  C   UNL     1       8.440  13.588 -20.133  1.00  0.00     0.094 A 
ATOM     10  C   UNL     1       9.149  13.608 -18.929  1.00  0.00     0.146 A 
ATOM     11  O   UNL     1       9.174  12.514 -18.175  1.00  0.00    -0.452 OA
ENDROOT
BRANCH   1  12
ATOM     12  C   UNL     1       9.758  11.166 -16.263  1.00  0.00     0.025 A 
ATOM     13  C   UNL     1      10.638  10.126 -16.600  1.00  0.00     0.016 A 
ATOM     14  C   UNL     1      10.586   8.907 -15.918  1.00  0.00     0.051 A 
ATOM     15  C   UNL     1       9.644   8.705 -14.901  1.00  0.00     0.157 A 
ATOM     16  C   UNL     1       8.800  10.953 -15.256  1.00  0.00     0.062 A 
ATOM     17  C   UNL     1       8.744   9.732 -14.573  1.00  0.00     0.158 A 
BRANCH  15  18
ATOM     18  O   UNL     1       9.596   7.488 -14.223  1.00  0.00    -0.504 OA
ATOM     19  H   UNL     1      10.119   6.681 -14.542  1.00  0.00     0.293 HD
ENDBRANCH  15  18
BRANCH  17  20
ATOM     20  O   UNL     1       7.785   9.558 -13.575  1.00  0.00    -0.504 OA
ATOM     21  H   UNL     1       7.539   8.642 -13.219  1.00  0.00     0.293 HD
ENDBRANCH  17  20
ENDBRANCH   1  12
BRANCH   2  22
ATOM     22  O   UNL     1      11.274  13.469 -15.357  1.00  0.00    -0.502 OA
ATOM     23  H   UNL     1      10.990  13.945 -14.509  1.00  0.00     0.293 HD
ENDBRANCH   2  22
BRANCH   6  24
ATOM     24  O   UNL     1      10.430  17.105 -18.978  1.00  0.00    -0.507 OA
ATOM     25  H   UNL     1      10.594  17.853 -19.642  1.00  0.00     0.293 HD
ENDBRANCH   6  24
BRANCH   8  26
ATOM     26  O   UNL     1       7.686  14.715 -22.144  1.00  0.00    -0.508 OA
ATOM     27  H   UNL     1       7.654  13.889 -22.731  1.00  0.00     0.293 HD
ENDBRANCH   8  26
TORSDOF 6
ENDMDL
MODEL 3
REMARK VINA RESULT:    -6.616      2.950      7.450
REMARK INTER + INTRA:          -8.302
REMARK INTER:                  -8.153
REMARK INTRA:                  -0.149
REMARK UNBOUND:                -0.333
REMARK SMILES O=c1c(O)c(-c2ccc(O)c(O)c2)oc2cc(O)cc(O)c12
REMARK SMILES IDX 5 1 3 2 2 3 1 4 22 5 20 6 19 7 17 8 16 9 15 10 14 11 6 12
REMARK SMILES IDX 7 13 8 14 9 15 13 16 11 17 10 18 12 20 4 22 21 24 18 26
REMARK H PARENT 10 19 12 21 4 23 21 25 18 27
REMARK Flexibility Score: inf
ROOT
ATOM      1  C   UNL     1       7.433   8.289 -14.907  1.00  0.00     0.180 A 
ATOM      2  C   UNL     1       7.047   8.656 -13.604  1.00  0.00     0.208 A 
ATOM      3  C   UNL     1       7.378   9.937 -13.133  1.00  0.00     0.238 A 
ATOM      4  O   UNL     1       7.027  10.280 -11.972  1.00  0.00    -0.285 OA
ATOM      5  C   UNL     1       8.104  10.817 -13.961  1.00  0.00     0.111 A 
ATOM      6  C   UNL     1       8.481  12.122 -13.561  1.00  0.00     0.134 A 
ATOM      7  C   UNL     1       9.211  12.936 -14.440  1.00  0.00     0.093 A 
ATOM      8  C   UNL     1       9.572  12.471 -15.706  1.00  0.00     0.123 A 
ATOM      9  C   UNL     1       9.203  11.183 -16.107  1.00  0.00     0.094 A 
ATOM     10  C   UNL     1       8.473  10.357 -15.247  1.00  0.00     0.146 A 
ATOM     11  O   UNL     1       8.131   9.140 -15.654  1.00  0.00    -0.452 OA
ENDROOT
BRANCH   1  12
ATOM     12  C   UNL     1       7.105   6.964 -15.482  1.00  0.00     0.025 A 
ATOM     13  C   UNL     1       6.223   6.884 -16.571  1.00  0.00     0.016 A 
ATOM     14  C   UNL     1       5.883   5.643 -17.115  1.00  0.00     0.051 A 
ATOM     15  C   UNL     1       6.407   4.463 -16.569  1.00  0.00     0.157 A 
ATOM     16  C   UNL     1       7.612   5.778 -14.924  1.00  0.00     0.062 A 
ATOM     17  C   UNL     1       7.272   4.533 -15.465  1.00  0.00     0.158 A 
BRANCH  15  18
ATOM     18  O   UNL     1       6.067   3.227 -17.116  1.00  0.00    -0.504 OA
ATOM     19  H   UNL     1       5.610   3.153 -18.018  1.00  0.00     0.293 HD
ENDBRANCH  15  18
BRANCH  17  20
ATOM     20  O   UNL     1       7.799   3.377 -14.889  1.00  0.00    -0.504 OA
ATOM     21  H   UNL     1       8.784   3.150 -14.943  1.00  0.00     0.293 HD
ENDBRANCH  17  20
ENDBRANCH   1  12
BRANCH   2  22
ATOM     22  O   UNL     1       6.371   7.747 -12.786  1.00  0.00    -0.502 OA
ATOM     23  H   UNL     1       6.412   6.746 -12.939  1.00  0.00     0.293 HD
ENDBRANCH   2  22
BRANCH   6  24
ATOM     24  O   UNL     1       8.136  12.615 -12.302  1.00  0.00    -0.507 OA
ATOM     25  H   UNL     1       8.017  12.001 -11.504  1.00  0.00     0.293 HD
ENDBRANCH   6  24
BRANCH   8  26
ATOM     26  O   UNL     1      10.299  13.298 -16.560  1.00  0.00    -0.508 OA
ATOM     27  H   UNL     1      10.394  13.089 -17.547  1.00  0.00     0.293 HD
ENDBRANCH   8  26
TORSDOF 6
ENDMDL
MODEL 4
REMARK VINA RESULT:    -6.444      3.462      6.334
REMARK INTER + INTRA:          -8.096
REMARK INTER:                  -7.907
REMARK INTRA:                  -0.189
REMARK UNBOUND:                -0.333
REMARK SMILES O=c1c(O)c(-c2ccc(O)c(O)c2)oc2cc(O)cc(O)c12
REMARK SMILES IDX 5 1 3 2 2 3 1 4 22 5 20 6 19 7 17 8 16 9 15 10 14 11 6 12
REMARK SMILES IDX 7 13 8 14 9 15 13 16 11 17 10 18 12 20 4 22 21 24 18 26
REMARK H PARENT 10 19 12 21 4 23 21 25 18 27
REMARK Flexibility Score: inf
ROOT
ATOM      1  C   UNL     1       8.099  15.979 -18.731  1.00  0.00     0.180 A 
ATOM      2  C   UNL     1       8.268  15.654 -20.091  1.00  0.00     0.208 A 
ATOM      3  C   UNL     1       8.701  14.363 -20.432  1.00  0.00     0.238 A 
ATOM      4  O   UNL     1       8.845  14.057 -21.646  1.00  0.00    -0.285 OA
ATOM      5  C   UNL     1       8.979  13.429 -19.412  1.00  0.00     0.111 A 
ATOM      6  C   UNL     1       9.424  12.111 -19.669  1.00  0.00     0.134 A 
ATOM      7  C   UNL     1       9.688  11.243 -18.599  1.00  0.00     0.093 A 
ATOM      8  C   UNL     1       9.517  11.668 -17.280  1.00  0.00     0.123 A 
ATOM      9  C   UNL     1       9.077  12.970 -17.019  1.00  0.00     0.094 A 
ATOM     10  C   UNL     1       8.807  13.849 -18.072  1.00  0.00     0.146 A 
ATOM     11  O   UNL     1       8.386  15.078 -17.796  1.00  0.00    -0.452 OA
ENDROOT
BRANCH   1  12
ATOM     12  C   UNL     1       7.627  17.312 -18.294  1.00  0.00     0.025 A 
ATOM     13  C   UNL     1       6.350  17.440 -17.725  1.00  0.00     0.016 A 
ATOM     14  C   UNL     1       5.876  18.692 -17.325  1.00  0.00     0.051 A 
ATOM     15  C   UNL     1       6.664  19.836 -17.501  1.00  0.00     0.157 A 
ATOM     16  C   UNL     1       8.407  18.466 -18.488  1.00  0.00     0.062 A 
ATOM     17  C   UNL     1       7.934  19.722 -18.090  1.00  0.00     0.158 A 
BRANCH  15  18
ATOM     18  O   UNL     1       6.189  21.083 -17.099  1.00  0.00    -0.504 OA
ATOM     19  H   UNL     1       5.499  21.176 -16.362  1.00  0.00     0.293 HD
ENDBRANCH  15  18
BRANCH  17  20
ATOM     20  O   UNL     1       8.738  20.844 -18.293  1.00  0.00    -0.504 OA
ATOM     21  H   UNL     1       8.619  21.454 -19.091  1.00  0.00     0.293 HD
ENDBRANCH  17  20
ENDBRANCH   1  12
BRANCH   2  22
ATOM     22  O   UNL     1       8.033  16.613 -21.080  1.00  0.00    -0.502 OA
ATOM     23  H   UNL     1       8.785  17.113 -21.539  1.00  0.00     0.293 HD
ENDBRANCH   2  22
BRANCH   6  24
ATOM     24  O   UNL     1       9.606  11.657 -20.977  1.00  0.00    -0.507 OA
ATOM     25  H   UNL     1       8.861  11.200 -21.490  1.00  0.00     0.293 HD
ENDBRANCH   6  24
BRANCH   8  26
ATOM     26  O   UNL     1       9.787  10.788 -16.235  1.00  0.00    -0.508 OA
ATOM     27  H   UNL     1      10.205  11.106 -15.368  1.00  0.00     0.293 HD
ENDBRANCH   8  26
TORSDOF 6
ENDMDL
MODEL 5
REMARK VINA RESULT:    -6.421      1.929      7.207
REMARK INTER + INTRA:          -8.068
REMARK INTER:                  -7.745
REMARK INTRA:                  -0.322
REMARK UNBOUND:                -0.333
REMARK SMILES O=c1c(O)c(-c2ccc(O)c(O)c2)oc2cc(O)cc(O)c12
REMARK SMILES IDX 5 1 3 2 2 3 1 4 22 5 20 6 19 7 17 8 16 9 15 10 14 11 6 12
REMARK SMILES IDX 7 13 8 14 9 15 13 16 11 17 10 18 12 20 4 22 21 24 18 26
REMARK H PARENT 10 19 12 21 4 23 21 25 18 27
REMARK Flexibility Score: inf
ROOT
ATOM      1  C   UNL     1       8.993  11.884 -17.717  1.00  0.00     0.180 A 
ATOM      2  C   UNL     1       8.217  11.619 -18.861  1.00  0.00     0.208 A 
ATOM      3  C   UNL     1       8.032  12.638 -19.808  1.00  0.00     0.238 A 
ATOM      4  O   UNL     1       7.348  12.408 -20.841  1.00  0.00    -0.285 OA
ATOM      5  C   UNL     1       8.606  13.908 -19.586  1.00  0.00     0.111 A 
ATOM      6  C   UNL     1       8.464  14.989 -20.487  1.00  0.00     0.134 A 
ATOM      7  C   UNL     1       9.059  16.225 -20.191  1.00  0.00     0.093 A 
ATOM      8  C   UNL     1       9.789  16.399 -19.013  1.00  0.00     0.123 A 
ATOM      9  C   UNL     1       9.933  15.334 -18.119  1.00  0.00     0.094 A 
ATOM     10  C   UNL     1       9.350  14.094 -18.397  1.00  0.00     0.146 A 
ATOM     11  O   UNL     1       9.506  13.097 -17.533  1.00  0.00    -0.452 OA
ENDROOT
BRANCH   1  12
ATOM     12  C   UNL     1       9.249  10.855 -16.683  1.00  0.00     0.025 A 
ATOM     13  C   UNL     1      10.326   9.969 -16.844  1.00  0.00     0.016 A 
ATOM     14  C   UNL     1      10.573   8.976 -15.892  1.00  0.00     0.051 A 
ATOM     15  C   UNL     1       9.739   8.845 -14.773  1.00  0.00     0.157 A 
ATOM     16  C   UNL     1       8.403  10.708 -15.571  1.00  0.00     0.062 A 
ATOM     17  C   UNL     1       8.646   9.714 -14.616  1.00  0.00     0.158 A 
BRANCH  15  18
ATOM     18  O   UNL     1       9.990   7.856 -13.825  1.00  0.00    -0.504 OA
ATOM     19  H   UNL     1      10.305   8.085 -12.889  1.00  0.00     0.293 HD
ENDBRANCH  15  18
BRANCH  17  20
ATOM     20  O   UNL     1       7.789   9.601 -13.521  1.00  0.00    -0.504 OA
ATOM     21  H   UNL     1       7.216   8.780 -13.369  1.00  0.00     0.293 HD
ENDBRANCH  17  20
ENDBRANCH   1  12
BRANCH   2  22
ATOM     22  O   UNL     1       7.618  10.368 -19.033  1.00  0.00    -0.502 OA
ATOM     23  H   UNL     1       6.694  10.155 -18.674  1.00  0.00     0.293 HD
ENDBRANCH   2  22
BRANCH   6  24
ATOM     24  O   UNL     1       7.740  14.847 -21.671  1.00  0.00    -0.507 OA
ATOM     25  H   UNL     1       7.143  14.045 -21.838  1.00  0.00     0.293 HD
ENDBRANCH   6  24
BRANCH   8  26
ATOM     26  O   UNL     1      10.368  17.636 -18.741  1.00  0.00    -0.508 OA
ATOM     27  H   UNL     1       9.955  18.281 -18.077  1.00  0.00     0.293 HD
ENDBRANCH   8  26
TORSDOF 6
ENDMDL
MODEL 6
REMARK VINA RESULT:    -6.402      1.146      2.933
REMARK INTER + INTRA:          -8.045
REMARK INTER:                  -7.721
REMARK INTRA:                  -0.324
REMARK UNBOUND:                -0.333
REMARK SMILES O=c1c(O)c(-c2ccc(O)c(O)c2)oc2cc(O)cc(O)c12
REMARK SMILES IDX 5 1 3 2 2 3 1 4 22 5 20 6 19 7 17 8 16 9 15 10 14 11 6 12
REMARK SMILES IDX 7 13 8 14 9 15 13 16 11 17 10 18 12 20 4 22 21 24 18 26
REMARK H PARENT 10 19 12 21 4 23 21 25 18 27
REMARK Flexibility Score: inf
ROOT
ATOM      1  C   UNL     1       8.751  12.383 -15.516  1.00  0.00     0.180 A 
ATOM      2  C   UNL     1       7.719  12.752 -14.631  1.00  0.00     0.208 A 
ATOM      3  C   UNL     1       7.168  11.777 -13.785  1.00  0.00     0.238 A 
ATOM      4  O   UNL     1       6.252  12.098 -12.982  1.00  0.00    -0.285 OA
ATOM      5  C   UNL     1       7.641  10.449 -13.852  1.00  0.00     0.111 A 
ATOM      6  C   UNL     1       7.138   9.407 -13.038  1.00  0.00     0.134 A 
ATOM      7  C   UNL     1       7.656   8.109 -13.170  1.00  0.00     0.093 A 
ATOM      8  C   UNL     1       8.662   7.835 -14.098  1.00  0.00     0.123 A 
ATOM      9  C   UNL     1       9.164   8.862 -14.905  1.00  0.00     0.094 A 
ATOM     10  C   UNL     1       8.663  10.162 -14.787  1.00  0.00     0.146 A 
ATOM     11  O   UNL     1       9.160  11.119 -15.562  1.00  0.00    -0.452 OA
ENDROOT
BRANCH   1  12
ATOM     12  C   UNL     1       9.394  13.359 -16.425  1.00  0.00     0.025 A 
ATOM     13  C   UNL     1      10.519  14.074 -15.985  1.00  0.00     0.016 A 
ATOM     14  C   UNL     1      11.129  15.015 -16.819  1.00  0.00     0.051 A 
ATOM     15  C   UNL     1      10.615  15.266 -18.098  1.00  0.00     0.157 A 
ATOM     16  C   UNL     1       8.868  13.628 -17.701  1.00  0.00     0.062 A 
ATOM     17  C   UNL     1       9.475  14.571 -18.538  1.00  0.00     0.158 A 
BRANCH  15  18
ATOM     18  O   UNL     1      11.227  16.203 -18.928  1.00  0.00    -0.504 OA
ATOM     19  H   UNL     1      10.812  17.112 -19.099  1.00  0.00     0.293 HD
ENDBRANCH  15  18
BRANCH  17  20
ATOM     20  O   UNL     1       8.931  14.808 -19.800  1.00  0.00    -0.504 OA
ATOM     21  H   UNL     1       8.503  14.072 -20.348  1.00  0.00     0.293 HD
ENDBRANCH  17  20
ENDBRANCH   1  12
BRANCH   2  22
ATOM     22  O   UNL     1       7.234  14.063 -14.620  1.00  0.00    -0.502 OA
ATOM     23  H   UNL     1       6.684  14.431 -13.853  1.00  0.00     0.293 HD
ENDBRANCH   2  22
BRANCH   6  24
ATOM     24  O   UNL     1       6.132   9.648 -12.102  1.00  0.00    -0.507 OA
ATOM     25  H   UNL     1       5.209   9.963 -12.381  1.00  0.00     0.293 HD
ENDBRANCH   6  24
BRANCH   8  26
ATOM     26  O   UNL     1       9.158   6.539 -14.210  1.00  0.00    -0.508 OA
ATOM     27  H   UNL     1       9.755   6.136 -13.497  1.00  0.00     0.293 HD
ENDBRANCH   8  26
TORSDOF 6
ENDMDL
MODEL 7
REMARK VINA RESULT:    -6.367      2.020      7.172
REMARK INTER + INTRA:          -8.003
REMARK INTER:                  -8.523
REMARK INTRA:                   0.520
REMARK UNBOUND:                -0.333
REMARK SMILES O=c1c(O)c(-c2ccc(O)c(O)c2)oc2cc(O)cc(O)c12
REMARK SMILES IDX 5 1 3 2 2 3 1 4 22 5 20 6 19 7 17 8 16 9 15 10 14 11 6 12
REMARK SMILES IDX 7 13 8 14 9 15 13 16 11 17 10 18 12 20 4 22 21 24 18 26
REMARK H PARENT 10 19 12 21 4 23 21 25 18 27
REMARK Flexibility Score: inf
ROOT
ATOM      1  C   UNL     1       8.126  11.022 -14.663  1.00  0.00     0.180 A 
ATOM      2  C   UNL     1       8.559  12.265 -14.161  1.00  0.00     0.208 A 
ATOM      3  C   UNL     1       9.082  13.213 -15.054  1.00  0.00     0.238 A 
ATOM      4  O   UNL     1       9.462  14.333 -14.617  1.00  0.00    -0.285 OA
ATOM      5  C   UNL     1       9.182  12.898 -16.425  1.00  0.00     0.111 A 
ATOM      6  C   UNL     1       9.700  13.794 -17.390  1.00  0.00     0.134 A 
ATOM      7  C   UNL     1       9.775  13.403 -18.735  1.00  0.00     0.093 A 
ATOM      8  C   UNL     1       9.345  12.135 -19.133  1.00  0.00     0.123 A 
ATOM      9  C   UNL     1       8.831  11.245 -18.184  1.00  0.00     0.094 A 
ATOM     10  C   UNL     1       8.746  11.617 -16.839  1.00  0.00     0.146 A 
ATOM     11  O   UNL     1       8.250  10.754 -15.960  1.00  0.00    -0.452 OA
ENDROOT
BRANCH   1  12
ATOM     12  C   UNL     1       7.546   9.979 -13.787  1.00  0.00     0.025 A 
ATOM     13  C   UNL     1       7.279  10.277 -12.442  1.00  0.00     0.016 A 
ATOM     14  C   UNL     1       6.751   9.301 -11.592  1.00  0.00     0.051 A 
ATOM     15  C   UNL     1       6.498   8.008 -12.071  1.00  0.00     0.157 A 
ATOM     16  C   UNL     1       7.309   8.676 -14.259  1.00  0.00     0.062 A 
ATOM     17  C   UNL     1       6.783   7.694 -13.410  1.00  0.00     0.158 A 
BRANCH  15  18
ATOM     18  O   UNL     1       5.971   7.038 -11.221  1.00  0.00    -0.504 OA
ATOM     19  H   UNL     1       6.395   6.121 -11.134  1.00  0.00     0.293 HD
ENDBRANCH  15  18
BRANCH  17  20
ATOM     20  O   UNL     1       6.556   6.414 -13.914  1.00  0.00    -0.504 OA
ATOM     21  H   UNL     1       5.821   5.817 -13.554  1.00  0.00     0.293 HD
ENDBRANCH  17  20
ENDBRANCH   1  12
BRANCH   2  22
ATOM     22  O   UNL     1       8.495  12.533 -12.791  1.00  0.00    -0.502 OA
ATOM     23  H   UNL     1       9.256  12.313 -12.159  1.00  0.00     0.293 HD
ENDBRANCH   2  22
BRANCH   6  24
ATOM     24  O   UNL     1      10.140  15.067 -17.024  1.00  0.00    -0.507 OA
ATOM     25  H   UNL     1      10.250  15.334 -16.052  1.00  0.00     0.293 HD
ENDBRANCH   6  24
BRANCH   8  26
ATOM     26  O   UNL     1       9.431  11.771 -20.474  1.00  0.00    -0.508 OA
ATOM     27  H   UNL     1       9.333  10.805 -20.768  1.00  0.00     0.293 HD
ENDBRANCH   8  26
TORSDOF 6
ENDMDL
MODEL 8
REMARK VINA RESULT:    -6.226      1.880      2.801
REMARK INTER + INTRA:          -7.833
REMARK INTER:                  -7.779
REMARK INTRA:                  -0.054
REMARK UNBOUND:                -0.333
REMARK SMILES O=c1c(O)c(-c2ccc(O)c(O)c2)oc2cc(O)cc(O)c12
REMARK SMILES IDX 5 1 3 2 2 3 1 4 22 5 20 6 19 7 17 8 16 9 15 10 14 11 6 12
REMARK SMILES IDX 7 13 8 14 9 15 13 16 11 17 10 18 12 20 4 22 21 24 18 26
REMARK H PARENT 10 19 12 21 4 23 21 25 18 27
REMARK Flexibility Score: inf
ROOT
ATOM      1  C   UNL     1       8.939  12.596 -18.120  1.00  0.00     0.180 A 
ATOM      2  C   UNL     1       9.470  11.347 -18.494  1.00  0.00     0.208 A 
ATOM      3  C   UNL     1       9.495  10.309 -17.551  1.00  0.00     0.238 A 
ATOM      4  O   UNL     1       9.958   9.183 -17.879  1.00  0.00    -0.285 OA
ATOM      5  C   UNL     1       9.010  10.541 -16.247  1.00  0.00     0.111 A 
ATOM      6  C   UNL     1       9.003   9.550 -15.236  1.00  0.00     0.134 A 
ATOM      7  C   UNL     1       8.510   9.861 -13.960  1.00  0.00     0.093 A 
ATOM      8  C   UNL     1       8.029  11.141 -13.675  1.00  0.00     0.123 A 
ATOM      9  C   UNL     1       8.033  12.124 -14.670  1.00  0.00     0.094 A 
ATOM     10  C   UNL     1       8.517  11.832 -15.949  1.00  0.00     0.146 A 
ATOM     11  O   UNL     1       8.505  12.783 -16.877  1.00  0.00    -0.452 OA
ENDROOT
BRANCH   1  12
ATOM     12  C   UNL     1       8.862  13.734 -19.064  1.00  0.00     0.025 A 
ATOM     13  C   UNL     1       8.205  13.567 -20.293  1.00  0.00     0.016 A 
ATOM     14  C   UNL     1       8.138  14.621 -21.208  1.00  0.00     0.051 A 
ATOM     15  C   UNL     1       8.740  15.852 -20.915  1.00  0.00     0.157 A 
ATOM     16  C   UNL     1       9.481  14.964 -18.781  1.00  0.00     0.062 A 
ATOM     17  C   UNL     1       9.419  16.021 -19.696  1.00  0.00     0.158 A 
BRANCH  15  18
ATOM     18  O   UNL     1       8.670  16.902 -21.829  1.00  0.00    -0.504 OA
ATOM     19  H   UNL     1       7.781  17.251 -22.170  1.00  0.00     0.293 HD
ENDBRANCH  15  18
BRANCH  17  20
ATOM     20  O   UNL     1      10.039  17.229 -19.380  1.00  0.00    -0.504 OA
ATOM     21  H   UNL     1       9.676  18.120 -19.696  1.00  0.00     0.293 HD
ENDBRANCH  17  20
ENDBRANCH   1  12
BRANCH   2  22
ATOM     22  O   UNL     1       9.990  11.159 -19.778  1.00  0.00    -0.502 OA
ATOM     23  H   UNL     1       9.613  11.632 -20.591  1.00  0.00     0.293 HD
ENDBRANCH   2  22
BRANCH   6  24
ATOM     24  O   UNL     1       9.478   8.263 -15.489  1.00  0.00    -0.507 OA
ATOM     25  H   UNL     1      10.332   7.917 -15.065  1.00  0.00     0.293 HD
ENDBRANCH   6  24
BRANCH   8  26
ATOM     26  O   UNL     1       7.547  11.425 -12.400  1.00  0.00    -0.508 OA
ATOM     27  H   UNL     1       7.504  12.375 -12.048  1.00  0.00     0.293 HD
ENDBRANCH   8  26
TORSDOF 6
ENDMDL
MODEL 9
REMARK VINA RESULT:    -6.001      1.910      7.046
REMARK INTER + INTRA:          -7.561
REMARK INTER:                  -7.238
REMARK INTRA:                  -0.323
REMARK UNBOUND:                -0.333
REMARK SMILES O=c1c(O)c(-c2ccc(O)c(O)c2)oc2cc(O)cc(O)c12
REMARK SMILES IDX 5 1 3 2 2 3 1 4 22 5 20 6 19 7 17 8 16 9 15 10 14 11 6 12
REMARK SMILES IDX 7 13 8 14 9 15 13 16 11 17 10 18 12 20 4 22 21 24 18 26
REMARK H PARENT 10 19 12 21 4 23 21 25 18 27
REMARK Flexibility Score: inf
ROOT
ATOM      1  C   UNL     1       8.118  11.617 -16.111  1.00  0.00     0.180 A 
ATOM      2  C   UNL     1       9.162  12.558 -16.022  1.00  0.00     0.208 A 
ATOM      3  C   UNL     1       9.341  13.476 -17.069  1.00  0.00     0.238 A 
ATOM      4  O   UNL     1      10.265  14.329 -16.994  1.00  0.00    -0.285 OA
ATOM      5  C   UNL     1       8.490  13.425 -18.193  1.00  0.00     0.111 A 
ATOM      6  C   UNL     1       8.605  14.310 -19.291  1.00  0.00     0.134 A 
ATOM      7  C   UNL     1       7.724  14.190 -20.377  1.00  0.00     0.093 A 
ATOM      8  C   UNL     1       6.736  13.204 -20.386  1.00  0.00     0.123 A 
ATOM      9  C   UNL     1       6.617  12.326 -19.303  1.00  0.00     0.094 A 
ATOM     10  C   UNL     1       7.483  12.432 -18.211  1.00  0.00     0.146 A 
ATOM     11  O   UNL     1       7.345  11.589 -17.193  1.00  0.00    -0.452 OA
ENDROOT
BRANCH   1  12
ATOM     12  C   UNL     1       7.855  10.629 -15.040  1.00  0.00     0.025 A 
ATOM     13  C   UNL     1       6.969  10.958 -14.002  1.00  0.00     0.016 A 
ATOM     14  C   UNL     1       6.722  10.049 -12.969  1.00  0.00     0.051 A 
ATOM     15  C   UNL     1       7.369   8.806 -12.951  1.00  0.00     0.157 A 
ATOM     16  C   UNL     1       8.517   9.390 -15.008  1.00  0.00     0.062 A 
ATOM     17  C   UNL     1       8.274   8.478 -13.974  1.00  0.00     0.158 A 
BRANCH  15  18
ATOM     18  O   UNL     1       7.119   7.901 -11.921  1.00  0.00    -0.504 OA
ATOM     19  H   UNL     1       7.083   8.197 -10.952  1.00  0.00     0.293 HD
ENDBRANCH  15  18
BRANCH  17  20
ATOM     20  O   UNL     1       8.943   7.255 -13.978  1.00  0.00    -0.504 OA
ATOM     21  H   UNL     1       9.763   7.087 -13.407  1.00  0.00     0.293 HD
ENDBRANCH  17  20
ENDBRANCH   1  12
BRANCH   2  22
ATOM     22  O   UNL     1      10.022  12.554 -14.921  1.00  0.00    -0.502 OA
ATOM     23  H   UNL     1      10.774  13.227 -14.817  1.00  0.00     0.293 HD
ENDBRANCH   2  22
BRANCH   6  24
ATOM     24  O   UNL     1       9.583  15.305 -19.312  1.00  0.00    -0.507 OA
ATOM     25  H   UNL     1       9.571  16.078 -18.657  1.00  0.00     0.293 HD
ENDBRANCH   6  24
BRANCH   8  26
ATOM     26  O   UNL     1       5.875  13.105 -21.476  1.00  0.00    -0.508 OA
ATOM     27  H   UNL     1       5.202  13.833 -21.688  1.00  0.00     0.293 HD
ENDBRANCH   8  26
TORSDOF 6
ENDMDL
