MODEL 1
REMARK VINA RESULT:    42.243      0.000      0.000
REMARK INTER + INTRA:          43.477
REMARK INTER:                  43.477
REMARK INTRA:                   0.000
REMARK UNBOUND:                 0.000
REMARK SMILES CC1(C)CC[C@]2(C)CC[C@@]3(C)C(=CC[C@H]4[C@]5(C)CC[C@@H](O)C(C)(C)[C@@H]5CC[C@@]43C)[C@H]2C1
REMARK SMILES IDX 1 1 2 2 4 3 5 4 6 5 8 6 9 7 10 8 12 9 13 10 14 11 15 12
REMARK SMILES IDX 28 13 27 14 26 15 25 16 16 17 18 18 19 19 20 20 22 21 23 22
REMARK SMILES IDX 24 23 17 24 29 25 30 26 31 27 11 28 7 29 3 30 21 31
REMARK H PARENT 21 32
REMARK Flexibility Score: inf
ROOT
ATOM      1  C   UNL     1     130.778 129.664 138.244  1.00  0.00     0.011 C 
ATOM      2  C   UNL     1     131.854 130.525 137.544  1.00  0.00    -0.035 C 
ATOM      3  C   UNL     1     131.161 131.563 136.625  1.00  0.00     0.007 C 
ATOM      4  C   UNL     1     132.111 132.653 136.085  1.00  0.00     0.008 C 
ATOM      5  C   UNL     1     132.940 133.378 137.188  1.00  0.00    -0.026 C 
ATOM      6  C   UNL     1     133.995 134.314 136.488  1.00  0.00     0.008 C 
ATOM      7  C   UNL     1     135.451 134.174 136.997  1.00  0.00     0.012 C 
ATOM      8  C   UNL     1     135.582 134.055 138.556  1.00  0.00    -0.006 C 
ATOM      9  C   UNL     1     134.613 132.979 139.065  1.00  0.00    -0.064 C 
ATOM     10  C   UNL     1     134.723 132.533 140.342  1.00  0.00    -0.027 C 
ATOM     11  C   UNL     1     135.998 132.621 141.143  1.00  0.00     0.032 C 
ATOM     12  C   UNL     1     137.085 133.595 140.595  1.00  0.00     0.006 C 
ATOM     13  C   UNL     1     137.073 133.662 139.018  1.00  0.00    -0.020 C 
ATOM     14  C   UNL     1     138.117 134.719 138.502  1.00  0.00     0.008 C 
ATOM     15  C   UNL     1     139.076 135.256 139.567  1.00  0.00     0.005 C 
ATOM     16  C   UNL     1     139.670 134.105 140.422  1.00  0.00     0.003 C 
ATOM     17  C   UNL     1     138.513 133.478 141.322  1.00  0.00    -0.025 C 
ATOM     18  C   UNL     1     138.395 134.270 142.665  1.00  0.00     0.010 C 
ATOM     19  C   UNL     1     139.717 134.447 143.401  1.00  0.00     0.033 C 
ATOM     20  C   UNL     1     140.718 135.222 142.535  1.00  0.00     0.120 C 
ATOM     21  C   UNL     1     141.026 134.494 141.193  1.00  0.00    -0.006 C 
ATOM     22  C   UNL     1     141.920 133.229 141.445  1.00  0.00     0.014 C 
ATOM     23  C   UNL     1     141.912 135.451 140.341  1.00  0.00     0.014 C 
ATOM     24  C   UNL     1     138.840 131.992 141.665  1.00  0.00     0.012 C 
ATOM     25  C   UNL     1     137.481 132.269 138.437  1.00  0.00     0.012 C 
ATOM     26  C   UNL     1     133.665 132.309 138.060  1.00  0.00     0.022 C 
ATOM     27  C   UNL     1     132.687 131.255 138.636  1.00  0.00     0.015 C 
ATOM     28  C   UNL     1     135.129 135.426 139.173  1.00  0.00     0.017 C 
ATOM     29  C   UNL     1     131.982 134.241 138.060  1.00  0.00     0.012 C 
ATOM     30  C   UNL     1     132.754 129.580 136.711  1.00  0.00     0.011 C 
ENDROOT
BRANCH  20  31
ATOM     31  O   UNL     1     141.909 135.427 143.255  1.00  0.00    -0.393 OA
ATOM     32  H   UNL     1     141.890 134.806 144.033  1.00  0.00     0.210 HD
ENDBRANCH  20  31
TORSDOF 1
ENDMDL
