MODEL 1
REMARK VINA RESULT:    -6.717      0.000      0.000
REMARK INTER + INTRA:         -10.529
REMARK INTER:                  -9.661
REMARK INTRA:                  -0.868
REMARK UNBOUND:                -0.868
REMARK SMILES O=c1c(O[C@H]2O[C@@H](CO)[C@H](O)[C@H](O)[C@@H]2O)c(-c2ccc(O)cc2)oc2cc(O)cc(O)c12
REMARK SMILES IDX 4 1 3 2 16 3 24 4 2 5 25 6 1 7 32 8 26 9 30 10 27 11 29 12
REMARK SMILES IDX 17 13 18 14 19 15 20 16 23 17 22 18 21 19 31 21 28 23 5 25
REMARK SMILES IDX 14 26 6 27 12 28 7 29 10 30 15 31 13 33 8 35 9 36 11 38
REMARK H PARENT 21 20 31 22 28 24 15 32 13 34 9 37 11 39
REMARK Flexibility Score: inf
ROOT
ATOM      1  O   UNL     1     -37.737   5.259  81.630  1.00  0.00    -0.454 OA
ENDROOT
BRANCH   1   2
ATOM      2  C   UNL     1     -38.521   4.784  80.573  1.00  0.00     0.214 A 
ATOM      3  C   UNL     1     -38.005   4.722  79.265  1.00  0.00     0.180 A 
ATOM      4  O   UNL     1     -38.745   4.213  78.284  1.00  0.00    -0.452 OA
ATOM      5  C   UNL     1     -39.828   4.342  80.809  1.00  0.00     0.239 A 
ATOM      6  C   UNL     1     -39.987   3.775  78.463  1.00  0.00     0.146 A 
ATOM      7  O   UNL     1     -40.293   4.393  81.980  1.00  0.00    -0.285 OA
ATOM      8  C   UNL     1     -40.595   3.831  79.741  1.00  0.00     0.111 A 
ATOM      9  C   UNL     1     -40.693   3.260  77.371  1.00  0.00     0.094 A 
ATOM     10  C   UNL     1     -41.925   3.368  79.894  1.00  0.00     0.134 A 
ATOM     11  C   UNL     1     -42.001   2.801  77.528  1.00  0.00     0.123 A 
ATOM     12  C   UNL     1     -42.611   2.852  78.787  1.00  0.00     0.093 A 
BRANCH   3  13
ATOM     13  C   UNL     1     -36.639   5.181  78.948  1.00  0.00     0.021 A 
ATOM     14  C   UNL     1     -36.423   6.267  78.083  1.00  0.00     0.016 A 
ATOM     15  C   UNL     1     -35.122   6.701  77.812  1.00  0.00     0.047 A 
ATOM     16  C   UNL     1     -34.029   6.063  78.406  1.00  0.00     0.115 A 
ATOM     17  C   UNL     1     -35.537   4.514  79.507  1.00  0.00     0.016 A 
ATOM     18  C   UNL     1     -34.239   4.961  79.245  1.00  0.00     0.047 A 
BRANCH  16  19
ATOM     19  O   UNL     1     -32.744   6.534  78.162  1.00  0.00    -0.508 OA
ATOM     20  H   UNL     1     -31.933   6.131  78.618  1.00  0.00     0.293 HD
ENDBRANCH  16  19
ENDBRANCH   3  13
BRANCH  10  21
ATOM     21  O   UNL     1     -42.570   3.424  81.132  1.00  0.00    -0.507 OA
ATOM     22  H   UNL     1     -43.364   4.032  81.294  1.00  0.00     0.293 HD
ENDBRANCH  10  21
BRANCH  11  23
ATOM     23  O   UNL     1     -42.690   2.303  76.425  1.00  0.00    -0.508 OA
ATOM     24  H   UNL     1     -43.468   2.806  76.015  1.00  0.00     0.293 HD
ENDBRANCH  11  23
ENDBRANCH   1   2
BRANCH   1  25
ATOM     25  C   UNL     1     -38.169   6.327  82.474  1.00  0.00     0.339 C 
ATOM     26  C   UNL     1     -38.503   7.563  81.606  1.00  0.00     0.214 C 
ATOM     27  O   UNL     1     -37.182   6.550  83.480  1.00  0.00    -0.332 OA
ATOM     28  C   UNL     1     -37.228   8.075  80.896  1.00  0.00     0.180 C 
ATOM     29  C   UNL     1     -36.327   7.668  83.250  1.00  0.00     0.179 C 
ATOM     30  C   UNL     1     -35.957   7.827  81.751  1.00  0.00     0.177 C 
BRANCH  26  31
ATOM     31  O   UNL     1     -39.056   8.583  82.401  1.00  0.00    -0.384 OA
ATOM     32  H   UNL     1     -38.347   9.268  82.542  1.00  0.00     0.211 HD
ENDBRANCH  26  31
BRANCH  28  33
ATOM     33  O   UNL     1     -37.361   9.443  80.593  1.00  0.00    -0.387 OA
ATOM     34  H   UNL     1     -38.291   9.698  80.828  1.00  0.00     0.211 HD
ENDBRANCH  28  33
BRANCH  29  35
ATOM     35  C   UNL     1     -35.076   7.497  84.125  1.00  0.00     0.191 C 
BRANCH  35  36
ATOM     36  O   UNL     1     -34.132   6.694  83.470  1.00  0.00    -0.394 OA
ATOM     37  H   UNL     1     -34.207   6.913  82.505  1.00  0.00     0.210 HD
ENDBRANCH  35  36
ENDBRANCH  29  35
BRANCH  30  38
ATOM     38  O   UNL     1     -35.033   8.872  81.579  1.00  0.00    -0.387 OA
ATOM     39  H   UNL     1     -34.769   9.171  82.488  1.00  0.00     0.211 HD
ENDBRANCH  30  38
ENDBRANCH   1  25
TORSDOF 11
ENDMDL
MODEL 2
REMARK VINA RESULT:    -6.647      2.624      7.374
REMARK INTER + INTRA:         -10.429
REMARK INTER:                  -9.455
REMARK INTRA:                  -0.974
REMARK UNBOUND:                -0.868
REMARK SMILES O=c1c(O[C@H]2O[C@@H](CO)[C@H](O)[C@H](O)[C@@H]2O)c(-c2ccc(O)cc2)oc2cc(O)cc(O)c12
REMARK SMILES IDX 4 1 3 2 16 3 24 4 2 5 25 6 1 7 32 8 26 9 30 10 27 11 29 12
REMARK SMILES IDX 17 13 18 14 19 15 20 16 23 17 22 18 21 19 31 21 28 23 5 25
REMARK SMILES IDX 14 26 6 27 12 28 7 29 10 30 15 31 13 33 8 35 9 36 11 38
REMARK H PARENT 21 20 31 22 28 24 15 32 13 34 9 37 11 39
REMARK Flexibility Score: inf
ROOT
ATOM      1  O   UNL     1     -38.012   5.180  78.176  1.00  0.00    -0.454 OA
ENDROOT
BRANCH   1   2
ATOM      2  C   UNL     1     -37.084   6.184  78.470  1.00  0.00     0.214 A 
ATOM      3  C   UNL     1     -37.490   7.526  78.602  1.00  0.00     0.180 A 
ATOM      4  O   UNL     1     -36.602   8.457  78.938  1.00  0.00    -0.452 OA
ATOM      5  C   UNL     1     -35.734   5.862  78.658  1.00  0.00     0.239 A 
ATOM      6  C   UNL     1     -35.314   8.196  79.134  1.00  0.00     0.146 A 
ATOM      7  O   UNL     1     -35.367   4.661  78.544  1.00  0.00    -0.285 OA
ATOM      8  C   UNL     1     -34.814   6.878  78.990  1.00  0.00     0.111 A 
ATOM      9  C   UNL     1     -34.452   9.240  79.482  1.00  0.00     0.094 A 
ATOM     10  C   UNL     1     -33.433   6.637  79.193  1.00  0.00     0.134 A 
ATOM     11  C   UNL     1     -33.093   8.997  79.685  1.00  0.00     0.123 A 
ATOM     12  C   UNL     1     -32.589   7.699  79.545  1.00  0.00     0.093 A 
BRANCH   3  13
ATOM     13  C   UNL     1     -38.894   7.932  78.406  1.00  0.00     0.021 A 
ATOM     14  C   UNL     1     -39.850   7.748  79.420  1.00  0.00     0.016 A 
ATOM     15  C   UNL     1     -41.171   8.159  79.224  1.00  0.00     0.047 A 
ATOM     16  C   UNL     1     -41.549   8.764  78.022  1.00  0.00     0.115 A 
ATOM     17  C   UNL     1     -39.288   8.498  77.183  1.00  0.00     0.016 A 
ATOM     18  C   UNL     1     -40.607   8.922  76.997  1.00  0.00     0.047 A 
BRANCH  16  19
ATOM     19  O   UNL     1     -42.857   9.208  77.858  1.00  0.00    -0.508 OA
ATOM     20  H   UNL     1     -43.334   9.737  78.580  1.00  0.00     0.293 HD
ENDBRANCH  16  19
ENDBRANCH   3  13
BRANCH  10  21
ATOM     21  O   UNL     1     -32.894   5.357  79.041  1.00  0.00    -0.507 OA
ATOM     22  H   UNL     1     -33.035   4.815  78.197  1.00  0.00     0.293 HD
ENDBRANCH  10  21
BRANCH  11  23
ATOM     23  O   UNL     1     -32.249  10.054  80.019  1.00  0.00    -0.508 OA
ATOM     24  H   UNL     1     -32.029  10.271  80.983  1.00  0.00     0.293 HD
ENDBRANCH  11  23
ENDBRANCH   1   2
BRANCH   1  25
ATOM     25  C   UNL     1     -38.039   3.941  78.885  1.00  0.00     0.339 C 
ATOM     26  C   UNL     1     -38.854   2.905  78.074  1.00  0.00     0.214 C 
ATOM     27  O   UNL     1     -38.515   4.174  80.208  1.00  0.00    -0.332 OA
ATOM     28  C   UNL     1     -40.328   3.358  77.961  1.00  0.00     0.180 C 
ATOM     29  C   UNL     1     -39.879   3.822  80.431  1.00  0.00     0.179 C 
ATOM     30  C   UNL     1     -40.780   4.157  79.212  1.00  0.00     0.177 C 
BRANCH  26  31
ATOM     31  O   UNL     1     -38.783   1.641  78.687  1.00  0.00    -0.384 OA
ATOM     32  H   UNL     1     -37.821   1.432  78.830  1.00  0.00     0.211 HD
ENDBRANCH  26  31
BRANCH  28  33
ATOM     33  O   UNL     1     -41.162   2.242  77.759  1.00  0.00    -0.387 OA
ATOM     34  H   UNL     1     -41.468   2.283  76.815  1.00  0.00     0.211 HD
ENDBRANCH  28  33
BRANCH  29  35
ATOM     35  C   UNL     1     -40.356   4.545  81.700  1.00  0.00     0.191 C 
BRANCH  35  36
ATOM     36  O   UNL     1     -41.378   3.814  82.320  1.00  0.00    -0.394 OA
ATOM     37  H   UNL     1     -41.856   3.338  81.592  1.00  0.00     0.210 HD
ENDBRANCH  35  36
ENDBRANCH  29  35
BRANCH  30  38
ATOM     38  O   UNL     1     -42.129   3.894  79.507  1.00  0.00    -0.387 OA
ATOM     39  H   UNL     1     -42.597   4.769  79.498  1.00  0.00     0.211 HD
ENDBRANCH  30  38
ENDBRANCH   1  25
TORSDOF 11
ENDMDL
MODEL 3
REMARK VINA RESULT:    -6.647      2.553      6.372
REMARK INTER + INTRA:         -10.429
REMARK INTER:                  -9.123
REMARK INTRA:                  -1.306
REMARK UNBOUND:                -0.868
REMARK SMILES O=c1c(O[C@H]2O[C@@H](CO)[C@H](O)[C@H](O)[C@@H]2O)c(-c2ccc(O)cc2)oc2cc(O)cc(O)c12
REMARK SMILES IDX 4 1 3 2 16 3 24 4 2 5 25 6 1 7 32 8 26 9 30 10 27 11 29 12
REMARK SMILES IDX 17 13 18 14 19 15 20 16 23 17 22 18 21 19 31 21 28 23 5 25
REMARK SMILES IDX 14 26 6 27 12 28 7 29 10 30 15 31 13 33 8 35 9 36 11 38
REMARK H PARENT 21 20 31 22 28 24 15 32 13 34 9 37 11 39
REMARK Flexibility Score: inf
ROOT
ATOM      1  O   UNL     1     -38.429   5.886  77.366  1.00  0.00    -0.454 OA
ENDROOT
BRANCH   1   2
ATOM      2  C   UNL     1     -37.846   5.319  78.504  1.00  0.00     0.214 A 
ATOM      3  C   UNL     1     -38.528   4.340  79.252  1.00  0.00     0.180 A 
ATOM      4  O   UNL     1     -37.934   3.771  80.297  1.00  0.00    -0.452 OA
ATOM      5  C   UNL     1     -36.561   5.705  78.904  1.00  0.00     0.239 A 
ATOM      6  C   UNL     1     -36.714   4.100  80.708  1.00  0.00     0.146 A 
ATOM      7  O   UNL     1     -35.946   6.579  78.235  1.00  0.00    -0.285 OA
ATOM      8  C   UNL     1     -35.970   5.099  80.032  1.00  0.00     0.111 A 
ATOM      9  C   UNL     1     -36.170   3.451  81.821  1.00  0.00     0.094 A 
ATOM     10  C   UNL     1     -34.678   5.435  80.505  1.00  0.00     0.134 A 
ATOM     11  C   UNL     1     -34.895   3.783  82.279  1.00  0.00     0.123 A 
ATOM     12  C   UNL     1     -34.152   4.768  81.619  1.00  0.00     0.093 A 
BRANCH   3  13
ATOM     13  C   UNL     1     -39.887   3.896  78.889  1.00  0.00     0.021 A 
ATOM     14  C   UNL     1     -40.994   4.228  79.690  1.00  0.00     0.016 A 
ATOM     15  C   UNL     1     -42.278   3.817  79.318  1.00  0.00     0.047 A 
ATOM     16  C   UNL     1     -42.469   3.081  78.145  1.00  0.00     0.115 A 
ATOM     17  C   UNL     1     -40.078   3.119  77.736  1.00  0.00     0.016 A 
ATOM     18  C   UNL     1     -41.365   2.723  77.360  1.00  0.00     0.047 A 
BRANCH  16  19
ATOM     19  O   UNL     1     -43.757   2.718  77.765  1.00  0.00    -0.508 OA
ATOM     20  H   UNL     1     -43.944   2.269  76.876  1.00  0.00     0.293 HD
ENDBRANCH  16  19
ENDBRANCH   3  13
BRANCH  10  21
ATOM     21  O   UNL     1     -33.918   6.429  79.882  1.00  0.00    -0.507 OA
ATOM     22  H   UNL     1     -33.496   7.186  80.406  1.00  0.00     0.293 HD
ENDBRANCH  10  21
BRANCH  11  23
ATOM     23  O   UNL     1     -34.377   3.132  83.397  1.00  0.00    -0.508 OA
ATOM     24  H   UNL     1     -33.530   2.580  83.343  1.00  0.00     0.293 HD
ENDBRANCH  11  23
ENDBRANCH   1   2
BRANCH   1  25
ATOM     25  C   UNL     1     -39.446   6.885  77.452  1.00  0.00     0.339 C 
ATOM     26  C   UNL     1     -39.463   7.711  76.144  1.00  0.00     0.214 C 
ATOM     27  O   UNL     1     -39.248   7.647  78.641  1.00  0.00    -0.332 OA
ATOM     28  C   UNL     1     -38.131   8.480  75.983  1.00  0.00     0.180 C 
ATOM     29  C   UNL     1     -38.635   8.920  78.447  1.00  0.00     0.179 C 
ATOM     30  C   UNL     1     -37.531   8.882  77.357  1.00  0.00     0.177 C 
BRANCH  26  31
ATOM     31  O   UNL     1     -40.542   8.613  76.151  1.00  0.00    -0.384 OA
ATOM     32  H   UNL     1     -40.660   8.945  75.221  1.00  0.00     0.211 HD
ENDBRANCH  26  31
BRANCH  28  33
ATOM     33  O   UNL     1     -38.323   9.617  75.176  1.00  0.00    -0.387 OA
ATOM     34  H   UNL     1     -38.358  10.398  75.789  1.00  0.00     0.211 HD
ENDBRANCH  28  33
BRANCH  29  35
ATOM     35  C   UNL     1     -38.076   9.389  79.799  1.00  0.00     0.191 C 
BRANCH  35  36
ATOM     36  O   UNL     1     -36.761   8.932  79.965  1.00  0.00    -0.394 OA
ATOM     37  H   UNL     1     -36.681   8.668  80.919  1.00  0.00     0.210 HD
ENDBRANCH  35  36
ENDBRANCH  29  35
BRANCH  30  38
ATOM     38  O   UNL     1     -36.880  10.125  77.268  1.00  0.00    -0.387 OA
ATOM     39  H   UNL     1     -36.138  10.105  77.928  1.00  0.00     0.211 HD
ENDBRANCH  30  38
ENDBRANCH   1  25
TORSDOF 11
ENDMDL
MODEL 4
REMARK VINA RESULT:    -6.439      2.646      4.563
REMARK INTER + INTRA:         -10.130
REMARK INTER:                  -9.024
REMARK INTRA:                  -1.107
REMARK UNBOUND:                -0.868
REMARK SMILES O=c1c(O[C@H]2O[C@@H](CO)[C@H](O)[C@H](O)[C@@H]2O)c(-c2ccc(O)cc2)oc2cc(O)cc(O)c12
REMARK SMILES IDX 4 1 3 2 16 3 24 4 2 5 25 6 1 7 32 8 26 9 30 10 27 11 29 12
REMARK SMILES IDX 17 13 18 14 19 15 20 16 23 17 22 18 21 19 31 21 28 23 5 25
REMARK SMILES IDX 14 26 6 27 12 28 7 29 10 30 15 31 13 33 8 35 9 36 11 38
REMARK H PARENT 21 20 31 22 28 24 15 32 13 34 9 37 11 39
REMARK Flexibility Score: inf
ROOT
ATOM      1  O   UNL     1     -36.854   6.057  79.104  1.00  0.00    -0.454 OA
ENDROOT
BRANCH   1   2
ATOM      2  C   UNL     1     -37.920   5.468  79.792  1.00  0.00     0.214 A 
ATOM      3  C   UNL     1     -39.252   5.783  79.464  1.00  0.00     0.180 A 
ATOM      4  O   UNL     1     -40.252   5.169  80.090  1.00  0.00    -0.452 OA
ATOM      5  C   UNL     1     -37.673   4.535  80.806  1.00  0.00     0.239 A 
ATOM      6  C   UNL     1     -40.066   4.273  81.053  1.00  0.00     0.146 A 
ATOM      7  O   UNL     1     -36.481   4.247  81.101  1.00  0.00    -0.285 OA
ATOM      8  C   UNL     1     -38.758   3.920  81.468  1.00  0.00     0.111 A 
ATOM      9  C   UNL     1     -41.178   3.681  81.659  1.00  0.00     0.094 A 
ATOM     10  C   UNL     1     -38.594   2.972  82.506  1.00  0.00     0.134 A 
ATOM     11  C   UNL     1     -41.012   2.743  82.679  1.00  0.00     0.123 A 
ATOM     12  C   UNL     1     -39.724   2.388  83.095  1.00  0.00     0.093 A 
BRANCH   3  13
ATOM     13  C   UNL     1     -39.579   6.764  78.412  1.00  0.00     0.021 A 
ATOM     14  C   UNL     1     -39.133   6.585  77.091  1.00  0.00     0.016 A 
ATOM     15  C   UNL     1     -39.471   7.514  76.103  1.00  0.00     0.047 A 
ATOM     16  C   UNL     1     -40.261   8.623  76.421  1.00  0.00     0.115 A 
ATOM     17  C   UNL     1     -40.334   7.902  78.736  1.00  0.00     0.016 A 
ATOM     18  C   UNL     1     -40.683   8.822  77.743  1.00  0.00     0.047 A 
BRANCH  16  19
ATOM     19  O   UNL     1     -40.627   9.516  75.419  1.00  0.00    -0.508 OA
ATOM     20  H   UNL     1     -41.572   9.873  75.342  1.00  0.00     0.293 HD
ENDBRANCH  16  19
ENDBRANCH   3  13
BRANCH  10  21
ATOM     21  O   UNL     1     -37.323   2.611  82.961  1.00  0.00    -0.507 OA
ATOM     22  H   UNL     1     -36.922   3.012  83.800  1.00  0.00     0.293 HD
ENDBRANCH  10  21
BRANCH  11  23
ATOM     23  O   UNL     1     -42.134   2.175  83.277  1.00  0.00    -0.508 OA
ATOM     24  H   UNL     1     -42.369   1.198  83.142  1.00  0.00     0.293 HD
ENDBRANCH  11  23
ENDBRANCH   1   2
BRANCH   1  25
ATOM     25  C   UNL     1     -36.445   7.403  79.348  1.00  0.00     0.339 C 
ATOM     26  C   UNL     1     -35.765   7.969  78.078  1.00  0.00     0.214 C 
ATOM     27  O   UNL     1     -35.642   7.438  80.525  1.00  0.00    -0.332 OA
ATOM     28  C   UNL     1     -34.468   7.184  77.775  1.00  0.00     0.180 C 
ATOM     29  C   UNL     1     -34.237   7.522  80.295  1.00  0.00     0.179 C 
ATOM     30  C   UNL     1     -33.789   6.675  79.075  1.00  0.00     0.177 C 
BRANCH  26  31
ATOM     31  O   UNL     1     -35.473   9.335  78.249  1.00  0.00    -0.384 OA
ATOM     32  H   UNL     1     -35.488   9.523  79.226  1.00  0.00     0.211 HD
ENDBRANCH  26  31
BRANCH  28  33
ATOM     33  O   UNL     1     -33.580   7.985  77.034  1.00  0.00    -0.387 OA
ATOM     34  H   UNL     1     -34.056   8.243  76.201  1.00  0.00     0.211 HD
ENDBRANCH  28  33
BRANCH  29  35
ATOM     35  C   UNL     1     -33.518   7.084  81.580  1.00  0.00     0.191 C 
BRANCH  35  36
ATOM     36  O   UNL     1     -34.134   5.944  82.116  1.00  0.00    -0.394 OA
ATOM     37  H   UNL     1     -34.278   6.137  83.079  1.00  0.00     0.210 HD
ENDBRANCH  35  36
ENDBRANCH  29  35
BRANCH  30  38
ATOM     38  O   UNL     1     -32.389   6.699  78.944  1.00  0.00    -0.387 OA
ATOM     39  H   UNL     1     -32.193   6.597  77.976  1.00  0.00     0.211 HD
ENDBRANCH  30  38
ENDBRANCH   1  25
TORSDOF 11
ENDMDL
MODEL 5
REMARK VINA RESULT:    -6.248      2.840      6.818
REMARK INTER + INTRA:          -9.855
REMARK INTER:                  -8.939
REMARK INTRA:                  -0.916
REMARK UNBOUND:                -0.868
REMARK SMILES O=c1c(O[C@H]2O[C@@H](CO)[C@H](O)[C@H](O)[C@@H]2O)c(-c2ccc(O)cc2)oc2cc(O)cc(O)c12
REMARK SMILES IDX 4 1 3 2 16 3 24 4 2 5 25 6 1 7 32 8 26 9 30 10 27 11 29 12
REMARK SMILES IDX 17 13 18 14 19 15 20 16 23 17 22 18 21 19 31 21 28 23 5 25
REMARK SMILES IDX 14 26 6 27 12 28 7 29 10 30 15 31 13 33 8 35 9 36 11 38
REMARK H PARENT 21 20 31 22 28 24 15 32 13 34 9 37 11 39
REMARK Flexibility Score: inf
ROOT
ATOM      1  O   UNL     1     -39.570   6.392  80.193  1.00  0.00    -0.454 OA
ENDROOT
BRANCH   1   2
ATOM      2  C   UNL     1     -38.249   6.815  80.014  1.00  0.00     0.214 A 
ATOM      3  C   UNL     1     -37.920   7.749  79.013  1.00  0.00     0.180 A 
ATOM      4  O   UNL     1     -36.668   8.181  78.897  1.00  0.00    -0.452 OA
ATOM      5  C   UNL     1     -37.235   6.328  80.848  1.00  0.00     0.239 A 
ATOM      6  C   UNL     1     -35.675   7.753  79.669  1.00  0.00     0.146 A 
ATOM      7  O   UNL     1     -37.527   5.494  81.748  1.00  0.00    -0.285 OA
ATOM      8  C   UNL     1     -35.913   6.789  80.681  1.00  0.00     0.111 A 
ATOM      9  C   UNL     1     -34.388   8.261  79.472  1.00  0.00     0.094 A 
ATOM     10  C   UNL     1     -34.830   6.344  81.478  1.00  0.00     0.134 A 
ATOM     11  C   UNL     1     -33.326   7.822  80.263  1.00  0.00     0.123 A 
ATOM     12  C   UNL     1     -33.550   6.871  81.265  1.00  0.00     0.093 A 
BRANCH   3  13
ATOM     13  C   UNL     1     -38.939   8.293  78.097  1.00  0.00     0.021 A 
ATOM     14  C   UNL     1     -39.922   9.187  78.555  1.00  0.00     0.016 A 
ATOM     15  C   UNL     1     -40.867   9.709  77.667  1.00  0.00     0.047 A 
ATOM     16  C   UNL     1     -40.835   9.351  76.316  1.00  0.00     0.115 A 
ATOM     17  C   UNL     1     -38.939   7.901  76.749  1.00  0.00     0.016 A 
ATOM     18  C   UNL     1     -39.876   8.436  75.860  1.00  0.00     0.047 A 
BRANCH  16  19
ATOM     19  O   UNL     1     -41.754   9.913  75.435  1.00  0.00    -0.508 OA
ATOM     20  H   UNL     1     -42.684  10.182  75.736  1.00  0.00     0.293 HD
ENDBRANCH  16  19
ENDBRANCH   3  13
BRANCH  10  21
ATOM     21  O   UNL     1     -35.015   5.380  82.473  1.00  0.00    -0.507 OA
ATOM     22  H   UNL     1     -35.140   4.400  82.250  1.00  0.00     0.293 HD
ENDBRANCH  10  21
BRANCH  11  23
ATOM     23  O   UNL     1     -32.049   8.333  80.041  1.00  0.00    -0.508 OA
ATOM     24  H   UNL     1     -31.426   7.922  79.354  1.00  0.00     0.293 HD
ENDBRANCH  11  23
ENDBRANCH   1   2
BRANCH   1  25
ATOM     25  C   UNL     1     -40.214   5.505  79.278  1.00  0.00     0.339 C 
ATOM     26  C   UNL     1     -41.312   4.709  80.024  1.00  0.00     0.214 C 
ATOM     27  O   UNL     1     -39.224   4.704  78.637  1.00  0.00    -0.332 OA
ATOM     28  C   UNL     1     -40.674   3.808  81.106  1.00  0.00     0.180 C 
ATOM     29  C   UNL     1     -39.097   3.377  79.145  1.00  0.00     0.179 C 
ATOM     30  C   UNL     1     -39.261   3.320  80.687  1.00  0.00     0.177 C 
BRANCH  26  31
ATOM     31  O   UNL     1     -42.047   3.925  79.116  1.00  0.00    -0.384 OA
ATOM     32  H   UNL     1     -41.400   3.349  78.627  1.00  0.00     0.211 HD
ENDBRANCH  26  31
BRANCH  28  33
ATOM     33  O   UNL     1     -41.514   2.713  81.381  1.00  0.00    -0.387 OA
ATOM     34  H   UNL     1     -40.923   1.963  81.655  1.00  0.00     0.211 HD
ENDBRANCH  28  33
BRANCH  29  35
ATOM     35  C   UNL     1     -37.733   2.827  78.702  1.00  0.00     0.191 C 
BRANCH  35  36
ATOM     36  O   UNL     1     -37.881   1.543  78.159  1.00  0.00    -0.394 OA
ATOM     37  H   UNL     1     -38.740   1.193  78.511  1.00  0.00     0.210 HD
ENDBRANCH  35  36
ENDBRANCH  29  35
BRANCH  30  38
ATOM     38  O   UNL     1     -39.027   2.017  81.161  1.00  0.00    -0.387 OA
ATOM     39  H   UNL     1     -38.754   1.474  80.375  1.00  0.00     0.211 HD
ENDBRANCH  30  38
ENDBRANCH   1  25
TORSDOF 11
ENDMDL
MODEL 6
REMARK VINA RESULT:    -6.194      2.810      5.121
REMARK INTER + INTRA:          -9.778
REMARK INTER:                  -8.432
REMARK INTRA:                  -1.346
REMARK UNBOUND:                -0.868
REMARK SMILES O=c1c(O[C@H]2O[C@@H](CO)[C@H](O)[C@H](O)[C@@H]2O)c(-c2ccc(O)cc2)oc2cc(O)cc(O)c12
REMARK SMILES IDX 4 1 3 2 16 3 24 4 2 5 25 6 1 7 32 8 26 9 30 10 27 11 29 12
REMARK SMILES IDX 17 13 18 14 19 15 20 16 23 17 22 18 21 19 31 21 28 23 5 25
REMARK SMILES IDX 14 26 6 27 12 28 7 29 10 30 15 31 13 33 8 35 9 36 11 38
REMARK H PARENT 21 20 31 22 28 24 15 32 13 34 9 37 11 39
REMARK Flexibility Score: inf
ROOT
ATOM      1  O   UNL     1     -36.034   6.680  79.982  1.00  0.00    -0.454 OA
ENDROOT
BRANCH   1   2
ATOM      2  C   UNL     1     -36.982   5.759  80.440  1.00  0.00     0.214 A 
ATOM      3  C   UNL     1     -38.258   5.683  79.850  1.00  0.00     0.180 A 
ATOM      4  O   UNL     1     -39.125   4.761  80.261  1.00  0.00    -0.452 OA
ATOM      5  C   UNL     1     -36.663   4.881  81.483  1.00  0.00     0.239 A 
ATOM      6  C   UNL     1     -38.863   3.904  81.241  1.00  0.00     0.146 A 
ATOM      7  O   UNL     1     -35.521   4.943  82.013  1.00  0.00    -0.285 OA
ATOM      8  C   UNL     1     -37.616   3.932  81.912  1.00  0.00     0.111 A 
ATOM      9  C   UNL     1     -39.838   2.971  81.609  1.00  0.00     0.094 A 
ATOM     10  C   UNL     1     -37.375   3.012  82.962  1.00  0.00     0.134 A 
ATOM     11  C   UNL     1     -39.594   2.064  82.642  1.00  0.00     0.123 A 
ATOM     12  C   UNL     1     -38.364   2.084  83.310  1.00  0.00     0.093 A 
BRANCH   3  13
ATOM     13  C   UNL     1     -38.658   6.585  78.754  1.00  0.00     0.021 A 
ATOM     14  C   UNL     1     -39.179   7.863  79.022  1.00  0.00     0.016 A 
ATOM     15  C   UNL     1     -39.533   8.712  77.969  1.00  0.00     0.047 A 
ATOM     16  C   UNL     1     -39.364   8.299  76.644  1.00  0.00     0.115 A 
ATOM     17  C   UNL     1     -38.533   6.157  77.423  1.00  0.00     0.016 A 
ATOM     18  C   UNL     1     -38.874   7.014  76.373  1.00  0.00     0.047 A 
BRANCH  16  19
ATOM     19  O   UNL     1     -39.679   9.171  75.608  1.00  0.00    -0.508 OA
ATOM     20  H   UNL     1     -40.164   8.857  74.775  1.00  0.00     0.293 HD
ENDBRANCH  16  19
ENDBRANCH   3  13
BRANCH  10  21
ATOM     21  O   UNL     1     -36.167   3.018  83.664  1.00  0.00    -0.507 OA
ATOM     22  H   UNL     1     -35.293   2.753  83.225  1.00  0.00     0.293 HD
ENDBRANCH  10  21
BRANCH  11  23
ATOM     23  O   UNL     1     -40.584   1.152  83.001  1.00  0.00    -0.508 OA
ATOM     24  H   UNL     1     -40.580   0.201  82.649  1.00  0.00     0.293 HD
ENDBRANCH  11  23
ENDBRANCH   1   2
BRANCH   1  25
ATOM     25  C   UNL     1     -35.058   6.338  78.997  1.00  0.00     0.339 C 
ATOM     26  C   UNL     1     -33.651   6.371  79.638  1.00  0.00     0.214 C 
ATOM     27  O   UNL     1     -35.223   7.192  77.867  1.00  0.00    -0.332 OA
ATOM     28  C   UNL     1     -33.306   7.808  80.092  1.00  0.00     0.180 C 
ATOM     29  C   UNL     1     -34.288   8.266  77.780  1.00  0.00     0.179 C 
ATOM     30  C   UNL     1     -33.958   8.873  79.170  1.00  0.00     0.177 C 
BRANCH  26  31
ATOM     31  O   UNL     1     -32.687   5.910  78.723  1.00  0.00    -0.384 OA
ATOM     32  H   UNL     1     -31.863   5.698  79.238  1.00  0.00     0.211 HD
ENDBRANCH  26  31
BRANCH  28  33
ATOM     33  O   UNL     1     -31.909   7.980  80.134  1.00  0.00    -0.387 OA
ATOM     34  H   UNL     1     -31.719   8.865  79.725  1.00  0.00     0.211 HD
ENDBRANCH  28  33
BRANCH  29  35
ATOM     35  C   UNL     1     -34.866   9.323  76.826  1.00  0.00     0.191 C 
BRANCH  35  36
ATOM     36  O   UNL     1     -35.798  10.125  77.498  1.00  0.00    -0.394 OA
ATOM     37  H   UNL     1     -35.787   9.826  78.444  1.00  0.00     0.210 HD
ENDBRANCH  35  36
ENDBRANCH  29  35
BRANCH  30  38
ATOM     38  O   UNL     1     -33.118   9.991  79.033  1.00  0.00    -0.387 OA
ATOM     39  H   UNL     1     -32.344   9.841  79.637  1.00  0.00     0.211 HD
ENDBRANCH  30  38
ENDBRANCH   1  25
TORSDOF 11
ENDMDL
MODEL 7
REMARK VINA RESULT:    -6.146      2.791      4.206
REMARK INTER + INTRA:          -9.708
REMARK INTER:                  -8.478
REMARK INTRA:                  -1.230
REMARK UNBOUND:                -0.868
REMARK SMILES O=c1c(O[C@H]2O[C@@H](CO)[C@H](O)[C@H](O)[C@@H]2O)c(-c2ccc(O)cc2)oc2cc(O)cc(O)c12
REMARK SMILES IDX 4 1 3 2 16 3 24 4 2 5 25 6 1 7 32 8 26 9 30 10 27 11 29 12
REMARK SMILES IDX 17 13 18 14 19 15 20 16 23 17 22 18 21 19 31 21 28 23 5 25
REMARK SMILES IDX 14 26 6 27 12 28 7 29 10 30 15 31 13 33 8 35 9 36 11 38
REMARK H PARENT 21 20 31 22 28 24 15 32 13 34 9 37 11 39
REMARK Flexibility Score: inf
ROOT
ATOM      1  O   UNL     1     -38.659   6.388  78.713  1.00  0.00    -0.454 OA
ENDROOT
BRANCH   1   2
ATOM      2  C   UNL     1     -38.650   5.371  79.673  1.00  0.00     0.214 A 
ATOM      3  C   UNL     1     -37.438   4.906  80.220  1.00  0.00     0.180 A 
ATOM      4  O   UNL     1     -37.454   3.979  81.174  1.00  0.00    -0.452 OA
ATOM      5  C   UNL     1     -39.854   4.816  80.122  1.00  0.00     0.239 A 
ATOM      6  C   UNL     1     -38.572   3.430  81.635  1.00  0.00     0.146 A 
ATOM      7  O   UNL     1     -40.941   5.232  79.638  1.00  0.00    -0.285 OA
ATOM      8  C   UNL     1     -39.833   3.817  81.118  1.00  0.00     0.111 A 
ATOM      9  C   UNL     1     -38.492   2.458  82.637  1.00  0.00     0.094 A 
ATOM     10  C   UNL     1     -41.005   3.201  81.622  1.00  0.00     0.134 A 
ATOM     11  C   UNL     1     -39.650   1.858  83.134  1.00  0.00     0.123 A 
ATOM     12  C   UNL     1     -40.900   2.234  82.630  1.00  0.00     0.093 A 
BRANCH   3  13
ATOM     13  C   UNL     1     -36.135   5.443  79.784  1.00  0.00     0.021 A 
ATOM     14  C   UNL     1     -35.664   6.678  80.261  1.00  0.00     0.016 A 
ATOM     15  C   UNL     1     -34.418   7.161  79.853  1.00  0.00     0.047 A 
ATOM     16  C   UNL     1     -33.628   6.414  78.974  1.00  0.00     0.115 A 
ATOM     17  C   UNL     1     -35.359   4.718  78.866  1.00  0.00     0.016 A 
ATOM     18  C   UNL     1     -34.106   5.196  78.472  1.00  0.00     0.047 A 
BRANCH  16  19
ATOM     19  O   UNL     1     -32.371   6.885  78.612  1.00  0.00    -0.508 OA
ATOM     20  H   UNL     1     -32.211   7.353  77.726  1.00  0.00     0.293 HD
ENDBRANCH  16  19
ENDBRANCH   3  13
BRANCH  10  21
ATOM     21  O   UNL     1     -42.267   3.537  81.126  1.00  0.00    -0.507 OA
ATOM     22  H   UNL     1     -43.020   3.832  81.737  1.00  0.00     0.293 HD
ENDBRANCH  10  21
BRANCH  11  23
ATOM     23  O   UNL     1     -39.546   0.884  84.124  1.00  0.00    -0.508 OA
ATOM     24  H   UNL     1     -40.366   0.421  84.500  1.00  0.00     0.293 HD
ENDBRANCH  11  23
ENDBRANCH   1   2
BRANCH   1  25
ATOM     25  C   UNL     1     -39.106   7.711  79.012  1.00  0.00     0.339 C 
ATOM     26  C   UNL     1     -40.244   8.098  78.038  1.00  0.00     0.214 C 
ATOM     27  O   UNL     1     -37.985   8.592  79.006  1.00  0.00    -0.332 OA
ATOM     28  C   UNL     1     -39.708   8.153  76.589  1.00  0.00     0.180 C 
ATOM     29  C   UNL     1     -37.845   9.383  77.828  1.00  0.00     0.179 C 
ATOM     30  C   UNL     1     -38.222   8.598  76.544  1.00  0.00     0.177 C 
BRANCH  26  31
ATOM     31  O   UNL     1     -40.791   9.344  78.398  1.00  0.00    -0.384 OA
ATOM     32  H   UNL     1     -40.455   9.565  79.308  1.00  0.00     0.211 HD
ENDBRANCH  26  31
BRANCH  28  33
ATOM     33  O   UNL     1     -40.505   9.013  75.811  1.00  0.00    -0.387 OA
ATOM     34  H   UNL     1     -40.244   8.865  74.864  1.00  0.00     0.211 HD
ENDBRANCH  28  33
BRANCH  29  35
ATOM     35  C   UNL     1     -36.399   9.898  77.770  1.00  0.00     0.191 C 
BRANCH  35  36
ATOM     36  O   UNL     1     -35.579   8.970  77.113  1.00  0.00    -0.394 OA
ATOM     37  H   UNL     1     -34.768   8.872  77.677  1.00  0.00     0.210 HD
ENDBRANCH  35  36
ENDBRANCH  29  35
BRANCH  30  38
ATOM     38  O   UNL     1     -37.972   9.374  75.398  1.00  0.00    -0.387 OA
ATOM     39  H   UNL     1     -37.862  10.311  75.709  1.00  0.00     0.211 HD
ENDBRANCH  30  38
ENDBRANCH   1  25
TORSDOF 11
ENDMDL
MODEL 8
REMARK VINA RESULT:    -6.100      1.666      2.750
REMARK INTER + INTRA:          -9.643
REMARK INTER:                  -8.510
REMARK INTRA:                  -1.132
REMARK UNBOUND:                -0.868
REMARK SMILES O=c1c(O[C@H]2O[C@@H](CO)[C@H](O)[C@H](O)[C@@H]2O)c(-c2ccc(O)cc2)oc2cc(O)cc(O)c12
REMARK SMILES IDX 4 1 3 2 16 3 24 4 2 5 25 6 1 7 32 8 26 9 30 10 27 11 29 12
REMARK SMILES IDX 17 13 18 14 19 15 20 16 23 17 22 18 21 19 31 21 28 23 5 25
REMARK SMILES IDX 14 26 6 27 12 28 7 29 10 30 15 31 13 33 8 35 9 36 11 38
REMARK H PARENT 21 20 31 22 28 24 15 32 13 34 9 37 11 39
REMARK Flexibility Score: inf
ROOT
ATOM      1  O   UNL     1     -37.366   5.707  81.616  1.00  0.00    -0.454 OA
ENDROOT
BRANCH   1   2
ATOM      2  C   UNL     1     -38.390   5.316  80.746  1.00  0.00     0.214 A 
ATOM      3  C   UNL     1     -38.349   5.664  79.382  1.00  0.00     0.180 A 
ATOM      4  O   UNL     1     -39.302   5.233  78.560  1.00  0.00    -0.452 OA
ATOM      5  C   UNL     1     -39.462   4.551  81.220  1.00  0.00     0.239 A 
ATOM      6  C   UNL     1     -40.334   4.500  78.964  1.00  0.00     0.146 A 
ATOM      7  O   UNL     1     -39.501   4.234  82.440  1.00  0.00    -0.285 OA
ATOM      8  C   UNL     1     -40.469   4.132  80.325  1.00  0.00     0.111 A 
ATOM      9  C   UNL     1     -41.291   4.095  78.028  1.00  0.00     0.094 A 
ATOM     10  C   UNL     1     -41.588   3.360  80.724  1.00  0.00     0.134 A 
ATOM     11  C   UNL     1     -42.389   3.332  78.425  1.00  0.00     0.123 A 
ATOM     12  C   UNL     1     -42.532   2.963  79.768  1.00  0.00     0.093 A 
BRANCH   3  13
ATOM     13  C   UNL     1     -37.252   6.475  78.823  1.00  0.00     0.021 A 
ATOM     14  C   UNL     1     -36.971   7.758  79.326  1.00  0.00     0.016 A 
ATOM     15  C   UNL     1     -35.914   8.504  78.797  1.00  0.00     0.047 A 
ATOM     16  C   UNL     1     -35.125   7.976  77.771  1.00  0.00     0.115 A 
ATOM     17  C   UNL     1     -36.486   5.968  77.762  1.00  0.00     0.016 A 
ATOM     18  C   UNL     1     -35.420   6.711  77.246  1.00  0.00     0.047 A 
BRANCH  16  19
ATOM     19  O   UNL     1     -34.048   8.711  77.285  1.00  0.00    -0.508 OA
ATOM     20  H   UNL     1     -33.431   8.344  76.569  1.00  0.00     0.293 HD
ENDBRANCH  16  19
ENDBRANCH   3  13
BRANCH  10  21
ATOM     21  O   UNL     1     -41.772   2.993  82.059  1.00  0.00    -0.507 OA
ATOM     22  H   UNL     1     -42.649   2.611  82.392  1.00  0.00     0.293 HD
ENDBRANCH  10  21
BRANCH  11  23
ATOM     23  O   UNL     1     -43.338   2.950  77.479  1.00  0.00    -0.508 OA
ATOM     24  H   UNL     1     -43.810   3.632  76.898  1.00  0.00     0.293 HD
ENDBRANCH  11  23
ENDBRANCH   1   2
BRANCH   1  25
ATOM     25  C   UNL     1     -36.372   4.792  82.077  1.00  0.00     0.339 C 
ATOM     26  C   UNL     1     -35.763   5.320  83.398  1.00  0.00     0.214 C 
ATOM     27  O   UNL     1     -35.429   4.567  81.031  1.00  0.00    -0.332 OA
ATOM     28  C   UNL     1     -35.024   6.655  83.147  1.00  0.00     0.180 C 
ATOM     29  C   UNL     1     -34.200   5.279  81.160  1.00  0.00     0.179 C 
ATOM     30  C   UNL     1     -34.407   6.710  81.724  1.00  0.00     0.177 C 
BRANCH  26  31
ATOM     31  O   UNL     1     -34.877   4.372  83.940  1.00  0.00    -0.384 OA
ATOM     32  H   UNL     1     -34.970   3.537  83.407  1.00  0.00     0.211 HD
ENDBRANCH  26  31
BRANCH  28  33
ATOM     33  O   UNL     1     -34.031   6.849  84.125  1.00  0.00    -0.387 OA
ATOM     34  H   UNL     1     -33.205   6.418  83.780  1.00  0.00     0.211 HD
ENDBRANCH  28  33
BRANCH  29  35
ATOM     35  C   UNL     1     -33.520   5.307  79.783  1.00  0.00     0.191 C 
BRANCH  35  36
ATOM     36  O   UNL     1     -33.846   4.154  79.057  1.00  0.00    -0.394 OA
ATOM     37  H   UNL     1     -34.515   3.665  79.603  1.00  0.00     0.210 HD
ENDBRANCH  35  36
ENDBRANCH  29  35
BRANCH  30  38
ATOM     38  O   UNL     1     -33.190   7.415  81.739  1.00  0.00    -0.387 OA
ATOM     39  H   UNL     1     -32.940   7.569  80.791  1.00  0.00     0.211 HD
ENDBRANCH  30  38
ENDBRANCH   1  25
TORSDOF 11
ENDMDL
