MODEL 1
REMARK VINA RESULT:    -5.509      0.000      0.000
REMARK INTER + INTRA:          -6.958
REMARK INTER:                  -6.636
REMARK INTRA:                  -0.321
REMARK UNBOUND:                -0.321
REMARK SMILES O=c1c(O)c(-c2ccc(O)cc2O)oc2cc(O)cc(O)c12
REMARK SMILES IDX 5 1 3 2 2 3 1 4 22 5 20 6 19 7 17 8 16 9 15 10 14 11 6 12
REMARK SMILES IDX 8 13 7 14 9 15 11 16 12 17 10 18 13 20 4 22 21 24 18 26
REMARK H PARENT 10 19 13 21 4 23 21 25 18 27
REMARK Flexibility Score: inf
ROOT
ATOM      1  C   UNL     1     -15.117  15.510  11.272  1.00  0.00     0.184 A 
ATOM      2  C   UNL     1     -16.217  16.176  10.711  1.00  0.00     0.208 A 
ATOM      3  C   UNL     1     -16.318  16.266   9.314  1.00  0.00     0.238 A 
ATOM      4  O   UNL     1     -17.268  16.929   8.820  1.00  0.00    -0.285 OA
ATOM      5  C   UNL     1     -15.347  15.639   8.495  1.00  0.00     0.111 A 
ATOM      6  C   UNL     1     -15.374  15.628   7.068  1.00  0.00     0.134 A 
ATOM      7  C   UNL     1     -14.302  15.066   6.362  1.00  0.00     0.093 A 
ATOM      8  C   UNL     1     -13.238  14.461   7.028  1.00  0.00     0.123 A 
ATOM      9  C   UNL     1     -13.228  14.418   8.423  1.00  0.00     0.094 A 
ATOM     10  C   UNL     1     -14.264  15.003   9.156  1.00  0.00     0.146 A 
ATOM     11  O   UNL     1     -14.204  14.958  10.482  1.00  0.00    -0.451 OA
ENDROOT
BRANCH   1  12
ATOM     12  C   UNL     1     -14.945  15.386  12.735  1.00  0.00     0.063 A 
ATOM     13  C   UNL     1     -13.757  16.046  14.750  1.00  0.00     0.047 A 
ATOM     14  C   UNL     1     -13.941  16.135  13.368  1.00  0.00     0.020 A 
ATOM     15  C   UNL     1     -14.579  15.219  15.517  1.00  0.00     0.119 A 
ATOM     16  C   UNL     1     -15.600  14.485  14.899  1.00  0.00     0.093 A 
ATOM     17  C   UNL     1     -15.796  14.572  13.512  1.00  0.00     0.130 A 
BRANCH  15  18
ATOM     18  O   UNL     1     -14.381  15.136  16.894  1.00  0.00    -0.508 OA
ATOM     19  H   UNL     1     -14.095  15.941  17.438  1.00  0.00     0.293 HD
ENDBRANCH  15  18
BRANCH  17  20
ATOM     20  O   UNL     1     -16.845  13.875  12.915  1.00  0.00    -0.507 OA
ATOM     21  H   UNL     1     -17.752  13.795  13.359  1.00  0.00     0.293 HD
ENDBRANCH  17  20
ENDBRANCH   1  12
BRANCH   2  22
ATOM     22  O   UNL     1     -17.199  16.724  11.542  1.00  0.00    -0.502 OA
ATOM     23  H   UNL     1     -17.411  16.342  12.456  1.00  0.00     0.293 HD
ENDBRANCH   2  22
BRANCH   6  24
ATOM     24  O   UNL     1     -16.430  16.126   6.300  1.00  0.00    -0.507 OA
ATOM     25  H   UNL     1     -16.753  17.081   6.311  1.00  0.00     0.293 HD
ENDBRANCH   6  24
BRANCH   8  26
ATOM     26  O   UNL     1     -12.198  13.898   6.293  1.00  0.00    -0.508 OA
ATOM     27  H   UNL     1     -11.229  14.130   6.481  1.00  0.00     0.293 HD
ENDBRANCH   8  26
TORSDOF 6
ENDMDL
MODEL 2
REMARK VINA RESULT:    -4.718     11.713     14.834
REMARK INTER + INTRA:          -6.004
REMARK INTER:                  -5.599
REMARK INTRA:                  -0.406
REMARK UNBOUND:                -0.321
REMARK SMILES O=c1c(O)c(-c2ccc(O)cc2O)oc2cc(O)cc(O)c12
REMARK SMILES IDX 5 1 3 2 2 3 1 4 22 5 20 6 19 7 17 8 16 9 15 10 14 11 6 12
REMARK SMILES IDX 8 13 7 14 9 15 11 16 12 17 10 18 13 20 4 22 21 24 18 26
REMARK H PARENT 10 19 13 21 4 23 21 25 18 27
REMARK Flexibility Score: inf
ROOT
ATOM      1  C   UNL     1     -26.346  15.578  18.878  1.00  0.00     0.184 A 
ATOM      2  C   UNL     1     -25.330  14.962  18.130  1.00  0.00     0.208 A 
ATOM      3  C   UNL     1     -24.017  15.443  18.240  1.00  0.00     0.238 A 
ATOM      4  O   UNL     1     -23.125  14.934  17.511  1.00  0.00    -0.285 OA
ATOM      5  C   UNL     1     -23.726  16.498  19.140  1.00  0.00     0.111 A 
ATOM      6  C   UNL     1     -22.422  17.036  19.365  1.00  0.00     0.134 A 
ATOM      7  C   UNL     1     -22.271  18.150  20.201  1.00  0.00     0.093 A 
ATOM      8  C   UNL     1     -23.362  18.706  20.867  1.00  0.00     0.123 A 
ATOM      9  C   UNL     1     -24.632  18.153  20.697  1.00  0.00     0.094 A 
ATOM     10  C   UNL     1     -24.822  17.066  19.840  1.00  0.00     0.146 A 
ATOM     11  O   UNL     1     -26.051  16.586  19.690  1.00  0.00    -0.451 OA
ENDROOT
BRANCH   1  12
ATOM     12  C   UNL     1     -27.751  15.125  18.803  1.00  0.00     0.063 A 
ATOM     13  C   UNL     1     -29.852  15.069  17.582  1.00  0.00     0.047 A 
ATOM     14  C   UNL     1     -28.522  15.485  17.687  1.00  0.00     0.020 A 
ATOM     15  C   UNL     1     -30.422  14.279  18.583  1.00  0.00     0.119 A 
ATOM     16  C   UNL     1     -29.654  13.895  19.689  1.00  0.00     0.093 A 
ATOM     17  C   UNL     1     -28.317  14.304  19.800  1.00  0.00     0.130 A 
BRANCH  15  18
ATOM     18  O   UNL     1     -31.751  13.875  18.467  1.00  0.00    -0.508 OA
ATOM     19  H   UNL     1     -32.224  13.388  19.218  1.00  0.00     0.293 HD
ENDBRANCH  15  18
BRANCH  17  20
ATOM     20  O   UNL     1     -27.548  13.875  20.882  1.00  0.00    -0.507 OA
ATOM     21  H   UNL     1     -27.954  13.355  21.651  1.00  0.00     0.293 HD
ENDBRANCH  17  20
ENDBRANCH   1  12
BRANCH   2  22
ATOM     22  O   UNL     1     -25.633  13.875  17.304  1.00  0.00    -0.502 OA
ATOM     23  H   UNL     1     -26.093  13.987  16.408  1.00  0.00     0.293 HD
ENDBRANCH   2  22
BRANCH   6  24
ATOM     24  O   UNL     1     -21.250  16.505  18.821  1.00  0.00    -0.507 OA
ATOM     25  H   UNL     1     -20.791  16.847  17.990  1.00  0.00     0.293 HD
ENDBRANCH   6  24
BRANCH   8  26
ATOM     26  O   UNL     1     -23.172  19.803  21.703  1.00  0.00    -0.508 OA
ATOM     27  H   UNL     1     -22.752  19.704  22.621  1.00  0.00     0.293 HD
ENDBRANCH   8  26
TORSDOF 6
ENDMDL
MODEL 3
REMARK VINA RESULT:    -4.690      1.226      2.858
REMARK INTER + INTRA:          -5.970
REMARK INTER:                  -5.692
REMARK INTRA:                  -0.279
REMARK UNBOUND:                -0.321
REMARK SMILES O=c1c(O)c(-c2ccc(O)cc2O)oc2cc(O)cc(O)c12
REMARK SMILES IDX 5 1 3 2 2 3 1 4 22 5 20 6 19 7 17 8 16 9 15 10 14 11 6 12
REMARK SMILES IDX 8 13 7 14 9 15 11 16 12 17 10 18 13 20 4 22 21 24 18 26
REMARK H PARENT 10 19 13 21 4 23 21 25 18 27
REMARK Flexibility Score: inf
ROOT
ATOM      1  C   UNL     1     -14.236  15.053  11.231  1.00  0.00     0.184 A 
ATOM      2  C   UNL     1     -13.030  14.575  10.696  1.00  0.00     0.208 A 
ATOM      3  C   UNL     1     -12.934  14.374   9.310  1.00  0.00     0.238 A 
ATOM      4  O   UNL     1     -11.875  13.875   8.845  1.00  0.00    -0.285 OA
ATOM      5  C   UNL     1     -14.026  14.708   8.472  1.00  0.00     0.111 A 
ATOM      6  C   UNL     1     -14.023  14.587   7.049  1.00  0.00     0.134 A 
ATOM      7  C   UNL     1     -15.198  14.847   6.332  1.00  0.00     0.093 A 
ATOM      8  C   UNL     1     -16.355  15.284   6.977  1.00  0.00     0.123 A 
ATOM      9  C   UNL     1     -16.352  15.458   8.362  1.00  0.00     0.094 A 
ATOM     10  C   UNL     1     -15.207  15.170   9.109  1.00  0.00     0.146 A 
ATOM     11  O   UNL     1     -15.255  15.328  10.427  1.00  0.00    -0.451 OA
ENDROOT
BRANCH   1  12
ATOM     12  C   UNL     1     -14.407  15.279  12.682  1.00  0.00     0.063 A 
ATOM     13  C   UNL     1     -13.660  16.385  14.714  1.00  0.00     0.047 A 
ATOM     14  C   UNL     1     -13.522  16.145  13.344  1.00  0.00     0.020 A 
ATOM     15  C   UNL     1     -14.689  15.775  15.434  1.00  0.00     0.119 A 
ATOM     16  C   UNL     1     -15.592  14.929  14.778  1.00  0.00     0.093 A 
ATOM     17  C   UNL     1     -15.464  14.686  13.402  1.00  0.00     0.130 A 
BRANCH  15  18
ATOM     18  O   UNL     1     -14.812  16.021  16.801  1.00  0.00    -0.508 OA
ATOM     19  H   UNL     1     -14.819  15.267  17.476  1.00  0.00     0.293 HD
ENDBRANCH  15  18
BRANCH  17  20
ATOM     20  O   UNL     1     -16.397  13.880  12.751  1.00  0.00    -0.507 OA
ATOM     21  H   UNL     1     -16.178  13.410  11.880  1.00  0.00     0.293 HD
ENDBRANCH  17  20
ENDBRANCH   1  12
BRANCH   2  22
ATOM     22  O   UNL     1     -11.943  14.322  11.538  1.00  0.00    -0.502 OA
ATOM     23  H   UNL     1     -11.477  13.422  11.566  1.00  0.00     0.293 HD
ENDBRANCH   2  22
BRANCH   6  24
ATOM     24  O   UNL     1     -12.898  14.244   6.293  1.00  0.00    -0.507 OA
ATOM     25  H   UNL     1     -12.561  13.304   6.152  1.00  0.00     0.293 HD
ENDBRANCH   6  24
BRANCH   8  26
ATOM     26  O   UNL     1     -17.500  15.549   6.231  1.00  0.00    -0.508 OA
ATOM     27  H   UNL     1     -18.226  16.167   6.575  1.00  0.00     0.293 HD
ENDBRANCH   8  26
TORSDOF 6
ENDMDL
MODEL 4
REMARK VINA RESULT:    -4.443      1.621      3.449
REMARK INTER + INTRA:          -5.674
REMARK INTER:                  -5.266
REMARK INTRA:                  -0.407
REMARK UNBOUND:                -0.321
REMARK SMILES O=c1c(O)c(-c2ccc(O)cc2O)oc2cc(O)cc(O)c12
REMARK SMILES IDX 5 1 3 2 2 3 1 4 22 5 20 6 19 7 17 8 16 9 15 10 14 11 6 12
REMARK SMILES IDX 8 13 7 14 9 15 11 16 12 17 10 18 13 20 4 22 21 24 18 26
REMARK H PARENT 10 19 13 21 4 23 21 25 18 27
REMARK Flexibility Score: inf
ROOT
ATOM      1  C   UNL     1     -14.345  15.027  12.584  1.00  0.00     0.184 A 
ATOM      2  C   UNL     1     -13.210  14.461  11.983  1.00  0.00     0.208 A 
ATOM      3  C   UNL     1     -13.116  14.450  10.582  1.00  0.00     0.238 A 
ATOM      4  O   UNL     1     -12.132  13.875  10.049  1.00  0.00    -0.285 OA
ATOM      5  C   UNL     1     -14.133  15.055   9.803  1.00  0.00     0.111 A 
ATOM      6  C   UNL     1     -14.120  15.142   8.378  1.00  0.00     0.134 A 
ATOM      7  C   UNL     1     -15.231  15.670   7.709  1.00  0.00     0.093 A 
ATOM      8  C   UNL     1     -16.326  16.171   8.412  1.00  0.00     0.123 A 
ATOM      9  C   UNL     1     -16.324  16.142   9.807  1.00  0.00     0.094 A 
ATOM     10  C   UNL     1     -15.248  15.587  10.503  1.00  0.00     0.146 A 
ATOM     11  O   UNL     1     -15.298  15.560  11.830  1.00  0.00    -0.451 OA
ENDROOT
BRANCH   1  12
ATOM     12  C   UNL     1     -14.510  15.064  14.053  1.00  0.00     0.063 A 
ATOM     13  C   UNL     1     -15.316  13.992  16.080  1.00  0.00     0.047 A 
ATOM     14  C   UNL     1     -15.149  13.991  14.692  1.00  0.00     0.020 A 
ATOM     15  C   UNL     1     -14.836  15.057  16.845  1.00  0.00     0.119 A 
ATOM     16  C   UNL     1     -14.175  16.122  16.218  1.00  0.00     0.093 A 
ATOM     17  C   UNL     1     -13.998  16.127  14.827  1.00  0.00     0.130 A 
BRANCH  15  18
ATOM     18  O   UNL     1     -15.013  15.047  18.227  1.00  0.00    -0.508 OA
ATOM     19  H   UNL     1     -14.232  14.937  18.861  1.00  0.00     0.293 HD
ENDBRANCH  15  18
BRANCH  17  20
ATOM     20  O   UNL     1     -13.297  17.168  14.220  1.00  0.00    -0.507 OA
ATOM     21  H   UNL     1     -13.175  17.212  13.215  1.00  0.00     0.293 HD
ENDBRANCH  17  20
ENDBRANCH   1  12
BRANCH   2  22
ATOM     22  O   UNL     1     -12.187  13.935  12.777  1.00  0.00    -0.502 OA
ATOM     23  H   UNL     1     -12.046  12.937  12.889  1.00  0.00     0.293 HD
ENDBRANCH   2  22
BRANCH   6  24
ATOM     24  O   UNL     1     -13.041  14.752   7.579  1.00  0.00    -0.507 OA
ATOM     25  H   UNL     1     -12.693  15.269   6.786  1.00  0.00     0.293 HD
ENDBRANCH   6  24
BRANCH   8  26
ATOM     26  O   UNL     1     -17.406  16.705   7.714  1.00  0.00    -0.508 OA
ATOM     27  H   UNL     1     -17.801  17.606   7.956  1.00  0.00     0.293 HD
ENDBRANCH   8  26
TORSDOF 6
ENDMDL
MODEL 5
REMARK VINA RESULT:    -4.148      1.935      6.972
REMARK INTER + INTRA:          -5.319
REMARK INTER:                  -5.006
REMARK INTRA:                  -0.313
REMARK UNBOUND:                -0.321
REMARK SMILES O=c1c(O)c(-c2ccc(O)cc2O)oc2cc(O)cc(O)c12
REMARK SMILES IDX 5 1 3 2 2 3 1 4 22 5 20 6 19 7 17 8 16 9 15 10 14 11 6 12
REMARK SMILES IDX 8 13 7 14 9 15 11 16 12 17 10 18 13 20 4 22 21 24 18 26
REMARK H PARENT 10 19 13 21 4 23 21 25 18 27
REMARK Flexibility Score: inf
ROOT
ATOM      1  C   UNL     1     -15.227  14.987   9.138  1.00  0.00     0.184 A 
ATOM      2  C   UNL     1     -13.824  15.000   9.124  1.00  0.00     0.208 A 
ATOM      3  C   UNL     1     -13.131  14.984  10.344  1.00  0.00     0.238 A 
ATOM      4  O   UNL     1     -11.875  15.071  10.326  1.00  0.00    -0.285 OA
ATOM      5  C   UNL     1     -13.850  14.899  11.562  1.00  0.00     0.111 A 
ATOM      6  C   UNL     1     -13.250  14.832  12.856  1.00  0.00     0.134 A 
ATOM      7  C   UNL     1     -14.064  14.857  13.996  1.00  0.00     0.093 A 
ATOM      8  C   UNL     1     -15.454  14.883  13.889  1.00  0.00     0.123 A 
ATOM      9  C   UNL     1     -16.052  14.893  12.629  1.00  0.00     0.094 A 
ATOM     10  C   UNL     1     -15.267  14.907  11.473  1.00  0.00     0.146 A 
ATOM     11  O   UNL     1     -15.877  14.939  10.294  1.00  0.00    -0.451 OA
ENDROOT
BRANCH   1  12
ATOM     12  C   UNL     1     -16.017  15.010   7.889  1.00  0.00     0.063 A 
ATOM     13  C   UNL     1     -17.546  13.875   6.377  1.00  0.00     0.047 A 
ATOM     14  C   UNL     1     -16.782  13.884   7.548  1.00  0.00     0.020 A 
ATOM     15  C   UNL     1     -17.565  14.994   5.542  1.00  0.00     0.119 A 
ATOM     16  C   UNL     1     -16.824  16.133   5.886  1.00  0.00     0.093 A 
ATOM     17  C   UNL     1     -16.059  16.152   7.062  1.00  0.00     0.130 A 
BRANCH  15  18
ATOM     18  O   UNL     1     -18.327  14.970   4.376  1.00  0.00    -0.508 OA
ATOM     19  H   UNL     1     -19.340  14.988   4.404  1.00  0.00     0.293 HD
ENDBRANCH  15  18
BRANCH  17  20
ATOM     20  O   UNL     1     -15.364  17.307   7.419  1.00  0.00    -0.507 OA
ATOM     21  H   UNL     1     -14.945  17.414   8.335  1.00  0.00     0.293 HD
ENDBRANCH  17  20
ENDBRANCH   1  12
BRANCH   2  22
ATOM     22  O   UNL     1     -13.137  15.012   7.906  1.00  0.00    -0.502 OA
ATOM     23  H   UNL     1     -12.644  14.199   7.553  1.00  0.00     0.293 HD
ENDBRANCH   2  22
BRANCH   6  24
ATOM     24  O   UNL     1     -11.875  14.714  13.077  1.00  0.00    -0.507 OA
ATOM     25  H   UNL     1     -11.186  15.402  12.813  1.00  0.00     0.293 HD
ENDBRANCH   6  24
BRANCH   8  26
ATOM     26  O   UNL     1     -16.232  14.890  15.044  1.00  0.00    -0.508 OA
ATOM     27  H   UNL     1     -15.889  15.284  15.913  1.00  0.00     0.293 HD
ENDBRANCH   8  26
TORSDOF 6
ENDMDL
