MODEL 1
REMARK VINA RESULT:    -4.575      0.000      0.000
REMARK INTER + INTRA:          -5.692
REMARK INTER:                  -5.377
REMARK INTRA:                  -0.315
REMARK UNBOUND:                -0.315
REMARK SMILES O=c1cc(-c2ccc(O)c(O)c2)oc2cc(O)cc(O)c12
REMARK SMILES IDX 4 1 3 2 2 3 1 4 21 5 19 6 18 7 16 8 15 9 14 10 13 11 5 12
REMARK SMILES IDX 6 13 7 14 8 15 12 16 10 17 9 18 11 20 20 22 17 24
REMARK H PARENT 9 19 11 21 20 23 17 25
REMARK Flexibility Score: inf
ROOT
ATOM      1  C   UNL     1       0.023  23.291 -14.206  1.00  0.00     0.138 A 
ATOM      2  C   UNL     1      -1.073  23.512 -15.051  1.00  0.00     0.100 A 
ATOM      3  C   UNL     1      -2.359  23.566 -14.514  1.00  0.00     0.197 A 
ATOM      4  O   UNL     1      -3.316  23.827 -15.289  1.00  0.00    -0.289 OA
ATOM      5  C   UNL     1      -2.552  23.366 -13.126  1.00  0.00     0.107 A 
ATOM      6  C   UNL     1      -3.822  23.358 -12.475  1.00  0.00     0.134 A 
ATOM      7  C   UNL     1      -3.879  23.267 -11.079  1.00  0.00     0.093 A 
ATOM      8  C   UNL     1      -2.721  23.122 -10.316  1.00  0.00     0.123 A 
ATOM      9  C   UNL     1      -1.477  23.075 -10.948  1.00  0.00     0.094 A 
ATOM     10  C   UNL     1      -1.383  23.198 -12.336  1.00  0.00     0.146 A 
ATOM     11  O   UNL     1      -0.179  23.162 -12.898  1.00  0.00    -0.456 OA
ENDROOT
BRANCH   1  12
ATOM     12  C   UNL     1       1.413  23.225 -14.723  1.00  0.00     0.021 A 
ATOM     13  C   UNL     1       1.632  23.084 -16.104  1.00  0.00     0.016 A 
ATOM     14  C   UNL     1       2.930  23.027 -16.616  1.00  0.00     0.051 A 
ATOM     15  C   UNL     1       4.032  23.118 -15.757  1.00  0.00     0.157 A 
ATOM     16  C   UNL     1       2.526  23.330 -13.866  1.00  0.00     0.062 A 
ATOM     17  C   UNL     1       3.830  23.274 -14.382  1.00  0.00     0.158 A 
BRANCH  15  18
ATOM     18  O   UNL     1       5.329  23.060 -16.264  1.00  0.00    -0.504 OA
ATOM     19  H   UNL     1       6.132  23.305 -15.696  1.00  0.00     0.293 HD
ENDBRANCH  15  18
BRANCH  17  20
ATOM     20  O   UNL     1       4.929  23.376 -13.531  1.00  0.00    -0.504 OA
ATOM     21  H   UNL     1       5.080  22.717 -12.776  1.00  0.00     0.293 HD
ENDBRANCH  17  20
ENDBRANCH   1  12
BRANCH   6  22
ATOM     22  O   UNL     1      -5.046  23.412 -13.148  1.00  0.00    -0.507 OA
ATOM     23  H   UNL     1      -5.494  24.259 -13.463  1.00  0.00     0.293 HD
ENDBRANCH   6  22
BRANCH   8  24
ATOM     24  O   UNL     1      -2.818  23.019  -8.930  1.00  0.00    -0.508 OA
ATOM     25  H   UNL     1      -3.367  23.676  -8.388  1.00  0.00     0.293 HD
ENDBRANCH   8  24
TORSDOF 5
ENDMDL
MODEL 2
REMARK VINA RESULT:    -4.476      1.388      6.922
REMARK INTER + INTRA:          -5.576
REMARK INTER:                  -5.273
REMARK INTRA:                  -0.304
REMARK UNBOUND:                -0.315
REMARK SMILES O=c1cc(-c2ccc(O)c(O)c2)oc2cc(O)cc(O)c12
REMARK SMILES IDX 4 1 3 2 2 3 1 4 21 5 19 6 18 7 16 8 15 9 14 10 13 11 5 12
REMARK SMILES IDX 6 13 7 14 8 15 12 16 10 17 9 18 11 20 20 22 17 24
REMARK H PARENT 9 19 11 21 20 23 17 25
REMARK Flexibility Score: inf
ROOT
ATOM      1  C   UNL     1       0.589  23.294 -14.038  1.00  0.00     0.138 A 
ATOM      2  C   UNL     1       0.720  22.853 -15.362  1.00  0.00     0.100 A 
ATOM      3  C   UNL     1       1.982  22.819 -15.957  1.00  0.00     0.197 A 
ATOM      4  O   UNL     1       2.075  22.361 -17.125  1.00  0.00    -0.289 OA
ATOM      5  C   UNL     1       3.114  23.260 -15.231  1.00  0.00     0.107 A 
ATOM      6  C   UNL     1       4.443  23.308 -15.749  1.00  0.00     0.134 A 
ATOM      7  C   UNL     1       5.502  23.652 -14.900  1.00  0.00     0.093 A 
ATOM      8  C   UNL     1       5.275  24.006 -13.571  1.00  0.00     0.123 A 
ATOM      9  C   UNL     1       3.973  24.014 -13.068  1.00  0.00     0.094 A 
ATOM     10  C   UNL     1       2.899  23.643 -13.880  1.00  0.00     0.146 A 
ATOM     11  O   UNL     1       1.675  23.650 -13.360  1.00  0.00    -0.456 OA
ENDROOT
BRANCH   1  12
ATOM     12  C   UNL     1      -0.729  23.350 -13.356  1.00  0.00     0.021 A 
ATOM     13  C   UNL     1      -1.884  23.632 -14.105  1.00  0.00     0.016 A 
ATOM     14  C   UNL     1      -3.136  23.683 -13.488  1.00  0.00     0.051 A 
ATOM     15  C   UNL     1      -3.256  23.444 -12.113  1.00  0.00     0.157 A 
ATOM     16  C   UNL     1      -0.858  23.098 -11.976  1.00  0.00     0.062 A 
ATOM     17  C   UNL     1      -2.116  23.148 -11.357  1.00  0.00     0.158 A 
BRANCH  15  18
ATOM     18  O   UNL     1      -4.503  23.496 -11.494  1.00  0.00    -0.504 OA
ATOM     19  H   UNL     1      -4.882  24.365 -11.135  1.00  0.00     0.293 HD
ENDBRANCH  15  18
BRANCH  17  20
ATOM     20  O   UNL     1      -2.240  22.899  -9.992  1.00  0.00    -0.504 OA
ATOM     21  H   UNL     1      -1.455  22.582  -9.436  1.00  0.00     0.293 HD
ENDBRANCH  17  20
ENDBRANCH   1  12
BRANCH   6  22
ATOM     22  O   UNL     1       4.771  23.055 -17.085  1.00  0.00    -0.507 OA
ATOM     23  H   UNL     1       5.624  22.617 -17.396  1.00  0.00     0.293 HD
ENDBRANCH   6  22
BRANCH   8  24
ATOM     24  O   UNL     1       6.352  24.357 -12.759  1.00  0.00    -0.508 OA
ATOM     25  H   UNL     1       7.303  24.116 -13.009  1.00  0.00     0.293 HD
ENDBRANCH   8  24
TORSDOF 5
ENDMDL
MODEL 3
REMARK VINA RESULT:    -4.358      1.470      6.753
REMARK INTER + INTRA:          -5.437
REMARK INTER:                  -5.135
REMARK INTRA:                  -0.301
REMARK UNBOUND:                -0.315
REMARK SMILES O=c1cc(-c2ccc(O)c(O)c2)oc2cc(O)cc(O)c12
REMARK SMILES IDX 4 1 3 2 2 3 1 4 21 5 19 6 18 7 16 8 15 9 14 10 13 11 5 12
REMARK SMILES IDX 6 13 7 14 8 15 12 16 10 17 9 18 11 20 20 22 17 24
REMARK H PARENT 9 19 11 21 20 23 17 25
REMARK Flexibility Score: inf
ROOT
ATOM      1  C   UNL     1      -0.815  23.636 -13.519  1.00  0.00     0.138 A 
ATOM      2  C   UNL     1      -1.016  24.238 -14.768  1.00  0.00     0.100 A 
ATOM      3  C   UNL     1       0.075  24.474 -15.604  1.00  0.00     0.197 A 
ATOM      4  O   UNL     1      -0.145  24.960 -16.744  1.00  0.00    -0.289 OA
ATOM      5  C   UNL     1       1.379  24.133 -15.174  1.00  0.00     0.107 A 
ATOM      6  C   UNL     1       2.570  24.364 -15.925  1.00  0.00     0.134 A 
ATOM      7  C   UNL     1       3.793  23.877 -15.447  1.00  0.00     0.093 A 
ATOM      8  C   UNL     1       3.878  23.222 -14.219  1.00  0.00     0.123 A 
ATOM      9  C   UNL     1       2.728  23.038 -13.451  1.00  0.00     0.094 A 
ATOM     10  C   UNL     1       1.488  23.481 -13.916  1.00  0.00     0.146 A 
ATOM     11  O   UNL     1       0.413  23.274 -13.160  1.00  0.00    -0.456 OA
ENDROOT
BRANCH   1  12
ATOM     12  C   UNL     1      -1.939  23.362 -12.588  1.00  0.00     0.021 A 
ATOM     13  C   UNL     1      -3.192  22.992 -13.107  1.00  0.00     0.016 A 
ATOM     14  C   UNL     1      -4.263  22.722 -12.252  1.00  0.00     0.051 A 
ATOM     15  C   UNL     1      -4.098  22.807 -10.864  1.00  0.00     0.157 A 
ATOM     16  C   UNL     1      -1.776  23.433 -11.190  1.00  0.00     0.062 A 
ATOM     17  C   UNL     1      -2.852  23.159 -10.333  1.00  0.00     0.158 A 
BRANCH  15  18
ATOM     18  O   UNL     1      -5.164  22.539 -10.008  1.00  0.00    -0.504 OA
ATOM     19  H   UNL     1      -5.027  22.066  -9.122  1.00  0.00     0.293 HD
ENDBRANCH  15  18
BRANCH  17  20
ATOM     20  O   UNL     1      -2.687  23.232  -8.951  1.00  0.00    -0.504 OA
ATOM     21  H   UNL     1      -1.778  23.119  -8.518  1.00  0.00     0.293 HD
ENDBRANCH  17  20
ENDBRANCH   1  12
BRANCH   6  22
ATOM     22  O   UNL     1       2.610  25.082 -17.125  1.00  0.00    -0.507 OA
ATOM     23  H   UNL     1       2.715  26.082 -17.194  1.00  0.00     0.293 HD
ENDBRANCH   6  22
BRANCH   8  24
ATOM     24  O   UNL     1       5.114  22.765 -13.769  1.00  0.00    -0.508 OA
ATOM     25  H   UNL     1       5.479  23.031 -12.862  1.00  0.00     0.293 HD
ENDBRANCH   8  24
TORSDOF 5
ENDMDL
MODEL 4
REMARK VINA RESULT:    -4.330      1.230      1.346
REMARK INTER + INTRA:          -5.404
REMARK INTER:                  -5.092
REMARK INTRA:                  -0.313
REMARK UNBOUND:                -0.315
REMARK SMILES O=c1cc(-c2ccc(O)c(O)c2)oc2cc(O)cc(O)c12
REMARK SMILES IDX 4 1 3 2 2 3 1 4 21 5 19 6 18 7 16 8 15 9 14 10 13 11 5 12
REMARK SMILES IDX 6 13 7 14 8 15 12 16 10 17 9 18 11 20 20 22 17 24
REMARK H PARENT 9 19 11 21 20 23 17 25
REMARK Flexibility Score: inf
ROOT
ATOM      1  C   UNL     1       0.803  23.699 -14.325  1.00  0.00     0.138 A 
ATOM      2  C   UNL     1      -0.071  23.621 -15.417  1.00  0.00     0.100 A 
ATOM      3  C   UNL     1      -1.427  23.372 -15.200  1.00  0.00     0.197 A 
ATOM      4  O   UNL     1      -2.196  23.368 -16.195  1.00  0.00    -0.289 OA
ATOM      5  C   UNL     1      -1.903  23.170 -13.882  1.00  0.00     0.107 A 
ATOM      6  C   UNL     1      -3.257  22.869 -13.545  1.00  0.00     0.134 A 
ATOM      7  C   UNL     1      -3.634  22.806 -12.198  1.00  0.00     0.093 A 
ATOM      8  C   UNL     1      -2.698  22.971 -11.178  1.00  0.00     0.123 A 
ATOM      9  C   UNL     1      -1.360  23.213 -11.497  1.00  0.00     0.094 A 
ATOM     10  C   UNL     1      -0.959  23.316 -12.831  1.00  0.00     0.146 A 
ATOM     11  O   UNL     1       0.321  23.561 -13.093  1.00  0.00    -0.456 OA
ENDROOT
BRANCH   1  12
ATOM     12  C   UNL     1       2.255  23.961 -14.498  1.00  0.00     0.021 A 
ATOM     13  C   UNL     1       2.716  24.538 -15.693  1.00  0.00     0.016 A 
ATOM     14  C   UNL     1       4.075  24.802 -15.876  1.00  0.00     0.051 A 
ATOM     15  C   UNL     1       4.996  24.501 -14.864  1.00  0.00     0.157 A 
ATOM     16  C   UNL     1       3.184  23.674 -13.478  1.00  0.00     0.062 A 
ATOM     17  C   UNL     1       4.549  23.941 -13.663  1.00  0.00     0.158 A 
BRANCH  15  18
ATOM     18  O   UNL     1       6.353  24.761 -15.044  1.00  0.00    -0.504 OA
ATOM     19  H   UNL     1       7.040  24.500 -14.346  1.00  0.00     0.293 HD
ENDBRANCH  15  18
BRANCH  17  20
ATOM     20  O   UNL     1       5.466  23.653 -12.653  1.00  0.00    -0.504 OA
ATOM     21  H   UNL     1       5.296  23.919 -11.690  1.00  0.00     0.293 HD
ENDBRANCH  17  20
ENDBRANCH   1  12
BRANCH   6  22
ATOM     22  O   UNL     1      -4.256  22.602 -14.486  1.00  0.00    -0.507 OA
ATOM     23  H   UNL     1      -4.138  22.023 -15.303  1.00  0.00     0.293 HD
ENDBRANCH   6  22
BRANCH   8  24
ATOM     24  O   UNL     1      -3.106  22.886  -9.849  1.00  0.00    -0.508 OA
ATOM     25  H   UNL     1      -2.853  23.595  -9.171  1.00  0.00     0.293 HD
ENDBRANCH   8  24
TORSDOF 5
ENDMDL
MODEL 5
REMARK VINA RESULT:    -3.999     13.757     16.294
REMARK INTER + INTRA:          -5.015
REMARK INTER:                  -4.700
REMARK INTRA:                  -0.315
REMARK UNBOUND:                -0.315
REMARK SMILES O=c1cc(-c2ccc(O)c(O)c2)oc2cc(O)cc(O)c12
REMARK SMILES IDX 4 1 3 2 2 3 1 4 21 5 19 6 18 7 16 8 15 9 14 10 13 11 5 12
REMARK SMILES IDX 6 13 7 14 8 15 12 16 10 17 9 18 11 20 20 22 17 24
REMARK H PARENT 9 19 11 21 20 23 17 25
REMARK Flexibility Score: inf
ROOT
ATOM      1  C   UNL     1      12.250  23.339  -3.724  1.00  0.00     0.138 A 
ATOM      2  C   UNL     1      13.302  22.782  -2.985  1.00  0.00     0.100 A 
ATOM      3  C   UNL     1      13.190  22.673  -1.599  1.00  0.00     0.197 A 
ATOM      4  O   UNL     1      14.125  22.113  -0.970  1.00  0.00    -0.289 OA
ATOM      5  C   UNL     1      12.029  23.154  -0.946  1.00  0.00     0.107 A 
ATOM      6  C   UNL     1      11.823  23.132   0.465  1.00  0.00     0.134 A 
ATOM      7  C   UNL     1      10.585  23.528   0.987  1.00  0.00     0.093 A 
ATOM      8  C   UNL     1       9.570  24.001   0.157  1.00  0.00     0.123 A 
ATOM      9  C   UNL     1       9.780  24.077  -1.221  1.00  0.00     0.094 A 
ATOM     10  C   UNL     1      10.991  23.657  -1.776  1.00  0.00     0.146 A 
ATOM     11  O   UNL     1      11.147  23.732  -3.094  1.00  0.00    -0.456 OA
ENDROOT
BRANCH   1  12
ATOM     12  C   UNL     1      12.316  23.479  -5.201  1.00  0.00     0.021 A 
ATOM     13  C   UNL     1      13.553  23.350  -5.854  1.00  0.00     0.016 A 
ATOM     14  C   UNL     1      13.640  23.470  -7.243  1.00  0.00     0.051 A 
ATOM     15  C   UNL     1      12.489  23.712  -8.004  1.00  0.00     0.157 A 
ATOM     16  C   UNL     1      11.160  23.709  -5.974  1.00  0.00     0.062 A 
ATOM     17  C   UNL     1      11.248  23.828  -7.369  1.00  0.00     0.158 A 
BRANCH  15  18
ATOM     18  O   UNL     1      12.572  23.834  -9.390  1.00  0.00    -0.504 OA
ATOM     19  H   UNL     1      12.741  24.729  -9.834  1.00  0.00     0.293 HD
ENDBRANCH  15  18
BRANCH  17  20
ATOM     20  O   UNL     1      10.103  24.057  -8.130  1.00  0.00    -0.504 OA
ATOM     21  H   UNL     1       9.986  23.647  -9.050  1.00  0.00     0.293 HD
ENDBRANCH  17  20
ENDBRANCH   1  12
BRANCH   6  22
ATOM     22  O   UNL     1      12.800  22.758   1.393  1.00  0.00    -0.507 OA
ATOM     23  H   UNL     1      12.621  22.252   2.246  1.00  0.00     0.293 HD
ENDBRANCH   6  22
BRANCH   8  24
ATOM     24  O   UNL     1       8.357  24.401   0.713  1.00  0.00    -0.508 OA
ATOM     25  H   UNL     1       7.519  24.486   0.150  1.00  0.00     0.293 HD
ENDBRANCH   8  24
TORSDOF 5
ENDMDL
MODEL 6
REMARK VINA RESULT:    -3.844     12.307     15.661
REMARK INTER + INTRA:          -4.833
REMARK INTER:                  -4.518
REMARK INTRA:                  -0.315
REMARK UNBOUND:                -0.315
REMARK SMILES O=c1cc(-c2ccc(O)c(O)c2)oc2cc(O)cc(O)c12
REMARK SMILES IDX 4 1 3 2 2 3 1 4 21 5 19 6 18 7 16 8 15 9 14 10 13 11 5 12
REMARK SMILES IDX 6 13 7 14 8 15 12 16 10 17 9 18 11 20 20 22 17 24
REMARK H PARENT 9 19 11 21 20 23 17 25
REMARK Flexibility Score: inf
ROOT
ATOM      1  C   UNL     1      12.319  23.589  -4.946  1.00  0.00     0.138 A 
ATOM      2  C   UNL     1      13.393  23.925  -5.782  1.00  0.00     0.100 A 
ATOM      3  C   UNL     1      13.143  24.379  -7.077  1.00  0.00     0.197 A 
ATOM      4  O   UNL     1      14.124  24.731  -7.782  1.00  0.00    -0.289 OA
ATOM      5  C   UNL     1      11.811  24.468  -7.548  1.00  0.00     0.107 A 
ATOM      6  C   UNL     1      11.439  24.880  -8.863  1.00  0.00     0.134 A 
ATOM      7  C   UNL     1      10.085  25.041  -9.177  1.00  0.00     0.093 A 
ATOM      8  C   UNL     1       9.088  24.750  -8.247  1.00  0.00     0.123 A 
ATOM      9  C   UNL     1       9.439  24.295  -6.975  1.00  0.00     0.094 A 
ATOM     10  C   UNL     1      10.782  24.157  -6.619  1.00  0.00     0.146 A 
ATOM     11  O   UNL     1      11.075  23.734  -5.393  1.00  0.00    -0.456 OA
ENDROOT
BRANCH   1  12
ATOM     12  C   UNL     1      12.527  23.100  -3.559  1.00  0.00     0.021 A 
ATOM     13  C   UNL     1      13.806  22.680  -3.158  1.00  0.00     0.016 A 
ATOM     14  C   UNL     1      14.028  22.223  -1.857  1.00  0.00     0.051 A 
ATOM     15  C   UNL     1      12.977  22.187  -0.932  1.00  0.00     0.157 A 
ATOM     16  C   UNL     1      11.477  23.075  -2.620  1.00  0.00     0.062 A 
ATOM     17  C   UNL     1      11.702  22.617  -1.313  1.00  0.00     0.158 A 
BRANCH  15  18
ATOM     18  O   UNL     1      13.195  21.731   0.367  1.00  0.00    -0.504 OA
ATOM     19  H   UNL     1      12.426  21.565   1.006  1.00  0.00     0.293 HD
ENDBRANCH  15  18
BRANCH  17  20
ATOM     20  O   UNL     1      10.661  22.591  -0.387  1.00  0.00    -0.504 OA
ATOM     21  H   UNL     1       9.888  21.942  -0.475  1.00  0.00     0.293 HD
ENDBRANCH  17  20
ENDBRANCH   1  12
BRANCH   6  22
ATOM     22  O   UNL     1      12.353  25.116  -9.895  1.00  0.00    -0.507 OA
ATOM     23  H   UNL     1      13.054  25.840  -9.889  1.00  0.00     0.293 HD
ENDBRANCH   6  22
BRANCH   8  24
ATOM     24  O   UNL     1       7.750  24.908  -8.601  1.00  0.00    -0.508 OA
ATOM     25  H   UNL     1       7.029  24.298  -8.232  1.00  0.00     0.293 HD
ENDBRANCH   8  24
TORSDOF 5
ENDMDL
MODEL 7
REMARK VINA RESULT:    -3.819      1.217      2.785
REMARK INTER + INTRA:          -4.803
REMARK INTER:                  -4.507
REMARK INTRA:                  -0.297
REMARK UNBOUND:                -0.315
REMARK SMILES O=c1cc(-c2ccc(O)c(O)c2)oc2cc(O)cc(O)c12
REMARK SMILES IDX 4 1 3 2 2 3 1 4 21 5 19 6 18 7 16 8 15 9 14 10 13 11 5 12
REMARK SMILES IDX 6 13 7 14 8 15 12 16 10 17 9 18 11 20 20 22 17 24
REMARK H PARENT 9 19 11 21 20 23 17 25
REMARK Flexibility Score: inf
ROOT
ATOM      1  C   UNL     1       0.106  23.273 -14.058  1.00  0.00     0.138 A 
ATOM      2  C   UNL     1      -0.113  23.257 -12.674  1.00  0.00     0.100 A 
ATOM      3  C   UNL     1      -1.418  23.295 -12.181  1.00  0.00     0.197 A 
ATOM      4  O   UNL     1      -1.584  23.216 -10.936  1.00  0.00    -0.289 OA
ATOM      5  C   UNL     1      -2.508  23.382 -13.079  1.00  0.00     0.107 A 
ATOM      6  C   UNL     1      -3.878  23.468 -12.689  1.00  0.00     0.134 A 
ATOM      7  C   UNL     1      -4.877  23.431 -13.668  1.00  0.00     0.093 A 
ATOM      8  C   UNL     1      -4.557  23.374 -15.025  1.00  0.00     0.123 A 
ATOM      9  C   UNL     1      -3.219  23.343 -15.420  1.00  0.00     0.094 A 
ATOM     10  C   UNL     1      -2.199  23.343 -14.465  1.00  0.00     0.146 A 
ATOM     11  O   UNL     1      -0.937  23.299 -14.882  1.00  0.00    -0.456 OA
ENDROOT
BRANCH   1  12
ATOM     12  C   UNL     1       1.472  23.235 -14.638  1.00  0.00     0.021 A 
ATOM     13  C   UNL     1       1.632  23.219 -16.034  1.00  0.00     0.016 A 
ATOM     14  C   UNL     1       2.907  23.191 -16.603  1.00  0.00     0.051 A 
ATOM     15  C   UNL     1       4.045  23.188 -15.787  1.00  0.00     0.157 A 
ATOM     16  C   UNL     1       2.622  23.244 -13.822  1.00  0.00     0.062 A 
ATOM     17  C   UNL     1       3.902  23.218 -14.396  1.00  0.00     0.158 A 
BRANCH  15  18
ATOM     18  O   UNL     1       5.318  23.158 -16.351  1.00  0.00    -0.504 OA
ATOM     19  H   UNL     1       5.985  22.431 -16.118  1.00  0.00     0.293 HD
ENDBRANCH  15  18
BRANCH  17  20
ATOM     20  O   UNL     1       5.036  23.225 -13.586  1.00  0.00    -0.504 OA
ATOM     21  H   UNL     1       5.941  23.510 -13.943  1.00  0.00     0.293 HD
ENDBRANCH  17  20
ENDBRANCH   1  12
BRANCH   6  22
ATOM     22  O   UNL     1      -4.306  23.614 -11.365  1.00  0.00    -0.507 OA
ATOM     23  H   UNL     1      -5.242  23.433 -11.039  1.00  0.00     0.293 HD
ENDBRANCH   6  22
BRANCH   8  24
ATOM     24  O   UNL     1      -5.578  23.354 -15.972  1.00  0.00    -0.508 OA
ATOM     25  H   UNL     1      -5.521  22.772 -16.799  1.00  0.00     0.293 HD
ENDBRANCH   8  24
TORSDOF 5
ENDMDL
