MODEL 1
REMARK VINA RESULT:    -6.068      0.000      0.000
REMARK INTER + INTRA:          -7.426
REMARK INTER:                  -7.133
REMARK INTRA:                  -0.293
REMARK UNBOUND:                -0.293
REMARK SMILES O=c1c(O)c(-c2ccc(O)cc2)oc2cc(O)cc(O)c12
REMARK SMILES IDX 5 1 3 2 2 3 1 4 21 5 19 6 18 7 16 8 15 9 14 10 13 11 6 12
REMARK SMILES IDX 7 13 8 14 9 15 12 16 11 17 10 18 4 20 20 22 17 24
REMARK H PARENT 10 19 4 21 20 23 17 25
REMARK Flexibility Score: inf
ROOT
ATOM      1  C   UNL     1      29.645 -19.235  22.774  1.00  0.00     0.180 A 
ATOM      2  C   UNL     1      30.492 -20.145  22.119  1.00  0.00     0.208 A 
ATOM      3  C   UNL     1      30.542 -21.474  22.570  1.00  0.00     0.238 A 
ATOM      4  O   UNL     1      31.343 -22.270  22.014  1.00  0.00    -0.285 OA
ATOM      5  C   UNL     1      29.733 -21.881  23.658  1.00  0.00     0.111 A 
ATOM      6  C   UNL     1      29.674 -23.210  24.172  1.00  0.00     0.134 A 
ATOM      7  C   UNL     1      28.937 -23.470  25.334  1.00  0.00     0.093 A 
ATOM      8  C   UNL     1      28.206 -22.464  25.963  1.00  0.00     0.123 A 
ATOM      9  C   UNL     1      28.209 -21.172  25.435  1.00  0.00     0.094 A 
ATOM     10  C   UNL     1      28.963 -20.873  24.298  1.00  0.00     0.146 A 
ATOM     11  O   UNL     1      28.947 -19.630  23.833  1.00  0.00    -0.452 OA
ENDROOT
BRANCH   1  12
ATOM     12  C   UNL     1      29.518 -17.824  22.342  1.00  0.00     0.021 A 
ATOM     13  C   UNL     1      28.525 -17.423  21.430  1.00  0.00     0.016 A 
ATOM     14  C   UNL     1      28.410 -16.081  21.056  1.00  0.00     0.047 A 
ATOM     15  C   UNL     1      29.273 -15.123  21.595  1.00  0.00     0.115 A 
ATOM     16  C   UNL     1      30.369 -16.853  22.896  1.00  0.00     0.016 A 
ATOM     17  C   UNL     1      30.252 -15.511  22.518  1.00  0.00     0.047 A 
BRANCH  15  18
ATOM     18  O   UNL     1      29.147 -13.789  21.211  1.00  0.00    -0.508 OA
ATOM     19  H   UNL     1      29.518 -13.037  21.781  1.00  0.00     0.293 HD
ENDBRANCH  15  18
ENDBRANCH   1  12
BRANCH   2  20
ATOM     20  O   UNL     1      31.299 -19.718  21.061  1.00  0.00    -0.502 OA
ATOM     21  H   UNL     1      32.259 -20.022  20.952  1.00  0.00     0.293 HD
ENDBRANCH   2  20
BRANCH   6  22
ATOM     22  O   UNL     1      30.293 -24.308  23.567  1.00  0.00    -0.507 OA
ATOM     23  H   UNL     1      30.660 -24.316  22.628  1.00  0.00     0.293 HD
ENDBRANCH   6  22
BRANCH   8  24
ATOM     24  O   UNL     1      27.472 -22.761  27.109  1.00  0.00    -0.508 OA
ATOM     25  H   UNL     1      26.633 -22.245  27.350  1.00  0.00     0.293 HD
ENDBRANCH   8  24
TORSDOF 5
ENDMDL
MODEL 2
REMARK VINA RESULT:    -5.775      1.860      3.998
REMARK INTER + INTRA:          -7.081
REMARK INTER:                  -6.850
REMARK INTRA:                  -0.231
REMARK UNBOUND:                -0.293
REMARK SMILES O=c1c(O)c(-c2ccc(O)cc2)oc2cc(O)cc(O)c12
REMARK SMILES IDX 5 1 3 2 2 3 1 4 21 5 19 6 18 7 16 8 15 9 14 10 13 11 6 12
REMARK SMILES IDX 7 13 8 14 9 15 12 16 11 17 10 18 4 20 20 22 17 24
REMARK H PARENT 10 19 4 21 20 23 17 25
REMARK Flexibility Score: inf
ROOT
ATOM      1  C   UNL     1      29.842 -19.043  22.312  1.00  0.00     0.180 A 
ATOM      2  C   UNL     1      29.374 -20.070  23.149  1.00  0.00     0.208 A 
ATOM      3  C   UNL     1      30.003 -21.324  23.106  1.00  0.00     0.238 A 
ATOM      4  O   UNL     1      29.545 -22.255  23.818  1.00  0.00    -0.285 OA
ATOM      5  C   UNL     1      31.103 -21.532  22.239  1.00  0.00     0.111 A 
ATOM      6  C   UNL     1      31.841 -22.749  22.142  1.00  0.00     0.134 A 
ATOM      7  C   UNL     1      32.826 -22.884  21.156  1.00  0.00     0.093 A 
ATOM      8  C   UNL     1      33.145 -21.825  20.308  1.00  0.00     0.123 A 
ATOM      9  C   UNL     1      32.471 -20.609  20.433  1.00  0.00     0.094 A 
ATOM     10  C   UNL     1      31.457 -20.457  21.382  1.00  0.00     0.146 A 
ATOM     11  O   UNL     1      30.833 -19.288  21.462  1.00  0.00    -0.452 OA
ENDROOT
BRANCH   1  12
ATOM     12  C   UNL     1      29.247 -17.687  22.318  1.00  0.00     0.021 A 
ATOM     13  C   UNL     1      29.464 -16.797  23.386  1.00  0.00     0.016 A 
ATOM     14  C   UNL     1      28.912 -15.513  23.358  1.00  0.00     0.047 A 
ATOM     15  C   UNL     1      28.149 -15.097  22.263  1.00  0.00     0.115 A 
ATOM     16  C   UNL     1      28.497 -17.256  21.211  1.00  0.00     0.016 A 
ATOM     17  C   UNL     1      27.945 -15.971  21.187  1.00  0.00     0.047 A 
BRANCH  15  18
ATOM     18  O   UNL     1      27.603 -13.815  22.250  1.00  0.00    -0.508 OA
ATOM     19  H   UNL     1      28.177 -12.998  22.080  1.00  0.00     0.293 HD
ENDBRANCH  15  18
ENDBRANCH   1  12
BRANCH   2  20
ATOM     20  O   UNL     1      28.273 -19.851  23.981  1.00  0.00    -0.502 OA
ATOM     21  H   UNL     1      28.367 -19.690  24.977  1.00  0.00     0.293 HD
ENDBRANCH   2  20
BRANCH   6  22
ATOM     22  O   UNL     1      31.665 -23.838  23.001  1.00  0.00    -0.507 OA
ATOM     23  H   UNL     1      32.415 -24.392  23.388  1.00  0.00     0.293 HD
ENDBRANCH   6  22
BRANCH   8  24
ATOM     24  O   UNL     1      34.143 -21.989  19.349  1.00  0.00    -0.508 OA
ATOM     25  H   UNL     1      34.110 -22.743  18.673  1.00  0.00     0.293 HD
ENDBRANCH   8  24
TORSDOF 5
ENDMDL
MODEL 3
REMARK VINA RESULT:    -5.692      1.898      2.398
REMARK INTER + INTRA:          -6.983
REMARK INTER:                  -6.694
REMARK INTRA:                  -0.289
REMARK UNBOUND:                -0.293
REMARK SMILES O=c1c(O)c(-c2ccc(O)cc2)oc2cc(O)cc(O)c12
REMARK SMILES IDX 5 1 3 2 2 3 1 4 21 5 19 6 18 7 16 8 15 9 14 10 13 11 6 12
REMARK SMILES IDX 7 13 8 14 9 15 12 16 11 17 10 18 4 20 20 22 17 24
REMARK H PARENT 10 19 4 21 20 23 17 25
REMARK Flexibility Score: inf
ROOT
ATOM      1  C   UNL     1      29.409 -18.105  24.235  1.00  0.00     0.180 A 
ATOM      2  C   UNL     1      29.718 -18.732  23.017  1.00  0.00     0.208 A 
ATOM      3  C   UNL     1      29.560 -20.123  22.908  1.00  0.00     0.238 A 
ATOM      4  O   UNL     1      29.889 -20.687  21.831  1.00  0.00    -0.285 OA
ATOM      5  C   UNL     1      29.078 -20.866  24.013  1.00  0.00     0.111 A 
ATOM      6  C   UNL     1      28.841 -22.273  24.002  1.00  0.00     0.134 A 
ATOM      7  C   UNL     1      28.489 -22.925  25.191  1.00  0.00     0.093 A 
ATOM      8  C   UNL     1      28.302 -22.211  26.374  1.00  0.00     0.123 A 
ATOM      9  C   UNL     1      28.473 -20.826  26.382  1.00  0.00     0.094 A 
ATOM     10  C   UNL     1      28.860 -20.153  25.221  1.00  0.00     0.146 A 
ATOM     11  O   UNL     1      29.023 -18.837  25.274  1.00  0.00    -0.452 OA
ENDROOT
BRANCH   1  12
ATOM     12  C   UNL     1      29.527 -16.640  24.419  1.00  0.00     0.021 A 
ATOM     13  C   UNL     1      30.729 -16.051  24.854  1.00  0.00     0.016 A 
ATOM     14  C   UNL     1      30.823 -14.663  24.997  1.00  0.00     0.047 A 
ATOM     15  C   UNL     1      29.729 -13.847  24.697  1.00  0.00     0.115 A 
ATOM     16  C   UNL     1      28.438 -15.813  24.100  1.00  0.00     0.016 A 
ATOM     17  C   UNL     1      28.536 -14.425  24.246  1.00  0.00     0.047 A 
BRANCH  15  18
ATOM     18  O   UNL     1      29.838 -12.466  24.847  1.00  0.00    -0.508 OA
ATOM     19  H   UNL     1      30.505 -11.926  24.309  1.00  0.00     0.293 HD
ENDBRANCH  15  18
ENDBRANCH   1  12
BRANCH   2  20
ATOM     20  O   UNL     1      30.213 -17.984  21.946  1.00  0.00    -0.502 OA
ATOM     21  H   UNL     1      31.122 -17.536  21.968  1.00  0.00     0.293 HD
ENDBRANCH   2  20
BRANCH   6  22
ATOM     22  O   UNL     1      28.909 -23.067  22.853  1.00  0.00    -0.507 OA
ATOM     23  H   UNL     1      28.112 -23.468  22.383  1.00  0.00     0.293 HD
ENDBRANCH   6  22
BRANCH   8  24
ATOM     24  O   UNL     1      27.937 -22.889  27.535  1.00  0.00    -0.508 OA
ATOM     25  H   UNL     1      27.261 -22.502  28.184  1.00  0.00     0.293 HD
ENDBRANCH   8  24
TORSDOF 5
ENDMDL
MODEL 4
REMARK VINA RESULT:    -5.546      1.872      3.390
REMARK INTER + INTRA:          -6.811
REMARK INTER:                  -6.513
REMARK INTRA:                  -0.298
REMARK UNBOUND:                -0.293
REMARK SMILES O=c1c(O)c(-c2ccc(O)cc2)oc2cc(O)cc(O)c12
REMARK SMILES IDX 5 1 3 2 2 3 1 4 21 5 19 6 18 7 16 8 15 9 14 10 13 11 6 12
REMARK SMILES IDX 7 13 8 14 9 15 12 16 11 17 10 18 4 20 20 22 17 24
REMARK H PARENT 10 19 4 21 20 23 17 25
REMARK Flexibility Score: inf
ROOT
ATOM      1  C   UNL     1      29.248 -17.407  23.728  1.00  0.00     0.180 A 
ATOM      2  C   UNL     1      29.208 -17.416  25.132  1.00  0.00     0.208 A 
ATOM      3  C   UNL     1      29.227 -18.647  25.807  1.00  0.00     0.238 A 
ATOM      4  O   UNL     1      29.137 -18.650  27.063  1.00  0.00    -0.285 OA
ATOM      5  C   UNL     1      29.304 -19.853  25.070  1.00  0.00     0.111 A 
ATOM      6  C   UNL     1      29.370 -21.155  25.650  1.00  0.00     0.134 A 
ATOM      7  C   UNL     1      29.311 -22.284  24.824  1.00  0.00     0.093 A 
ATOM      8  C   UNL     1      29.254 -22.159  23.437  1.00  0.00     0.123 A 
ATOM      9  C   UNL     1      29.249 -20.890  22.855  1.00  0.00     0.094 A 
ATOM     10  C   UNL     1      29.269 -19.745  23.655  1.00  0.00     0.146 A 
ATOM     11  O   UNL     1      29.252 -18.557  23.063  1.00  0.00    -0.452 OA
ENDROOT
BRANCH   1  12
ATOM     12  C   UNL     1      29.255 -16.149  22.947  1.00  0.00     0.021 A 
ATOM     13  C   UNL     1      30.458 -15.501  22.614  1.00  0.00     0.016 A 
ATOM     14  C   UNL     1      30.441 -14.326  21.854  1.00  0.00     0.047 A 
ATOM     15  C   UNL     1      29.229 -13.794  21.408  1.00  0.00     0.115 A 
ATOM     16  C   UNL     1      28.042 -15.619  22.477  1.00  0.00     0.016 A 
ATOM     17  C   UNL     1      28.028 -14.444  21.719  1.00  0.00     0.047 A 
BRANCH  15  18
ATOM     18  O   UNL     1      29.228 -12.622  20.654  1.00  0.00    -0.508 OA
ATOM     19  H   UNL     1      29.178 -12.644  19.642  1.00  0.00     0.293 HD
ENDBRANCH  15  18
ENDBRANCH   1  12
BRANCH   2  20
ATOM     20  O   UNL     1      29.110 -16.214  25.840  1.00  0.00    -0.502 OA
ATOM     21  H   UNL     1      28.496 -15.462  25.552  1.00  0.00     0.293 HD
ENDBRANCH   2  20
BRANCH   6  22
ATOM     22  O   UNL     1      29.522 -21.392  27.020  1.00  0.00    -0.507 OA
ATOM     23  H   UNL     1      29.027 -20.897  27.747  1.00  0.00     0.293 HD
ENDBRANCH   6  22
BRANCH   8  24
ATOM     24  O   UNL     1      29.212 -23.304  22.644  1.00  0.00    -0.508 OA
ATOM     25  H   UNL     1      28.818 -23.288  21.711  1.00  0.00     0.293 HD
ENDBRANCH   8  24
TORSDOF 5
ENDMDL
MODEL 5
REMARK VINA RESULT:    -5.537      2.039      7.081
REMARK INTER + INTRA:          -6.801
REMARK INTER:                  -6.513
REMARK INTRA:                  -0.289
REMARK UNBOUND:                -0.293
REMARK SMILES O=c1c(O)c(-c2ccc(O)cc2)oc2cc(O)cc(O)c12
REMARK SMILES IDX 5 1 3 2 2 3 1 4 21 5 19 6 18 7 16 8 15 9 14 10 13 11 6 12
REMARK SMILES IDX 7 13 8 14 9 15 12 16 11 17 10 18 4 20 20 22 17 24
REMARK H PARENT 10 19 4 21 20 23 17 25
REMARK Flexibility Score: inf
ROOT
ATOM      1  C   UNL     1      29.754 -18.239  23.486  1.00  0.00     0.180 A 
ATOM      2  C   UNL     1      30.346 -17.641  24.611  1.00  0.00     0.208 A 
ATOM      3  C   UNL     1      30.215 -16.255  24.793  1.00  0.00     0.238 A 
ATOM      4  O   UNL     1      30.792 -15.716  25.773  1.00  0.00    -0.285 OA
ATOM      5  C   UNL     1      29.479 -15.487  23.857  1.00  0.00     0.111 A 
ATOM      6  C   UNL     1      29.249 -14.083  23.963  1.00  0.00     0.134 A 
ATOM      7  C   UNL     1      28.619 -13.404  22.912  1.00  0.00     0.093 A 
ATOM      8  C   UNL     1      28.155 -14.088  21.790  1.00  0.00     0.123 A 
ATOM      9  C   UNL     1      28.322 -15.472  21.702  1.00  0.00     0.094 A 
ATOM     10  C   UNL     1      28.979 -16.171  22.718  1.00  0.00     0.146 A 
ATOM     11  O   UNL     1      29.127 -17.483  22.591  1.00  0.00    -0.452 OA
ENDROOT
BRANCH   1  12
ATOM     12  C   UNL     1      29.828 -19.697  23.238  1.00  0.00     0.021 A 
ATOM     13  C   UNL     1      30.898 -20.266  22.524  1.00  0.00     0.016 A 
ATOM     14  C   UNL     1      30.958 -21.649  22.324  1.00  0.00     0.047 A 
ATOM     15  C   UNL     1      29.962 -22.480  22.843  1.00  0.00     0.115 A 
ATOM     16  C   UNL     1      28.841 -20.541  23.775  1.00  0.00     0.016 A 
ATOM     17  C   UNL     1      28.904 -21.923  23.572  1.00  0.00     0.047 A 
BRANCH  15  18
ATOM     18  O   UNL     1      30.034 -23.856  22.635  1.00  0.00    -0.508 OA
ATOM     19  H   UNL     1      30.572 -24.457  23.248  1.00  0.00     0.293 HD
ENDBRANCH  15  18
ENDBRANCH   1  12
BRANCH   2  20
ATOM     20  O   UNL     1      31.086 -18.413  25.510  1.00  0.00    -0.502 OA
ATOM     21  H   UNL     1      30.846 -19.373  25.729  1.00  0.00     0.293 HD
ENDBRANCH   2  20
BRANCH   6  22
ATOM     22  O   UNL     1      29.590 -13.319  25.083  1.00  0.00    -0.507 OA
ATOM     23  H   UNL     1      29.805 -12.333  25.062  1.00  0.00     0.293 HD
ENDBRANCH   6  22
BRANCH   8  24
ATOM     24  O   UNL     1      27.519 -13.384  20.769  1.00  0.00    -0.508 OA
ATOM     25  H   UNL     1      27.531 -13.713  19.811  1.00  0.00     0.293 HD
ENDBRANCH   8  24
TORSDOF 5
ENDMDL
MODEL 6
REMARK VINA RESULT:    -5.484      2.671      4.271
REMARK INTER + INTRA:          -6.739
REMARK INTER:                  -6.459
REMARK INTRA:                  -0.280
REMARK UNBOUND:                -0.293
REMARK SMILES O=c1c(O)c(-c2ccc(O)cc2)oc2cc(O)cc(O)c12
REMARK SMILES IDX 5 1 3 2 2 3 1 4 21 5 19 6 18 7 16 8 15 9 14 10 13 11 6 12
REMARK SMILES IDX 7 13 8 14 9 15 12 16 11 17 10 18 4 20 20 22 17 24
REMARK H PARENT 10 19 4 21 20 23 17 25
REMARK Flexibility Score: inf
ROOT
ATOM      1  C   UNL     1      29.055 -18.936  25.435  1.00  0.00     0.180 A 
ATOM      2  C   UNL     1      28.040 -19.767  25.938  1.00  0.00     0.208 A 
ATOM      3  C   UNL     1      28.003 -21.114  25.542  1.00  0.00     0.238 A 
ATOM      4  O   UNL     1      27.061 -21.839  25.953  1.00  0.00    -0.285 OA
ATOM      5  C   UNL     1      28.991 -21.616  24.661  1.00  0.00     0.111 A 
ATOM      6  C   UNL     1      29.074 -22.972  24.224  1.00  0.00     0.134 A 
ATOM      7  C   UNL     1      30.014 -23.329  23.250  1.00  0.00     0.093 A 
ATOM      8  C   UNL     1      30.916 -22.394  22.744  1.00  0.00     0.123 A 
ATOM      9  C   UNL     1      30.883 -21.077  23.207  1.00  0.00     0.094 A 
ATOM     10  C   UNL     1      29.932 -20.683  24.152  1.00  0.00     0.146 A 
ATOM     11  O   UNL     1      29.928 -19.420  24.558  1.00  0.00    -0.452 OA
ENDROOT
BRANCH   1  12
ATOM     12  C   UNL     1      29.174 -17.513  25.825  1.00  0.00     0.021 A 
ATOM     13  C   UNL     1      30.050 -17.105  26.848  1.00  0.00     0.016 A 
ATOM     14  C   UNL     1      30.164 -15.751  27.183  1.00  0.00     0.047 A 
ATOM     15  C   UNL     1      29.418 -14.790  26.495  1.00  0.00     0.115 A 
ATOM     16  C   UNL     1      28.443 -16.539  25.125  1.00  0.00     0.016 A 
ATOM     17  C   UNL     1      28.558 -15.187  25.463  1.00  0.00     0.047 A 
BRANCH  15  18
ATOM     18  O   UNL     1      29.540 -13.446  26.841  1.00  0.00    -0.508 OA
ATOM     19  H   UNL     1      29.212 -12.710  26.227  1.00  0.00     0.293 HD
ENDBRANCH  15  18
ENDBRANCH   1  12
BRANCH   2  20
ATOM     20  O   UNL     1      27.062 -19.246  26.790  1.00  0.00    -0.502 OA
ATOM     21  H   UNL     1      27.234 -19.070  27.772  1.00  0.00     0.293 HD
ENDBRANCH   2  20
BRANCH   6  22
ATOM     22  O   UNL     1      28.281 -24.005  24.733  1.00  0.00    -0.507 OA
ATOM     23  H   UNL     1      27.273 -24.030  24.692  1.00  0.00     0.293 HD
ENDBRANCH   6  22
BRANCH   8  24
ATOM     24  O   UNL     1      31.849 -22.787  21.786  1.00  0.00    -0.508 OA
ATOM     25  H   UNL     1      32.761 -22.349  21.723  1.00  0.00     0.293 HD
ENDBRANCH   8  24
TORSDOF 5
ENDMDL
MODEL 7
REMARK VINA RESULT:    -5.477      5.640     10.792
REMARK INTER + INTRA:          -6.731
REMARK INTER:                  -6.616
REMARK INTRA:                  -0.115
REMARK UNBOUND:                -0.293
REMARK SMILES O=c1c(O)c(-c2ccc(O)cc2)oc2cc(O)cc(O)c12
REMARK SMILES IDX 5 1 3 2 2 3 1 4 21 5 19 6 18 7 16 8 15 9 14 10 13 11 6 12
REMARK SMILES IDX 7 13 8 14 9 15 12 16 11 17 10 18 4 20 20 22 17 24
REMARK H PARENT 10 19 4 21 20 23 17 25
REMARK Flexibility Score: inf
ROOT
ATOM      1  C   UNL     1      29.941 -11.838  22.944  1.00  0.00     0.180 A 
ATOM      2  C   UNL     1      30.685 -11.861  21.752  1.00  0.00     0.208 A 
ATOM      3  C   UNL     1      31.183 -10.654  21.237  1.00  0.00     0.238 A 
ATOM      4  O   UNL     1      31.802 -10.675  20.141  1.00  0.00    -0.285 OA
ATOM      5  C   UNL     1      30.946  -9.441  21.928  1.00  0.00     0.111 A 
ATOM      6  C   UNL     1      31.437  -8.166  21.518  1.00  0.00     0.134 A 
ATOM      7  C   UNL     1      31.031  -7.015  22.206  1.00  0.00     0.093 A 
ATOM      8  C   UNL     1      30.205  -7.101  23.326  1.00  0.00     0.123 A 
ATOM      9  C   UNL     1      29.767  -8.349  23.772  1.00  0.00     0.094 A 
ATOM     10  C   UNL     1      30.125  -9.511  23.084  1.00  0.00     0.146 A 
ATOM     11  O   UNL     1      29.679 -10.677  23.534  1.00  0.00    -0.452 OA
ENDROOT
BRANCH   1  12
ATOM     12  C   UNL     1      29.404 -13.072  23.562  1.00  0.00     0.021 A 
ATOM     13  C   UNL     1      29.826 -13.496  24.836  1.00  0.00     0.016 A 
ATOM     14  C   UNL     1      29.286 -14.652  25.410  1.00  0.00     0.047 A 
ATOM     15  C   UNL     1      28.313 -15.389  24.729  1.00  0.00     0.115 A 
ATOM     16  C   UNL     1      28.411 -13.806  22.892  1.00  0.00     0.016 A 
ATOM     17  C   UNL     1      27.875 -14.962  23.469  1.00  0.00     0.047 A 
BRANCH  15  18
ATOM     18  O   UNL     1      27.786 -16.539  25.312  1.00  0.00    -0.508 OA
ATOM     19  H   UNL     1      27.954 -16.763  26.286  1.00  0.00     0.293 HD
ENDBRANCH  15  18
ENDBRANCH   1  12
BRANCH   2  20
ATOM     20  O   UNL     1      30.889 -13.066  21.074  1.00  0.00    -0.502 OA
ATOM     21  H   UNL     1      31.523 -13.148  20.288  1.00  0.00     0.293 HD
ENDBRANCH   2  20
BRANCH   6  22
ATOM     22  O   UNL     1      32.340  -7.978  20.468  1.00  0.00    -0.507 OA
ATOM     23  H   UNL     1      32.349  -8.515  19.614  1.00  0.00     0.293 HD
ENDBRANCH   6  22
BRANCH   8  24
ATOM     24  O   UNL     1      29.833  -5.937  23.996  1.00  0.00    -0.508 OA
ATOM     25  H   UNL     1      29.085  -5.934  24.680  1.00  0.00     0.293 HD
ENDBRANCH   8  24
TORSDOF 5
ENDMDL
MODEL 8
REMARK VINA RESULT:    -5.475      3.037      4.696
REMARK INTER + INTRA:          -6.728
REMARK INTER:                  -6.573
REMARK INTRA:                  -0.155
REMARK UNBOUND:                -0.293
REMARK SMILES O=c1c(O)c(-c2ccc(O)cc2)oc2cc(O)cc(O)c12
REMARK SMILES IDX 5 1 3 2 2 3 1 4 21 5 19 6 18 7 16 8 15 9 14 10 13 11 6 12
REMARK SMILES IDX 7 13 8 14 9 15 12 16 11 17 10 18 4 20 20 22 17 24
REMARK H PARENT 10 19 4 21 20 23 17 25
REMARK Flexibility Score: inf
ROOT
ATOM      1  C   UNL     1      31.152 -21.723  22.755  1.00  0.00     0.180 A 
ATOM      2  C   UNL     1      30.799 -23.015  23.181  1.00  0.00     0.208 A 
ATOM      3  C   UNL     1      29.762 -23.165  24.115  1.00  0.00     0.238 A 
ATOM      4  O   UNL     1      29.487 -24.319  24.533  1.00  0.00    -0.285 OA
ATOM      5  C   UNL     1      29.079 -22.022  24.599  1.00  0.00     0.111 A 
ATOM      6  C   UNL     1      27.986 -22.059  25.516  1.00  0.00     0.134 A 
ATOM      7  C   UNL     1      27.472 -20.861  26.027  1.00  0.00     0.093 A 
ATOM      8  C   UNL     1      27.967 -19.628  25.606  1.00  0.00     0.123 A 
ATOM      9  C   UNL     1      28.996 -19.579  24.663  1.00  0.00     0.094 A 
ATOM     10  C   UNL     1      29.554 -20.758  24.163  1.00  0.00     0.146 A 
ATOM     11  O   UNL     1      30.538 -20.668  23.277  1.00  0.00    -0.452 OA
ENDROOT
BRANCH   1  12
ATOM     12  C   UNL     1      32.218 -21.487  21.755  1.00  0.00     0.021 A 
ATOM     13  C   UNL     1      31.926 -20.962  20.483  1.00  0.00     0.016 A 
ATOM     14  C   UNL     1      32.953 -20.724  19.564  1.00  0.00     0.047 A 
ATOM     15  C   UNL     1      34.281 -20.993  19.905  1.00  0.00     0.115 A 
ATOM     16  C   UNL     1      33.558 -21.736  22.099  1.00  0.00     0.016 A 
ATOM     17  C   UNL     1      34.582 -21.498  21.177  1.00  0.00     0.047 A 
BRANCH  15  18
ATOM     18  O   UNL     1      35.293 -20.753  18.978  1.00  0.00    -0.508 OA
ATOM     19  H   UNL     1      35.316 -21.229  18.085  1.00  0.00     0.293 HD
ENDBRANCH  15  18
ENDBRANCH   1  12
BRANCH   2  20
ATOM     20  O   UNL     1      31.501 -24.127  22.708  1.00  0.00    -0.502 OA
ATOM     21  H   UNL     1      31.197 -25.077  22.885  1.00  0.00     0.293 HD
ENDBRANCH   2  20
BRANCH   6  22
ATOM     22  O   UNL     1      27.356 -23.236  25.932  1.00  0.00    -0.507 OA
ATOM     23  H   UNL     1      27.827 -24.113  26.096  1.00  0.00     0.293 HD
ENDBRANCH   6  22
BRANCH   8  24
ATOM     24  O   UNL     1      27.421 -18.455  26.123  1.00  0.00    -0.508 OA
ATOM     25  H   UNL     1      27.538 -17.564  25.654  1.00  0.00     0.293 HD
ENDBRANCH   8  24
TORSDOF 5
ENDMDL
MODEL 9
REMARK VINA RESULT:    -5.354      5.174     10.891
REMARK INTER + INTRA:          -6.586
REMARK INTER:                  -6.285
REMARK INTRA:                  -0.300
REMARK UNBOUND:                -0.293
REMARK SMILES O=c1c(O)c(-c2ccc(O)cc2)oc2cc(O)cc(O)c12
REMARK SMILES IDX 5 1 3 2 2 3 1 4 21 5 19 6 18 7 16 8 15 9 14 10 13 11 6 12
REMARK SMILES IDX 7 13 8 14 9 15 12 16 11 17 10 18 4 20 20 22 17 24
REMARK H PARENT 10 19 4 21 20 23 17 25
REMARK Flexibility Score: inf
ROOT
ATOM      1  C   UNL     1      30.693 -11.917  21.196  1.00  0.00     0.180 A 
ATOM      2  C   UNL     1      31.583 -11.607  20.154  1.00  0.00     0.208 A 
ATOM      3  C   UNL     1      31.997 -10.276  19.984  1.00  0.00     0.238 A 
ATOM      4  O   UNL     1      32.751  -9.996  19.016  1.00  0.00    -0.285 OA
ATOM      5  C   UNL     1      31.530  -9.275  20.870  1.00  0.00     0.111 A 
ATOM      6  C   UNL     1      31.915  -7.902  20.817  1.00  0.00     0.134 A 
ATOM      7  C   UNL     1      31.290  -6.975  21.660  1.00  0.00     0.093 A 
ATOM      8  C   UNL     1      30.342  -7.381  22.598  1.00  0.00     0.123 A 
ATOM      9  C   UNL     1      30.001  -8.731  22.700  1.00  0.00     0.094 A 
ATOM     10  C   UNL     1      30.581  -9.674  21.847  1.00  0.00     0.146 A 
ATOM     11  O   UNL     1      30.221 -10.945  21.969  1.00  0.00    -0.452 OA
ENDROOT
BRANCH   1  12
ATOM     12  C   UNL     1      30.231 -13.300  21.453  1.00  0.00     0.021 A 
ATOM     13  C   UNL     1      30.946 -14.166  22.301  1.00  0.00     0.016 A 
ATOM     14  C   UNL     1      30.477 -15.460  22.548  1.00  0.00     0.047 A 
ATOM     15  C   UNL     1      29.286 -15.901  21.964  1.00  0.00     0.115 A 
ATOM     16  C   UNL     1      29.024 -13.742  20.887  1.00  0.00     0.016 A 
ATOM     17  C   UNL     1      28.558 -15.038  21.135  1.00  0.00     0.047 A 
BRANCH  15  18
ATOM     18  O   UNL     1      28.831 -17.193  22.218  1.00  0.00    -0.508 OA
ATOM     19  H   UNL     1      29.440 -17.997  22.121  1.00  0.00     0.293 HD
ENDBRANCH  15  18
ENDBRANCH   1  12
BRANCH   2  20
ATOM     20  O   UNL     1      32.015 -12.607  19.277  1.00  0.00    -0.502 OA
ATOM     21  H   UNL     1      32.990 -12.734  19.036  1.00  0.00     0.293 HD
ENDBRANCH   2  20
BRANCH   6  22
ATOM     22  O   UNL     1      32.918  -7.405  19.980  1.00  0.00    -0.507 OA
ATOM     23  H   UNL     1      33.802  -7.036  20.298  1.00  0.00     0.293 HD
ENDBRANCH   6  22
BRANCH   8  24
ATOM     24  O   UNL     1      29.751  -6.435  23.433  1.00  0.00    -0.508 OA
ATOM     25  H   UNL     1      28.795  -6.533  23.753  1.00  0.00     0.293 HD
ENDBRANCH   8  24
TORSDOF 5
ENDMDL
