MODEL 1
REMARK VINA RESULT:    -4.913      0.000      0.000
REMARK INTER + INTRA:         -15.060
REMARK INTER:                 -11.232
REMARK INTRA:                  -3.828
REMARK UNBOUND:                -3.828
REMARK SMILES CCCCCCCCCCCCCCCCCCCCCCCC(=O)[O-]
REMARK SMILES IDX 13 1 14 2 15 3 16 4 17 5 18 6 19 7 20 8 21 9 22 10 23 11
REMARK SMILES IDX 24 12 25 13 26 14 12 15 11 16 10 17 9 18 8 19 7 20 6 21 5 22
REMARK SMILES IDX 4 23 3 24 2 25 1 26
REMARK H PARENT
REMARK Flexibility Score: inf
ROOT
ATOM      1  C   UNL     1      21.154  21.829   6.310  1.00  0.00     0.000 C 
ENDROOT
BRANCH   1   2
ATOM      2  C   UNL     1      20.261  21.578   5.080  1.00  0.00     0.000 C 
BRANCH   2   3
ATOM      3  C   UNL     1      18.838  22.139   5.242  1.00  0.00     0.000 C 
BRANCH   3   4
ATOM      4  C   UNL     1      18.707  23.109   6.430  1.00  0.00     0.000 C 
BRANCH   4   5
ATOM      5  C   UNL     1      17.305  23.712   6.639  1.00  0.00     0.000 C 
BRANCH   5   6
ATOM      6  C   UNL     1      17.125  24.348   8.027  1.00  0.00     0.000 C 
BRANCH   6   7
ATOM      7  C   UNL     1      18.211  25.389   8.353  1.00  0.00     0.000 C 
BRANCH   7   8
ATOM      8  C   UNL     1      19.034  25.100   9.625  1.00  0.00     0.000 C 
BRANCH   8   9
ATOM      9  C   UNL     1      20.072  23.968   9.495  1.00  0.00     0.000 C 
BRANCH   9  10
ATOM     10  C   UNL     1      19.856  22.775  10.445  1.00  0.00     0.006 C 
BRANCH  10  11
ATOM     11  C   UNL     1      19.098  21.615   9.784  1.00  0.00     0.053 C 
BRANCH  11  12
ATOM     12  C   UNL     1      17.861  21.285  10.557  1.00  0.00     0.041 C 
ATOM     13  O   UNL     1      17.338  20.142  10.457  1.00  0.00    -0.550 OA
ATOM     14  O   UNL     1      17.280  22.238  11.384  1.00  0.00    -0.550 OA
ENDBRANCH  11  12
ENDBRANCH  10  11
ENDBRANCH   9  10
ENDBRANCH   8   9
ENDBRANCH   7   8
ENDBRANCH   6   7
ENDBRANCH   5   6
ENDBRANCH   4   5
ENDBRANCH   3   4
ENDBRANCH   2   3
ENDBRANCH   1   2
BRANCH   1  15
ATOM     15  C   UNL     1      21.452  20.589   7.179  1.00  0.00     0.000 C 
BRANCH  15  16
ATOM     16  C   UNL     1      22.945  20.273   7.380  1.00  0.00     0.000 C 
BRANCH  16  17
ATOM     17  C   UNL     1      23.402  19.024   6.605  1.00  0.00     0.000 C 
BRANCH  17  18
ATOM     18  C   UNL     1      23.313  19.211   5.076  1.00  0.00    -0.000 C 
BRANCH  18  19
ATOM     19  C   UNL     1      23.113  17.901   4.290  1.00  0.00    -0.000 C 
BRANCH  19  20
ATOM     20  C   UNL     1      23.334  16.612   5.096  1.00  0.00    -0.000 C 
BRANCH  20  21
ATOM     21  C   UNL     1      22.061  15.764   5.235  1.00  0.00    -0.000 C 
BRANCH  21  22
ATOM     22  C   UNL     1      21.369  16.028   6.580  1.00  0.00    -0.000 C 
BRANCH  22  23
ATOM     23  C   UNL     1      19.901  16.456   6.416  1.00  0.00    -0.000 C 
BRANCH  23  24
ATOM     24  C   UNL     1      19.753  17.783   5.652  1.00  0.00    -0.000 C 
BRANCH  24  25
ATOM     25  C   UNL     1      18.365  18.418   5.832  1.00  0.00    -0.003 C 
ATOM     26  C   UNL     1      18.166  19.017   7.224  1.00  0.00     0.004 C 
ENDBRANCH  24  25
ENDBRANCH  23  24
ENDBRANCH  22  23
ENDBRANCH  21  22
ENDBRANCH  20  21
ENDBRANCH  19  20
ENDBRANCH  18  19
ENDBRANCH  17  18
ENDBRANCH  16  17
ENDBRANCH  15  16
ENDBRANCH   1  15
TORSDOF 22
ENDMDL
MODEL 2
REMARK VINA RESULT:    -4.799      3.767      7.802
REMARK INTER + INTRA:         -14.798
REMARK INTER:                 -11.451
REMARK INTRA:                  -3.347
REMARK UNBOUND:                -3.828
REMARK SMILES CCCCCCCCCCCCCCCCCCCCCCCC(=O)[O-]
REMARK SMILES IDX 13 1 14 2 15 3 16 4 17 5 18 6 19 7 20 8 21 9 22 10 23 11
REMARK SMILES IDX 24 12 25 13 26 14 12 15 11 16 10 17 9 18 8 19 7 20 6 21 5 22
REMARK SMILES IDX 4 23 3 24 2 25 1 26
REMARK H PARENT
REMARK Flexibility Score: inf
ROOT
ATOM      1  C   UNL     1      20.462  23.890   9.705  1.00  0.00     0.000 C 
ENDROOT
BRANCH   1   2
ATOM      2  C   UNL     1      21.558  22.907   9.254  1.00  0.00     0.000 C 
BRANCH   2   3
ATOM      3  C   UNL     1      21.390  22.440   7.798  1.00  0.00     0.000 C 
BRANCH   3   4
ATOM      4  C   UNL     1      21.939  21.021   7.557  1.00  0.00     0.000 C 
BRANCH   4   5
ATOM      5  C   UNL     1      21.345  20.282   6.343  1.00  0.00     0.000 C 
BRANCH   5   6
ATOM      6  C   UNL     1      21.700  20.945   5.002  1.00  0.00     0.000 C 
BRANCH   6   7
ATOM      7  C   UNL     1      22.489  20.012   4.066  1.00  0.00     0.000 C 
BRANCH   7   8
ATOM      8  C   UNL     1      22.119  18.518   4.165  1.00  0.00     0.000 C 
BRANCH   8   9
ATOM      9  C   UNL     1      23.002  17.682   5.112  1.00  0.00     0.000 C 
BRANCH   9  10
ATOM     10  C   UNL     1      24.402  18.266   5.379  1.00  0.00     0.006 C 
BRANCH  10  11
ATOM     11  C   UNL     1      25.427  17.872   4.306  1.00  0.00     0.053 C 
BRANCH  11  12
ATOM     12  C   UNL     1      26.240  16.701   4.757  1.00  0.00     0.041 C 
ATOM     13  O   UNL     1      27.370  16.881   5.286  1.00  0.00    -0.550 OA
ATOM     14  O   UNL     1      25.756  15.409   4.591  1.00  0.00    -0.550 OA
ENDBRANCH  11  12
ENDBRANCH  10  11
ENDBRANCH   9  10
ENDBRANCH   8   9
ENDBRANCH   7   8
ENDBRANCH   6   7
ENDBRANCH   5   6
ENDBRANCH   4   5
ENDBRANCH   3   4
ENDBRANCH   2   3
ENDBRANCH   1   2
BRANCH   1  15
ATOM     15  C   UNL     1      19.645  24.542   8.569  1.00  0.00     0.000 C 
BRANCH  15  16
ATOM     16  C   UNL     1      18.412  25.342   9.025  1.00  0.00     0.000 C 
BRANCH  16  17
ATOM     17  C   UNL     1      17.206  24.445   9.358  1.00  0.00     0.000 C 
BRANCH  17  18
ATOM     18  C   UNL     1      16.973  24.310  10.878  1.00  0.00    -0.000 C 
BRANCH  18  19
ATOM     19  C   UNL     1      16.875  22.854  11.374  1.00  0.00    -0.000 C 
BRANCH  19  20
ATOM     20  C   UNL     1      18.218  22.130  11.552  1.00  0.00    -0.000 C 
BRANCH  20  21
ATOM     21  C   UNL     1      18.438  21.009  10.525  1.00  0.00    -0.000 C 
BRANCH  21  22
ATOM     22  C   UNL     1      17.101  20.378  10.106  1.00  0.00    -0.000 C 
BRANCH  22  23
ATOM     23  C   UNL     1      16.896  20.385   8.582  1.00  0.00    -0.000 C 
BRANCH  23  24
ATOM     24  C   UNL     1      17.912  21.280   7.852  1.00  0.00    -0.000 C 
BRANCH  24  25
ATOM     25  C   UNL     1      17.422  21.719   6.462  1.00  0.00    -0.003 C 
ATOM     26  C   UNL     1      18.360  22.724   5.796  1.00  0.00     0.004 C 
ENDBRANCH  24  25
ENDBRANCH  23  24
ENDBRANCH  22  23
ENDBRANCH  21  22
ENDBRANCH  20  21
ENDBRANCH  19  20
ENDBRANCH  18  19
ENDBRANCH  17  18
ENDBRANCH  16  17
ENDBRANCH  15  16
ENDBRANCH   1  15
TORSDOF 22
ENDMDL
MODEL 3
REMARK VINA RESULT:    -4.766      1.984      3.049
REMARK INTER + INTRA:         -14.723
REMARK INTER:                 -10.874
REMARK INTRA:                  -3.849
REMARK UNBOUND:                -3.828
REMARK SMILES CCCCCCCCCCCCCCCCCCCCCCCC(=O)[O-]
REMARK SMILES IDX 13 1 14 2 15 3 16 4 17 5 18 6 19 7 20 8 21 9 22 10 23 11
REMARK SMILES IDX 24 12 25 13 26 14 12 15 11 16 10 17 9 18 8 19 7 20 6 21 5 22
REMARK SMILES IDX 4 23 3 24 2 25 1 26
REMARK H PARENT
REMARK Flexibility Score: inf
ROOT
ATOM      1  C   UNL     1      21.476  21.240   7.980  1.00  0.00     0.000 C 
ENDROOT
BRANCH   1   2
ATOM      2  C   UNL     1      21.261  22.628   7.347  1.00  0.00     0.000 C 
BRANCH   2   3
ATOM      3  C   UNL     1      19.971  22.720   6.516  1.00  0.00     0.000 C 
BRANCH   3   4
ATOM      4  C   UNL     1      19.268  21.361   6.344  1.00  0.00     0.000 C 
BRANCH   4   5
ATOM      5  C   UNL     1      17.928  21.212   7.087  1.00  0.00     0.000 C 
BRANCH   5   6
ATOM      6  C   UNL     1      17.980  20.173   8.220  1.00  0.00     0.000 C 
BRANCH   6   7
ATOM      7  C   UNL     1      17.686  20.782   9.603  1.00  0.00     0.000 C 
BRANCH   7   8
ATOM      8  C   UNL     1      18.817  21.651  10.190  1.00  0.00     0.000 C 
BRANCH   8   9
ATOM      9  C   UNL     1      18.399  23.069  10.628  1.00  0.00     0.000 C 
BRANCH   9  10
ATOM     10  C   UNL     1      17.932  23.991   9.486  1.00  0.00     0.006 C 
BRANCH  10  11
ATOM     11  C   UNL     1      18.961  25.075   9.136  1.00  0.00     0.053 C 
BRANCH  11  12
ATOM     12  C   UNL     1      18.343  26.435   9.215  1.00  0.00     0.041 C 
ATOM     13  O   UNL     1      17.090  26.562   9.200  1.00  0.00    -0.550 OA
ATOM     14  O   UNL     1      19.149  27.563   9.301  1.00  0.00    -0.550 OA
ENDBRANCH  11  12
ENDBRANCH  10  11
ENDBRANCH   9  10
ENDBRANCH   8   9
ENDBRANCH   7   8
ENDBRANCH   6   7
ENDBRANCH   5   6
ENDBRANCH   4   5
ENDBRANCH   3   4
ENDBRANCH   2   3
ENDBRANCH   1   2
BRANCH   1  15
ATOM     15  C   UNL     1      22.926  20.713   7.950  1.00  0.00     0.000 C 
BRANCH  15  16
ATOM     16  C   UNL     1      23.162  19.496   7.037  1.00  0.00     0.000 C 
BRANCH  16  17
ATOM     17  C   UNL     1      22.635  19.710   5.607  1.00  0.00     0.000 C 
BRANCH  17  18
ATOM     18  C   UNL     1      23.497  18.994   4.546  1.00  0.00    -0.000 C 
BRANCH  18  19
ATOM     19  C   UNL     1      24.599  18.092   5.133  1.00  0.00    -0.000 C 
BRANCH  19  20
ATOM     20  C   UNL     1      24.475  16.598   4.794  1.00  0.00    -0.000 C 
BRANCH  20  21
ATOM     21  C   UNL     1      23.057  16.197   4.360  1.00  0.00    -0.000 C 
BRANCH  21  22
ATOM     22  C   UNL     1      22.369  15.353   5.444  1.00  0.00    -0.000 C 
BRANCH  22  23
ATOM     23  C   UNL     1      21.665  16.214   6.505  1.00  0.00    -0.000 C 
BRANCH  23  24
ATOM     24  C   UNL     1      20.132  16.098   6.440  1.00  0.00    -0.000 C 
BRANCH  24  25
ATOM     25  C   UNL     1      19.445  17.453   6.203  1.00  0.00    -0.003 C 
ATOM     26  C   UNL     1      19.541  17.917   4.751  1.00  0.00     0.004 C 
ENDBRANCH  24  25
ENDBRANCH  23  24
ENDBRANCH  22  23
ENDBRANCH  21  22
ENDBRANCH  20  21
ENDBRANCH  19  20
ENDBRANCH  18  19
ENDBRANCH  17  18
ENDBRANCH  16  17
ENDBRANCH  15  16
ENDBRANCH   1  15
TORSDOF 22
ENDMDL
MODEL 4
REMARK VINA RESULT:    -4.725      1.742      4.141
REMARK INTER + INTRA:         -14.630
REMARK INTER:                 -10.841
REMARK INTRA:                  -3.789
REMARK UNBOUND:                -3.828
REMARK SMILES CCCCCCCCCCCCCCCCCCCCCCCC(=O)[O-]
REMARK SMILES IDX 13 1 14 2 15 3 16 4 17 5 18 6 19 7 20 8 21 9 22 10 23 11
REMARK SMILES IDX 24 12 25 13 26 14 12 15 11 16 10 17 9 18 8 19 7 20 6 21 5 22
REMARK SMILES IDX 4 23 3 24 2 25 1 26
REMARK H PARENT
REMARK Flexibility Score: inf
ROOT
ATOM      1  C   UNL     1      20.315  22.440   9.569  1.00  0.00     0.000 C 
ENDROOT
BRANCH   1   2
ATOM      2  C   UNL     1      19.325  22.884  10.662  1.00  0.00     0.000 C 
BRANCH   2   3
ATOM      3  C   UNL     1      18.314  21.790  11.043  1.00  0.00     0.000 C 
BRANCH   3   4
ATOM      4  C   UNL     1      17.435  21.347   9.859  1.00  0.00     0.000 C 
BRANCH   4   5
ATOM      5  C   UNL     1      17.936  20.109   9.092  1.00  0.00     0.000 C 
BRANCH   5   6
ATOM      6  C   UNL     1      17.597  20.153   7.592  1.00  0.00     0.000 C 
BRANCH   6   7
ATOM      7  C   UNL     1      16.879  21.451   7.181  1.00  0.00     0.000 C 
BRANCH   7   8
ATOM      8  C   UNL     1      17.645  22.331   6.170  1.00  0.00     0.000 C 
BRANCH   8   9
ATOM      9  C   UNL     1      17.316  23.836   6.227  1.00  0.00     0.000 C 
BRANCH   9  10
ATOM     10  C   UNL     1      16.908  24.361   7.616  1.00  0.00     0.006 C 
BRANCH  10  11
ATOM     11  C   UNL     1      17.781  25.530   8.092  1.00  0.00     0.053 C 
BRANCH  11  12
ATOM     12  C   UNL     1      17.157  26.210   9.269  1.00  0.00     0.041 C 
ATOM     13  O   UNL     1      16.889  27.440   9.220  1.00  0.00    -0.550 OA
ATOM     14  O   UNL     1      16.876  25.489  10.423  1.00  0.00    -0.550 OA
ENDBRANCH  11  12
ENDBRANCH  10  11
ENDBRANCH   9  10
ENDBRANCH   8   9
ENDBRANCH   7   8
ENDBRANCH   6   7
ENDBRANCH   5   6
ENDBRANCH   4   5
ENDBRANCH   3   4
ENDBRANCH   2   3
ENDBRANCH   1   2
BRANCH   1  15
ATOM     15  C   UNL     1      20.526  23.444   8.416  1.00  0.00     0.000 C 
BRANCH  15  16
ATOM     16  C   UNL     1      21.178  22.860   7.150  1.00  0.00     0.000 C 
BRANCH  16  17
ATOM     17  C   UNL     1      21.292  21.326   7.189  1.00  0.00     0.000 C 
BRANCH  17  18
ATOM     18  C   UNL     1      20.827  20.665   5.874  1.00  0.00    -0.000 C 
BRANCH  18  19
ATOM     19  C   UNL     1      21.758  20.926   4.674  1.00  0.00    -0.000 C 
BRANCH  19  20
ATOM     20  C   UNL     1      22.218  19.672   3.916  1.00  0.00    -0.000 C 
BRANCH  20  21
ATOM     21  C   UNL     1      23.676  19.290   4.216  1.00  0.00    -0.000 C 
BRANCH  21  22
ATOM     22  C   UNL     1      23.766  18.414   5.474  1.00  0.00    -0.000 C 
BRANCH  22  23
ATOM     23  C   UNL     1      22.868  17.168   5.393  1.00  0.00    -0.000 C 
BRANCH  23  24
ATOM     24  C   UNL     1      21.757  17.168   6.458  1.00  0.00    -0.000 C 
BRANCH  24  25
ATOM     25  C   UNL     1      20.541  16.324   6.045  1.00  0.00    -0.003 C 
ATOM     26  C   UNL     1      19.213  17.028   6.321  1.00  0.00     0.004 C 
ENDBRANCH  24  25
ENDBRANCH  23  24
ENDBRANCH  22  23
ENDBRANCH  21  22
ENDBRANCH  20  21
ENDBRANCH  19  20
ENDBRANCH  18  19
ENDBRANCH  17  18
ENDBRANCH  16  17
ENDBRANCH  15  16
ENDBRANCH   1  15
TORSDOF 22
ENDMDL
MODEL 5
REMARK VINA RESULT:    -4.685      1.924      5.015
REMARK INTER + INTRA:         -14.539
REMARK INTER:                 -11.269
REMARK INTRA:                  -3.270
REMARK UNBOUND:                -3.828
REMARK SMILES CCCCCCCCCCCCCCCCCCCCCCCC(=O)[O-]
REMARK SMILES IDX 13 1 14 2 15 3 16 4 17 5 18 6 19 7 20 8 21 9 22 10 23 11
REMARK SMILES IDX 24 12 25 13 26 14 12 15 11 16 10 17 9 18 8 19 7 20 6 21 5 22
REMARK SMILES IDX 4 23 3 24 2 25 1 26
REMARK H PARENT
REMARK Flexibility Score: inf
ROOT
ATOM      1  C   UNL     1      20.580  23.065  10.094  1.00  0.00     0.000 C 
ENDROOT
BRANCH   1   2
ATOM      2  C   UNL     1      21.371  23.166   8.777  1.00  0.00     0.000 C 
BRANCH   2   3
ATOM      3  C   UNL     1      21.687  21.795   8.155  1.00  0.00     0.000 C 
BRANCH   3   4
ATOM      4  C   UNL     1      21.491  21.770   6.628  1.00  0.00     0.000 C 
BRANCH   4   5
ATOM      5  C   UNL     1      20.539  20.678   6.103  1.00  0.00     0.000 C 
BRANCH   5   6
ATOM      6  C   UNL     1      19.423  21.235   5.204  1.00  0.00     0.000 C 
BRANCH   6   7
ATOM      7  C   UNL     1      18.935  22.625   5.650  1.00  0.00     0.000 C 
BRANCH   7   8
ATOM      8  C   UNL     1      17.985  22.625   6.866  1.00  0.00     0.000 C 
BRANCH   8   9
ATOM      9  C   UNL     1      16.924  23.744   6.872  1.00  0.00     0.000 C 
BRANCH   9  10
ATOM     10  C   UNL     1      17.030  24.734   8.046  1.00  0.00     0.006 C 
BRANCH  10  11
ATOM     11  C   UNL     1      18.422  25.373   8.165  1.00  0.00     0.053 C 
BRANCH  11  12
ATOM     12  C   UNL     1      18.478  26.302   9.336  1.00  0.00     0.041 C 
ATOM     13  O   UNL     1      18.794  25.866  10.475  1.00  0.00    -0.550 OA
ATOM     14  O   UNL     1      18.177  27.648   9.173  1.00  0.00    -0.550 OA
ENDBRANCH  11  12
ENDBRANCH  10  11
ENDBRANCH   9  10
ENDBRANCH   8   9
ENDBRANCH   7   8
ENDBRANCH   6   7
ENDBRANCH   5   6
ENDBRANCH   4   5
ENDBRANCH   3   4
ENDBRANCH   2   3
ENDBRANCH   1   2
BRANCH   1  15
ATOM     15  C   UNL     1      19.459  22.004  10.117  1.00  0.00     0.000 C 
BRANCH  15  16
ATOM     16  C   UNL     1      18.253  22.344  11.010  1.00  0.00     0.000 C 
BRANCH  16  17
ATOM     17  C   UNL     1      16.965  21.621  10.577  1.00  0.00     0.000 C 
BRANCH  17  18
ATOM     18  C   UNL     1      17.226  20.168  10.124  1.00  0.00    -0.000 C 
BRANCH  18  19
ATOM     19  C   UNL     1      17.153  19.960   8.600  1.00  0.00    -0.000 C 
BRANCH  19  20
ATOM     20  C   UNL     1      17.008  18.500   8.143  1.00  0.00    -0.000 C 
BRANCH  20  21
ATOM     21  C   UNL     1      18.060  18.089   7.101  1.00  0.00    -0.000 C 
BRANCH  21  22
ATOM     22  C   UNL     1      17.672  16.768   6.420  1.00  0.00    -0.000 C 
BRANCH  22  23
ATOM     23  C   UNL     1      18.606  15.609   6.803  1.00  0.00    -0.000 C 
BRANCH  23  24
ATOM     24  C   UNL     1      20.016  16.088   7.190  1.00  0.00    -0.000 C 
BRANCH  24  25
ATOM     25  C   UNL     1      21.014  15.994   6.024  1.00  0.00    -0.003 C 
ATOM     26  C   UNL     1      22.004  17.158   5.999  1.00  0.00     0.004 C 
ENDBRANCH  24  25
ENDBRANCH  23  24
ENDBRANCH  22  23
ENDBRANCH  21  22
ENDBRANCH  20  21
ENDBRANCH  19  20
ENDBRANCH  18  19
ENDBRANCH  17  18
ENDBRANCH  16  17
ENDBRANCH  15  16
ENDBRANCH   1  15
TORSDOF 22
ENDMDL
MODEL 6
REMARK VINA RESULT:    -4.665      2.029      7.075
REMARK INTER + INTRA:         -14.493
REMARK INTER:                 -11.306
REMARK INTRA:                  -3.187
REMARK UNBOUND:                -3.828
REMARK SMILES CCCCCCCCCCCCCCCCCCCCCCCC(=O)[O-]
REMARK SMILES IDX 13 1 14 2 15 3 16 4 17 5 18 6 19 7 20 8 21 9 22 10 23 11
REMARK SMILES IDX 24 12 25 13 26 14 12 15 11 16 10 17 9 18 8 19 7 20 6 21 5 22
REMARK SMILES IDX 4 23 3 24 2 25 1 26
REMARK H PARENT
REMARK Flexibility Score: inf
ROOT
ATOM      1  C   UNL     1      20.988  23.427  10.250  1.00  0.00     0.000 C 
ENDROOT
BRANCH   1   2
ATOM      2  C   UNL     1      21.482  22.647   9.017  1.00  0.00     0.000 C 
BRANCH   2   3
ATOM      3  C   UNL     1      20.849  23.131   7.702  1.00  0.00     0.000 C 
BRANCH   3   4
ATOM      4  C   UNL     1      21.225  22.251   6.495  1.00  0.00     0.000 C 
BRANCH   4   5
ATOM      5  C   UNL     1      21.502  20.770   6.819  1.00  0.00     0.000 C 
BRANCH   5   6
ATOM      6  C   UNL     1      22.326  20.061   5.732  1.00  0.00     0.000 C 
BRANCH   6   7
ATOM      7  C   UNL     1      23.270  18.988   6.303  1.00  0.00     0.000 C 
BRANCH   7   8
ATOM      8  C   UNL     1      23.228  17.626   5.578  1.00  0.00     0.000 C 
BRANCH   8   9
ATOM      9  C   UNL     1      21.819  17.046   5.350  1.00  0.00     0.000 C 
BRANCH   9  10
ATOM     10  C   UNL     1      21.534  15.722   6.085  1.00  0.00     0.006 C 
BRANCH  10  11
ATOM     11  C   UNL     1      20.546  15.886   7.248  1.00  0.00     0.053 C 
BRANCH  11  12
ATOM     12  C   UNL     1      19.179  16.213   6.737  1.00  0.00     0.041 C 
ATOM     13  O   UNL     1      18.542  17.190   7.214  1.00  0.00    -0.550 OA
ATOM     14  O   UNL     1      18.603  15.437   5.738  1.00  0.00    -0.550 OA
ENDBRANCH  11  12
ENDBRANCH  10  11
ENDBRANCH   9  10
ENDBRANCH   8   9
ENDBRANCH   7   8
ENDBRANCH   6   7
ENDBRANCH   5   6
ENDBRANCH   4   5
ENDBRANCH   3   4
ENDBRANCH   2   3
ENDBRANCH   1   2
BRANCH   1  15
ATOM     15  C   UNL     1      19.884  22.735  11.076  1.00  0.00     0.000 C 
BRANCH  15  16
ATOM     16  C   UNL     1      18.463  22.847  10.496  1.00  0.00     0.000 C 
BRANCH  16  17
ATOM     17  C   UNL     1      17.531  21.720  10.975  1.00  0.00     0.000 C 
BRANCH  17  18
ATOM     18  C   UNL     1      17.568  20.487  10.046  1.00  0.00    -0.000 C 
BRANCH  18  19
ATOM     19  C   UNL     1      18.284  20.730   8.703  1.00  0.00    -0.000 C 
BRANCH  19  20
ATOM     20  C   UNL     1      17.423  20.505   7.451  1.00  0.00    -0.000 C 
BRANCH  20  21
ATOM     21  C   UNL     1      17.339  21.745   6.549  1.00  0.00    -0.000 C 
BRANCH  21  22
ATOM     22  C   UNL     1      16.875  22.974   7.346  1.00  0.00    -0.000 C 
BRANCH  22  23
ATOM     23  C   UNL     1      17.745  24.213   7.080  1.00  0.00    -0.000 C 
BRANCH  23  24
ATOM     24  C   UNL     1      17.478  25.350   8.082  1.00  0.00    -0.000 C 
BRANCH  24  25
ATOM     25  C   UNL     1      18.769  25.913   8.698  1.00  0.00    -0.003 C 
ATOM     26  C   UNL     1      18.633  27.373   9.124  1.00  0.00     0.004 C 
ENDBRANCH  24  25
ENDBRANCH  23  24
ENDBRANCH  22  23
ENDBRANCH  21  22
ENDBRANCH  20  21
ENDBRANCH  19  20
ENDBRANCH  18  19
ENDBRANCH  17  18
ENDBRANCH  16  17
ENDBRANCH  15  16
ENDBRANCH   1  15
TORSDOF 22
ENDMDL
MODEL 7
REMARK VINA RESULT:    -4.621      3.026      6.915
REMARK INTER + INTRA:         -14.393
REMARK INTER:                 -10.165
REMARK INTRA:                  -4.228
REMARK UNBOUND:                -3.828
REMARK SMILES CCCCCCCCCCCCCCCCCCCCCCCC(=O)[O-]
REMARK SMILES IDX 13 1 14 2 15 3 16 4 17 5 18 6 19 7 20 8 21 9 22 10 23 11
REMARK SMILES IDX 24 12 25 13 26 14 12 15 11 16 10 17 9 18 8 19 7 20 6 21 5 22
REMARK SMILES IDX 4 23 3 24 2 25 1 26
REMARK H PARENT
REMARK Flexibility Score: inf
ROOT
ATOM      1  C   UNL     1      22.310  20.386   7.014  1.00  0.00     0.000 C 
ENDROOT
BRANCH   1   2
ATOM      2  C   UNL     1      22.112  20.012   5.533  1.00  0.00     0.000 C 
BRANCH   2   3
ATOM      3  C   UNL     1      21.773  21.220   4.644  1.00  0.00     0.000 C 
BRANCH   3   4
ATOM      4  C   UNL     1      20.444  21.053   3.885  1.00  0.00     0.000 C 
BRANCH   4   5
ATOM      5  C   UNL     1      19.202  21.621   4.596  1.00  0.00     0.000 C 
BRANCH   5   6
ATOM      6  C   UNL     1      18.056  20.601   4.712  1.00  0.00     0.000 C 
BRANCH   6   7
ATOM      7  C   UNL     1      18.552  19.144   4.711  1.00  0.00     0.000 C 
BRANCH   7   8
ATOM      8  C   UNL     1      18.246  18.348   5.996  1.00  0.00     0.000 C 
BRANCH   8   9
ATOM      9  C   UNL     1      19.443  17.587   6.600  1.00  0.00     0.000 C 
BRANCH   9  10
ATOM     10  C   UNL     1      20.259  16.755   5.593  1.00  0.00     0.006 C 
BRANCH  10  11
ATOM     11  C   UNL     1      21.504  16.111   6.222  1.00  0.00     0.053 C 
BRANCH  11  12
ATOM     12  C   UNL     1      22.482  15.710   5.164  1.00  0.00     0.041 C 
ATOM     13  O   UNL     1      22.715  16.480   4.193  1.00  0.00    -0.550 OA
ATOM     14  O   UNL     1      23.134  14.486   5.244  1.00  0.00    -0.550 OA
ENDBRANCH  11  12
ENDBRANCH  10  11
ENDBRANCH   9  10
ENDBRANCH   8   9
ENDBRANCH   7   8
ENDBRANCH   6   7
ENDBRANCH   5   6
ENDBRANCH   4   5
ENDBRANCH   3   4
ENDBRANCH   2   3
ENDBRANCH   1   2
BRANCH   1  15
ATOM     15  C   UNL     1      21.083  21.008   7.713  1.00  0.00     0.000 C 
BRANCH  15  16
ATOM     16  C   UNL     1      21.406  22.045   8.803  1.00  0.00     0.000 C 
BRANCH  16  17
ATOM     17  C   UNL     1      21.063  23.484   8.380  1.00  0.00     0.000 C 
BRANCH  17  18
ATOM     18  C   UNL     1      19.755  23.565   7.564  1.00  0.00    -0.000 C 
BRANCH  18  19
ATOM     19  C   UNL     1      18.762  24.629   8.068  1.00  0.00    -0.000 C 
BRANCH  19  20
ATOM     20  C   UNL     1      18.666  24.766   9.596  1.00  0.00    -0.000 C 
BRANCH  20  21
ATOM     21  C   UNL     1      17.247  24.524  10.132  1.00  0.00    -0.000 C 
BRANCH  21  22
ATOM     22  C   UNL     1      17.238  23.394  11.173  1.00  0.00    -0.000 C 
BRANCH  22  23
ATOM     23  C   UNL     1      18.464  22.473  11.056  1.00  0.00    -0.000 C 
BRANCH  23  24
ATOM     24  C   UNL     1      18.082  21.014  10.756  1.00  0.00    -0.000 C 
BRANCH  24  25
ATOM     25  C   UNL     1      16.884  20.900   9.799  1.00  0.00    -0.003 C 
ATOM     26  C   UNL     1      17.299  20.926   8.329  1.00  0.00     0.004 C 
ENDBRANCH  24  25
ENDBRANCH  23  24
ENDBRANCH  22  23
ENDBRANCH  21  22
ENDBRANCH  20  21
ENDBRANCH  19  20
ENDBRANCH  18  19
ENDBRANCH  17  18
ENDBRANCH  16  17
ENDBRANCH  15  16
ENDBRANCH   1  15
TORSDOF 22
ENDMDL
MODEL 8
REMARK VINA RESULT:    -4.615      1.285      2.062
REMARK INTER + INTRA:         -14.379
REMARK INTER:                 -10.800
REMARK INTRA:                  -3.579
REMARK UNBOUND:                -3.828
REMARK SMILES CCCCCCCCCCCCCCCCCCCCCCCC(=O)[O-]
REMARK SMILES IDX 13 1 14 2 15 3 16 4 17 5 18 6 19 7 20 8 21 9 22 10 23 11
REMARK SMILES IDX 24 12 25 13 26 14 12 15 11 16 10 17 9 18 8 19 7 20 6 21 5 22
REMARK SMILES IDX 4 23 3 24 2 25 1 26
REMARK H PARENT
REMARK Flexibility Score: inf
ROOT
ATOM      1  C   UNL     1      21.992  21.098   7.529  1.00  0.00     0.000 C 
ENDROOT
BRANCH   1   2
ATOM      2  C   UNL     1      21.135  22.232   6.935  1.00  0.00     0.000 C 
BRANCH   2   3
ATOM      3  C   UNL     1      20.614  21.920   5.522  1.00  0.00     0.000 C 
BRANCH   3   4
ATOM      4  C   UNL     1      19.092  22.109   5.388  1.00  0.00     0.000 C 
BRANCH   4   5
ATOM      5  C   UNL     1      18.245  21.451   6.493  1.00  0.00     0.000 C 
BRANCH   5   6
ATOM      6  C   UNL     1      16.952  22.224   6.802  1.00  0.00     0.000 C 
BRANCH   6   7
ATOM      7  C   UNL     1      17.052  23.719   6.447  1.00  0.00     0.000 C 
BRANCH   7   8
ATOM      8  C   UNL     1      17.215  24.668   7.652  1.00  0.00     0.000 C 
BRANCH   8   9
ATOM      9  C   UNL     1      18.671  24.978   8.053  1.00  0.00     0.000 C 
BRANCH   9  10
ATOM     10  C   UNL     1      18.941  24.986   9.570  1.00  0.00     0.006 C 
BRANCH  10  11
ATOM     11  C   UNL     1      18.454  23.708  10.269  1.00  0.00     0.053 C 
BRANCH  11  12
ATOM     12  C   UNL     1      19.493  22.635  10.189  1.00  0.00     0.041 C 
ATOM     13  O   UNL     1      20.697  22.899  10.454  1.00  0.00    -0.550 OA
ATOM     14  O   UNL     1      19.137  21.345   9.818  1.00  0.00    -0.550 OA
ENDBRANCH  11  12
ENDBRANCH  10  11
ENDBRANCH   9  10
ENDBRANCH   8   9
ENDBRANCH   7   8
ENDBRANCH   6   7
ENDBRANCH   5   6
ENDBRANCH   4   5
ENDBRANCH   3   4
ENDBRANCH   2   3
ENDBRANCH   1   2
BRANCH   1  15
ATOM     15  C   UNL     1      22.125  19.836   6.650  1.00  0.00     0.000 C 
BRANCH  15  16
ATOM     16  C   UNL     1      23.552  19.272   6.527  1.00  0.00     0.000 C 
BRANCH  16  17
ATOM     17  C   UNL     1      23.896  18.824   5.096  1.00  0.00     0.000 C 
BRANCH  17  18
ATOM     18  C   UNL     1      25.052  17.802   5.058  1.00  0.00    -0.000 C 
BRANCH  18  19
ATOM     19  C   UNL     1      24.615  16.370   4.692  1.00  0.00    -0.000 C 
BRANCH  19  20
ATOM     20  C   UNL     1      23.114  16.192   4.417  1.00  0.00    -0.000 C 
BRANCH  20  21
ATOM     21  C   UNL     1      22.383  15.439   5.540  1.00  0.00    -0.000 C 
BRANCH  21  22
ATOM     22  C   UNL     1      21.121  16.197   5.978  1.00  0.00    -0.000 C 
BRANCH  22  23
ATOM     23  C   UNL     1      20.533  17.066   4.854  1.00  0.00    -0.000 C 
BRANCH  23  24
ATOM     24  C   UNL     1      19.313  17.882   5.314  1.00  0.00    -0.000 C 
BRANCH  24  25
ATOM     25  C   UNL     1      18.446  17.127   6.334  1.00  0.00    -0.003 C 
ATOM     26  C   UNL     1      17.837  18.048   7.390  1.00  0.00     0.004 C 
ENDBRANCH  24  25
ENDBRANCH  23  24
ENDBRANCH  22  23
ENDBRANCH  21  22
ENDBRANCH  20  21
ENDBRANCH  19  20
ENDBRANCH  18  19
ENDBRANCH  17  18
ENDBRANCH  16  17
ENDBRANCH  15  16
ENDBRANCH   1  15
TORSDOF 22
ENDMDL
MODEL 9
REMARK VINA RESULT:    -4.545      1.735      7.476
REMARK INTER + INTRA:         -14.218
REMARK INTER:                 -10.640
REMARK INTRA:                  -3.578
REMARK UNBOUND:                -3.828
REMARK SMILES CCCCCCCCCCCCCCCCCCCCCCCC(=O)[O-]
REMARK SMILES IDX 13 1 14 2 15 3 16 4 17 5 18 6 19 7 20 8 21 9 22 10 23 11
REMARK SMILES IDX 24 12 25 13 26 14 12 15 11 16 10 17 9 18 8 19 7 20 6 21 5 22
REMARK SMILES IDX 4 23 3 24 2 25 1 26
REMARK H PARENT
REMARK Flexibility Score: inf
ROOT
ATOM      1  C   UNL     1      21.590  21.091   5.381  1.00  0.00     0.000 C 
ENDROOT
BRANCH   1   2
ATOM      2  C   UNL     1      21.958  20.677   6.818  1.00  0.00     0.000 C 
BRANCH   2   3
ATOM      3  C   UNL     1      22.794  19.388   6.880  1.00  0.00     0.000 C 
BRANCH   3   4
ATOM      4  C   UNL     1      23.575  19.115   5.582  1.00  0.00     0.000 C 
BRANCH   4   5
ATOM      5  C   UNL     1      22.982  18.025   4.671  1.00  0.00     0.000 C 
BRANCH   5   6
ATOM      6  C   UNL     1      23.416  16.605   5.072  1.00  0.00     0.000 C 
BRANCH   6   7
ATOM      7  C   UNL     1      22.225  15.695   5.425  1.00  0.00     0.000 C 
BRANCH   7   8
ATOM      8  C   UNL     1      21.422  16.122   6.671  1.00  0.00     0.000 C 
BRANCH   8   9
ATOM      9  C   UNL     1      19.889  16.106   6.502  1.00  0.00     0.000 C 
BRANCH   9  10
ATOM     10  C   UNL     1      19.221  17.494   6.500  1.00  0.00     0.006 C 
BRANCH  10  11
ATOM     11  C   UNL     1      19.271  18.178   5.126  1.00  0.00     0.053 C 
BRANCH  11  12
ATOM     12  C   UNL     1      18.083  19.066   4.935  1.00  0.00     0.041 C 
ATOM     13  O   UNL     1      17.958  19.736   3.875  1.00  0.00    -0.550 OA
ATOM     14  O   UNL     1      17.115  19.159   5.927  1.00  0.00    -0.550 OA
ENDBRANCH  11  12
ENDBRANCH  10  11
ENDBRANCH   9  10
ENDBRANCH   8   9
ENDBRANCH   7   8
ENDBRANCH   6   7
ENDBRANCH   5   6
ENDBRANCH   4   5
ENDBRANCH   3   4
ENDBRANCH   2   3
ENDBRANCH   1   2
BRANCH   1  15
ATOM     15  C   UNL     1      20.310  21.942   5.241  1.00  0.00     0.000 C 
BRANCH  15  16
ATOM     16  C   UNL     1      19.813  22.596   6.543  1.00  0.00     0.000 C 
BRANCH  16  17
ATOM     17  C   UNL     1      18.298  22.431   6.755  1.00  0.00     0.000 C 
BRANCH  17  18
ATOM     18  C   UNL     1      17.537  23.770   6.651  1.00  0.00    -0.000 C 
BRANCH  18  19
ATOM     19  C   UNL     1      17.098  24.353   8.008  1.00  0.00    -0.000 C 
BRANCH  19  20
ATOM     20  C   UNL     1      17.570  25.787   8.290  1.00  0.00    -0.000 C 
BRANCH  20  21
ATOM     21  C   UNL     1      18.939  25.843   8.986  1.00  0.00    -0.000 C 
BRANCH  21  22
ATOM     22  C   UNL     1      19.033  24.785  10.096  1.00  0.00    -0.000 C 
BRANCH  22  23
ATOM     23  C   UNL     1      20.227  23.835   9.908  1.00  0.00    -0.000 C 
BRANCH  23  24
ATOM     24  C   UNL     1      19.862  22.365  10.177  1.00  0.00    -0.000 C 
BRANCH  24  25
ATOM     25  C   UNL     1      18.558  22.215  10.976  1.00  0.00    -0.003 C 
ATOM     26  C   UNL     1      17.537  21.318  10.278  1.00  0.00     0.004 C 
ENDBRANCH  24  25
ENDBRANCH  23  24
ENDBRANCH  22  23
ENDBRANCH  21  22
ENDBRANCH  20  21
ENDBRANCH  19  20
ENDBRANCH  18  19
ENDBRANCH  17  18
ENDBRANCH  16  17
ENDBRANCH  15  16
ENDBRANCH   1  15
TORSDOF 22
ENDMDL
