MODEL 1
REMARK VINA RESULT:    -6.040      0.000      0.000
REMARK INTER + INTRA:          -7.385
REMARK INTER:                  -7.099
REMARK INTRA:                  -0.286
REMARK UNBOUND:                -0.286
REMARK SMILES O=c1c(O)c(-c2ccc(O)cc2)oc2cc(O)cc(O)c12
REMARK SMILES IDX 5 1 3 2 2 3 1 4 21 5 19 6 18 7 16 8 15 9 14 10 13 11 6 12
REMARK SMILES IDX 7 13 8 14 9 15 12 16 11 17 10 18 4 20 20 22 17 24
REMARK H PARENT 10 19 4 21 20 23 17 25
REMARK Flexibility Score: inf
ROOT
ATOM      1  C   UNL     1      29.675  59.432   1.582  1.00  0.00     0.180 A 
ATOM      2  C   UNL     1      28.939  60.629   1.623  1.00  0.00     0.208 A 
ATOM      3  C   UNL     1      28.336  61.098   0.445  1.00  0.00     0.238 A 
ATOM      4  O   UNL     1      27.724  62.199   0.476  1.00  0.00    -0.285 OA
ATOM      5  C   UNL     1      28.461  60.358  -0.754  1.00  0.00     0.111 A 
ATOM      6  C   UNL     1      27.859  60.719  -1.997  1.00  0.00     0.134 A 
ATOM      7  C   UNL     1      28.159  59.983  -3.149  1.00  0.00     0.093 A 
ATOM      8  C   UNL     1      28.986  58.861  -3.093  1.00  0.00     0.123 A 
ATOM      9  C   UNL     1      29.533  58.464  -1.873  1.00  0.00     0.094 A 
ATOM     10  C   UNL     1      29.282  59.200  -0.711  1.00  0.00     0.146 A 
ATOM     11  O   UNL     1      29.830  58.795   0.427  1.00  0.00    -0.452 OA
ENDROOT
BRANCH   1  12
ATOM     12  C   UNL     1      30.318  58.861   2.787  1.00  0.00     0.021 A 
ATOM     13  C   UNL     1      31.697  59.042   2.987  1.00  0.00     0.016 A 
ATOM     14  C   UNL     1      32.329  58.491   4.107  1.00  0.00     0.047 A 
ATOM     15  C   UNL     1      31.592  57.742   5.032  1.00  0.00     0.115 A 
ATOM     16  C   UNL     1      29.590  58.090   3.711  1.00  0.00     0.016 A 
ATOM     17  C   UNL     1      30.224  57.540   4.830  1.00  0.00     0.047 A 
BRANCH  15  18
ATOM     18  O   UNL     1      32.211  57.189   6.151  1.00  0.00    -0.508 OA
ATOM     19  H   UNL     1      32.631  56.268   6.124  1.00  0.00     0.293 HD
ENDBRANCH  15  18
ENDBRANCH   1  12
BRANCH   2  20
ATOM     20  O   UNL     1      28.845  61.357   2.814  1.00  0.00    -0.502 OA
ATOM     21  H   UNL     1      28.238  62.161   2.912  1.00  0.00     0.293 HD
ENDBRANCH   2  20
BRANCH   6  22
ATOM     22  O   UNL     1      26.945  61.766  -2.146  1.00  0.00    -0.507 OA
ATOM     23  H   UNL     1      27.186  62.705  -2.425  1.00  0.00     0.293 HD
ENDBRANCH   6  22
BRANCH   8  24
ATOM     24  O   UNL     1      29.250  58.142  -4.257  1.00  0.00    -0.508 OA
ATOM     25  H   UNL     1      29.699  57.235  -4.229  1.00  0.00     0.293 HD
ENDBRANCH   8  24
TORSDOF 5
ENDMDL
MODEL 2
REMARK VINA RESULT:    -5.937      3.952      6.917
REMARK INTER + INTRA:          -7.264
REMARK INTER:                  -7.055
REMARK INTRA:                  -0.209
REMARK UNBOUND:                -0.286
REMARK SMILES O=c1c(O)c(-c2ccc(O)cc2)oc2cc(O)cc(O)c12
REMARK SMILES IDX 5 1 3 2 2 3 1 4 21 5 19 6 18 7 16 8 15 9 14 10 13 11 6 12
REMARK SMILES IDX 7 13 8 14 9 15 12 16 11 17 10 18 4 20 20 22 17 24
REMARK H PARENT 10 19 4 21 20 23 17 25
REMARK Flexibility Score: inf
ROOT
ATOM      1  C   UNL     1      28.836  58.138   7.056  1.00  0.00     0.180 A 
ATOM      2  C   UNL     1      30.151  57.674   7.239  1.00  0.00     0.208 A 
ATOM      3  C   UNL     1      31.050  57.739   6.164  1.00  0.00     0.238 A 
ATOM      4  O   UNL     1      32.210  57.272   6.317  1.00  0.00    -0.285 OA
ATOM      5  C   UNL     1      30.631  58.280   4.925  1.00  0.00     0.111 A 
ATOM      6  C   UNL     1      31.470  58.431   3.780  1.00  0.00     0.134 A 
ATOM      7  C   UNL     1      30.915  58.857   2.568  1.00  0.00     0.093 A 
ATOM      8  C   UNL     1      29.566  59.201   2.475  1.00  0.00     0.123 A 
ATOM      9  C   UNL     1      28.750  59.115   3.603  1.00  0.00     0.094 A 
ATOM     10  C   UNL     1      29.267  58.657   4.818  1.00  0.00     0.146 A 
ATOM     11  O   UNL     1      28.454  58.579   5.864  1.00  0.00    -0.452 OA
ENDROOT
BRANCH   1  12
ATOM     12  C   UNL     1      27.837  58.126   8.150  1.00  0.00     0.021 A 
ATOM     13  C   UNL     1      26.724  57.274   8.060  1.00  0.00     0.016 A 
ATOM     14  C   UNL     1      25.757  57.264   9.070  1.00  0.00     0.047 A 
ATOM     15  C   UNL     1      25.885  58.115  10.175  1.00  0.00     0.115 A 
ATOM     16  C   UNL     1      27.948  58.991   9.253  1.00  0.00     0.016 A 
ATOM     17  C   UNL     1      26.980  58.979  10.262  1.00  0.00     0.047 A 
BRANCH  15  18
ATOM     18  O   UNL     1      24.928  58.112  11.188  1.00  0.00    -0.508 OA
ATOM     19  H   UNL     1      25.085  58.592  12.067  1.00  0.00     0.293 HD
ENDBRANCH  15  18
ENDBRANCH   1  12
BRANCH   2  20
ATOM     20  O   UNL     1      30.538  57.123   8.464  1.00  0.00    -0.502 OA
ATOM     21  H   UNL     1      30.735  56.137   8.578  1.00  0.00     0.293 HD
ENDBRANCH   2  20
BRANCH   6  22
ATOM     22  O   UNL     1      32.850  58.203   3.789  1.00  0.00    -0.507 OA
ATOM     23  H   UNL     1      33.306  57.421   3.346  1.00  0.00     0.293 HD
ENDBRANCH   6  22
BRANCH   8  24
ATOM     24  O   UNL     1      29.050  59.638   1.256  1.00  0.00    -0.508 OA
ATOM     25  H   UNL     1      28.104  59.414   0.971  1.00  0.00     0.293 HD
ENDBRANCH   8  24
TORSDOF 5
ENDMDL
MODEL 3
REMARK VINA RESULT:    -5.760      1.809      7.084
REMARK INTER + INTRA:          -7.056
REMARK INTER:                  -6.930
REMARK INTRA:                  -0.126
REMARK UNBOUND:                -0.286
REMARK SMILES O=c1c(O)c(-c2ccc(O)cc2)oc2cc(O)cc(O)c12
REMARK SMILES IDX 5 1 3 2 2 3 1 4 21 5 19 6 18 7 16 8 15 9 14 10 13 11 6 12
REMARK SMILES IDX 7 13 8 14 9 15 12 16 11 17 10 18 4 20 20 22 17 24
REMARK H PARENT 10 19 4 21 20 23 17 25
REMARK Flexibility Score: inf
ROOT
ATOM      1  C   UNL     1      29.685  58.948   1.673  1.00  0.00     0.180 A 
ATOM      2  C   UNL     1      31.051  58.845   1.986  1.00  0.00     0.208 A 
ATOM      3  C   UNL     1      31.425  58.455   3.282  1.00  0.00     0.238 A 
ATOM      4  O   UNL     1      32.649  58.417   3.572  1.00  0.00    -0.285 OA
ATOM      5  C   UNL     1      30.429  58.158   4.244  1.00  0.00     0.111 A 
ATOM      6  C   UNL     1      30.694  57.716   5.575  1.00  0.00     0.134 A 
ATOM      7  C   UNL     1      29.635  57.578   6.480  1.00  0.00     0.093 A 
ATOM      8  C   UNL     1      28.316  57.802   6.085  1.00  0.00     0.123 A 
ATOM      9  C   UNL     1      28.040  58.177   4.770  1.00  0.00     0.094 A 
ATOM     10  C   UNL     1      29.079  58.359   3.853  1.00  0.00     0.146 A 
ATOM     11  O   UNL     1      28.775  58.726   2.615  1.00  0.00    -0.452 OA
ENDROOT
BRANCH   1  12
ATOM     12  C   UNL     1      29.212  59.327   0.322  1.00  0.00     0.021 A 
ATOM     13  C   UNL     1      28.395  60.459   0.168  1.00  0.00     0.016 A 
ATOM     14  C   UNL     1      27.919  60.822  -1.097  1.00  0.00     0.047 A 
ATOM     15  C   UNL     1      28.244  60.051  -2.219  1.00  0.00     0.115 A 
ATOM     16  C   UNL     1      29.518  58.547  -0.808  1.00  0.00     0.016 A 
ATOM     17  C   UNL     1      29.040  58.912  -2.071  1.00  0.00     0.047 A 
BRANCH  15  18
ATOM     18  O   UNL     1      27.776  60.404  -3.483  1.00  0.00    -0.508 OA
ATOM     19  H   UNL     1      28.411  60.592  -4.249  1.00  0.00     0.293 HD
ENDBRANCH  15  18
ENDBRANCH   1  12
BRANCH   2  20
ATOM     20  O   UNL     1      32.018  59.163   1.028  1.00  0.00    -0.502 OA
ATOM     21  H   UNL     1      31.995  60.026   0.499  1.00  0.00     0.293 HD
ENDBRANCH   2  20
BRANCH   6  22
ATOM     22  O   UNL     1      31.966  57.375   6.045  1.00  0.00    -0.507 OA
ATOM     23  H   UNL     1      32.224  56.467   6.398  1.00  0.00     0.293 HD
ENDBRANCH   6  22
BRANCH   8  24
ATOM     24  O   UNL     1      27.285  57.639   7.009  1.00  0.00    -0.508 OA
ATOM     25  H   UNL     1      26.591  58.362   7.161  1.00  0.00     0.293 HD
ENDBRANCH   8  24
TORSDOF 5
ENDMDL
MODEL 4
REMARK VINA RESULT:    -5.746     13.464     16.300
REMARK INTER + INTRA:          -7.039
REMARK INTER:                  -6.828
REMARK INTRA:                  -0.212
REMARK UNBOUND:                -0.286
REMARK SMILES O=c1c(O)c(-c2ccc(O)cc2)oc2cc(O)cc(O)c12
REMARK SMILES IDX 5 1 3 2 2 3 1 4 21 5 19 6 18 7 16 8 15 9 14 10 13 11 6 12
REMARK SMILES IDX 7 13 8 14 9 15 12 16 11 17 10 18 4 20 20 22 17 24
REMARK H PARENT 10 19 4 21 20 23 17 25
REMARK Flexibility Score: inf
ROOT
ATOM      1  C   UNL     1      35.038  69.903   9.367  1.00  0.00     0.180 A 
ATOM      2  C   UNL     1      35.546  71.196   9.149  1.00  0.00     0.208 A 
ATOM      3  C   UNL     1      36.596  71.660   9.956  1.00  0.00     0.238 A 
ATOM      4  O   UNL     1      37.009  72.838   9.792  1.00  0.00    -0.285 OA
ATOM      5  C   UNL     1      37.137  70.822  10.960  1.00  0.00     0.111 A 
ATOM      6  C   UNL     1      38.229  71.174  11.810  1.00  0.00     0.134 A 
ATOM      7  C   UNL     1      38.594  70.318  12.855  1.00  0.00     0.093 A 
ATOM      8  C   UNL     1      37.954  69.093  13.041  1.00  0.00     0.123 A 
ATOM      9  C   UNL     1      36.925  68.711  12.179  1.00  0.00     0.094 A 
ATOM     10  C   UNL     1      36.512  69.561  11.150  1.00  0.00     0.146 A 
ATOM     11  O   UNL     1      35.522  69.165  10.359  1.00  0.00    -0.452 OA
ENDROOT
BRANCH   1  12
ATOM     12  C   UNL     1      33.949  69.334   8.540  1.00  0.00     0.021 A 
ATOM     13  C   UNL     1      32.693  69.094   9.121  1.00  0.00     0.016 A 
ATOM     14  C   UNL     1      31.658  68.536   8.364  1.00  0.00     0.047 A 
ATOM     15  C   UNL     1      31.870  68.199   7.022  1.00  0.00     0.115 A 
ATOM     16  C   UNL     1      34.160  68.974   7.197  1.00  0.00     0.016 A 
ATOM     17  C   UNL     1      33.124  68.415   6.442  1.00  0.00     0.047 A 
BRANCH  15  18
ATOM     18  O   UNL     1      30.846  67.643   6.259  1.00  0.00    -0.508 OA
ATOM     19  H   UNL     1      31.019  67.263   5.336  1.00  0.00     0.293 HD
ENDBRANCH  15  18
ENDBRANCH   1  12
BRANCH   2  20
ATOM     20  O   UNL     1      34.982  72.016   8.166  1.00  0.00    -0.502 OA
ATOM     21  H   UNL     1      35.203  71.915   7.183  1.00  0.00     0.293 HD
ENDBRANCH   2  20
BRANCH   6  22
ATOM     22  O   UNL     1      38.997  72.332  11.653  1.00  0.00    -0.507 OA
ATOM     23  H   UNL     1      40.004  72.361  11.675  1.00  0.00     0.293 HD
ENDBRANCH   6  22
BRANCH   8  24
ATOM     24  O   UNL     1      38.356  68.257  14.082  1.00  0.00    -0.508 OA
ATOM     25  H   UNL     1      38.917  67.431  13.911  1.00  0.00     0.293 HD
ENDBRANCH   8  24
TORSDOF 5
ENDMDL
MODEL 5
REMARK VINA RESULT:    -5.665      6.046      7.649
REMARK INTER + INTRA:          -6.944
REMARK INTER:                  -6.828
REMARK INTRA:                  -0.115
REMARK UNBOUND:                -0.286
REMARK SMILES O=c1c(O)c(-c2ccc(O)cc2)oc2cc(O)cc(O)c12
REMARK SMILES IDX 5 1 3 2 2 3 1 4 21 5 19 6 18 7 16 8 15 9 14 10 13 11 6 12
REMARK SMILES IDX 7 13 8 14 9 15 12 16 11 17 10 18 4 20 20 22 17 24
REMARK H PARENT 10 19 4 21 20 23 17 25
REMARK Flexibility Score: inf
ROOT
ATOM      1  C   UNL     1      30.729  65.153   4.904  1.00  0.00     0.180 A 
ATOM      2  C   UNL     1      29.781  65.272   3.873  1.00  0.00     0.208 A 
ATOM      3  C   UNL     1      29.552  64.174   3.029  1.00  0.00     0.238 A 
ATOM      4  O   UNL     1      28.742  64.304   2.074  1.00  0.00    -0.285 OA
ATOM      5  C   UNL     1      30.261  62.967   3.234  1.00  0.00     0.111 A 
ATOM      6  C   UNL     1      30.081  61.778   2.464  1.00  0.00     0.134 A 
ATOM      7  C   UNL     1      30.930  60.685   2.672  1.00  0.00     0.093 A 
ATOM      8  C   UNL     1      31.909  60.712   3.665  1.00  0.00     0.123 A 
ATOM      9  C   UNL     1      32.055  61.846   4.464  1.00  0.00     0.094 A 
ATOM     10  C   UNL     1      31.247  62.967   4.256  1.00  0.00     0.146 A 
ATOM     11  O   UNL     1      31.426  64.030   5.031  1.00  0.00    -0.452 OA
ENDROOT
BRANCH   1  12
ATOM     12  C   UNL     1      31.007  66.258   5.850  1.00  0.00     0.021 A 
ATOM     13  C   UNL     1      31.586  67.446   5.375  1.00  0.00     0.016 A 
ATOM     14  C   UNL     1      31.878  68.493   6.255  1.00  0.00     0.047 A 
ATOM     15  C   UNL     1      31.607  68.359   7.622  1.00  0.00     0.115 A 
ATOM     16  C   UNL     1      30.756  66.124   7.228  1.00  0.00     0.016 A 
ATOM     17  C   UNL     1      31.049  67.172   8.106  1.00  0.00     0.047 A 
BRANCH  15  18
ATOM     18  O   UNL     1      31.892  69.396   8.508  1.00  0.00    -0.508 OA
ATOM     19  H   UNL     1      31.583  69.369   9.473  1.00  0.00     0.293 HD
ENDBRANCH  15  18
ENDBRANCH   1  12
BRANCH   2  20
ATOM     20  O   UNL     1      29.107  66.481   3.673  1.00  0.00    -0.502 OA
ATOM     21  H   UNL     1      29.580  67.376   3.690  1.00  0.00     0.293 HD
ENDBRANCH   2  20
BRANCH   6  22
ATOM     22  O   UNL     1      29.072  61.614   1.510  1.00  0.00    -0.507 OA
ATOM     23  H   UNL     1      28.689  60.725   1.226  1.00  0.00     0.293 HD
ENDBRANCH   6  22
BRANCH   8  24
ATOM     24  O   UNL     1      32.726  59.598   3.855  1.00  0.00    -0.508 OA
ATOM     25  H   UNL     1      33.700  59.603   3.578  1.00  0.00     0.293 HD
ENDBRANCH   8  24
TORSDOF 5
ENDMDL
MODEL 6
REMARK VINA RESULT:    -5.633     12.126     13.912
REMARK INTER + INTRA:          -6.907
REMARK INTER:                  -6.706
REMARK INTRA:                  -0.201
REMARK UNBOUND:                -0.286
REMARK SMILES O=c1c(O)c(-c2ccc(O)cc2)oc2cc(O)cc(O)c12
REMARK SMILES IDX 5 1 3 2 2 3 1 4 21 5 19 6 18 7 16 8 15 9 14 10 13 11 6 12
REMARK SMILES IDX 7 13 8 14 9 15 12 16 11 17 10 18 4 20 20 22 17 24
REMARK H PARENT 10 19 4 21 20 23 17 25
REMARK Flexibility Score: inf
ROOT
ATOM      1  C   UNL     1      34.983  69.745   8.390  1.00  0.00     0.180 A 
ATOM      2  C   UNL     1      35.153  69.627   7.000  1.00  0.00     0.208 A 
ATOM      3  C   UNL     1      34.159  68.984   6.245  1.00  0.00     0.238 A 
ATOM      4  O   UNL     1      34.343  68.834   5.008  1.00  0.00    -0.285 OA
ATOM      5  C   UNL     1      33.002  68.481   6.885  1.00  0.00     0.111 A 
ATOM      6  C   UNL     1      31.914  67.848   6.214  1.00  0.00     0.134 A 
ATOM      7  C   UNL     1      30.881  67.272   6.963  1.00  0.00     0.093 A 
ATOM      8  C   UNL     1      30.862  67.364   8.354  1.00  0.00     0.123 A 
ATOM      9  C   UNL     1      31.890  68.033   9.018  1.00  0.00     0.094 A 
ATOM     10  C   UNL     1      32.954  68.586   8.300  1.00  0.00     0.146 A 
ATOM     11  O   UNL     1      33.918  69.205   8.971  1.00  0.00    -0.452 OA
ENDROOT
BRANCH   1  12
ATOM     12  C   UNL     1      35.974  70.432   9.250  1.00  0.00     0.021 A 
ATOM     13  C   UNL     1      36.698  69.690  10.198  1.00  0.00     0.016 A 
ATOM     14  C   UNL     1      37.623  70.323  11.036  1.00  0.00     0.047 A 
ATOM     15  C   UNL     1      37.823  71.706  10.945  1.00  0.00     0.115 A 
ATOM     16  C   UNL     1      36.167  71.823   9.179  1.00  0.00     0.016 A 
ATOM     17  C   UNL     1      37.092  72.454  10.018  1.00  0.00     0.047 A 
BRANCH  15  18
ATOM     18  O   UNL     1      38.742  72.346  11.774  1.00  0.00    -0.508 OA
ATOM     19  H   UNL     1      38.930  72.015  12.712  1.00  0.00     0.293 HD
ENDBRANCH  15  18
ENDBRANCH   1  12
BRANCH   2  20
ATOM     20  O   UNL     1      36.314  70.112   6.390  1.00  0.00    -0.502 OA
ATOM     21  H   UNL     1      37.209  70.130   6.862  1.00  0.00     0.293 HD
ENDBRANCH   2  20
BRANCH   6  22
ATOM     22  O   UNL     1      31.788  67.782   4.823  1.00  0.00    -0.507 OA
ATOM     23  H   UNL     1      31.317  68.469   4.254  1.00  0.00     0.293 HD
ENDBRANCH   6  22
BRANCH   8  24
ATOM     24  O   UNL     1      29.809  66.793   9.067  1.00  0.00    -0.508 OA
ATOM     25  H   UNL     1      29.025  67.347   9.388  1.00  0.00     0.293 HD
ENDBRANCH   8  24
TORSDOF 5
ENDMDL
MODEL 7
REMARK VINA RESULT:    -5.588      2.363      7.438
REMARK INTER + INTRA:          -6.854
REMARK INTER:                  -6.569
REMARK INTRA:                  -0.285
REMARK UNBOUND:                -0.286
REMARK SMILES O=c1c(O)c(-c2ccc(O)cc2)oc2cc(O)cc(O)c12
REMARK SMILES IDX 5 1 3 2 2 3 1 4 21 5 19 6 18 7 16 8 15 9 14 10 13 11 6 12
REMARK SMILES IDX 7 13 8 14 9 15 12 16 11 17 10 18 4 20 20 22 17 24
REMARK H PARENT 10 19 4 21 20 23 17 25
REMARK Flexibility Score: inf
ROOT
ATOM      1  C   UNL     1      31.048  59.513   3.432  1.00  0.00     0.180 A 
ATOM      2  C   UNL     1      31.417  60.788   3.893  1.00  0.00     0.208 A 
ATOM      3  C   UNL     1      32.023  60.907   5.153  1.00  0.00     0.238 A 
ATOM      4  O   UNL     1      32.302  62.058   5.584  1.00  0.00    -0.285 OA
ATOM      5  C   UNL     1      32.267  59.750   5.930  1.00  0.00     0.111 A 
ATOM      6  C   UNL     1      32.911  59.749   7.205  1.00  0.00     0.134 A 
ATOM      7  C   UNL     1      32.981  58.561   7.942  1.00  0.00     0.093 A 
ATOM      8  C   UNL     1      32.492  57.362   7.425  1.00  0.00     0.123 A 
ATOM      9  C   UNL     1      31.914  57.340   6.155  1.00  0.00     0.094 A 
ATOM     10  C   UNL     1      31.796  58.516   5.410  1.00  0.00     0.146 A 
ATOM     11  O   UNL     1      31.230  58.453   4.211  1.00  0.00    -0.452 OA
ENDROOT
BRANCH   1  12
ATOM     12  C   UNL     1      30.428  59.304   2.103  1.00  0.00     0.021 A 
ATOM     13  C   UNL     1      31.248  59.175   0.970  1.00  0.00     0.016 A 
ATOM     14  C   UNL     1      30.683  59.000  -0.297  1.00  0.00     0.047 A 
ATOM     15  C   UNL     1      29.291  58.965  -0.448  1.00  0.00     0.115 A 
ATOM     16  C   UNL     1      29.031  59.288   1.940  1.00  0.00     0.016 A 
ATOM     17  C   UNL     1      28.468  59.113   0.672  1.00  0.00     0.047 A 
BRANCH  15  18
ATOM     18  O   UNL     1      28.717  58.790  -1.706  1.00  0.00    -0.508 OA
ATOM     19  H   UNL     1      29.263  58.473  -2.498  1.00  0.00     0.293 HD
ENDBRANCH  15  18
ENDBRANCH   1  12
BRANCH   2  20
ATOM     20  O   UNL     1      31.148  61.921   3.119  1.00  0.00    -0.502 OA
ATOM     21  H   UNL     1      30.420  62.583   3.359  1.00  0.00     0.293 HD
ENDBRANCH   2  20
BRANCH   6  22
ATOM     22  O   UNL     1      33.516  60.874   7.773  1.00  0.00    -0.507 OA
ATOM     23  H   UNL     1      34.115  61.517   7.278  1.00  0.00     0.293 HD
ENDBRANCH   6  22
BRANCH   8  24
ATOM     24  O   UNL     1      32.594  56.195   8.180  1.00  0.00    -0.508 OA
ATOM     25  H   UNL     1      32.399  55.286   7.778  1.00  0.00     0.293 HD
ENDBRANCH   8  24
TORSDOF 5
ENDMDL
MODEL 8
REMARK VINA RESULT:    -5.580      2.830      7.921
REMARK INTER + INTRA:          -6.845
REMARK INTER:                  -6.558
REMARK INTRA:                  -0.287
REMARK UNBOUND:                -0.286
REMARK SMILES O=c1c(O)c(-c2ccc(O)cc2)oc2cc(O)cc(O)c12
REMARK SMILES IDX 5 1 3 2 2 3 1 4 21 5 19 6 18 7 16 8 15 9 14 10 13 11 6 12
REMARK SMILES IDX 7 13 8 14 9 15 12 16 11 17 10 18 4 20 20 22 17 24
REMARK H PARENT 10 19 4 21 20 23 17 25
REMARK Flexibility Score: inf
ROOT
ATOM      1  C   UNL     1      31.203  59.124   3.945  1.00  0.00     0.180 A 
ATOM      2  C   UNL     1      31.467  57.977   4.714  1.00  0.00     0.208 A 
ATOM      3  C   UNL     1      32.041  58.128   5.986  1.00  0.00     0.238 A 
ATOM      4  O   UNL     1      32.325  57.094   6.647  1.00  0.00    -0.285 OA
ATOM      5  C   UNL     1      32.328  59.422   6.481  1.00  0.00     0.111 A 
ATOM      6  C   UNL     1      32.872  59.695   7.772  1.00  0.00     0.134 A 
ATOM      7  C   UNL     1      33.238  61.004   8.105  1.00  0.00     0.093 A 
ATOM      8  C   UNL     1      33.019  62.061   7.221  1.00  0.00     0.123 A 
ATOM      9  C   UNL     1      32.432  61.814   5.979  1.00  0.00     0.094 A 
ATOM     10  C   UNL     1      32.090  60.513   5.604  1.00  0.00     0.146 A 
ATOM     11  O   UNL     1      31.544  60.320   4.409  1.00  0.00    -0.452 OA
ENDROOT
BRANCH   1  12
ATOM     12  C   UNL     1      30.577  59.048   2.605  1.00  0.00     0.021 A 
ATOM     13  C   UNL     1      31.383  59.142   1.459  1.00  0.00     0.016 A 
ATOM     14  C   UNL     1      30.809  59.095   0.183  1.00  0.00     0.047 A 
ATOM     15  C   UNL     1      29.422  58.967   0.041  1.00  0.00     0.115 A 
ATOM     16  C   UNL     1      29.182  58.939   2.452  1.00  0.00     0.016 A 
ATOM     17  C   UNL     1      28.611  58.893   1.177  1.00  0.00     0.047 A 
BRANCH  15  18
ATOM     18  O   UNL     1      28.840  58.919  -1.225  1.00  0.00    -0.508 OA
ATOM     19  H   UNL     1      28.004  58.376  -1.402  1.00  0.00     0.293 HD
ENDBRANCH  15  18
ENDBRANCH   1  12
BRANCH   2  20
ATOM     20  O   UNL     1      31.196  56.706   4.197  1.00  0.00    -0.502 OA
ATOM     21  H   UNL     1      31.881  55.962   4.198  1.00  0.00     0.293 HD
ENDBRANCH   2  20
BRANCH   6  22
ATOM     22  O   UNL     1      33.047  58.726   8.765  1.00  0.00    -0.507 OA
ATOM     23  H   UNL     1      32.704  58.802   9.710  1.00  0.00     0.293 HD
ENDBRANCH   6  22
BRANCH   8  24
ATOM     24  O   UNL     1      33.380  63.354   7.592  1.00  0.00    -0.508 OA
ATOM     25  H   UNL     1      34.352  63.631   7.671  1.00  0.00     0.293 HD
ENDBRANCH   8  24
TORSDOF 5
ENDMDL
MODEL 9
REMARK VINA RESULT:    -5.516      2.481      3.716
REMARK INTER + INTRA:          -6.769
REMARK INTER:                  -6.515
REMARK INTRA:                  -0.254
REMARK UNBOUND:                -0.286
REMARK SMILES O=c1c(O)c(-c2ccc(O)cc2)oc2cc(O)cc(O)c12
REMARK SMILES IDX 5 1 3 2 2 3 1 4 21 5 19 6 18 7 16 8 15 9 14 10 13 11 6 12
REMARK SMILES IDX 7 13 8 14 9 15 12 16 11 17 10 18 4 20 20 22 17 24
REMARK H PARENT 10 19 4 21 20 23 17 25
REMARK Flexibility Score: inf
ROOT
ATOM      1  C   UNL     1      30.563  58.773   4.720  1.00  0.00     0.180 A 
ATOM      2  C   UNL     1      29.171  58.699   4.899  1.00  0.00     0.208 A 
ATOM      3  C   UNL     1      28.334  58.816   3.778  1.00  0.00     0.238 A 
ATOM      4  O   UNL     1      27.087  58.804   3.951  1.00  0.00    -0.285 OA
ATOM      5  C   UNL     1      28.898  58.989   2.492  1.00  0.00     0.111 A 
ATOM      6  C   UNL     1      28.147  59.079   1.281  1.00  0.00     0.134 A 
ATOM      7  C   UNL     1      28.802  59.382   0.082  1.00  0.00     0.093 A 
ATOM      8  C   UNL     1      30.188  59.532   0.037  1.00  0.00     0.123 A 
ATOM      9  C   UNL     1      30.940  59.387   1.203  1.00  0.00     0.094 A 
ATOM     10  C   UNL     1      30.310  59.122   2.422  1.00  0.00     0.146 A 
ATOM     11  O   UNL     1      31.060  59.001   3.510  1.00  0.00    -0.452 OA
ENDROOT
BRANCH   1  12
ATOM     12  C   UNL     1      31.511  58.632   5.850  1.00  0.00     0.021 A 
ATOM     13  C   UNL     1      32.183  59.767   6.333  1.00  0.00     0.016 A 
ATOM     14  C   UNL     1      33.100  59.653   7.384  1.00  0.00     0.047 A 
ATOM     15  C   UNL     1      33.365  58.402   7.953  1.00  0.00     0.115 A 
ATOM     16  C   UNL     1      31.798  57.376   6.414  1.00  0.00     0.016 A 
ATOM     17  C   UNL     1      32.715  57.265   7.464  1.00  0.00     0.047 A 
BRANCH  15  18
ATOM     18  O   UNL     1      34.275  58.277   9.001  1.00  0.00    -0.508 OA
ATOM     19  H   UNL     1      34.580  57.370   9.333  1.00  0.00     0.293 HD
ENDBRANCH  15  18
ENDBRANCH   1  12
BRANCH   2  20
ATOM     20  O   UNL     1      28.633  58.549   6.181  1.00  0.00    -0.502 OA
ATOM     21  H   UNL     1      27.899  57.884   6.387  1.00  0.00     0.293 HD
ENDBRANCH   2  20
BRANCH   6  22
ATOM     22  O   UNL     1      26.769  58.856   1.201  1.00  0.00    -0.507 OA
ATOM     23  H   UNL     1      26.072  59.580   1.124  1.00  0.00     0.293 HD
ENDBRANCH   6  22
BRANCH   8  24
ATOM     24  O   UNL     1      30.810  59.816  -1.178  1.00  0.00    -0.508 OA
ATOM     25  H   UNL     1      30.552  59.334  -2.031  1.00  0.00     0.293 HD
ENDBRANCH   8  24
TORSDOF 5
ENDMDL
