MODEL 1
REMARK VINA RESULT:     0.085      0.000      0.000
REMARK INTER + INTRA:           0.179
REMARK INTER:                   0.214
REMARK INTRA:                  -0.035
REMARK UNBOUND:                -0.035
REMARK SMILES CCCCCCCCCCCCCCCCCCCCCCCCCCCC(=O)[O-]
REMARK SMILES IDX 15 1 16 2 17 3 18 4 19 5 20 6 21 7 22 8 23 9 24 10 25 11
REMARK SMILES IDX 26 12 27 13 28 14 29 15 30 16 14 17 13 18 12 19 11 20 10 21
REMARK SMILES IDX 9 22 8 23 7 24 6 25 5 26 4 27 3 28 2 29 1 30
REMARK H PARENT
REMARK Flexibility Score: inf
ROOT
ATOM      1  C   UNL     1       3.378   9.878   4.477  1.00  0.00     0.000 C 
ENDROOT
BRANCH   1   2
ATOM      2  C   UNL     1       3.188  10.582   5.830  1.00  0.00     0.000 C 
BRANCH   2   3
ATOM      3  C   UNL     1       2.616   9.653   6.913  1.00  0.00     0.000 C 
BRANCH   3   4
ATOM      4  C   UNL     1       3.483   8.403   7.173  1.00  0.00     0.000 C 
BRANCH   4   5
ATOM      5  C   UNL     1       3.833   8.236   8.659  1.00  0.00     0.000 C 
BRANCH   5   6
ATOM      6  C   UNL     1       4.475   9.515   9.218  1.00  0.00     0.000 C 
BRANCH   6   7
ATOM      7  C   UNL     1       3.439  10.538   9.717  1.00  0.00     0.000 C 
BRANCH   7   8
ATOM      8  C   UNL     1       3.727  12.003   9.327  1.00  0.00     0.000 C 
BRANCH   8   9
ATOM      9  C   UNL     1       2.638  13.018   9.729  1.00  0.00     0.000 C 
BRANCH   9  10
ATOM     10  C   UNL     1       1.454  13.125   8.750  1.00  0.00     0.000 C 
BRANCH  10  11
ATOM     11  C   UNL     1       0.271  12.228   9.150  1.00  0.00     0.000 C 
BRANCH  11  12
ATOM     12  C   UNL     1      -1.093  12.880   8.868  1.00  0.00     0.006 C 
BRANCH  12  13
ATOM     13  C   UNL     1      -2.067  11.941   8.143  1.00  0.00     0.053 C 
BRANCH  13  14
ATOM     14  C   UNL     1      -3.425  12.561   8.052  1.00  0.00     0.041 C 
ATOM     15  O   UNL     1      -3.914  12.858   6.929  1.00  0.00    -0.550 OA
ATOM     16  O   UNL     1      -4.141  12.840   9.210  1.00  0.00    -0.550 OA
ENDBRANCH  13  14
ENDBRANCH  12  13
ENDBRANCH  11  12
ENDBRANCH  10  11
ENDBRANCH   9  10
ENDBRANCH   8   9
ENDBRANCH   7   8
ENDBRANCH   6   7
ENDBRANCH   5   6
ENDBRANCH   4   5
ENDBRANCH   3   4
ENDBRANCH   2   3
ENDBRANCH   1   2
BRANCH   1  17
ATOM     17  C   UNL     1       4.844   9.874   4.016  1.00  0.00     0.000 C 
BRANCH  17  18
ATOM     18  C   UNL     1       5.757  10.691   4.946  1.00  0.00     0.000 C 
BRANCH  18  19
ATOM     19  C   UNL     1       5.159  12.061   5.316  1.00  0.00     0.000 C 
BRANCH  19  20
ATOM     20  C   UNL     1       5.714  12.680   6.614  1.00  0.00     0.000 C 
BRANCH  20  21
ATOM     21  C   UNL     1       6.877  11.908   7.268  1.00  0.00     0.000 C 
BRANCH  21  22
ATOM     22  C   UNL     1       6.786  11.760   8.797  1.00  0.00    -0.000 C 
BRANCH  22  23
ATOM     23  C   UNL     1       7.595  12.833   9.548  1.00  0.00    -0.000 C 
BRANCH  23  24
ATOM     24  C   UNL     1       8.959  13.123   8.896  1.00  0.00    -0.000 C 
BRANCH  24  25
ATOM     25  C   UNL     1       9.466  12.048   7.917  1.00  0.00    -0.000 C 
BRANCH  25  26
ATOM     26  C   UNL     1      10.125  12.641   6.659  1.00  0.00    -0.000 C 
BRANCH  26  27
ATOM     27  C   UNL     1       9.723  11.893   5.378  1.00  0.00    -0.000 C 
BRANCH  27  28
ATOM     28  C   UNL     1       8.748  12.701   4.504  1.00  0.00    -0.000 C 
BRANCH  28  29
ATOM     29  C   UNL     1       8.430  11.999   3.175  1.00  0.00    -0.003 C 
ATOM     30  C   UNL     1       9.158  12.627   1.987  1.00  0.00     0.004 C 
ENDBRANCH  28  29
ENDBRANCH  27  28
ENDBRANCH  26  27
ENDBRANCH  25  26
ENDBRANCH  24  25
ENDBRANCH  23  24
ENDBRANCH  22  23
ENDBRANCH  21  22
ENDBRANCH  20  21
ENDBRANCH  19  20
ENDBRANCH  18  19
ENDBRANCH  17  18
ENDBRANCH   1  17
TORSDOF 26
ENDMDL
MODEL 2
REMARK VINA RESULT:     0.923      3.780      8.913
REMARK INTER + INTRA:           2.291
REMARK INTER:                   2.753
REMARK INTRA:                  -0.462
REMARK UNBOUND:                -0.035
REMARK SMILES CCCCCCCCCCCCCCCCCCCCCCCCCCCC(=O)[O-]
REMARK SMILES IDX 15 1 16 2 17 3 18 4 19 5 20 6 21 7 22 8 23 9 24 10 25 11
REMARK SMILES IDX 26 12 27 13 28 14 29 15 30 16 14 17 13 18 12 19 11 20 10 21
REMARK SMILES IDX 9 22 8 23 7 24 6 25 5 26 4 27 3 28 2 29 1 30
REMARK H PARENT
REMARK Flexibility Score: inf
ROOT
ATOM      1  C   UNL     1       3.852   8.774   5.948  1.00  0.00     0.000 C 
ENDROOT
BRANCH   1   2
ATOM      2  C   UNL     1       3.263  10.192   5.863  1.00  0.00     0.000 C 
BRANCH   2   3
ATOM      3  C   UNL     1       4.083  11.125   4.959  1.00  0.00     0.000 C 
BRANCH   3   4
ATOM      4  C   UNL     1       5.595  11.116   5.272  1.00  0.00     0.000 C 
BRANCH   4   5
ATOM      5  C   UNL     1       6.060  12.420   5.936  1.00  0.00     0.000 C 
BRANCH   5   6
ATOM      6  C   UNL     1       5.334  12.646   7.270  1.00  0.00     0.000 C 
BRANCH   6   7
ATOM      7  C   UNL     1       5.786  11.670   8.371  1.00  0.00     0.000 C 
BRANCH   7   8
ATOM      8  C   UNL     1       7.221  11.892   8.893  1.00  0.00     0.000 C 
BRANCH   8   9
ATOM      9  C   UNL     1       8.255  10.839   8.444  1.00  0.00     0.000 C 
BRANCH   9  10
ATOM     10  C   UNL     1       9.167  11.276   7.282  1.00  0.00     0.000 C 
BRANCH  10  11
ATOM     11  C   UNL     1       9.060  12.779   6.977  1.00  0.00     0.000 C 
BRANCH  11  12
ATOM     12  C   UNL     1       9.385  13.114   5.512  1.00  0.00     0.006 C 
BRANCH  12  13
ATOM     13  C   UNL     1       8.370  12.522   4.523  1.00  0.00     0.053 C 
BRANCH  13  14
ATOM     14  C   UNL     1       8.951  12.462   3.146  1.00  0.00     0.041 C 
ATOM     15  O   UNL     1      10.125  12.868   2.934  1.00  0.00    -0.550 OA
ATOM     16  O   UNL     1       8.186  11.985   2.089  1.00  0.00    -0.550 OA
ENDBRANCH  13  14
ENDBRANCH  12  13
ENDBRANCH  11  12
ENDBRANCH  10  11
ENDBRANCH   9  10
ENDBRANCH   8   9
ENDBRANCH   7   8
ENDBRANCH   6   7
ENDBRANCH   5   6
ENDBRANCH   4   5
ENDBRANCH   3   4
ENDBRANCH   2   3
ENDBRANCH   1   2
BRANCH   1  17
ATOM     17  C   UNL     1       4.026   8.295   7.398  1.00  0.00     0.000 C 
BRANCH  17  18
ATOM     18  C   UNL     1       3.221   9.140   8.399  1.00  0.00     0.000 C 
BRANCH  18  19
ATOM     19  C   UNL     1       4.089   9.703   9.539  1.00  0.00     0.000 C 
BRANCH  19  20
ATOM     20  C   UNL     1       3.303  10.203  10.767  1.00  0.00     0.000 C 
BRANCH  20  21
ATOM     21  C   UNL     1       2.110  11.128  10.452  1.00  0.00     0.000 C 
BRANCH  21  22
ATOM     22  C   UNL     1       1.972  11.536   8.974  1.00  0.00    -0.000 C 
BRANCH  22  23
ATOM     23  C   UNL     1       1.128  12.809   8.784  1.00  0.00    -0.000 C 
BRANCH  23  24
ATOM     24  C   UNL     1      -0.267  12.706   9.429  1.00  0.00    -0.000 C 
BRANCH  24  25
ATOM     25  C   UNL     1      -1.449  13.055   8.506  1.00  0.00    -0.000 C 
BRANCH  25  26
ATOM     26  C   UNL     1      -2.794  13.125   9.251  1.00  0.00    -0.000 C 
BRANCH  26  27
ATOM     27  C   UNL     1      -3.902  12.332   8.540  1.00  0.00    -0.000 C 
BRANCH  27  28
ATOM     28  C   UNL     1      -3.494  11.889   7.123  1.00  0.00    -0.000 C 
BRANCH  28  29
ATOM     29  C   UNL     1      -4.216  12.688   6.027  1.00  0.00    -0.003 C 
ATOM     30  C   UNL     1      -3.932  12.153   4.624  1.00  0.00     0.004 C 
ENDBRANCH  28  29
ENDBRANCH  27  28
ENDBRANCH  26  27
ENDBRANCH  25  26
ENDBRANCH  24  25
ENDBRANCH  23  24
ENDBRANCH  22  23
ENDBRANCH  21  22
ENDBRANCH  20  21
ENDBRANCH  19  20
ENDBRANCH  18  19
ENDBRANCH  17  18
ENDBRANCH   1  17
TORSDOF 26
ENDMDL
MODEL 3
REMARK VINA RESULT:     2.008      3.222      8.838
REMARK INTER + INTRA:           5.025
REMARK INTER:                   4.917
REMARK INTRA:                   0.108
REMARK UNBOUND:                -0.035
REMARK SMILES CCCCCCCCCCCCCCCCCCCCCCCCCCCC(=O)[O-]
REMARK SMILES IDX 15 1 16 2 17 3 18 4 19 5 20 6 21 7 22 8 23 9 24 10 25 11
REMARK SMILES IDX 26 12 27 13 28 14 29 15 30 16 14 17 13 18 12 19 11 20 10 21
REMARK SMILES IDX 9 22 8 23 7 24 6 25 5 26 4 27 3 28 2 29 1 30
REMARK H PARENT
REMARK Flexibility Score: inf
ROOT
ATOM      1  C   UNL     1       3.175  10.165   5.996  1.00  0.00     0.000 C 
ENDROOT
BRANCH   1   2
ATOM      2  C   UNL     1       3.470  11.127   4.834  1.00  0.00     0.000 C 
BRANCH   2   3
ATOM      3  C   UNL     1       4.946  11.553   4.770  1.00  0.00     0.000 C 
BRANCH   3   4
ATOM      4  C   UNL     1       5.836  10.576   3.973  1.00  0.00     0.000 C 
BRANCH   4   5
ATOM      5  C   UNL     1       7.049  11.275   3.343  1.00  0.00     0.000 C 
BRANCH   5   6
ATOM      6  C   UNL     1       7.119  12.748   3.775  1.00  0.00     0.000 C 
BRANCH   6   7
ATOM      7  C   UNL     1       8.471  13.125   4.406  1.00  0.00     0.000 C 
BRANCH   7   8
ATOM      8  C   UNL     1       8.962  12.172   5.516  1.00  0.00     0.000 C 
BRANCH   8   9
ATOM      9  C   UNL     1       9.948  12.792   6.527  1.00  0.00     0.000 C 
BRANCH   9  10
ATOM     10  C   UNL     1       9.420  12.898   7.971  1.00  0.00     0.000 C 
BRANCH  10  11
ATOM     11  C   UNL     1       7.901  13.125   8.031  1.00  0.00     0.000 C 
BRANCH  11  12
ATOM     12  C   UNL     1       7.198  12.192   9.032  1.00  0.00     0.006 C 
BRANCH  12  13
ATOM     13  C   UNL     1       7.614  10.723   8.874  1.00  0.00     0.053 C 
BRANCH  13  14
ATOM     14  C   UNL     1       7.174  10.191   7.546  1.00  0.00     0.041 C 
ATOM     15  O   UNL     1       7.948  10.240   6.554  1.00  0.00    -0.550 OA
ATOM     16  O   UNL     1       5.895   9.669   7.397  1.00  0.00    -0.550 OA
ENDBRANCH  13  14
ENDBRANCH  12  13
ENDBRANCH  11  12
ENDBRANCH  10  11
ENDBRANCH   9  10
ENDBRANCH   8   9
ENDBRANCH   7   8
ENDBRANCH   6   7
ENDBRANCH   5   6
ENDBRANCH   4   5
ENDBRANCH   3   4
ENDBRANCH   2   3
ENDBRANCH   1   2
BRANCH   1  17
ATOM     17  C   UNL     1       2.810  10.904   7.293  1.00  0.00     0.000 C 
BRANCH  17  18
ATOM     18  C   UNL     1       3.887  10.753   8.381  1.00  0.00     0.000 C 
BRANCH  18  19
ATOM     19  C   UNL     1       3.483  11.407   9.715  1.00  0.00     0.000 C 
BRANCH  19  20
ATOM     20  C   UNL     1       2.655  10.506  10.654  1.00  0.00     0.000 C 
BRANCH  20  21
ATOM     21  C   UNL     1       1.169  10.892  10.795  1.00  0.00     0.000 C 
BRANCH  21  22
ATOM     22  C   UNL     1       0.770  12.214  10.116  1.00  0.00    -0.000 C 
BRANCH  22  23
ATOM     23  C   UNL     1       0.055  12.000   8.770  1.00  0.00    -0.000 C 
BRANCH  23  24
ATOM     24  C   UNL     1      -1.110  12.982   8.546  1.00  0.00    -0.000 C 
BRANCH  24  25
ATOM     25  C   UNL     1      -2.368  12.721   9.395  1.00  0.00    -0.000 C 
BRANCH  25  26
ATOM     26  C   UNL     1      -3.668  12.767   8.574  1.00  0.00    -0.000 C 
BRANCH  26  27
ATOM     27  C   UNL     1      -4.066  11.387   8.026  1.00  0.00    -0.000 C 
BRANCH  27  28
ATOM     28  C   UNL     1      -4.143  11.363   6.489  1.00  0.00    -0.000 C 
BRANCH  28  29
ATOM     29  C   UNL     1      -4.188  12.772   5.880  1.00  0.00    -0.003 C 
ATOM     30  C   UNL     1      -3.811  12.787   4.398  1.00  0.00     0.004 C 
ENDBRANCH  28  29
ENDBRANCH  27  28
ENDBRANCH  26  27
ENDBRANCH  25  26
ENDBRANCH  24  25
ENDBRANCH  23  24
ENDBRANCH  22  23
ENDBRANCH  21  22
ENDBRANCH  20  21
ENDBRANCH  19  20
ENDBRANCH  18  19
ENDBRANCH  17  18
ENDBRANCH   1  17
TORSDOF 26
ENDMDL
MODEL 4
REMARK VINA RESULT:     2.163      3.202      9.096
REMARK INTER + INTRA:           5.415
REMARK INTER:                   3.929
REMARK INTRA:                   1.486
REMARK UNBOUND:                -0.035
REMARK SMILES CCCCCCCCCCCCCCCCCCCCCCCCCCCC(=O)[O-]
REMARK SMILES IDX 15 1 16 2 17 3 18 4 19 5 20 6 21 7 22 8 23 9 24 10 25 11
REMARK SMILES IDX 26 12 27 13 28 14 29 15 30 16 14 17 13 18 12 19 11 20 10 21
REMARK SMILES IDX 9 22 8 23 7 24 6 25 5 26 4 27 3 28 2 29 1 30
REMARK H PARENT
REMARK Flexibility Score: inf
ROOT
ATOM      1  C   UNL     1       3.299  10.463   7.138  1.00  0.00     0.000 C 
ENDROOT
BRANCH   1   2
ATOM      2  C   UNL     1       4.237  10.981   6.035  1.00  0.00     0.000 C 
BRANCH   2   3
ATOM      3  C   UNL     1       5.571  11.509   6.586  1.00  0.00     0.000 C 
BRANCH   3   4
ATOM      4  C   UNL     1       5.450  12.880   7.284  1.00  0.00     0.000 C 
BRANCH   4   5
ATOM      5  C   UNL     1       6.477  13.050   8.414  1.00  0.00     0.000 C 
BRANCH   5   6
ATOM      6  C   UNL     1       6.992  11.686   8.897  1.00  0.00     0.000 C 
BRANCH   6   7
ATOM      7  C   UNL     1       7.564  10.824   7.758  1.00  0.00     0.000 C 
BRANCH   7   8
ATOM      8  C   UNL     1       9.096  10.638   7.785  1.00  0.00     0.000 C 
BRANCH   8   9
ATOM      9  C   UNL     1       9.839  11.107   6.518  1.00  0.00     0.000 C 
BRANCH   9  10
ATOM     10  C   UNL     1      10.001  12.633   6.386  1.00  0.00     0.000 C 
BRANCH  10  11
ATOM     11  C   UNL     1       9.860  13.120   4.934  1.00  0.00     0.000 C 
BRANCH  11  12
ATOM     12  C   UNL     1       9.448  11.999   3.966  1.00  0.00     0.006 C 
BRANCH  12  13
ATOM     13  C   UNL     1       8.049  12.207   3.370  1.00  0.00     0.053 C 
BRANCH  13  14
ATOM     14  C   UNL     1       7.084  11.213   3.934  1.00  0.00     0.041 C 
ATOM     15  O   UNL     1       7.473  10.352   4.768  1.00  0.00    -0.550 OA
ATOM     16  O   UNL     1       5.758  11.216   3.517  1.00  0.00    -0.550 OA
ENDBRANCH  13  14
ENDBRANCH  12  13
ENDBRANCH  11  12
ENDBRANCH  10  11
ENDBRANCH   9  10
ENDBRANCH   8   9
ENDBRANCH   7   8
ENDBRANCH   6   7
ENDBRANCH   5   6
ENDBRANCH   4   5
ENDBRANCH   3   4
ENDBRANCH   2   3
ENDBRANCH   1   2
BRANCH   1  17
ATOM     17  C   UNL     1       4.020   9.556   8.146  1.00  0.00     0.000 C 
BRANCH  17  18
ATOM     18  C   UNL     1       3.043   8.748   9.018  1.00  0.00     0.000 C 
BRANCH  18  19
ATOM     19  C   UNL     1       3.166   9.080  10.516  1.00  0.00     0.000 C 
BRANCH  19  20
ATOM     20  C   UNL     1       2.765  10.520  10.896  1.00  0.00     0.000 C 
BRANCH  20  21
ATOM     21  C   UNL     1       3.020  11.583   9.809  1.00  0.00     0.000 C 
BRANCH  21  22
ATOM     22  C   UNL     1       1.932  12.664   9.682  1.00  0.00    -0.000 C 
BRANCH  22  23
ATOM     23  C   UNL     1       0.507  12.086   9.761  1.00  0.00    -0.000 C 
BRANCH  23  24
ATOM     24  C   UNL     1      -0.580  13.119   9.412  1.00  0.00    -0.000 C 
BRANCH  24  25
ATOM     25  C   UNL     1      -1.510  12.732   8.247  1.00  0.00    -0.000 C 
BRANCH  25  26
ATOM     26  C   UNL     1      -2.979  13.115   8.497  1.00  0.00    -0.000 C 
BRANCH  26  27
ATOM     27  C   UNL     1      -3.847  11.902   8.867  1.00  0.00    -0.000 C 
BRANCH  27  28
ATOM     28  C   UNL     1      -3.960  10.885   7.717  1.00  0.00    -0.000 C 
BRANCH  28  29
ATOM     29  C   UNL     1      -4.705   9.607   8.134  1.00  0.00    -0.003 C 
ATOM     30  C   UNL     1      -4.174   9.013   9.438  1.00  0.00     0.004 C 
ENDBRANCH  28  29
ENDBRANCH  27  28
ENDBRANCH  26  27
ENDBRANCH  25  26
ENDBRANCH  24  25
ENDBRANCH  23  24
ENDBRANCH  22  23
ENDBRANCH  21  22
ENDBRANCH  20  21
ENDBRANCH  19  20
ENDBRANCH  18  19
ENDBRANCH  17  18
ENDBRANCH   1  17
TORSDOF 26
ENDMDL
MODEL 5
REMARK VINA RESULT:     2.779      1.727      3.346
REMARK INTER + INTRA:           6.967
REMARK INTER:                   5.637
REMARK INTRA:                   1.330
REMARK UNBOUND:                -0.035
REMARK SMILES CCCCCCCCCCCCCCCCCCCCCCCCCCCC(=O)[O-]
REMARK SMILES IDX 15 1 16 2 17 3 18 4 19 5 20 6 21 7 22 8 23 9 24 10 25 11
REMARK SMILES IDX 26 12 27 13 28 14 29 15 30 16 14 17 13 18 12 19 11 20 10 21
REMARK SMILES IDX 9 22 8 23 7 24 6 25 5 26 4 27 3 28 2 29 1 30
REMARK H PARENT
REMARK Flexibility Score: inf
ROOT
ATOM      1  C   UNL     1       2.977   8.919   7.896  1.00  0.00     0.000 C 
ENDROOT
BRANCH   1   2
ATOM      2  C   UNL     1       2.719  10.232   7.140  1.00  0.00     0.000 C 
BRANCH   2   3
ATOM      3  C   UNL     1       2.358  11.398   8.075  1.00  0.00     0.000 C 
BRANCH   3   4
ATOM      4  C   UNL     1       3.260  11.489   9.324  1.00  0.00     0.000 C 
BRANCH   4   5
ATOM      5  C   UNL     1       2.733  10.633  10.486  1.00  0.00     0.000 C 
BRANCH   5   6
ATOM      6  C   UNL     1       1.366  11.143  10.965  1.00  0.00     0.000 C 
BRANCH   6   7
ATOM      7  C   UNL     1       0.933  12.445  10.268  1.00  0.00     0.000 C 
BRANCH   7   8
ATOM      8  C   UNL     1       0.206  12.254   8.920  1.00  0.00     0.000 C 
BRANCH   8   9
ATOM      9  C   UNL     1      -1.052  13.123   8.721  1.00  0.00     0.000 C 
BRANCH   9  10
ATOM     10  C   UNL     1      -2.391  12.375   8.869  1.00  0.00     0.000 C 
BRANCH  10  11
ATOM     11  C   UNL     1      -2.969  11.922   7.518  1.00  0.00     0.000 C 
BRANCH  11  12
ATOM     12  C   UNL     1      -4.242  11.072   7.670  1.00  0.00     0.006 C 
BRANCH  12  13
ATOM     13  C   UNL     1      -4.639  10.845   9.135  1.00  0.00     0.053 C 
BRANCH  13  14
ATOM     14  C   UNL     1      -4.612   9.387   9.468  1.00  0.00     0.041 C 
ATOM     15  O   UNL     1      -4.041   8.570   8.697  1.00  0.00    -0.550 OA
ATOM     16  O   UNL     1      -5.244   8.924  10.616  1.00  0.00    -0.550 OA
ENDBRANCH  13  14
ENDBRANCH  12  13
ENDBRANCH  11  12
ENDBRANCH  10  11
ENDBRANCH   9  10
ENDBRANCH   8   9
ENDBRANCH   7   8
ENDBRANCH   6   7
ENDBRANCH   5   6
ENDBRANCH   4   5
ENDBRANCH   3   4
ENDBRANCH   2   3
ENDBRANCH   1   2
BRANCH   1  17
ATOM     17  C   UNL     1       4.432   8.441   7.765  1.00  0.00     0.000 C 
BRANCH  17  18
ATOM     18  C   UNL     1       5.378   9.154   8.746  1.00  0.00     0.000 C 
BRANCH  18  19
ATOM     19  C   UNL     1       6.320  10.151   8.047  1.00  0.00     0.000 C 
BRANCH  19  20
ATOM     20  C   UNL     1       6.156  11.618   8.493  1.00  0.00     0.000 C 
BRANCH  20  21
ATOM     21  C   UNL     1       7.468  12.352   8.837  1.00  0.00     0.000 C 
BRANCH  21  22
ATOM     22  C   UNL     1       8.733  11.773   8.177  1.00  0.00    -0.000 C 
BRANCH  22  23
ATOM     23  C   UNL     1       9.777  12.854   7.843  1.00  0.00    -0.000 C 
BRANCH  23  24
ATOM     24  C   UNL     1      10.003  13.023   6.329  1.00  0.00    -0.000 C 
BRANCH  24  25
ATOM     25  C   UNL     1       9.793  11.753   5.484  1.00  0.00    -0.000 C 
BRANCH  25  26
ATOM     26  C   UNL     1       9.567  12.055   3.992  1.00  0.00    -0.000 C 
BRANCH  26  27
ATOM     27  C   UNL     1       8.077  12.056   3.612  1.00  0.00    -0.000 C 
BRANCH  27  28
ATOM     28  C   UNL     1       7.198  11.369   4.673  1.00  0.00    -0.000 C 
BRANCH  28  29
ATOM     29  C   UNL     1       5.914  12.157   4.971  1.00  0.00    -0.003 C 
ATOM     30  C   UNL     1       6.072  13.119   6.149  1.00  0.00     0.004 C 
ENDBRANCH  28  29
ENDBRANCH  27  28
ENDBRANCH  26  27
ENDBRANCH  25  26
ENDBRANCH  24  25
ENDBRANCH  23  24
ENDBRANCH  22  23
ENDBRANCH  21  22
ENDBRANCH  20  21
ENDBRANCH  19  20
ENDBRANCH  18  19
ENDBRANCH  17  18
ENDBRANCH   1  17
TORSDOF 26
ENDMDL
