MODEL 1
REMARK VINA RESULT:   108.177      0.000      0.000
REMARK INTER + INTRA:         118.221
REMARK INTER:                 117.663
REMARK INTRA:                   0.558
REMARK UNBOUND:                 0.558
REMARK SMILES CC1(C)CC[C@@]2(C(=O)[O-])CC[C@@]3(C)C(=CC[C@H]4[C@@]5(C)CC[C@@H](O)C(C)(C)[C@H]5CC[C@]43C)[C@@H]2C1
REMARK SMILES IDX 6 1 5 2 10 3 32 4 4 5 11 6 14 7 33 8 2 9 12 10 15 11 1 12
REMARK SMILES IDX 3 13 13 14 30 15 16 16 17 17 29 18 31 19 18 20 28 21 27 22
REMARK SMILES IDX 20 23 19 24 24 25 21 26 22 27 25 28 26 29 7 30 8 31 9 32
REMARK SMILES IDX 23 33
REMARK H PARENT 23 34
REMARK Flexibility Score: inf
ROOT
ATOM      1  C   UNL     1      -8.749   5.601 -18.077  1.00  0.00     0.017 C 
ATOM      2  C   UNL     1      -8.246   5.041 -19.436  1.00  0.00     0.014 C 
ATOM      3  C   UNL     1      -7.859   6.814 -17.627  1.00  0.00     0.014 C 
ATOM      4  C   UNL     1     -10.221   6.060 -18.291  1.00  0.00     0.028 C 
ATOM      5  C   UNL     1      -9.123   3.882 -19.956  1.00  0.00     0.007 C 
ATOM      6  C   UNL     1      -8.574   8.190 -17.556  1.00  0.00     0.013 C 
ATOM      7  C   UNL     1     -10.679   6.865 -17.076  1.00  0.00    -0.064 C 
ATOM      8  C   UNL     1     -11.134   4.900 -18.758  1.00  0.00     0.015 C 
ATOM      9  C   UNL     1     -10.628   4.247 -20.077  1.00  0.00    -0.035 C 
ATOM     10  C   UNL     1     -10.004   8.218 -16.862  1.00  0.00    -0.006 C 
ATOM     11  C   UNL     1     -11.646   6.431 -16.252  1.00  0.00    -0.027 C 
ATOM     12  C   UNL     1     -10.866   5.176 -21.292  1.00  0.00     0.011 C 
ATOM     13  C   UNL     1     -11.431   2.950 -20.317  1.00  0.00     0.011 C 
ATOM     14  C   UNL     1     -10.881   9.227 -17.670  1.00  0.00     0.017 C 
ATOM     15  C   UNL     1      -9.938   8.639 -15.305  1.00  0.00    -0.020 C 
ATOM     16  C   UNL     1     -11.826   6.950 -14.863  1.00  0.00     0.032 C 
ATOM     17  C   UNL     1     -11.324   8.400 -14.588  1.00  0.00     0.006 C 
ATOM     18  C   UNL     1      -8.868   7.789 -14.550  1.00  0.00     0.008 C 
ATOM     19  C   UNL     1      -9.552  10.160 -15.238  1.00  0.00     0.012 C 
ATOM     20  C   UNL     1     -11.358   8.809 -13.016  1.00  0.00    -0.025 C 
ATOM     21  C   UNL     1      -9.096   7.559 -13.033  1.00  0.00     0.005 C 
ATOM     22  C   UNL     1      -9.921   8.667 -12.331  1.00  0.00     0.003 C 
ATOM     23  C   UNL     1     -12.425   7.946 -12.244  1.00  0.00     0.010 C 
ATOM     24  C   UNL     1     -11.837  10.297 -12.931  1.00  0.00     0.012 C 
ATOM     25  C   UNL     1      -9.897   8.595 -10.732  1.00  0.00    -0.006 C 
ATOM     26  C   UNL     1     -12.401   8.071 -10.722  1.00  0.00     0.033 C 
ATOM     27  C   UNL     1     -11.024   7.688 -10.166  1.00  0.00     0.120 C 
ATOM     28  C   UNL     1      -8.535   8.068 -10.188  1.00  0.00     0.014 C 
ATOM     29  C   UNL     1     -10.024  10.025 -10.122  1.00  0.00     0.014 C 
ENDROOT
BRANCH   1  30
ATOM     30  C   UNL     1      -8.626   4.508 -17.014  1.00  0.00     0.048 C 
ATOM     31  O   UNL     1      -9.488   4.377 -16.107  1.00  0.00    -0.550 OA
ATOM     32  O   UNL     1      -7.497   3.697 -16.977  1.00  0.00    -0.550 OA
ENDBRANCH   1  30
BRANCH  27  33
ATOM     33  O   UNL     1     -10.758   6.338 -10.461  1.00  0.00    -0.393 OA
ATOM     34  H   UNL     1     -11.511   5.808 -10.088  1.00  0.00     0.210 HD
ENDBRANCH  27  33
TORSDOF 2
ENDMDL
