MODEL 1
REMARK VINA RESULT:    -4.132      0.000      0.000
REMARK INTER + INTRA:          -4.875
REMARK INTER:                  -4.736
REMARK INTRA:                  -0.139
REMARK UNBOUND:                -0.139
REMARK SMILES O=C([O-])C=Cc1ccc(O)cc1
REMARK SMILES IDX 6 1 7 2 12 3 8 4 11 5 9 6 5 7 4 8 2 9 1 10 3 11 10 12
REMARK H PARENT 10 13
REMARK Flexibility Score: inf
ROOT
ATOM      1  C   UNL     1      15.422  -6.171  12.964  1.00  0.00    -0.025 A 
ATOM      2  C   UNL     1      15.358  -7.127  13.991  1.00  0.00     0.012 A 
ATOM      3  C   UNL     1      15.349  -6.607  11.625  1.00  0.00     0.012 A 
ATOM      4  C   UNL     1      15.251  -8.488  13.692  1.00  0.00     0.047 A 
ATOM      5  C   UNL     1      15.241  -7.969  11.329  1.00  0.00     0.047 A 
ATOM      6  C   UNL     1      15.195  -8.914  12.362  1.00  0.00     0.115 A 
ENDROOT
BRANCH   1   7
ATOM      7  C   UNL     1      15.525  -4.737  13.333  1.00  0.00     0.010 C 
ATOM      8  C   UNL     1      16.516  -4.228  14.077  1.00  0.00     0.025 C 
BRANCH   8   9
ATOM      9  C   UNL     1      16.579  -2.800  14.432  1.00  0.00     0.064 C 
ATOM     10  O   UNL     1      16.896  -1.929  13.579  1.00  0.00    -0.545 OA
ATOM     11  O   UNL     1      16.284  -2.407  15.730  1.00  0.00    -0.545 OA
ENDBRANCH   8   9
ENDBRANCH   1   7
BRANCH   6  12
ATOM     12  O   UNL     1      15.088 -10.274  12.078  1.00  0.00    -0.508 OA
ATOM     13  H   UNL     1      15.203 -10.628  11.136  1.00  0.00     0.293 HD
ENDBRANCH   6  12
TORSDOF 3
ENDMDL
MODEL 2
REMARK VINA RESULT:    -4.030      0.279      1.425
REMARK INTER + INTRA:          -4.758
REMARK INTER:                  -4.623
REMARK INTRA:                  -0.135
REMARK UNBOUND:                -0.139
REMARK SMILES O=C([O-])C=Cc1ccc(O)cc1
REMARK SMILES IDX 6 1 7 2 12 3 8 4 11 5 9 6 5 7 4 8 2 9 1 10 3 11 10 12
REMARK H PARENT 10 13
REMARK Flexibility Score: inf
ROOT
ATOM      1  C   UNL     1      15.344  -6.142  13.103  1.00  0.00    -0.025 A 
ATOM      2  C   UNL     1      15.328  -6.592  11.772  1.00  0.00     0.012 A 
ATOM      3  C   UNL     1      15.323  -7.095  14.142  1.00  0.00     0.012 A 
ATOM      4  C   UNL     1      15.268  -7.958  11.482  1.00  0.00     0.047 A 
ATOM      5  C   UNL     1      15.264  -8.461  13.849  1.00  0.00     0.047 A 
ATOM      6  C   UNL     1      15.233  -8.896  12.518  1.00  0.00     0.115 A 
ENDROOT
BRANCH   1   7
ATOM      7  C   UNL     1      15.419  -4.682  13.359  1.00  0.00     0.010 C 
ATOM      8  C   UNL     1      16.414  -4.094  14.038  1.00  0.00     0.025 C 
BRANCH   8   9
ATOM      9  C   UNL     1      16.448  -2.643  14.282  1.00  0.00     0.064 C 
ATOM     10  O   UNL     1      17.138  -1.875  13.560  1.00  0.00    -0.545 OA
ATOM     11  O   UNL     1      15.706  -2.110  15.328  1.00  0.00    -0.545 OA
ENDBRANCH   8   9
ENDBRANCH   1   7
BRANCH   6  12
ATOM     12  O   UNL     1      15.172 -10.254  12.215  1.00  0.00    -0.508 OA
ATOM     13  H   UNL     1      15.680 -10.646  11.431  1.00  0.00     0.293 HD
ENDBRANCH   6  12
TORSDOF 3
ENDMDL
MODEL 3
REMARK VINA RESULT:    -3.952      1.844      5.606
REMARK INTER + INTRA:          -4.668
REMARK INTER:                  -4.535
REMARK INTRA:                  -0.133
REMARK UNBOUND:                -0.139
REMARK SMILES O=C([O-])C=Cc1ccc(O)cc1
REMARK SMILES IDX 6 1 7 2 12 3 8 4 11 5 9 6 5 7 4 8 2 9 1 10 3 11 10 12
REMARK H PARENT 10 13
REMARK Flexibility Score: inf
ROOT
ATOM      1  C   UNL     1      15.775  -4.931  14.112  1.00  0.00    -0.025 A 
ATOM      2  C   UNL     1      14.848  -5.120  15.151  1.00  0.00     0.012 A 
ATOM      3  C   UNL     1      16.506  -3.726  14.065  1.00  0.00     0.012 A 
ATOM      4  C   UNL     1      14.636  -4.123  16.107  1.00  0.00     0.047 A 
ATOM      5  C   UNL     1      16.291  -2.731  15.024  1.00  0.00     0.047 A 
ATOM      6  C   UNL     1      15.353  -2.925  16.045  1.00  0.00     0.115 A 
ENDROOT
BRANCH   1   7
ATOM      7  C   UNL     1      15.972  -6.023  13.127  1.00  0.00     0.010 C 
ATOM      8  C   UNL     1      15.252  -6.154  12.004  1.00  0.00     0.025 C 
BRANCH   8   9
ATOM      9  C   UNL     1      15.470  -7.259  11.056  1.00  0.00     0.064 C 
ATOM     10  O   UNL     1      15.950  -7.051   9.909  1.00  0.00    -0.545 OA
ATOM     11  O   UNL     1      15.140  -8.555  11.430  1.00  0.00    -0.545 OA
ENDBRANCH   8   9
ENDBRANCH   1   7
BRANCH   6  12
ATOM     12  O   UNL     1      15.131  -1.939  17.004  1.00  0.00    -0.508 OA
ATOM     13  H   UNL     1      14.897  -2.174  17.961  1.00  0.00     0.293 HD
ENDBRANCH   6  12
TORSDOF 3
ENDMDL
MODEL 4
REMARK VINA RESULT:    -3.882     11.879     14.587
REMARK INTER + INTRA:          -4.588
REMARK INTER:                  -4.445
REMARK INTRA:                  -0.143
REMARK UNBOUND:                -0.139
REMARK SMILES O=C([O-])C=Cc1ccc(O)cc1
REMARK SMILES IDX 6 1 7 2 12 3 8 4 11 5 9 6 5 7 4 8 2 9 1 10 3 11 10 12
REMARK H PARENT 10 13
REMARK Flexibility Score: inf
ROOT
ATOM      1  C   UNL     1      13.138 -17.612  19.995  1.00  0.00    -0.025 A 
ATOM      2  C   UNL     1      13.090 -16.685  18.941  1.00  0.00     0.012 A 
ATOM      3  C   UNL     1      14.395 -18.077  20.434  1.00  0.00     0.012 A 
ATOM      4  C   UNL     1      14.264 -16.249  18.321  1.00  0.00     0.047 A 
ATOM      5  C   UNL     1      15.568 -17.637  19.812  1.00  0.00     0.047 A 
ATOM      6  C   UNL     1      15.506 -16.725  18.752  1.00  0.00     0.115 A 
ENDROOT
BRANCH   1   7
ATOM      7  C   UNL     1      11.865 -18.037  20.628  1.00  0.00     0.010 C 
ATOM      8  C   UNL     1      10.757 -18.347  19.940  1.00  0.00     0.025 C 
BRANCH   8   9
ATOM      9  C   UNL     1       9.507 -18.754  20.605  1.00  0.00     0.064 C 
ATOM     10  O   UNL     1       8.981 -19.875  20.375  1.00  0.00    -0.545 OA
ATOM     11  O   UNL     1       8.897 -17.885  21.500  1.00  0.00    -0.545 OA
ENDBRANCH   8   9
ENDBRANCH   1   7
BRANCH   6  12
ATOM     12  O   UNL     1      16.668 -16.282  18.125  1.00  0.00    -0.508 OA
ATOM     13  H   UNL     1      17.544 -16.782  18.219  1.00  0.00     0.293 HD
ENDBRANCH   6  12
TORSDOF 3
ENDMDL
MODEL 5
REMARK VINA RESULT:    -3.818     14.176     15.137
REMARK INTER + INTRA:          -4.515
REMARK INTER:                  -4.365
REMARK INTRA:                  -0.149
REMARK UNBOUND:                -0.139
REMARK SMILES O=C([O-])C=Cc1ccc(O)cc1
REMARK SMILES IDX 6 1 7 2 12 3 8 4 11 5 9 6 5 7 4 8 2 9 1 10 3 11 10 12
REMARK H PARENT 10 13
REMARK Flexibility Score: inf
ROOT
ATOM      1  C   UNL     1      13.641 -17.982  20.371  1.00  0.00    -0.025 A 
ATOM      2  C   UNL     1      13.995 -17.863  21.725  1.00  0.00     0.012 A 
ATOM      3  C   UNL     1      14.665 -18.105  19.409  1.00  0.00     0.012 A 
ATOM      4  C   UNL     1      15.338 -17.842  22.111  1.00  0.00     0.047 A 
ATOM      5  C   UNL     1      16.008 -18.084  19.799  1.00  0.00     0.047 A 
ATOM      6  C   UNL     1      16.348 -17.949  21.151  1.00  0.00     0.115 A 
ENDROOT
BRANCH   1   7
ATOM      7  C   UNL     1      12.201 -18.010  20.012  1.00  0.00     0.010 C 
ATOM      8  C   UNL     1      11.221 -18.293  20.881  1.00  0.00     0.025 C 
BRANCH   8   9
ATOM      9  C   UNL     1       9.803 -18.322  20.484  1.00  0.00     0.064 C 
ATOM     10  O   UNL     1       9.039 -17.348  20.721  1.00  0.00    -0.545 OA
ATOM     11  O   UNL     1       9.299 -19.443  19.840  1.00  0.00    -0.545 OA
ENDBRANCH   8   9
ENDBRANCH   1   7
BRANCH   6  12
ATOM     12  O   UNL     1      17.683 -17.926  21.549  1.00  0.00    -0.508 OA
ATOM     13  H   UNL     1      18.434 -17.818  20.878  1.00  0.00     0.293 HD
ENDBRANCH   6  12
TORSDOF 3
ENDMDL
MODEL 6
REMARK VINA RESULT:    -3.781     13.351     14.227
REMARK INTER + INTRA:          -4.472
REMARK INTER:                  -4.339
REMARK INTRA:                  -0.133
REMARK UNBOUND:                -0.139
REMARK SMILES O=C([O-])C=Cc1ccc(O)cc1
REMARK SMILES IDX 6 1 7 2 12 3 8 4 11 5 9 6 5 7 4 8 2 9 1 10 3 11 10 12
REMARK H PARENT 10 13
REMARK Flexibility Score: inf
ROOT
ATOM      1  C   UNL     1      12.553 -17.849  19.891  1.00  0.00    -0.025 A 
ATOM      2  C   UNL     1      11.518 -18.280  20.738  1.00  0.00     0.012 A 
ATOM      3  C   UNL     1      12.332 -17.840  18.499  1.00  0.00     0.012 A 
ATOM      4  C   UNL     1      10.300 -18.717  20.209  1.00  0.00     0.047 A 
ATOM      5  C   UNL     1      11.112 -18.277  17.973  1.00  0.00     0.047 A 
ATOM      6  C   UNL     1      10.094 -18.719  18.827  1.00  0.00     0.115 A 
ENDROOT
BRANCH   1   7
ATOM      7  C   UNL     1      13.824 -17.385  20.501  1.00  0.00     0.010 C 
ATOM      8  C   UNL     1      15.037 -17.719  20.040  1.00  0.00     0.025 C 
BRANCH   8   9
ATOM      9  C   UNL     1      16.277 -17.247  20.679  1.00  0.00     0.064 C 
ATOM     10  O   UNL     1      16.769 -16.121  20.399  1.00  0.00    -0.545 OA
ATOM     11  O   UNL     1      16.918 -18.058  21.606  1.00  0.00    -0.545 OA
ENDBRANCH   8   9
ENDBRANCH   1   7
BRANCH   6  12
ATOM     12  O   UNL     1       8.875 -19.157  18.313  1.00  0.00    -0.508 OA
ATOM     13  H   UNL     1       8.830 -19.836  17.563  1.00  0.00     0.293 HD
ENDBRANCH   6  12
TORSDOF 3
ENDMDL
MODEL 7
REMARK VINA RESULT:    -3.660     13.482     14.314
REMARK INTER + INTRA:          -4.334
REMARK INTER:                  -4.197
REMARK INTRA:                  -0.138
REMARK UNBOUND:                -0.139
REMARK SMILES O=C([O-])C=Cc1ccc(O)cc1
REMARK SMILES IDX 6 1 7 2 12 3 8 4 11 5 9 6 5 7 4 8 2 9 1 10 3 11 10 12
REMARK H PARENT 10 13
REMARK Flexibility Score: inf
ROOT
ATOM      1  C   UNL     1      13.805 -17.846  20.040  1.00  0.00    -0.025 A 
ATOM      2  C   UNL     1      13.403 -17.768  18.696  1.00  0.00     0.012 A 
ATOM      3  C   UNL     1      12.830 -18.089  21.028  1.00  0.00     0.012 A 
ATOM      4  C   UNL     1      12.057 -17.904  18.347  1.00  0.00     0.047 A 
ATOM      5  C   UNL     1      11.483 -18.225  20.675  1.00  0.00     0.047 A 
ATOM      6  C   UNL     1      11.093 -18.130  19.333  1.00  0.00     0.115 A 
ENDROOT
BRANCH   1   7
ATOM      7  C   UNL     1      15.248 -17.705  20.360  1.00  0.00     0.010 C 
ATOM      8  C   UNL     1      15.717 -17.442  21.587  1.00  0.00     0.025 C 
BRANCH   8   9
ATOM      9  C   UNL     1      17.157 -17.299  21.864  1.00  0.00     0.064 C 
ATOM     10  O   UNL     1      17.751 -16.203  21.681  1.00  0.00    -0.545 OA
ATOM     11  O   UNL     1      17.873 -18.391  22.334  1.00  0.00    -0.545 OA
ENDBRANCH   8   9
ENDBRANCH   1   7
BRANCH   6  12
ATOM     12  O   UNL     1       9.754 -18.263  18.971  1.00  0.00    -0.508 OA
ATOM     13  H   UNL     1       9.026 -17.726  19.427  1.00  0.00     0.293 HD
ENDBRANCH   6  12
TORSDOF 3
ENDMDL
MODEL 8
REMARK VINA RESULT:    -3.612      8.011     10.760
REMARK INTER + INTRA:          -4.278
REMARK INTER:                  -4.144
REMARK INTRA:                  -0.134
REMARK UNBOUND:                -0.139
REMARK SMILES O=C([O-])C=Cc1ccc(O)cc1
REMARK SMILES IDX 6 1 7 2 12 3 8 4 11 5 9 6 5 7 4 8 2 9 1 10 3 11 10 12
REMARK H PARENT 10 13
REMARK Flexibility Score: inf
ROOT
ATOM      1  C   UNL     1      18.591 -12.264  19.256  1.00  0.00    -0.025 A 
ATOM      2  C   UNL     1      19.667 -11.850  20.058  1.00  0.00     0.012 A 
ATOM      3  C   UNL     1      17.987 -11.327  18.393  1.00  0.00     0.012 A 
ATOM      4  C   UNL     1      20.117 -10.528  20.020  1.00  0.00     0.047 A 
ATOM      5  C   UNL     1      18.441 -10.004  18.356  1.00  0.00     0.047 A 
ATOM      6  C   UNL     1      19.505  -9.600  19.173  1.00  0.00     0.115 A 
ENDROOT
BRANCH   1   7
ATOM      7  C   UNL     1      18.156 -13.681  19.325  1.00  0.00     0.010 C 
ATOM      8  C   UNL     1      16.876 -14.073  19.264  1.00  0.00     0.025 C 
BRANCH   8   9
ATOM      9  C   UNL     1      16.482 -15.489  19.347  1.00  0.00     0.064 C 
ATOM     10  O   UNL     1      16.604 -16.140  20.419  1.00  0.00    -0.545 OA
ATOM     11  O   UNL     1      15.969 -16.121  18.222  1.00  0.00    -0.545 OA
ENDBRANCH   8   9
ENDBRANCH   1   7
BRANCH   6  12
ATOM     12  O   UNL     1      19.963  -8.285  19.145  1.00  0.00    -0.508 OA
ATOM     13  H   UNL     1      19.587  -7.580  19.767  1.00  0.00     0.293 HD
ENDBRANCH   6  12
TORSDOF 3
ENDMDL
MODEL 9
REMARK VINA RESULT:    -3.609     13.707     14.601
REMARK INTER + INTRA:          -4.275
REMARK INTER:                  -4.124
REMARK INTRA:                  -0.151
REMARK UNBOUND:                -0.139
REMARK SMILES O=C([O-])C=Cc1ccc(O)cc1
REMARK SMILES IDX 6 1 7 2 12 3 8 4 11 5 9 6 5 7 4 8 2 9 1 10 3 11 10 12
REMARK H PARENT 10 13
REMARK Flexibility Score: inf
ROOT
ATOM      1  C   UNL     1      13.677 -17.940  20.191  1.00  0.00    -0.025 A 
ATOM      2  C   UNL     1      14.743 -18.102  19.292  1.00  0.00     0.012 A 
ATOM      3  C   UNL     1      13.961 -17.810  21.566  1.00  0.00     0.012 A 
ATOM      4  C   UNL     1      16.061 -18.159  19.752  1.00  0.00     0.047 A 
ATOM      5  C   UNL     1      15.281 -17.867  22.024  1.00  0.00     0.047 A 
ATOM      6  C   UNL     1      16.335 -18.045  21.118  1.00  0.00     0.115 A 
ENDROOT
BRANCH   1   7
ATOM      7  C   UNL     1      12.295 -17.875  19.652  1.00  0.00     0.010 C 
ATOM      8  C   UNL     1      11.996 -17.995  18.351  1.00  0.00     0.025 C 
BRANCH   8   9
ATOM      9  C   UNL     1      10.612 -17.914  17.852  1.00  0.00     0.064 C 
ATOM     10  O   UNL     1       9.992 -18.944  17.477  1.00  0.00    -0.545 OA
ATOM     11  O   UNL     1       9.980 -16.679  17.794  1.00  0.00    -0.545 OA
ENDBRANCH   8   9
ENDBRANCH   1   7
BRANCH   6  12
ATOM     12  O   UNL     1      17.653 -18.104  21.564  1.00  0.00    -0.508 OA
ATOM     13  H   UNL     1      18.411 -17.693  21.033  1.00  0.00     0.293 HD
ENDBRANCH   6  12
TORSDOF 3
ENDMDL
