MODEL 1
REMARK VINA RESULT:    -8.231      0.000      0.000
REMARK INTER + INTRA:         -10.184
REMARK INTER:                  -9.916
REMARK INTRA:                  -0.269
REMARK UNBOUND:                -0.269
REMARK SMILES O=c1c(O)c(-c2ccc(O)c(O)c2)oc2cc(O)cc(O)c12
REMARK SMILES IDX 5 1 3 2 2 3 1 4 22 5 20 6 19 7 17 8 16 9 15 10 14 11 6 12
REMARK SMILES IDX 7 13 8 14 9 15 13 16 11 17 10 18 12 20 4 22 21 24 18 26
REMARK H PARENT 10 19 12 21 4 23 21 25 18 27
REMARK Flexibility Score: inf
ROOT
ATOM      1  C   UNL     1      96.641 101.055  99.038  1.00  0.00     0.180 A 
ATOM      2  C   UNL     1      96.058 100.762 100.282  1.00  0.00     0.208 A 
ATOM      3  C   UNL     1      96.072 101.740 101.290  1.00  0.00     0.238 A 
ATOM      4  O   UNL     1      95.501 101.491 102.383  1.00  0.00    -0.285 OA
ATOM      5  C   UNL     1      96.682 102.994 101.044  1.00  0.00     0.111 A 
ATOM      6  C   UNL     1      96.789 104.045 102.004  1.00  0.00     0.134 A 
ATOM      7  C   UNL     1      97.295 105.290 101.613  1.00  0.00     0.093 A 
ATOM      8  C   UNL     1      97.759 105.502 100.312  1.00  0.00     0.123 A 
ATOM      9  C   UNL     1      97.715 104.463  99.384  1.00  0.00     0.094 A 
ATOM     10  C   UNL     1      97.181 103.221  99.735  1.00  0.00     0.146 A 
ATOM     11  O   UNL     1      97.147 102.263  98.818  1.00  0.00    -0.452 OA
ENDROOT
BRANCH   1  12
ATOM     12  C   UNL     1      96.688 100.066  97.937  1.00  0.00     0.025 A 
ATOM     13  C   UNL     1      95.546  99.767  97.173  1.00  0.00     0.016 A 
ATOM     14  C   UNL     1      95.608  98.812  96.155  1.00  0.00     0.051 A 
ATOM     15  C   UNL     1      96.804  98.133  95.893  1.00  0.00     0.157 A 
ATOM     16  C   UNL     1      97.880  99.368  97.685  1.00  0.00     0.062 A 
ATOM     17  C   UNL     1      97.946  98.411  96.664  1.00  0.00     0.158 A 
BRANCH  15  18
ATOM     18  O   UNL     1      96.863  97.184  94.875  1.00  0.00    -0.504 OA
ATOM     19  H   UNL     1      96.157  97.138  94.149  1.00  0.00     0.293 HD
ENDBRANCH  15  18
BRANCH  17  20
ATOM     20  O   UNL     1      99.151  97.748  96.434  1.00  0.00    -0.504 OA
ATOM     21  H   UNL     1      99.897  97.734  97.120  1.00  0.00     0.293 HD
ENDBRANCH  17  20
ENDBRANCH   1  12
BRANCH   2  22
ATOM     22  O   UNL     1      95.443  99.524 100.496  1.00  0.00    -0.502 OA
ATOM     23  H   UNL     1      95.823  98.658 100.133  1.00  0.00     0.293 HD
ENDBRANCH   2  22
BRANCH   6  24
ATOM     24  O   UNL     1      96.439 103.909 103.351  1.00  0.00    -0.507 OA
ATOM     25  H   UNL     1      96.575 103.073 103.899  1.00  0.00     0.293 HD
ENDBRANCH   6  24
BRANCH   8  26
ATOM     26  O   UNL     1      98.277 106.739  99.934  1.00  0.00    -0.508 OA
ATOM     27  H   UNL     1      97.774 107.600 100.111  1.00  0.00     0.293 HD
ENDBRANCH   8  26
TORSDOF 6
ENDMDL
MODEL 2
REMARK VINA RESULT:    -7.329      1.697      6.611
REMARK INTER + INTRA:          -9.098
REMARK INTER:                  -8.844
REMARK INTRA:                  -0.254
REMARK UNBOUND:                -0.269
REMARK SMILES O=c1c(O)c(-c2ccc(O)c(O)c2)oc2cc(O)cc(O)c12
REMARK SMILES IDX 5 1 3 2 2 3 1 4 22 5 20 6 19 7 17 8 16 9 15 10 14 11 6 12
REMARK SMILES IDX 7 13 8 14 9 15 13 16 11 17 10 18 12 20 4 22 21 24 18 26
REMARK H PARENT 10 19 12 21 4 23 21 25 18 27
REMARK Flexibility Score: inf
ROOT
ATOM      1  C   UNL     1      96.790 101.160  99.625  1.00  0.00     0.180 A 
ATOM      2  C   UNL     1      95.905 100.290 100.284  1.00  0.00     0.208 A 
ATOM      3  C   UNL     1      95.626  99.039  99.711  1.00  0.00     0.238 A 
ATOM      4  O   UNL     1      94.875  98.243 100.331  1.00  0.00    -0.285 OA
ATOM      5  C   UNL     1      96.224  98.680  98.478  1.00  0.00     0.111 A 
ATOM      6  C   UNL     1      95.983  97.455  97.787  1.00  0.00     0.134 A 
ATOM      7  C   UNL     1      96.728  97.149  96.642  1.00  0.00     0.093 A 
ATOM      8  C   UNL     1      97.661  98.053  96.127  1.00  0.00     0.123 A 
ATOM      9  C   UNL     1      97.860  99.277  96.761  1.00  0.00     0.094 A 
ATOM     10  C   UNL     1      97.157  99.596  97.926  1.00  0.00     0.146 A 
ATOM     11  O   UNL     1      97.386 100.767  98.505  1.00  0.00    -0.452 OA
ENDROOT
BRANCH   1  12
ATOM     12  C   UNL     1      97.114 102.504 100.155  1.00  0.00     0.025 A 
ATOM     13  C   UNL     1      96.173 103.549 100.125  1.00  0.00     0.016 A 
ATOM     14  C   UNL     1      96.510 104.816 100.608  1.00  0.00     0.051 A 
ATOM     15  C   UNL     1      97.791 105.063 101.114  1.00  0.00     0.157 A 
ATOM     16  C   UNL     1      98.405 102.762 100.644  1.00  0.00     0.062 A 
ATOM     17  C   UNL     1      98.745 104.031 101.131  1.00  0.00     0.158 A 
BRANCH  15  18
ATOM     18  O   UNL     1      98.122 106.328 101.598  1.00  0.00    -0.504 OA
ATOM     19  H   UNL     1      97.581 107.149 101.352  1.00  0.00     0.293 HD
ENDBRANCH  15  18
BRANCH  17  20
ATOM     20  O   UNL     1     100.032 104.246 101.622  1.00  0.00    -0.504 OA
ATOM     21  H   UNL     1     100.203 104.764 102.476  1.00  0.00     0.293 HD
ENDBRANCH  17  20
ENDBRANCH   1  12
BRANCH   2  22
ATOM     22  O   UNL     1      95.342 100.656 101.510  1.00  0.00    -0.502 OA
ATOM     23  H   UNL     1      94.883 101.548 101.653  1.00  0.00     0.293 HD
ENDBRANCH   2  22
BRANCH   6  24
ATOM     24  O   UNL     1      95.009  96.525  98.165  1.00  0.00    -0.507 OA
ATOM     25  H   UNL     1      95.202  95.639  98.607  1.00  0.00     0.293 HD
ENDBRANCH   6  24
BRANCH   8  26
ATOM     26  O   UNL     1      98.387  97.749  94.978  1.00  0.00    -0.508 OA
ATOM     27  H   UNL     1      98.737  98.475  94.364  1.00  0.00     0.293 HD
ENDBRANCH   8  26
TORSDOF 6
ENDMDL
MODEL 3
REMARK VINA RESULT:    -7.024      1.285      2.877
REMARK INTER + INTRA:          -8.730
REMARK INTER:                  -8.538
REMARK INTRA:                  -0.191
REMARK UNBOUND:                -0.269
REMARK SMILES O=c1c(O)c(-c2ccc(O)c(O)c2)oc2cc(O)cc(O)c12
REMARK SMILES IDX 5 1 3 2 2 3 1 4 22 5 20 6 19 7 17 8 16 9 15 10 14 11 6 12
REMARK SMILES IDX 7 13 8 14 9 15 13 16 11 17 10 18 12 20 4 22 21 24 18 26
REMARK H PARENT 10 19 12 21 4 23 21 25 18 27
REMARK Flexibility Score: inf
ROOT
ATOM      1  C   UNL     1      96.587 101.295  98.632  1.00  0.00     0.180 A 
ATOM      2  C   UNL     1      97.282 102.477  98.326  1.00  0.00     0.208 A 
ATOM      3  C   UNL     1      97.407 103.469  99.312  1.00  0.00     0.238 A 
ATOM      4  O   UNL     1      98.076 104.501  99.050  1.00  0.00    -0.285 OA
ATOM      5  C   UNL     1      96.821 103.272 100.586  1.00  0.00     0.111 A 
ATOM      6  C   UNL     1      96.852 104.226 101.648  1.00  0.00     0.134 A 
ATOM      7  C   UNL     1      96.354 103.874 102.908  1.00  0.00     0.093 A 
ATOM      8  C   UNL     1      95.768 102.625 103.127  1.00  0.00     0.123 A 
ATOM      9  C   UNL     1      95.680 101.709 102.081  1.00  0.00     0.094 A 
ATOM     10  C   UNL     1      96.200 102.018 100.822  1.00  0.00     0.146 A 
ATOM     11  O   UNL     1      96.106 101.113  99.856  1.00  0.00    -0.452 OA
ENDROOT
BRANCH   1  12
ATOM     12  C   UNL     1      96.392 100.215  97.637  1.00  0.00     0.025 A 
ATOM     13  C   UNL     1      95.116  99.901  97.137  1.00  0.00     0.016 A 
ATOM     14  C   UNL     1      94.954  98.862  96.218  1.00  0.00     0.051 A 
ATOM     15  C   UNL     1      96.059  98.112  95.794  1.00  0.00     0.157 A 
ATOM     16  C   UNL     1      97.494  99.448  97.226  1.00  0.00     0.062 A 
ATOM     17  C   UNL     1      97.335  98.406  96.303  1.00  0.00     0.158 A 
BRANCH  15  18
ATOM     18  O   UNL     1      95.894  97.079  94.875  1.00  0.00    -0.504 OA
ATOM     19  H   UNL     1      95.069  97.015  94.289  1.00  0.00     0.293 HD
ENDBRANCH  15  18
BRANCH  17  20
ATOM     20  O   UNL     1      98.455  97.675  95.908  1.00  0.00    -0.504 OA
ATOM     21  H   UNL     1      99.393  97.934  96.189  1.00  0.00     0.293 HD
ENDBRANCH  17  20
ENDBRANCH   1  12
BRANCH   2  22
ATOM     22  O   UNL     1      97.870 102.641  97.068  1.00  0.00    -0.502 OA
ATOM     23  H   UNL     1      97.816 101.933  96.346  1.00  0.00     0.293 HD
ENDBRANCH   2  22
BRANCH   6  24
ATOM     24  O   UNL     1      97.330 105.533 101.509  1.00  0.00    -0.507 OA
ATOM     25  H   UNL     1      97.713 105.917 100.659  1.00  0.00     0.293 HD
ENDBRANCH   6  24
BRANCH   8  26
ATOM     26  O   UNL     1      95.260 102.287 104.380  1.00  0.00    -0.508 OA
ATOM     27  H   UNL     1      94.831 101.385 104.552  1.00  0.00     0.293 HD
ENDBRANCH   8  26
TORSDOF 6
ENDMDL
MODEL 4
REMARK VINA RESULT:    -6.951      1.383      6.706
REMARK INTER + INTRA:          -8.642
REMARK INTER:                  -9.175
REMARK INTRA:                   0.534
REMARK UNBOUND:                -0.269
REMARK SMILES O=c1c(O)c(-c2ccc(O)c(O)c2)oc2cc(O)cc(O)c12
REMARK SMILES IDX 5 1 3 2 2 3 1 4 22 5 20 6 19 7 17 8 16 9 15 10 14 11 6 12
REMARK SMILES IDX 7 13 8 14 9 15 13 16 11 17 10 18 12 20 4 22 21 24 18 26
REMARK H PARENT 10 19 12 21 4 23 21 25 18 27
REMARK Flexibility Score: inf
ROOT
ATOM      1  C   UNL     1      96.864 101.691  99.091  1.00  0.00     0.180 A 
ATOM      2  C   UNL     1      95.960 100.989  99.906  1.00  0.00     0.208 A 
ATOM      3  C   UNL     1      95.642  99.660  99.583  1.00  0.00     0.238 A 
ATOM      4  O   UNL     1      94.875  99.019 100.347  1.00  0.00    -0.285 OA
ATOM      5  C   UNL     1      96.221  99.056  98.441  1.00  0.00     0.111 A 
ATOM      6  C   UNL     1      95.940  97.728  97.997  1.00  0.00     0.134 A 
ATOM      7  C   UNL     1      96.668  97.188  96.930  1.00  0.00     0.093 A 
ATOM      8  C   UNL     1      97.620  97.951  96.249  1.00  0.00     0.123 A 
ATOM      9  C   UNL     1      97.858  99.267  96.637  1.00  0.00     0.094 A 
ATOM     10  C   UNL     1      97.174  99.822  97.721  1.00  0.00     0.146 A 
ATOM     11  O   UNL     1      97.439 101.076  98.065  1.00  0.00    -0.452 OA
ENDROOT
BRANCH   1  12
ATOM     12  C   UNL     1      97.228 103.103  99.353  1.00  0.00     0.025 A 
ATOM     13  C   UNL     1      98.281 103.727  98.662  1.00  0.00     0.016 A 
ATOM     14  C   UNL     1      98.623 105.053  98.944  1.00  0.00     0.051 A 
ATOM     15  C   UNL     1      97.929 105.769  99.927  1.00  0.00     0.157 A 
ATOM     16  C   UNL     1      96.549 103.818 100.353  1.00  0.00     0.062 A 
ATOM     17  C   UNL     1      96.888 105.147 100.637  1.00  0.00     0.158 A 
BRANCH  15  18
ATOM     18  O   UNL     1      98.271 107.091 100.203  1.00  0.00    -0.504 OA
ATOM     19  H   UNL     1      99.051 107.323 100.807  1.00  0.00     0.293 HD
ENDBRANCH  15  18
BRANCH  17  20
ATOM     20  O   UNL     1      96.182 105.829 101.627  1.00  0.00    -0.504 OA
ATOM     21  H   UNL     1      95.354 105.440 102.062  1.00  0.00     0.293 HD
ENDBRANCH  17  20
ENDBRANCH   1  12
BRANCH   2  22
ATOM     22  O   UNL     1      95.417 101.599 101.041  1.00  0.00    -0.502 OA
ATOM     23  H   UNL     1      95.794 101.451 101.970  1.00  0.00     0.293 HD
ENDBRANCH   2  22
BRANCH   6  24
ATOM     24  O   UNL     1      94.945  96.915  98.548  1.00  0.00    -0.507 OA
ATOM     25  H   UNL     1      94.548  96.106  98.096  1.00  0.00     0.293 HD
ENDBRANCH   6  24
BRANCH   8  26
ATOM     26  O   UNL     1      98.329  97.412  95.177  1.00  0.00    -0.508 OA
ATOM     27  H   UNL     1      98.408  96.410  95.045  1.00  0.00     0.293 HD
ENDBRANCH   8  26
TORSDOF 6
ENDMDL
MODEL 5
REMARK VINA RESULT:    -6.717      2.997      7.997
REMARK INTER + INTRA:          -8.360
REMARK INTER:                  -8.103
REMARK INTRA:                  -0.258
REMARK UNBOUND:                -0.269
REMARK SMILES O=c1c(O)c(-c2ccc(O)c(O)c2)oc2cc(O)cc(O)c12
REMARK SMILES IDX 5 1 3 2 2 3 1 4 22 5 20 6 19 7 17 8 16 9 15 10 14 11 6 12
REMARK SMILES IDX 7 13 8 14 9 15 13 16 11 17 10 18 12 20 4 22 21 24 18 26
REMARK H PARENT 10 19 12 21 4 23 21 25 18 27
REMARK Flexibility Score: inf
ROOT
ATOM      1  C   UNL     1      97.730 105.720 100.769  1.00  0.00     0.180 A 
ATOM      2  C   UNL     1      98.951 105.154 101.172  1.00  0.00     0.208 A 
ATOM      3  C   UNL     1      99.122 103.763 101.076  1.00  0.00     0.238 A 
ATOM      4  O   UNL     1     100.236 103.268 101.387  1.00  0.00    -0.285 OA
ATOM      5  C   UNL     1      98.065 102.956 100.591  1.00  0.00     0.111 A 
ATOM      6  C   UNL     1      98.114 101.533 100.487  1.00  0.00     0.134 A 
ATOM      7  C   UNL     1      97.059 100.848  99.871  1.00  0.00     0.093 A 
ATOM      8  C   UNL     1      95.928 101.529  99.414  1.00  0.00     0.123 A 
ATOM      9  C   UNL     1      95.845 102.912  99.566  1.00  0.00     0.094 A 
ATOM     10  C   UNL     1      96.897 103.627 100.143  1.00  0.00     0.146 A 
ATOM     11  O   UNL     1      96.782 104.944 100.257  1.00  0.00    -0.452 OA
ENDROOT
BRANCH   1  12
ATOM     12  C   UNL     1      97.466 107.174 100.865  1.00  0.00     0.025 A 
ATOM     13  C   UNL     1      97.504 108.002  99.730  1.00  0.00     0.016 A 
ATOM     14  C   UNL     1      97.276 109.375  99.849  1.00  0.00     0.051 A 
ATOM     15  C   UNL     1      97.020 109.944 101.102  1.00  0.00     0.157 A 
ATOM     16  C   UNL     1      97.230 107.752 102.124  1.00  0.00     0.062 A 
ATOM     17  C   UNL     1      97.000 109.128 102.246  1.00  0.00     0.158 A 
BRANCH  15  18
ATOM     18  O   UNL     1      96.791 111.314 101.217  1.00  0.00    -0.504 OA
ATOM     19  H   UNL     1      97.053 111.960 100.481  1.00  0.00     0.293 HD
ENDBRANCH  15  18
BRANCH  17  20
ATOM     20  O   UNL     1      96.755 109.664 103.510  1.00  0.00    -0.504 OA
ATOM     21  H   UNL     1      97.229 109.324 104.339  1.00  0.00     0.293 HD
ENDBRANCH  17  20
ENDBRANCH   1  12
BRANCH   2  22
ATOM     22  O   UNL     1      99.989 105.972 101.629  1.00  0.00    -0.502 OA
ATOM     23  H   UNL     1     100.317 105.949 102.587  1.00  0.00     0.293 HD
ENDBRANCH   2  22
BRANCH   6  24
ATOM     24  O   UNL     1      99.155 100.749 100.994  1.00  0.00    -0.507 OA
ATOM     25  H   UNL     1      99.058 100.078 101.740  1.00  0.00     0.293 HD
ENDBRANCH   6  24
BRANCH   8  26
ATOM     26  O   UNL     1      94.875 100.839  98.817  1.00  0.00    -0.508 OA
ATOM     27  H   UNL     1      95.040 100.065  98.184  1.00  0.00     0.293 HD
ENDBRANCH   8  26
TORSDOF 6
ENDMDL
MODEL 6
REMARK VINA RESULT:    -6.141      1.774      2.333
REMARK INTER + INTRA:          -7.666
REMARK INTER:                  -7.523
REMARK INTRA:                  -0.143
REMARK UNBOUND:                -0.269
REMARK SMILES O=c1c(O)c(-c2ccc(O)c(O)c2)oc2cc(O)cc(O)c12
REMARK SMILES IDX 5 1 3 2 2 3 1 4 22 5 20 6 19 7 17 8 16 9 15 10 14 11 6 12
REMARK SMILES IDX 7 13 8 14 9 15 13 16 11 17 10 18 12 20 4 22 21 24 18 26
REMARK H PARENT 10 19 12 21 4 23 21 25 18 27
REMARK Flexibility Score: inf
ROOT
ATOM      1  C   UNL     1      96.735 100.627  98.491  1.00  0.00     0.180 A 
ATOM      2  C   UNL     1      95.761 101.630  98.362  1.00  0.00     0.208 A 
ATOM      3  C   UNL     1      95.714 102.661  99.314  1.00  0.00     0.238 A 
ATOM      4  O   UNL     1      94.875 103.586  99.164  1.00  0.00    -0.285 OA
ATOM      5  C   UNL     1      96.634 102.666 100.391  1.00  0.00     0.111 A 
ATOM      6  C   UNL     1      96.653 103.639 101.436  1.00  0.00     0.134 A 
ATOM      7  C   UNL     1      97.688 103.622 102.378  1.00  0.00     0.093 A 
ATOM      8  C   UNL     1      98.668 102.626 102.352  1.00  0.00     0.123 A 
ATOM      9  C   UNL     1      98.623 101.637 101.372  1.00  0.00     0.094 A 
ATOM     10  C   UNL     1      97.624 101.649 100.396  1.00  0.00     0.146 A 
ATOM     11  O   UNL     1      97.624 100.695  99.474  1.00  0.00    -0.452 OA
ENDROOT
BRANCH   1  12
ATOM     12  C   UNL     1      96.831  99.495  97.541  1.00  0.00     0.025 A 
ATOM     13  C   UNL     1      95.760  98.603  97.355  1.00  0.00     0.016 A 
ATOM     14  C   UNL     1      95.882  97.527  96.471  1.00  0.00     0.051 A 
ATOM     15  C   UNL     1      97.076  97.318  95.771  1.00  0.00     0.157 A 
ATOM     16  C   UNL     1      98.034  99.269  96.852  1.00  0.00     0.062 A 
ATOM     17  C   UNL     1      98.159  98.193  95.964  1.00  0.00     0.158 A 
BRANCH  15  18
ATOM     18  O   UNL     1      97.193  96.246  94.888  1.00  0.00    -0.504 OA
ATOM     19  H   UNL     1      96.830  96.294  93.943  1.00  0.00     0.293 HD
ENDBRANCH  15  18
BRANCH  17  20
ATOM     20  O   UNL     1      99.364  98.009  95.288  1.00  0.00    -0.504 OA
ATOM     21  H   UNL     1      99.754  97.088  95.123  1.00  0.00     0.293 HD
ENDBRANCH  17  20
ENDBRANCH   1  12
BRANCH   2  22
ATOM     22  O   UNL     1      94.877 101.617  97.279  1.00  0.00    -0.502 OA
ATOM     23  H   UNL     1      95.137 101.257  96.368  1.00  0.00     0.293 HD
ENDBRANCH   2  22
BRANCH   6  24
ATOM     24  O   UNL     1      95.671 104.620 101.606  1.00  0.00    -0.507 OA
ATOM     25  H   UNL     1      95.274 105.172 100.861  1.00  0.00     0.293 HD
ENDBRANCH   6  24
BRANCH   8  26
ATOM     26  O   UNL     1      99.686 102.605 103.303  1.00  0.00    -0.508 OA
ATOM     27  H   UNL     1     100.241 103.429 103.503  1.00  0.00     0.293 HD
ENDBRANCH   8  26
TORSDOF 6
ENDMDL
MODEL 7
REMARK VINA RESULT:    -5.997      3.574      7.686
REMARK INTER + INTRA:          -7.493
REMARK INTER:                  -7.205
REMARK INTRA:                  -0.287
REMARK UNBOUND:                -0.269
REMARK SMILES O=c1c(O)c(-c2ccc(O)c(O)c2)oc2cc(O)cc(O)c12
REMARK SMILES IDX 5 1 3 2 2 3 1 4 22 5 20 6 19 7 17 8 16 9 15 10 14 11 6 12
REMARK SMILES IDX 7 13 8 14 9 15 13 16 11 17 10 18 12 20 4 22 21 24 18 26
REMARK H PARENT 10 19 12 21 4 23 21 25 18 27
REMARK Flexibility Score: inf
ROOT
ATOM      1  C   UNL     1      97.298 105.457 101.093  1.00  0.00     0.180 A 
ATOM      2  C   UNL     1      96.114 104.705 101.174  1.00  0.00     0.208 A 
ATOM      3  C   UNL     1      96.197 103.304 101.214  1.00  0.00     0.238 A 
ATOM      4  O   UNL     1      95.138 102.638 101.341  1.00  0.00    -0.285 OA
ATOM      5  C   UNL     1      97.464 102.673 101.157  1.00  0.00     0.111 A 
ATOM      6  C   UNL     1      97.665 101.259 101.151  1.00  0.00     0.134 A 
ATOM      7  C   UNL     1      98.965 100.746 101.224  1.00  0.00     0.093 A 
ATOM      8  C   UNL     1     100.075 101.595 101.238  1.00  0.00     0.123 A 
ATOM      9  C   UNL     1      99.890 102.975 101.184  1.00  0.00     0.094 A 
ATOM     10  C   UNL     1      98.603 103.518 101.147  1.00  0.00     0.146 A 
ATOM     11  O   UNL     1      98.472 104.837 101.108  1.00  0.00    -0.452 OA
ENDROOT
BRANCH   1  12
ATOM     12  C   UNL     1      97.288 106.936 101.022  1.00  0.00     0.025 A 
ATOM     13  C   UNL     1      97.498 107.612  99.807  1.00  0.00     0.016 A 
ATOM     14  C   UNL     1      97.510 109.008  99.769  1.00  0.00     0.051 A 
ATOM     15  C   UNL     1      97.326 109.750 100.942  1.00  0.00     0.157 A 
ATOM     16  C   UNL     1      97.125 107.684 102.199  1.00  0.00     0.062 A 
ATOM     17  C   UNL     1      97.134 109.084 102.164  1.00  0.00     0.158 A 
BRANCH  15  18
ATOM     18  O   UNL     1      97.334 111.143 100.899  1.00  0.00    -0.504 OA
ATOM     19  H   UNL     1      97.580 111.647 100.055  1.00  0.00     0.293 HD
ENDBRANCH  15  18
BRANCH  17  20
ATOM     20  O   UNL     1      96.955 109.792 103.352  1.00  0.00    -0.504 OA
ATOM     21  H   UNL     1      97.724 109.993 103.980  1.00  0.00     0.293 HD
ENDBRANCH  17  20
ENDBRANCH   1  12
BRANCH   2  22
ATOM     22  O   UNL     1      94.875 105.349 101.250  1.00  0.00    -0.502 OA
ATOM     23  H   UNL     1      94.688 106.224 100.776  1.00  0.00     0.293 HD
ENDBRANCH   2  22
BRANCH   6  24
ATOM     24  O   UNL     1      96.630 100.324 101.046  1.00  0.00    -0.507 OA
ATOM     25  H   UNL     1      95.708 100.525 100.692  1.00  0.00     0.293 HD
ENDBRANCH   6  24
BRANCH   8  26
ATOM     26  O   UNL     1     101.367 101.077 101.295  1.00  0.00    -0.508 OA
ATOM     27  H   UNL     1     101.894 101.062 102.160  1.00  0.00     0.293 HD
ENDBRANCH   8  26
TORSDOF 6
ENDMDL
MODEL 8
REMARK VINA RESULT:    -5.816      1.786      7.089
REMARK INTER + INTRA:          -7.274
REMARK INTER:                  -7.818
REMARK INTRA:                   0.544
REMARK UNBOUND:                -0.269
REMARK SMILES O=c1c(O)c(-c2ccc(O)c(O)c2)oc2cc(O)cc(O)c12
REMARK SMILES IDX 5 1 3 2 2 3 1 4 22 5 20 6 19 7 17 8 16 9 15 10 14 11 6 12
REMARK SMILES IDX 7 13 8 14 9 15 13 16 11 17 10 18 12 20 4 22 21 24 18 26
REMARK H PARENT 10 19 12 21 4 23 21 25 18 27
REMARK Flexibility Score: inf
ROOT
ATOM      1  C   UNL     1      96.754 104.274 100.376  1.00  0.00     0.180 A 
ATOM      2  C   UNL     1      96.374 103.570 101.531  1.00  0.00     0.208 A 
ATOM      3  C   UNL     1      96.126 102.191 101.439  1.00  0.00     0.238 A 
ATOM      4  O   UNL     1      95.839 101.557 102.486  1.00  0.00    -0.285 OA
ATOM      5  C   UNL     1      96.246 101.537 100.189  1.00  0.00     0.111 A 
ATOM      6  C   UNL     1      95.981 100.151  99.970  1.00  0.00     0.134 A 
ATOM      7  C   UNL     1      96.259  99.583  98.722  1.00  0.00     0.093 A 
ATOM      8  C   UNL     1      96.731 100.364  97.664  1.00  0.00     0.123 A 
ATOM      9  C   UNL     1      96.936 101.730  97.850  1.00  0.00     0.094 A 
ATOM     10  C   UNL     1      96.703 102.319  99.095  1.00  0.00     0.146 A 
ATOM     11  O   UNL     1      96.922 103.620  99.233  1.00  0.00    -0.452 OA
ENDROOT
BRANCH   1  12
ATOM     12  C   UNL     1      97.008 105.733 100.390  1.00  0.00     0.025 A 
ATOM     13  C   UNL     1      97.544 106.394  99.271  1.00  0.00     0.016 A 
ATOM     14  C   UNL     1      97.798 107.767  99.316  1.00  0.00     0.051 A 
ATOM     15  C   UNL     1      97.534 108.498 100.481  1.00  0.00     0.157 A 
ATOM     16  C   UNL     1      96.764 106.466 101.563  1.00  0.00     0.062 A 
ATOM     17  C   UNL     1      97.016 107.843 101.611  1.00  0.00     0.158 A 
BRANCH  15  18
ATOM     18  O   UNL     1      97.785 109.868 100.521  1.00  0.00    -0.504 OA
ATOM     19  H   UNL     1      97.829 110.425  99.676  1.00  0.00     0.293 HD
ENDBRANCH  15  18
BRANCH  17  20
ATOM     20  O   UNL     1      96.748 108.539 102.789  1.00  0.00    -0.504 OA
ATOM     21  H   UNL     1      96.107 109.324 102.816  1.00  0.00     0.293 HD
ENDBRANCH  17  20
ENDBRANCH   1  12
BRANCH   2  22
ATOM     22  O   UNL     1      96.282 104.232 102.759  1.00  0.00    -0.502 OA
ATOM     23  H   UNL     1      95.501 104.833 102.995  1.00  0.00     0.293 HD
ENDBRANCH   2  22
BRANCH   6  24
ATOM     24  O   UNL     1      95.423  99.303 100.932  1.00  0.00    -0.507 OA
ATOM     25  H   UNL     1      95.896  98.989 101.765  1.00  0.00     0.293 HD
ENDBRANCH   6  24
BRANCH   8  26
ATOM     26  O   UNL     1      96.990  99.794  96.419  1.00  0.00    -0.508 OA
ATOM     27  H   UNL     1      96.253  99.651  95.739  1.00  0.00     0.293 HD
ENDBRANCH   8  26
TORSDOF 6
ENDMDL
MODEL 9
REMARK VINA RESULT:    -5.325      1.965      2.632
REMARK INTER + INTRA:          -6.683
REMARK INTER:                  -6.412
REMARK INTRA:                  -0.271
REMARK UNBOUND:                -0.269
REMARK SMILES O=c1c(O)c(-c2ccc(O)c(O)c2)oc2cc(O)cc(O)c12
REMARK SMILES IDX 5 1 3 2 2 3 1 4 22 5 20 6 19 7 17 8 16 9 15 10 14 11 6 12
REMARK SMILES IDX 7 13 8 14 9 15 13 16 11 17 10 18 12 20 4 22 21 24 18 26
REMARK H PARENT 10 19 12 21 4 23 21 25 18 27
REMARK Flexibility Score: inf
ROOT
ATOM      1  C   UNL     1      97.336 101.966  99.938  1.00  0.00     0.180 A 
ATOM      2  C   UNL     1      98.284 101.916 100.974  1.00  0.00     0.208 A 
ATOM      3  C   UNL     1      98.875 103.111 101.414  1.00  0.00     0.238 A 
ATOM      4  O   UNL     1      99.683 103.068 102.378  1.00  0.00    -0.285 OA
ATOM      5  C   UNL     1      98.522 104.339 100.802  1.00  0.00     0.111 A 
ATOM      6  C   UNL     1      99.086 105.605 101.141  1.00  0.00     0.134 A 
ATOM      7  C   UNL     1      98.568 106.770 100.562  1.00  0.00     0.093 A 
ATOM      8  C   UNL     1      97.549 106.708  99.608  1.00  0.00     0.123 A 
ATOM      9  C   UNL     1      97.033 105.471  99.227  1.00  0.00     0.094 A 
ATOM     10  C   UNL     1      97.505 104.294  99.813  1.00  0.00     0.146 A 
ATOM     11  O   UNL     1      96.977 103.139  99.430  1.00  0.00    -0.452 OA
ENDROOT
BRANCH   1  12
ATOM     12  C   UNL     1      96.689 100.745  99.404  1.00  0.00     0.025 A 
ATOM     13  C   UNL     1      95.665 100.090 100.110  1.00  0.00     0.016 A 
ATOM     14  C   UNL     1      95.087  98.926  99.598  1.00  0.00     0.051 A 
ATOM     15  C   UNL     1      95.529  98.392  98.382  1.00  0.00     0.157 A 
ATOM     16  C   UNL     1      97.144 100.194  98.194  1.00  0.00     0.062 A 
ATOM     17  C   UNL     1      96.565  99.029  97.677  1.00  0.00     0.158 A 
BRANCH  15  18
ATOM     18  O   UNL     1      94.947  97.233  97.872  1.00  0.00    -0.504 OA
ATOM     19  H   UNL     1      94.237  97.268  97.150  1.00  0.00     0.293 HD
ENDBRANCH  15  18
BRANCH  17  20
ATOM     20  O   UNL     1      97.033  98.519  96.467  1.00  0.00    -0.504 OA
ATOM     21  H   UNL     1      97.487  99.106  95.776  1.00  0.00     0.293 HD
ENDBRANCH  17  20
ENDBRANCH   1  12
BRANCH   2  22
ATOM     22  O   UNL     1      98.603 100.696 101.578  1.00  0.00    -0.502 OA
ATOM     23  H   UNL     1      98.772  99.853 101.043  1.00  0.00     0.293 HD
ENDBRANCH   2  22
BRANCH   6  24
ATOM     24  O   UNL     1     100.167 105.769 102.012  1.00  0.00    -0.507 OA
ATOM     25  H   UNL     1     101.123 105.907 101.722  1.00  0.00     0.293 HD
ENDBRANCH   6  24
BRANCH   8  26
ATOM     26  O   UNL     1      97.049 107.870  99.024  1.00  0.00    -0.508 OA
ATOM     27  H   UNL     1      96.155 107.881  98.548  1.00  0.00     0.293 HD
ENDBRANCH   8  26
TORSDOF 6
ENDMDL
