MODEL 1
REMARK VINA RESULT:    -6.470      0.000      0.000
REMARK INTER + INTRA:          -7.831
REMARK INTER:                  -7.794
REMARK INTRA:                  -0.037
REMARK UNBOUND:                -0.037
REMARK SMILES O=c1c(O)c(-c2ccc(O)cc2O)oc2cc(O)cc(O)c12
REMARK SMILES IDX 5 1 3 2 2 3 1 4 22 5 20 6 19 7 17 8 16 9 15 10 14 11 6 12
REMARK SMILES IDX 8 13 7 14 9 15 11 16 12 17 10 18 13 20 4 22 21 24 18 26
REMARK H PARENT 10 19 13 21 4 23 21 25 18 27
REMARK Flexibility Score: inf
ROOT
ATOM      1  C   UNL     1       9.952  -2.691  19.219  1.00  0.00     0.184 A 
ATOM      2  C   UNL     1      11.194  -2.227  18.753  1.00  0.00     0.208 A 
ATOM      3  C   UNL     1      11.379  -0.849  18.566  1.00  0.00     0.238 A 
ATOM      4  O   UNL     1      12.510  -0.434  18.204  1.00  0.00    -0.285 OA
ATOM      5  C   UNL     1      10.313   0.047  18.827  1.00  0.00     0.111 A 
ATOM      6  C   UNL     1      10.375   1.459  18.634  1.00  0.00     0.134 A 
ATOM      7  C   UNL     1       9.304   2.261  19.046  1.00  0.00     0.093 A 
ATOM      8  C   UNL     1       8.147   1.698  19.583  1.00  0.00     0.123 A 
ATOM      9  C   UNL     1       8.052   0.312  19.722  1.00  0.00     0.094 A 
ATOM     10  C   UNL     1       9.119  -0.511  19.354  1.00  0.00     0.146 A 
ATOM     11  O   UNL     1       8.993  -1.823  19.513  1.00  0.00    -0.451 OA
ENDROOT
BRANCH   1  12
ATOM     12  C   UNL     1       9.682  -4.135  19.417  1.00  0.00     0.063 A 
ATOM     13  C   UNL     1      10.431  -6.345  20.111  1.00  0.00     0.047 A 
ATOM     14  C   UNL     1      10.674  -4.978  19.950  1.00  0.00     0.020 A 
ATOM     15  C   UNL     1       9.199  -6.890  19.731  1.00  0.00     0.119 A 
ATOM     16  C   UNL     1       8.212  -6.062  19.188  1.00  0.00     0.093 A 
ATOM     17  C   UNL     1       8.447  -4.689  19.026  1.00  0.00     0.130 A 
BRANCH  15  18
ATOM     18  O   UNL     1       8.947  -8.251  19.888  1.00  0.00    -0.508 OA
ATOM     19  H   UNL     1       8.072  -8.666  19.588  1.00  0.00     0.293 HD
ENDBRANCH  15  18
BRANCH  17  20
ATOM     20  O   UNL     1       7.451  -3.874  18.488  1.00  0.00    -0.507 OA
ATOM     21  H   UNL     1       7.661  -3.165  17.794  1.00  0.00     0.293 HD
ENDBRANCH  17  20
ENDBRANCH   1  12
BRANCH   2  22
ATOM     22  O   UNL     1      12.235  -3.129  18.516  1.00  0.00    -0.502 OA
ATOM     23  H   UNL     1      12.209  -3.802  17.758  1.00  0.00     0.293 HD
ENDBRANCH   2  22
BRANCH   6  24
ATOM     24  O   UNL     1      11.447   2.117  18.022  1.00  0.00    -0.507 OA
ATOM     25  H   UNL     1      11.355   2.878  17.365  1.00  0.00     0.293 HD
ENDBRANCH   6  24
BRANCH   8  26
ATOM     26  O   UNL     1       7.094   2.524  19.968  1.00  0.00    -0.508 OA
ATOM     27  H   UNL     1       7.105   3.520  19.780  1.00  0.00     0.293 HD
ENDBRANCH   8  26
TORSDOF 6
ENDMDL
MODEL 2
REMARK VINA RESULT:    -6.215      1.479      6.412
REMARK INTER + INTRA:          -7.524
REMARK INTER:                  -7.389
REMARK INTRA:                  -0.135
REMARK UNBOUND:                -0.037
REMARK SMILES O=c1c(O)c(-c2ccc(O)cc2O)oc2cc(O)cc(O)c12
REMARK SMILES IDX 5 1 3 2 2 3 1 4 22 5 20 6 19 7 17 8 16 9 15 10 14 11 6 12
REMARK SMILES IDX 8 13 7 14 9 15 11 16 12 17 10 18 13 20 4 22 21 24 18 26
REMARK H PARENT 10 19 13 21 4 23 21 25 18 27
REMARK Flexibility Score: inf
ROOT
ATOM      1  C   UNL     1       9.195  -2.110  19.117  1.00  0.00     0.184 A 
ATOM      2  C   UNL     1      10.554  -2.468  19.125  1.00  0.00     0.208 A 
ATOM      3  C   UNL     1      10.904  -3.806  19.362  1.00  0.00     0.238 A 
ATOM      4  O   UNL     1      12.119  -4.132  19.311  1.00  0.00    -0.285 OA
ATOM      5  C   UNL     1       9.892  -4.766  19.607  1.00  0.00     0.111 A 
ATOM      6  C   UNL     1      10.133  -6.142  19.898  1.00  0.00     0.134 A 
ATOM      7  C   UNL     1       9.053  -7.027  19.998  1.00  0.00     0.093 A 
ATOM      8  C   UNL     1       7.739  -6.576  19.882  1.00  0.00     0.123 A 
ATOM      9  C   UNL     1       7.489  -5.221  19.656  1.00  0.00     0.094 A 
ATOM     10  C   UNL     1       8.548  -4.321  19.516  1.00  0.00     0.146 A 
ATOM     11  O   UNL     1       8.267  -3.043  19.290  1.00  0.00    -0.451 OA
ENDROOT
BRANCH   1  12
ATOM     12  C   UNL     1       8.757  -0.712  18.897  1.00  0.00     0.063 A 
ATOM     13  C   UNL     1       8.988   1.668  19.357  1.00  0.00     0.047 A 
ATOM     14  C   UNL     1       9.417   0.351  19.541  1.00  0.00     0.020 A 
ATOM     15  C   UNL     1       7.887   1.941  18.536  1.00  0.00     0.119 A 
ATOM     16  C   UNL     1       7.217   0.891  17.903  1.00  0.00     0.093 A 
ATOM     17  C   UNL     1       7.643  -0.434  18.080  1.00  0.00     0.130 A 
BRANCH  15  18
ATOM     18  O   UNL     1       7.451   3.251  18.346  1.00  0.00    -0.508 OA
ATOM     19  H   UNL     1       7.016   3.544  17.480  1.00  0.00     0.293 HD
ENDBRANCH  15  18
BRANCH  17  20
ATOM     20  O   UNL     1       6.968  -1.472  17.437  1.00  0.00    -0.507 OA
ATOM     21  H   UNL     1       7.290  -1.847  16.552  1.00  0.00     0.293 HD
ENDBRANCH  17  20
ENDBRANCH   1  12
BRANCH   2  22
ATOM     22  O   UNL     1      11.534  -1.505  18.867  1.00  0.00    -0.502 OA
ATOM     23  H   UNL     1      11.510  -0.913  18.045  1.00  0.00     0.293 HD
ENDBRANCH   2  22
BRANCH   6  24
ATOM     24  O   UNL     1      11.403  -6.682  20.124  1.00  0.00    -0.507 OA
ATOM     25  H   UNL     1      11.581  -7.564  20.581  1.00  0.00     0.293 HD
ENDBRANCH   6  24
BRANCH   8  26
ATOM     26  O   UNL     1       6.687  -7.481  20.002  1.00  0.00    -0.508 OA
ATOM     27  H   UNL     1       5.754  -7.257  19.676  1.00  0.00     0.293 HD
ENDBRANCH   8  26
TORSDOF 6
ENDMDL
MODEL 3
REMARK VINA RESULT:    -5.775      1.270      3.105
REMARK INTER + INTRA:          -6.994
REMARK INTER:                  -7.568
REMARK INTRA:                   0.574
REMARK UNBOUND:                -0.037
REMARK SMILES O=c1c(O)c(-c2ccc(O)cc2O)oc2cc(O)cc(O)c12
REMARK SMILES IDX 5 1 3 2 2 3 1 4 22 5 20 6 19 7 17 8 16 9 15 10 14 11 6 12
REMARK SMILES IDX 8 13 7 14 9 15 11 16 12 17 10 18 13 20 4 22 21 24 18 26
REMARK H PARENT 10 19 13 21 4 23 21 25 18 27
REMARK Flexibility Score: inf
ROOT
ATOM      1  C   UNL     1       8.913  -2.722  19.097  1.00  0.00     0.184 A 
ATOM      2  C   UNL     1       7.642  -2.192  18.816  1.00  0.00     0.208 A 
ATOM      3  C   UNL     1       7.509  -0.809  18.618  1.00  0.00     0.238 A 
ATOM      4  O   UNL     1       6.379  -0.348  18.310  1.00  0.00    -0.285 OA
ATOM      5  C   UNL     1       8.645   0.030  18.723  1.00  0.00     0.111 A 
ATOM      6  C   UNL     1       8.620   1.450  18.582  1.00  0.00     0.134 A 
ATOM      7  C   UNL     1       9.823   2.165  18.578  1.00  0.00     0.093 A 
ATOM      8  C   UNL     1      11.044   1.522  18.777  1.00  0.00     0.123 A 
ATOM      9  C   UNL     1      11.075   0.140  18.976  1.00  0.00     0.094 A 
ATOM     10  C   UNL     1       9.894  -0.604  18.948  1.00  0.00     0.146 A 
ATOM     11  O   UNL     1       9.969  -1.917  19.130  1.00  0.00    -0.451 OA
ENDROOT
BRANCH   1  12
ATOM     12  C   UNL     1       9.121  -4.168  19.340  1.00  0.00     0.063 A 
ATOM     13  C   UNL     1       8.247  -6.440  19.423  1.00  0.00     0.047 A 
ATOM     14  C   UNL     1       8.061  -5.078  19.167  1.00  0.00     0.020 A 
ATOM     15  C   UNL     1       9.490  -6.909  19.865  1.00  0.00     0.119 A 
ATOM     16  C   UNL     1      10.544  -6.010  20.053  1.00  0.00     0.093 A 
ATOM     17  C   UNL     1      10.367  -4.643  19.796  1.00  0.00     0.130 A 
BRANCH  15  18
ATOM     18  O   UNL     1       9.685  -8.264  20.123  1.00  0.00    -0.508 OA
ATOM     19  H   UNL     1      10.255  -8.579  20.899  1.00  0.00     0.293 HD
ENDBRANCH  15  18
BRANCH  17  20
ATOM     20  O   UNL     1      11.430  -3.759  19.982  1.00  0.00    -0.507 OA
ATOM     21  H   UNL     1      11.369  -2.985  20.633  1.00  0.00     0.293 HD
ENDBRANCH  17  20
ENDBRANCH   1  12
BRANCH   2  22
ATOM     22  O   UNL     1       6.538  -3.042  18.704  1.00  0.00    -0.502 OA
ATOM     23  H   UNL     1       5.585  -2.705  18.762  1.00  0.00     0.293 HD
ENDBRANCH   2  22
BRANCH   6  24
ATOM     24  O   UNL     1       7.447   2.203  18.469  1.00  0.00    -0.507 OA
ATOM     25  H   UNL     1       6.537   1.822  18.261  1.00  0.00     0.293 HD
ENDBRANCH   6  24
BRANCH   8  26
ATOM     26  O   UNL     1      12.221   2.267  18.784  1.00  0.00    -0.508 OA
ATOM     27  H   UNL     1      13.126   1.828  18.913  1.00  0.00     0.293 HD
ENDBRANCH   8  26
TORSDOF 6
ENDMDL
MODEL 4
REMARK VINA RESULT:    -5.388      2.679      6.433
REMARK INTER + INTRA:          -6.527
REMARK INTER:                  -6.206
REMARK INTRA:                  -0.321
REMARK UNBOUND:                -0.037
REMARK SMILES O=c1c(O)c(-c2ccc(O)cc2O)oc2cc(O)cc(O)c12
REMARK SMILES IDX 5 1 3 2 2 3 1 4 22 5 20 6 19 7 17 8 16 9 15 10 14 11 6 12
REMARK SMILES IDX 8 13 7 14 9 15 11 16 12 17 10 18 13 20 4 22 21 24 18 26
REMARK H PARENT 10 19 13 21 4 23 21 25 18 27
REMARK Flexibility Score: inf
ROOT
ATOM      1  C   UNL     1      10.777  -2.835  19.323  1.00  0.00     0.184 A 
ATOM      2  C   UNL     1      10.471  -4.184  19.570  1.00  0.00     0.208 A 
ATOM      3  C   UNL     1      11.517  -5.083  19.830  1.00  0.00     0.238 A 
ATOM      4  O   UNL     1      11.233  -6.278  20.107  1.00  0.00    -0.285 OA
ATOM      5  C   UNL     1      12.857  -4.627  19.819  1.00  0.00     0.111 A 
ATOM      6  C   UNL     1      13.998  -5.457  20.029  1.00  0.00     0.134 A 
ATOM      7  C   UNL     1      15.268  -4.876  20.124  1.00  0.00     0.093 A 
ATOM      8  C   UNL     1      15.447  -3.504  19.951  1.00  0.00     0.123 A 
ATOM      9  C   UNL     1      14.345  -2.690  19.685  1.00  0.00     0.094 A 
ATOM     10  C   UNL     1      13.061  -3.236  19.622  1.00  0.00     0.146 A 
ATOM     11  O   UNL     1      12.038  -2.425  19.379  1.00  0.00    -0.451 OA
ENDROOT
BRANCH   1  12
ATOM     12  C   UNL     1       9.724  -1.838  19.019  1.00  0.00     0.063 A 
ATOM     13  C   UNL     1       7.670  -0.686  19.635  1.00  0.00     0.047 A 
ATOM     14  C   UNL     1       8.679  -1.605  19.933  1.00  0.00     0.020 A 
ATOM     15  C   UNL     1       7.683   0.005  18.418  1.00  0.00     0.119 A 
ATOM     16  C   UNL     1       8.710  -0.230  17.498  1.00  0.00     0.093 A 
ATOM     17  C   UNL     1       9.728  -1.149  17.790  1.00  0.00     0.130 A 
BRANCH  15  18
ATOM     18  O   UNL     1       6.682   0.924  18.112  1.00  0.00    -0.508 OA
ATOM     19  H   UNL     1       6.613   1.812  18.594  1.00  0.00     0.293 HD
ENDBRANCH  15  18
BRANCH  17  20
ATOM     20  O   UNL     1      10.749  -1.370  16.865  1.00  0.00    -0.507 OA
ATOM     21  H   UNL     1      10.894  -0.751  16.075  1.00  0.00     0.293 HD
ENDBRANCH  17  20
ENDBRANCH   1  12
BRANCH   2  22
ATOM     22  O   UNL     1       9.139  -4.609  19.589  1.00  0.00    -0.502 OA
ATOM     23  H   UNL     1       8.725  -5.131  18.826  1.00  0.00     0.293 HD
ENDBRANCH   2  22
BRANCH   6  24
ATOM     24  O   UNL     1      13.943  -6.851  20.125  1.00  0.00    -0.507 OA
ATOM     25  H   UNL     1      14.621  -7.483  19.726  1.00  0.00     0.293 HD
ENDBRANCH   6  24
BRANCH   8  26
ATOM     26  O   UNL     1      16.727  -2.961  20.035  1.00  0.00    -0.508 OA
ATOM     27  H   UNL     1      17.545  -3.481  19.739  1.00  0.00     0.293 HD
ENDBRANCH   8  26
TORSDOF 6
ENDMDL
MODEL 5
REMARK VINA RESULT:    -5.241      4.565      7.958
REMARK INTER + INTRA:          -6.349
REMARK INTER:                  -6.275
REMARK INTRA:                  -0.075
REMARK UNBOUND:                -0.037
REMARK SMILES O=c1c(O)c(-c2ccc(O)cc2O)oc2cc(O)cc(O)c12
REMARK SMILES IDX 5 1 3 2 2 3 1 4 22 5 20 6 19 7 17 8 16 9 15 10 14 11 6 12
REMARK SMILES IDX 8 13 7 14 9 15 11 16 12 17 10 18 13 20 4 22 21 24 18 26
REMARK H PARENT 10 19 13 21 4 23 21 25 18 27
REMARK Flexibility Score: inf
ROOT
ATOM      1  C   UNL     1      14.163  -2.407  19.476  1.00  0.00     0.184 A 
ATOM      2  C   UNL     1      13.781  -3.745  19.675  1.00  0.00     0.208 A 
ATOM      3  C   UNL     1      14.775  -4.713  19.882  1.00  0.00     0.238 A 
ATOM      4  O   UNL     1      14.423  -5.899  20.117  1.00  0.00    -0.285 OA
ATOM      5  C   UNL     1      16.139  -4.337  19.869  1.00  0.00     0.111 A 
ATOM      6  C   UNL     1      17.232  -5.241  20.028  1.00  0.00     0.134 A 
ATOM      7  C   UNL     1      18.535  -4.740  20.125  1.00  0.00     0.093 A 
ATOM      8  C   UNL     1      18.793  -3.375  20.003  1.00  0.00     0.123 A 
ATOM      9  C   UNL     1      17.738  -2.487  19.787  1.00  0.00     0.094 A 
ATOM     10  C   UNL     1      16.423  -2.954  19.723  1.00  0.00     0.146 A 
ATOM     11  O   UNL     1      15.447  -2.075  19.529  1.00  0.00    -0.451 OA
ENDROOT
BRANCH   1  12
ATOM     12  C   UNL     1      13.168  -1.338  19.228  1.00  0.00     0.063 A 
ATOM     13  C   UNL     1      12.123   0.763  19.879  1.00  0.00     0.047 A 
ATOM     14  C   UNL     1      13.080  -0.232  20.094  1.00  0.00     0.020 A 
ATOM     15  C   UNL     1      11.233   0.662  18.803  1.00  0.00     0.119 A 
ATOM     16  C   UNL     1      11.304  -0.440  17.945  1.00  0.00     0.093 A 
ATOM     17  C   UNL     1      12.263  -1.442  18.153  1.00  0.00     0.130 A 
BRANCH  15  18
ATOM     18  O   UNL     1      10.275   1.648  18.579  1.00  0.00    -0.508 OA
ATOM     19  H   UNL     1      10.412   2.601  18.896  1.00  0.00     0.293 HD
ENDBRANCH  15  18
BRANCH  17  20
ATOM     20  O   UNL     1      12.325  -2.533  17.286  1.00  0.00    -0.507 OA
ATOM     21  H   UNL     1      12.325  -2.413  16.280  1.00  0.00     0.293 HD
ENDBRANCH  17  20
ENDBRANCH   1  12
BRANCH   2  22
ATOM     22  O   UNL     1      12.426  -4.090  19.698  1.00  0.00    -0.502 OA
ATOM     23  H   UNL     1      11.697  -3.414  19.891  1.00  0.00     0.293 HD
ENDBRANCH   2  22
BRANCH   6  24
ATOM     24  O   UNL     1      17.094  -6.632  20.069  1.00  0.00    -0.507 OA
ATOM     25  H   UNL     1      17.751  -7.287  19.672  1.00  0.00     0.293 HD
ENDBRANCH   6  24
BRANCH   8  26
ATOM     26  O   UNL     1      20.104  -2.912  20.089  1.00  0.00    -0.508 OA
ATOM     27  H   UNL     1      20.314  -1.958  20.360  1.00  0.00     0.293 HD
ENDBRANCH   8  26
TORSDOF 6
ENDMDL
MODEL 6
REMARK VINA RESULT:    -5.240      5.995      8.735
REMARK INTER + INTRA:          -6.349
REMARK INTER:                  -6.143
REMARK INTRA:                  -0.206
REMARK UNBOUND:                -0.037
REMARK SMILES O=c1c(O)c(-c2ccc(O)cc2O)oc2cc(O)cc(O)c12
REMARK SMILES IDX 5 1 3 2 2 3 1 4 22 5 20 6 19 7 17 8 16 9 15 10 14 11 6 12
REMARK SMILES IDX 8 13 7 14 9 15 11 16 12 17 10 18 13 20 4 22 21 24 18 26
REMARK H PARENT 10 19 13 21 4 23 21 25 18 27
REMARK Flexibility Score: inf
ROOT
ATOM      1  C   UNL     1      15.843  -2.855  19.370  1.00  0.00     0.184 A 
ATOM      2  C   UNL     1      15.973  -4.220  19.677  1.00  0.00     0.208 A 
ATOM      3  C   UNL     1      17.258  -4.772  19.791  1.00  0.00     0.238 A 
ATOM      4  O   UNL     1      17.369  -5.982  20.122  1.00  0.00    -0.285 OA
ATOM      5  C   UNL     1      18.396  -3.959  19.577  1.00  0.00     0.111 A 
ATOM      6  C   UNL     1      19.746  -4.422  19.627  1.00  0.00     0.134 A 
ATOM      7  C   UNL     1      20.796  -3.502  19.525  1.00  0.00     0.093 A 
ATOM      8  C   UNL     1      20.549  -2.147  19.310  1.00  0.00     0.123 A 
ATOM      9  C   UNL     1      19.234  -1.692  19.200  1.00  0.00     0.094 A 
ATOM     10  C   UNL     1      18.165  -2.580  19.334  1.00  0.00     0.146 A 
ATOM     11  O   UNL     1      16.929  -2.104  19.234  1.00  0.00    -0.451 OA
ENDROOT
BRANCH   1  12
ATOM     12  C   UNL     1      14.517  -2.212  19.212  1.00  0.00     0.063 A 
ATOM     13  C   UNL     1      12.841  -0.620  19.976  1.00  0.00     0.047 A 
ATOM     14  C   UNL     1      14.102  -1.208  20.106  1.00  0.00     0.020 A 
ATOM     15  C   UNL     1      11.973  -1.036  18.959  1.00  0.00     0.119 A 
ATOM     16  C   UNL     1      12.372  -2.042  18.074  1.00  0.00     0.093 A 
ATOM     17  C   UNL     1      13.637  -2.635  18.196  1.00  0.00     0.130 A 
BRANCH  15  18
ATOM     18  O   UNL     1      10.713  -0.456  18.820  1.00  0.00    -0.508 OA
ATOM     19  H   UNL     1       9.919  -0.989  18.487  1.00  0.00     0.293 HD
ENDBRANCH  15  18
BRANCH  17  20
ATOM     20  O   UNL     1      14.023  -3.634  17.303  1.00  0.00    -0.507 OA
ATOM     21  H   UNL     1      13.694  -4.588  17.398  1.00  0.00     0.293 HD
ENDBRANCH  17  20
ENDBRANCH   1  12
BRANCH   2  22
ATOM     22  O   UNL     1      14.834  -5.000  19.897  1.00  0.00    -0.502 OA
ATOM     23  H   UNL     1      13.943  -4.795  19.462  1.00  0.00     0.293 HD
ENDBRANCH   2  22
BRANCH   6  24
ATOM     24  O   UNL     1      20.105  -5.768  19.747  1.00  0.00    -0.507 OA
ATOM     25  H   UNL     1      20.578  -6.303  19.034  1.00  0.00     0.293 HD
ENDBRANCH   6  24
BRANCH   8  26
ATOM     26  O   UNL     1      21.619  -1.262  19.198  1.00  0.00    -0.508 OA
ATOM     27  H   UNL     1      22.553  -1.584  18.969  1.00  0.00     0.293 HD
ENDBRANCH   8  26
TORSDOF 6
ENDMDL
MODEL 7
REMARK VINA RESULT:    -5.226      2.725      6.137
REMARK INTER + INTRA:          -6.332
REMARK INTER:                  -5.983
REMARK INTRA:                  -0.348
REMARK UNBOUND:                -0.037
REMARK SMILES O=c1c(O)c(-c2ccc(O)cc2O)oc2cc(O)cc(O)c12
REMARK SMILES IDX 5 1 3 2 2 3 1 4 22 5 20 6 19 7 17 8 16 9 15 10 14 11 6 12
REMARK SMILES IDX 8 13 7 14 9 15 11 16 12 17 10 18 13 20 4 22 21 24 18 26
REMARK H PARENT 10 19 13 21 4 23 21 25 18 27
REMARK Flexibility Score: inf
ROOT
ATOM      1  C   UNL     1      11.373  -1.655  19.175  1.00  0.00     0.184 A 
ATOM      2  C   UNL     1      12.532  -0.860  19.148  1.00  0.00     0.208 A 
ATOM      3  C   UNL     1      13.778  -1.465  19.375  1.00  0.00     0.238 A 
ATOM      4  O   UNL     1      14.816  -0.759  19.293  1.00  0.00    -0.285 OA
ATOM      5  C   UNL     1      13.848  -2.853  19.645  1.00  0.00     0.111 A 
ATOM      6  C   UNL     1      15.053  -3.564  19.929  1.00  0.00     0.134 A 
ATOM      7  C   UNL     1      15.020  -4.957  20.055  1.00  0.00     0.093 A 
ATOM      8  C   UNL     1      13.818  -5.660  19.973  1.00  0.00     0.123 A 
ATOM      9  C   UNL     1      12.625  -4.969  19.755  1.00  0.00     0.094 A 
ATOM     10  C   UNL     1      12.632  -3.582  19.588  1.00  0.00     0.146 A 
ATOM     11  O   UNL     1      11.477  -2.964  19.371  1.00  0.00    -0.451 OA
ENDROOT
BRANCH   1  12
ATOM     12  C   UNL     1      10.025  -1.078  18.967  1.00  0.00     0.063 A 
ATOM     13  C   UNL     1       7.895  -0.315  19.868  1.00  0.00     0.047 A 
ATOM     14  C   UNL     1       9.178  -0.833  20.064  1.00  0.00     0.020 A 
ATOM     15  C   UNL     1       7.436  -0.046  18.573  1.00  0.00     0.119 A 
ATOM     16  C   UNL     1       8.264  -0.300  17.476  1.00  0.00     0.093 A 
ATOM     17  C   UNL     1       9.554  -0.817  17.664  1.00  0.00     0.130 A 
BRANCH  15  18
ATOM     18  O   UNL     1       6.158   0.470  18.367  1.00  0.00    -0.508 OA
ATOM     19  H   UNL     1       5.607   0.212  17.557  1.00  0.00     0.293 HD
ENDBRANCH  15  18
BRANCH  17  20
ATOM     20  O   UNL     1      10.372  -1.060  16.561  1.00  0.00    -0.507 OA
ATOM     21  H   UNL     1      11.265  -0.594  16.448  1.00  0.00     0.293 HD
ENDBRANCH  17  20
ENDBRANCH   1  12
BRANCH   2  22
ATOM     22  O   UNL     1      12.438   0.506  18.866  1.00  0.00    -0.502 OA
ATOM     23  H   UNL     1      12.870   0.922  18.049  1.00  0.00     0.293 HD
ENDBRANCH   2  22
BRANCH   6  24
ATOM     24  O   UNL     1      16.294  -2.950  20.122  1.00  0.00    -0.507 OA
ATOM     25  H   UNL     1      17.022  -3.301  20.726  1.00  0.00     0.293 HD
ENDBRANCH   6  24
BRANCH   8  26
ATOM     26  O   UNL     1      13.820  -7.045  20.120  1.00  0.00    -0.508 OA
ATOM     27  H   UNL     1      13.478  -7.490  20.964  1.00  0.00     0.293 HD
ENDBRANCH   8  26
TORSDOF 6
ENDMDL
MODEL 8
REMARK VINA RESULT:    -5.047      2.797      6.176
REMARK INTER + INTRA:          -6.117
REMARK INTER:                  -6.709
REMARK INTRA:                   0.592
REMARK UNBOUND:                -0.037
REMARK SMILES O=c1c(O)c(-c2ccc(O)cc2O)oc2cc(O)cc(O)c12
REMARK SMILES IDX 5 1 3 2 2 3 1 4 22 5 20 6 19 7 17 8 16 9 15 10 14 11 6 12
REMARK SMILES IDX 8 13 7 14 9 15 11 16 12 17 10 18 13 20 4 22 21 24 18 26
REMARK H PARENT 10 19 13 21 4 23 21 25 18 27
REMARK Flexibility Score: inf
ROOT
ATOM      1  C   UNL     1      12.267  -3.385  19.318  1.00  0.00     0.184 A 
ATOM      2  C   UNL     1      11.481  -2.293  18.912  1.00  0.00     0.208 A 
ATOM      3  C   UNL     1      10.101  -2.474  18.741  1.00  0.00     0.238 A 
ATOM      4  O   UNL     1       9.394  -1.479  18.432  1.00  0.00    -0.285 OA
ATOM      5  C   UNL     1       9.525  -3.749  18.959  1.00  0.00     0.111 A 
ATOM      6  C   UNL     1       8.143  -4.057  18.776  1.00  0.00     0.134 A 
ATOM      7  C   UNL     1       7.662  -5.319  19.144  1.00  0.00     0.093 A 
ATOM      8  C   UNL     1       8.521  -6.306  19.626  1.00  0.00     0.123 A 
ATOM      9  C   UNL     1       9.885  -6.035  19.752  1.00  0.00     0.094 A 
ATOM     10  C   UNL     1      10.388  -4.773  19.428  1.00  0.00     0.146 A 
ATOM     11  O   UNL     1      11.689  -4.553  19.573  1.00  0.00    -0.451 OA
ENDROOT
BRANCH   1  12
ATOM     12  C   UNL     1      13.734  -3.270  19.495  1.00  0.00     0.063 A 
ATOM     13  C   UNL     1      15.775  -1.948  19.378  1.00  0.00     0.047 A 
ATOM     14  C   UNL     1      14.388  -2.051  19.239  1.00  0.00     0.020 A 
ATOM     15  C   UNL     1      16.528  -3.063  19.764  1.00  0.00     0.119 A 
ATOM     16  C   UNL     1      15.888  -4.282  20.007  1.00  0.00     0.093 A 
ATOM     17  C   UNL     1      14.497  -4.393  19.873  1.00  0.00     0.130 A 
BRANCH  15  18
ATOM     18  O   UNL     1      17.911  -2.970  19.905  1.00  0.00    -0.508 OA
ATOM     19  H   UNL     1      18.471  -3.771  20.173  1.00  0.00     0.293 HD
ENDBRANCH  15  18
BRANCH  17  20
ATOM     20  O   UNL     1      13.871  -5.614  20.125  1.00  0.00    -0.507 OA
ATOM     21  H   UNL     1      14.390  -6.484  20.140  1.00  0.00     0.293 HD
ENDBRANCH  17  20
ENDBRANCH   1  12
BRANCH   2  22
ATOM     22  O   UNL     1      12.071  -1.041  18.716  1.00  0.00    -0.502 OA
ATOM     23  H   UNL     1      13.062  -0.929  18.538  1.00  0.00     0.293 HD
ENDBRANCH   2  22
BRANCH   6  24
ATOM     24  O   UNL     1       7.214  -3.175  18.217  1.00  0.00    -0.507 OA
ATOM     25  H   UNL     1       6.538  -3.423  17.510  1.00  0.00     0.293 HD
ENDBRANCH   6  24
BRANCH   8  26
ATOM     26  O   UNL     1       8.011  -7.556  19.968  1.00  0.00    -0.508 OA
ATOM     27  H   UNL     1       8.417  -8.412  19.606  1.00  0.00     0.293 HD
ENDBRANCH   8  26
TORSDOF 6
ENDMDL
MODEL 9
REMARK VINA RESULT:    -5.032      2.174      6.472
REMARK INTER + INTRA:          -6.098
REMARK INTER:                  -5.815
REMARK INTRA:                  -0.283
REMARK UNBOUND:                -0.037
REMARK SMILES O=c1c(O)c(-c2ccc(O)cc2O)oc2cc(O)cc(O)c12
REMARK SMILES IDX 5 1 3 2 2 3 1 4 22 5 20 6 19 7 17 8 16 9 15 10 14 11 6 12
REMARK SMILES IDX 8 13 7 14 9 15 11 16 12 17 10 18 13 20 4 22 21 24 18 26
REMARK H PARENT 10 19 13 21 4 23 21 25 18 27
REMARK Flexibility Score: inf
ROOT
ATOM      1  C   UNL     1      10.029  -0.925  19.301  1.00  0.00     0.184 A 
ATOM      2  C   UNL     1       9.520  -2.184  19.664  1.00  0.00     0.208 A 
ATOM      3  C   UNL     1      10.398  -3.276  19.744  1.00  0.00     0.238 A 
ATOM      4  O   UNL     1       9.947  -4.388  20.124  1.00  0.00    -0.285 OA
ATOM      5  C   UNL     1      11.770  -3.100  19.441  1.00  0.00     0.111 A 
ATOM      6  C   UNL     1      12.743  -4.145  19.450  1.00  0.00     0.134 A 
ATOM      7  C   UNL     1      14.094  -3.833  19.260  1.00  0.00     0.093 A 
ATOM      8  C   UNL     1      14.501  -2.526  18.994  1.00  0.00     0.123 A 
ATOM      9  C   UNL     1      13.551  -1.505  18.924  1.00  0.00     0.094 A 
ATOM     10  C   UNL     1      12.200  -1.780  19.147  1.00  0.00     0.146 A 
ATOM     11  O   UNL     1      11.330  -0.779  19.082  1.00  0.00    -0.451 OA
ENDROOT
BRANCH   1  12
ATOM     12  C   UNL     1       9.155   0.264  19.175  1.00  0.00     0.063 A 
ATOM     13  C   UNL     1       8.381   2.413  20.020  1.00  0.00     0.047 A 
ATOM     14  C   UNL     1       9.225   1.303  20.122  1.00  0.00     0.020 A 
ATOM     15  C   UNL     1       7.449   2.495  18.979  1.00  0.00     0.119 A 
ATOM     16  C   UNL     1       7.362   1.461  18.042  1.00  0.00     0.093 A 
ATOM     17  C   UNL     1       8.207   0.345  18.135  1.00  0.00     0.130 A 
BRANCH  15  18
ATOM     18  O   UNL     1       6.603   3.597  18.870  1.00  0.00    -0.508 OA
ATOM     19  H   UNL     1       6.560   4.149  18.021  1.00  0.00     0.293 HD
ENDBRANCH  15  18
BRANCH  17  20
ATOM     20  O   UNL     1       8.114  -0.676  17.189  1.00  0.00    -0.507 OA
ATOM     21  H   UNL     1       8.874  -1.328  17.035  1.00  0.00     0.293 HD
ENDBRANCH  17  20
ENDBRANCH   1  12
BRANCH   2  22
ATOM     22  O   UNL     1       8.164  -2.329  19.971  1.00  0.00    -0.502 OA
ATOM     23  H   UNL     1       7.778  -3.196  20.325  1.00  0.00     0.293 HD
ENDBRANCH   2  22
BRANCH   6  24
ATOM     24  O   UNL     1      12.433  -5.498  19.615  1.00  0.00    -0.507 OA
ATOM     25  H   UNL     1      11.529  -5.853  19.890  1.00  0.00     0.293 HD
ENDBRANCH   6  24
BRANCH   8  26
ATOM     26  O   UNL     1      15.852  -2.253  18.793  1.00  0.00    -0.508 OA
ATOM     27  H   UNL     1      16.570  -2.675  19.372  1.00  0.00     0.293 HD
ENDBRANCH   8  26
TORSDOF 6
ENDMDL
