MODEL 1
REMARK VINA RESULT:    -4.409      0.000      0.000
REMARK INTER + INTRA:          -8.320
REMARK INTER:                  -6.987
REMARK INTRA:                  -1.333
REMARK UNBOUND:                -1.333
REMARK SMILES CCCCCCCCCCCC(=O)[O-]
REMARK SMILES IDX 7 1 8 2 9 3 10 4 11 5 12 6 13 7 14 8 6 9 5 10 4 11 3 12 2 13
REMARK SMILES IDX 1 14
REMARK H PARENT
REMARK Flexibility Score: inf
ROOT
ATOM      1  C   UNL     1      26.870  -2.006  30.241  1.00  0.00     0.000 C 
ENDROOT
BRANCH   1   2
ATOM      2  C   UNL     1      28.076  -2.805  30.765  1.00  0.00     0.000 C 
BRANCH   2   3
ATOM      3  C   UNL     1      29.060  -3.205  29.651  1.00  0.00     0.000 C 
BRANCH   3   4
ATOM      4  C   UNL     1      30.120  -4.245  30.056  1.00  0.00     0.006 C 
BRANCH   4   5
ATOM      5  C   UNL     1      29.508  -5.556  30.567  1.00  0.00     0.053 C 
BRANCH   5   6
ATOM      6  C   UNL     1      28.608  -6.150  29.530  1.00  0.00     0.041 C 
ATOM      7  O   UNL     1      29.083  -6.561  28.439  1.00  0.00    -0.550 OA
ATOM      8  O   UNL     1      27.237  -6.204  29.748  1.00  0.00    -0.550 OA
ENDBRANCH   5   6
ENDBRANCH   4   5
ENDBRANCH   3   4
ENDBRANCH   2   3
ENDBRANCH   1   2
BRANCH   1   9
ATOM      9  C   UNL     1      27.226  -1.124  29.034  1.00  0.00     0.000 C 
BRANCH   9  10
ATOM     10  C   UNL     1      26.964   0.368  29.291  1.00  0.00    -0.000 C 
BRANCH  10  11
ATOM     11  C   UNL     1      28.150   1.017  30.015  1.00  0.00    -0.000 C 
BRANCH  11  12
ATOM     12  C   UNL     1      29.485   0.515  29.444  1.00  0.00    -0.000 C 
BRANCH  12  13
ATOM     13  C   UNL     1      30.469   0.078  30.541  1.00  0.00    -0.003 C 
ATOM     14  C   UNL     1      29.886   0.219  31.948  1.00  0.00     0.004 C 
ENDBRANCH  12  13
ENDBRANCH  11  12
ENDBRANCH  10  11
ENDBRANCH   9  10
ENDBRANCH   1   9
TORSDOF 10
ENDMDL
MODEL 2
REMARK VINA RESULT:    -4.338      2.936      6.378
REMARK INTER + INTRA:          -8.207
REMARK INTER:                  -7.298
REMARK INTRA:                  -0.909
REMARK UNBOUND:                -1.333
REMARK SMILES CCCCCCCCCCCC(=O)[O-]
REMARK SMILES IDX 7 1 8 2 9 3 10 4 11 5 12 6 13 7 14 8 6 9 5 10 4 11 3 12 2 13
REMARK SMILES IDX 1 14
REMARK H PARENT
REMARK Flexibility Score: inf
ROOT
ATOM      1  C   UNL     1      29.888  -5.272  30.433  1.00  0.00     0.000 C 
ENDROOT
BRANCH   1   2
ATOM      2  C   UNL     1      30.405  -3.864  30.090  1.00  0.00     0.000 C 
BRANCH   2   3
ATOM      3  C   UNL     1      29.274  -2.875  29.754  1.00  0.00     0.000 C 
BRANCH   3   4
ATOM      4  C   UNL     1      29.192  -1.638  30.667  1.00  0.00     0.006 C 
BRANCH   4   5
ATOM      5  C   UNL     1      27.811  -1.461  31.312  1.00  0.00     0.053 C 
BRANCH   5   6
ATOM      6  C   UNL     1      26.950  -0.577  30.468  1.00  0.00     0.041 C 
ATOM      7  O   UNL     1      27.466   0.350  29.789  1.00  0.00    -0.550 OA
ATOM      8  O   UNL     1      25.571  -0.744  30.468  1.00  0.00    -0.550 OA
ENDBRANCH   5   6
ENDBRANCH   4   5
ENDBRANCH   3   4
ENDBRANCH   2   3
ENDBRANCH   1   2
BRANCH   1   9
ATOM      9  C   UNL     1      28.362  -5.311  30.617  1.00  0.00     0.000 C 
BRANCH   9  10
ATOM     10  C   UNL     1      27.693  -6.421  29.793  1.00  0.00    -0.000 C 
BRANCH  10  11
ATOM     11  C   UNL     1      28.742  -7.346  29.164  1.00  0.00    -0.000 C 
BRANCH  11  12
ATOM     12  C   UNL     1      28.666  -8.756  29.768  1.00  0.00    -0.000 C 
BRANCH  12  13
ATOM     13  C   UNL     1      29.527  -8.905  31.032  1.00  0.00    -0.003 C 
ATOM     14  C   UNL     1      28.691  -9.001  32.309  1.00  0.00     0.004 C 
ENDBRANCH  12  13
ENDBRANCH  11  12
ENDBRANCH  10  11
ENDBRANCH   9  10
ENDBRANCH   1   9
TORSDOF 10
ENDMDL
MODEL 3
REMARK VINA RESULT:    -4.305      2.104      3.321
REMARK INTER + INTRA:          -8.155
REMARK INTER:                  -7.410
REMARK INTRA:                  -0.745
REMARK UNBOUND:                -1.333
REMARK SMILES CCCCCCCCCCCC(=O)[O-]
REMARK SMILES IDX 7 1 8 2 9 3 10 4 11 5 12 6 13 7 14 8 6 9 5 10 4 11 3 12 2 13
REMARK SMILES IDX 1 14
REMARK H PARENT
REMARK Flexibility Score: inf
ROOT
ATOM      1  C   UNL     1      27.688  -3.655  30.453  1.00  0.00     0.000 C 
ENDROOT
BRANCH   1   2
ATOM      2  C   UNL     1      27.843  -5.108  30.933  1.00  0.00     0.000 C 
BRANCH   2   3
ATOM      3  C   UNL     1      27.518  -6.139  29.838  1.00  0.00     0.000 C 
BRANCH   3   4
ATOM      4  C   UNL     1      28.721  -6.955  29.328  1.00  0.00     0.006 C 
BRANCH   4   5
ATOM      5  C   UNL     1      28.562  -8.463  29.559  1.00  0.00     0.053 C 
BRANCH   5   6
ATOM      6  C   UNL     1      29.278  -8.879  30.804  1.00  0.00     0.041 C 
ATOM      7  O   UNL     1      30.273  -9.648  30.736  1.00  0.00    -0.550 OA
ATOM      8  O   UNL     1      28.817  -8.458  32.045  1.00  0.00    -0.550 OA
ENDBRANCH   5   6
ENDBRANCH   4   5
ENDBRANCH   3   4
ENDBRANCH   2   3
ENDBRANCH   1   2
BRANCH   1   9
ATOM      9  C   UNL     1      29.039  -2.988  30.146  1.00  0.00     0.000 C 
BRANCH   9  10
ATOM     10  C   UNL     1      29.207  -1.635  30.854  1.00  0.00    -0.000 C 
BRANCH  10  11
ATOM     11  C   UNL     1      27.969  -1.297  31.693  1.00  0.00    -0.000 C 
BRANCH  11  12
ATOM     12  C   UNL     1      27.302  -0.006  31.197  1.00  0.00    -0.000 C 
BRANCH  12  13
ATOM     13  C   UNL     1      26.155  -0.276  30.209  1.00  0.00    -0.003 C 
ATOM     14  C   UNL     1      26.613  -0.248  28.750  1.00  0.00     0.004 C 
ENDBRANCH  12  13
ENDBRANCH  11  12
ENDBRANCH  10  11
ENDBRANCH   9  10
ENDBRANCH   1   9
TORSDOF 10
ENDMDL
MODEL 4
REMARK VINA RESULT:    -4.295      4.732      6.377
REMARK INTER + INTRA:          -8.140
REMARK INTER:                  -7.560
REMARK INTRA:                  -0.579
REMARK UNBOUND:                -1.333
REMARK SMILES CCCCCCCCCCCC(=O)[O-]
REMARK SMILES IDX 7 1 8 2 9 3 10 4 11 5 12 6 13 7 14 8 6 9 5 10 4 11 3 12 2 13
REMARK SMILES IDX 1 14
REMARK H PARENT
REMARK Flexibility Score: inf
ROOT
ATOM      1  C   UNL     1      27.559   3.714  29.311  1.00  0.00     0.000 C 
ENDROOT
BRANCH   1   2
ATOM      2  C   UNL     1      27.825   2.204  29.431  1.00  0.00     0.000 C 
BRANCH   2   3
ATOM      3  C   UNL     1      28.158   1.766  30.868  1.00  0.00     0.000 C 
BRANCH   3   4
ATOM      4  C   UNL     1      27.426   0.501  31.354  1.00  0.00     0.006 C 
BRANCH   4   5
ATOM      5  C   UNL     1      26.590  -0.166  30.254  1.00  0.00     0.053 C 
BRANCH   5   6
ATOM      6  C   UNL     1      27.273  -1.399  29.755  1.00  0.00     0.041 C 
ATOM      7  O   UNL     1      28.113  -1.325  28.820  1.00  0.00    -0.550 OA
ATOM      8  O   UNL     1      26.946  -2.640  30.288  1.00  0.00    -0.550 OA
ENDBRANCH   5   6
ENDBRANCH   4   5
ENDBRANCH   3   4
ENDBRANCH   2   3
ENDBRANCH   1   2
BRANCH   1   9
ATOM      9  C   UNL     1      27.763   4.456  30.642  1.00  0.00     0.000 C 
BRANCH   9  10
ATOM     10  C   UNL     1      27.318   5.925  30.577  1.00  0.00    -0.000 C 
BRANCH  10  11
ATOM     11  C   UNL     1      28.434   6.812  30.011  1.00  0.00    -0.000 C 
BRANCH  11  12
ATOM     12  C   UNL     1      28.004   8.287  29.981  1.00  0.00    -0.000 C 
BRANCH  12  13
ATOM     13  C   UNL     1      26.557   8.489  30.457  1.00  0.00    -0.003 C 
ATOM     14  C   UNL     1      26.454   9.447  31.645  1.00  0.00     0.004 C 
ENDBRANCH  12  13
ENDBRANCH  11  12
ENDBRANCH  10  11
ENDBRANCH   9  10
ENDBRANCH   1   9
TORSDOF 10
ENDMDL
MODEL 5
REMARK VINA RESULT:    -4.271      3.302      6.713
REMARK INTER + INTRA:          -8.100
REMARK INTER:                  -7.312
REMARK INTRA:                  -0.789
REMARK UNBOUND:                -1.333
REMARK SMILES CCCCCCCCCCCC(=O)[O-]
REMARK SMILES IDX 7 1 8 2 9 3 10 4 11 5 12 6 13 7 14 8 6 9 5 10 4 11 3 12 2 13
REMARK SMILES IDX 1 14
REMARK H PARENT
REMARK Flexibility Score: inf
ROOT
ATOM      1  C   UNL     1      29.786  -4.881  30.341  1.00  0.00     0.000 C 
ENDROOT
BRANCH   1   2
ATOM      2  C   UNL     1      29.513  -3.486  29.751  1.00  0.00     0.000 C 
BRANCH   2   3
ATOM      3  C   UNL     1      28.312  -2.783  30.408  1.00  0.00     0.000 C 
BRANCH   3   4
ATOM      4  C   UNL     1      27.708  -1.622  29.595  1.00  0.00     0.006 C 
BRANCH   4   5
ATOM      5  C   UNL     1      28.769  -0.789  28.862  1.00  0.00     0.053 C 
BRANCH   5   6
ATOM      6  C   UNL     1      29.343   0.245  29.776  1.00  0.00     0.041 C 
ATOM      7  O   UNL     1      28.696   1.295  30.031  1.00  0.00    -0.550 OA
ATOM      8  O   UNL     1      30.616   0.075  30.307  1.00  0.00    -0.550 OA
ENDBRANCH   5   6
ENDBRANCH   4   5
ENDBRANCH   3   4
ENDBRANCH   2   3
ENDBRANCH   1   2
BRANCH   1   9
ATOM      9  C   UNL     1      28.500  -5.596  30.784  1.00  0.00     0.000 C 
BRANCH   9  10
ATOM     10  C   UNL     1      27.869  -6.433  29.660  1.00  0.00    -0.000 C 
BRANCH  10  11
ATOM     11  C   UNL     1      28.827  -7.536  29.194  1.00  0.00    -0.000 C 
BRANCH  11  12
ATOM     12  C   UNL     1      28.422  -8.899  29.774  1.00  0.00    -0.000 C 
BRANCH  12  13
ATOM     13  C   UNL     1      29.337  -9.347  30.924  1.00  0.00    -0.003 C 
ATOM     14  C   UNL     1      28.755  -9.025  32.302  1.00  0.00     0.004 C 
ENDBRANCH  12  13
ENDBRANCH  11  12
ENDBRANCH  10  11
ENDBRANCH   9  10
ENDBRANCH   1   9
TORSDOF 10
ENDMDL
MODEL 6
REMARK VINA RESULT:    -4.265      3.172      7.265
REMARK INTER + INTRA:          -8.092
REMARK INTER:                  -7.091
REMARK INTRA:                  -1.001
REMARK UNBOUND:                -1.333
REMARK SMILES CCCCCCCCCCCC(=O)[O-]
REMARK SMILES IDX 7 1 8 2 9 3 10 4 11 5 12 6 13 7 14 8 6 9 5 10 4 11 3 12 2 13
REMARK SMILES IDX 1 14
REMARK H PARENT
REMARK Flexibility Score: inf
ROOT
ATOM      1  C   UNL     1      29.427  -6.573  30.836  1.00  0.00     0.000 C 
ENDROOT
BRANCH   1   2
ATOM      2  C   UNL     1      28.547  -6.111  29.662  1.00  0.00     0.000 C 
BRANCH   2   3
ATOM      3  C   UNL     1      27.198  -5.527  30.119  1.00  0.00     0.000 C 
BRANCH   3   4
ATOM      4  C   UNL     1      27.296  -4.338  31.094  1.00  0.00     0.006 C 
BRANCH   4   5
ATOM      5  C   UNL     1      27.198  -2.978  30.391  1.00  0.00     0.053 C 
BRANCH   5   6
ATOM      6  C   UNL     1      28.326  -2.091  30.811  1.00  0.00     0.041 C 
ATOM      7  O   UNL     1      29.501  -2.338  30.434  1.00  0.00    -0.550 OA
ATOM      8  O   UNL     1      28.088  -1.018  31.662  1.00  0.00    -0.550 OA
ENDBRANCH   5   6
ENDBRANCH   4   5
ENDBRANCH   3   4
ENDBRANCH   2   3
ENDBRANCH   1   2
BRANCH   1   9
ATOM      9  C   UNL     1      28.746  -7.650  31.696  1.00  0.00     0.000 C 
BRANCH   9  10
ATOM     10  C   UNL     1      29.309  -9.056  31.442  1.00  0.00    -0.000 C 
BRANCH  10  11
ATOM     11  C   UNL     1      28.196 -10.025  31.022  1.00  0.00    -0.000 C 
BRANCH  11  12
ATOM     12  C   UNL     1      28.101 -10.125  29.492  1.00  0.00    -0.000 C 
BRANCH  12  13
ATOM     13  C   UNL     1      29.475 -10.045  28.808  1.00  0.00    -0.003 C 
ATOM     14  C   UNL     1      29.546  -8.943  27.750  1.00  0.00     0.004 C 
ENDBRANCH  12  13
ENDBRANCH  11  12
ENDBRANCH  10  11
ENDBRANCH   9  10
ENDBRANCH   1   9
TORSDOF 10
ENDMDL
MODEL 7
REMARK VINA RESULT:    -4.250      4.165      5.479
REMARK INTER + INTRA:          -8.068
REMARK INTER:                  -7.509
REMARK INTRA:                  -0.560
REMARK UNBOUND:                -1.333
REMARK SMILES CCCCCCCCCCCC(=O)[O-]
REMARK SMILES IDX 7 1 8 2 9 3 10 4 11 5 12 6 13 7 14 8 6 9 5 10 4 11 3 12 2 13
REMARK SMILES IDX 1 14
REMARK H PARENT
REMARK Flexibility Score: inf
ROOT
ATOM      1  C   UNL     1      27.998   2.056  29.613  1.00  0.00     0.000 C 
ENDROOT
BRANCH   1   2
ATOM      2  C   UNL     1      28.352   1.791  31.086  1.00  0.00     0.000 C 
BRANCH   2   3
ATOM      3  C   UNL     1      29.437   0.713  31.257  1.00  0.00     0.000 C 
BRANCH   3   4
ATOM      4  C   UNL     1      29.728  -0.128  30.000  1.00  0.00     0.006 C 
BRANCH   4   5
ATOM      5  C   UNL     1      29.562  -1.635  30.237  1.00  0.00     0.053 C 
BRANCH   5   6
ATOM      6  C   UNL     1      28.126  -2.029  30.100  1.00  0.00     0.041 C 
ATOM      7  O   UNL     1      27.670  -3.001  30.757  1.00  0.00    -0.550 OA
ATOM      8  O   UNL     1      27.301  -1.354  29.208  1.00  0.00    -0.550 OA
ENDBRANCH   5   6
ENDBRANCH   4   5
ENDBRANCH   3   4
ENDBRANCH   2   3
ENDBRANCH   1   2
BRANCH   1   9
ATOM      9  C   UNL     1      27.633   3.525  29.349  1.00  0.00     0.000 C 
BRANCH   9  10
ATOM     10  C   UNL     1      27.844   4.420  30.580  1.00  0.00    -0.000 C 
BRANCH  10  11
ATOM     11  C   UNL     1      27.261   5.819  30.348  1.00  0.00    -0.000 C 
BRANCH  11  12
ATOM     12  C   UNL     1      28.366   6.823  29.986  1.00  0.00    -0.000 C 
BRANCH  12  13
ATOM     13  C   UNL     1      28.019   8.260  30.407  1.00  0.00    -0.003 C 
ATOM     14  C   UNL     1      28.743   9.313  29.567  1.00  0.00     0.004 C 
ENDBRANCH  12  13
ENDBRANCH  11  12
ENDBRANCH  10  11
ENDBRANCH   9  10
ENDBRANCH   1   9
TORSDOF 10
ENDMDL
MODEL 8
REMARK VINA RESULT:    -4.242      3.320      6.869
REMARK INTER + INTRA:          -8.055
REMARK INTER:                  -7.339
REMARK INTRA:                  -0.716
REMARK UNBOUND:                -1.333
REMARK SMILES CCCCCCCCCCCC(=O)[O-]
REMARK SMILES IDX 7 1 8 2 9 3 10 4 11 5 12 6 13 7 14 8 6 9 5 10 4 11 3 12 2 13
REMARK SMILES IDX 1 14
REMARK H PARENT
REMARK Flexibility Score: inf
ROOT
ATOM      1  C   UNL     1      27.213  -5.642  29.977  1.00  0.00     0.000 C 
ENDROOT
BRANCH   1   2
ATOM      2  C   UNL     1      26.979  -4.326  30.738  1.00  0.00     0.000 C 
BRANCH   2   3
ATOM      3  C   UNL     1      27.937  -3.202  30.301  1.00  0.00     0.000 C 
BRANCH   3   4
ATOM      4  C   UNL     1      27.329  -1.787  30.302  1.00  0.00     0.006 C 
BRANCH   4   5
ATOM      5  C   UNL     1      27.529  -1.049  28.971  1.00  0.00     0.053 C 
BRANCH   5   6
ATOM      6  C   UNL     1      28.115   0.306  29.208  1.00  0.00     0.041 C 
ATOM      7  O   UNL     1      29.363   0.451  29.294  1.00  0.00    -0.550 OA
ATOM      8  O   UNL     1      27.280   1.403  29.386  1.00  0.00    -0.550 OA
ENDBRANCH   5   6
ENDBRANCH   4   5
ENDBRANCH   3   4
ENDBRANCH   2   3
ENDBRANCH   1   2
BRANCH   1   9
ATOM      9  C   UNL     1      28.694  -5.867  29.630  1.00  0.00     0.000 C 
BRANCH   9  10
ATOM     10  C   UNL     1      29.493  -6.465  30.798  1.00  0.00    -0.000 C 
BRANCH  10  11
ATOM     11  C   UNL     1      28.726  -7.620  31.453  1.00  0.00    -0.000 C 
BRANCH  11  12
ATOM     12  C   UNL     1      29.186  -8.974  30.893  1.00  0.00    -0.000 C 
BRANCH  12  13
ATOM     13  C   UNL     1      28.257  -9.502  29.788  1.00  0.00    -0.003 C 
ATOM     14  C   UNL     1      28.832  -9.298  28.385  1.00  0.00     0.004 C 
ENDBRANCH  12  13
ENDBRANCH  11  12
ENDBRANCH  10  11
ENDBRANCH   9  10
ENDBRANCH   1   9
TORSDOF 10
ENDMDL
MODEL 9
REMARK VINA RESULT:    -4.219      3.181      6.627
REMARK INTER + INTRA:          -8.018
REMARK INTER:                  -7.313
REMARK INTRA:                  -0.705
REMARK UNBOUND:                -1.333
REMARK SMILES CCCCCCCCCCCC(=O)[O-]
REMARK SMILES IDX 7 1 8 2 9 3 10 4 11 5 12 6 13 7 14 8 6 9 5 10 4 11 3 12 2 13
REMARK SMILES IDX 1 14
REMARK H PARENT
REMARK Flexibility Score: inf
ROOT
ATOM      1  C   UNL     1      29.403  -3.426  30.005  1.00  0.00     0.000 C 
ENDROOT
BRANCH   1   2
ATOM      2  C   UNL     1      27.991  -3.021  30.462  1.00  0.00     0.000 C 
BRANCH   2   3
ATOM      3  C   UNL     1      27.528  -1.682  29.859  1.00  0.00     0.000 C 
BRANCH   3   4
ATOM      4  C   UNL     1      28.504  -1.046  28.852  1.00  0.00     0.006 C 
BRANCH   4   5
ATOM      5  C   UNL     1      28.899   0.389  29.226  1.00  0.00     0.053 C 
BRANCH   5   6
ATOM      6  C   UNL     1      29.808   0.388  30.413  1.00  0.00     0.041 C 
ATOM      7  O   UNL     1      29.495   1.025  31.452  1.00  0.00    -0.550 OA
ATOM      8  O   UNL     1      31.027  -0.277  30.354  1.00  0.00    -0.550 OA
ENDBRANCH   5   6
ENDBRANCH   4   5
ENDBRANCH   3   4
ENDBRANCH   2   3
ENDBRANCH   1   2
BRANCH   1   9
ATOM      9  C   UNL     1      29.487  -4.905  29.594  1.00  0.00     0.000 C 
BRANCH   9  10
ATOM     10  C   UNL     1      29.865  -5.826  30.764  1.00  0.00    -0.000 C 
BRANCH  10  11
ATOM     11  C   UNL     1      28.721  -6.794  31.091  1.00  0.00    -0.000 C 
BRANCH  11  12
ATOM     12  C   UNL     1      28.375  -7.669  29.876  1.00  0.00    -0.000 C 
BRANCH  12  13
ATOM     13  C   UNL     1      28.407  -9.170  30.201  1.00  0.00    -0.003 C 
ATOM     14  C   UNL     1      29.764  -9.631  30.735  1.00  0.00     0.004 C 
ENDBRANCH  12  13
ENDBRANCH  11  12
ENDBRANCH  10  11
ENDBRANCH   9  10
ENDBRANCH   1   9
TORSDOF 10
ENDMDL
