MODEL 1
REMARK VINA RESULT:    -5.840      0.000      0.000
REMARK INTER + INTRA:         -10.210
REMARK INTER:                  -8.571
REMARK INTRA:                  -1.639
REMARK UNBOUND:                -1.639
REMARK SMILES O=c1c(O[C@H]2O[C@@H](CO)[C@@H](O)[C@H](O)[C@@H]2O)c(-c2ccc(O)c(O)c2)oc2cc(O)cc(O)c12
REMARK SMILES IDX 4 1 3 2 16 3 25 4 2 5 26 6 1 7 33 8 27 9 31 10 28 11 30 12
REMARK SMILES IDX 17 13 18 14 19 15 20 16 24 17 22 18 21 19 23 21 32 23 29 25
REMARK SMILES IDX 5 27 14 28 6 29 12 30 7 31 10 32 15 33 13 35 8 37 9 38 11 40
REMARK H PARENT 21 20 23 22 32 24 29 26 15 34 13 36 9 39 11 41
REMARK Flexibility Score: inf
ROOT
ATOM      1  O   UNL     1       5.784  -4.953   5.543  1.00  0.00    -0.454 OA
ENDROOT
BRANCH   1   2
ATOM      2  C   UNL     1       4.446  -5.389   5.666  1.00  0.00     0.214 A 
ATOM      3  C   UNL     1       3.301  -4.565   6.008  1.00  0.00     0.180 A 
ATOM      4  O   UNL     1       2.104  -5.131   5.984  1.00  0.00    -0.452 OA
ATOM      5  C   UNL     1       4.230  -6.743   5.448  1.00  0.00     0.239 A 
ATOM      6  C   UNL     1       1.868  -6.336   5.490  1.00  0.00     0.146 A 
ATOM      7  O   UNL     1       5.197  -7.560   5.581  1.00  0.00    -0.285 OA
ATOM      8  C   UNL     1       2.927  -7.199   5.164  1.00  0.00     0.111 A 
ATOM      9  C   UNL     1       0.523  -6.756   5.266  1.00  0.00     0.094 A 
ATOM     10  C   UNL     1       2.725  -8.350   4.345  1.00  0.00     0.134 A 
ATOM     11  C   UNL     1       0.301  -7.886   4.437  1.00  0.00     0.123 A 
ATOM     12  C   UNL     1       1.396  -8.665   3.970  1.00  0.00     0.093 A 
BRANCH   3  13
ATOM     13  C   UNL     1       3.344  -3.252   6.636  1.00  0.00     0.025 A 
ATOM     14  C   UNL     1       2.644  -2.921   7.817  1.00  0.00     0.016 A 
ATOM     15  C   UNL     1       2.392  -1.568   8.122  1.00  0.00     0.051 A 
ATOM     16  C   UNL     1       2.931  -0.575   7.335  1.00  0.00     0.157 A 
ATOM     17  C   UNL     1       4.140  -2.243   6.028  1.00  0.00     0.062 A 
ATOM     18  C   UNL     1       3.846  -0.896   6.313  1.00  0.00     0.158 A 
BRANCH  16  19
ATOM     19  O   UNL     1       2.658   0.770   7.678  1.00  0.00    -0.504 OA
ATOM     20  H   UNL     1       1.738   1.079   8.026  1.00  0.00     0.293 HD
ENDBRANCH  16  19
BRANCH  18  21
ATOM     21  O   UNL     1       4.410   0.097   5.510  1.00  0.00    -0.504 OA
ATOM     22  H   UNL     1       5.298  -0.036   5.046  1.00  0.00     0.293 HD
ENDBRANCH  18  21
ENDBRANCH   3  13
BRANCH  10  23
ATOM     23  O   UNL     1       3.790  -9.139   3.927  1.00  0.00    -0.507 OA
ATOM     24  H   UNL     1       3.696 -10.132   3.885  1.00  0.00     0.293 HD
ENDBRANCH  10  23
BRANCH  11  25
ATOM     25  O   UNL     1      -0.991  -8.142   3.960  1.00  0.00    -0.508 OA
ATOM     26  H   UNL     1      -1.249  -8.917   3.359  1.00  0.00     0.293 HD
ENDBRANCH  11  25
ENDBRANCH   1   2
BRANCH   1  27
ATOM     27  C   UNL     1       6.531  -4.637   4.371  1.00  0.00     0.339 C 
ATOM     28  C   UNL     1       7.622  -5.732   4.140  1.00  0.00     0.214 C 
ATOM     29  O   UNL     1       7.104  -3.325   4.447  1.00  0.00    -0.332 OA
ATOM     30  C   UNL     1       9.005  -5.113   3.760  1.00  0.00     0.180 C 
ATOM     31  C   UNL     1       8.233  -3.229   5.337  1.00  0.00     0.179 C 
ATOM     32  C   UNL     1       9.464  -4.071   4.841  1.00  0.00     0.177 C 
BRANCH  28  33
ATOM     33  O   UNL     1       7.160  -6.757   3.236  1.00  0.00    -0.384 OA
ATOM     34  H   UNL     1       6.562  -6.299   2.573  1.00  0.00     0.211 HD
ENDBRANCH  28  33
BRANCH  30  35
ATOM     35  O   UNL     1       8.927  -4.453   2.510  1.00  0.00    -0.387 OA
ATOM     36  H   UNL     1       8.382  -3.637   2.638  1.00  0.00     0.211 HD
ENDBRANCH  30  35
BRANCH  31  37
ATOM     37  C   UNL     1       7.775  -3.332   6.854  1.00  0.00     0.191 C 
BRANCH  37  38
ATOM     38  O   UNL     1       7.866  -4.653   7.352  1.00  0.00    -0.394 OA
ATOM     39  H   UNL     1       7.468  -4.618   8.284  1.00  0.00     0.210 HD
ENDBRANCH  37  38
ENDBRANCH  31  37
BRANCH  32  40
ATOM     40  O   UNL     1      10.122  -4.711   5.919  1.00  0.00    -0.387 OA
ATOM     41  H   UNL     1      11.100  -4.484   5.874  1.00  0.00     0.211 HD
ENDBRANCH  32  40
ENDBRANCH   1  27
TORSDOF 12
ENDMDL
MODEL 2
REMARK VINA RESULT:    -5.601      0.873      2.081
REMARK INTER + INTRA:          -9.859
REMARK INTER:                  -8.303
REMARK INTRA:                  -1.556
REMARK UNBOUND:                -1.639
REMARK SMILES O=c1c(O[C@H]2O[C@@H](CO)[C@@H](O)[C@H](O)[C@@H]2O)c(-c2ccc(O)c(O)c2)oc2cc(O)cc(O)c12
REMARK SMILES IDX 4 1 3 2 16 3 25 4 2 5 26 6 1 7 33 8 27 9 31 10 28 11 30 12
REMARK SMILES IDX 17 13 18 14 19 15 20 16 24 17 22 18 21 19 23 21 32 23 29 25
REMARK SMILES IDX 5 27 14 28 6 29 12 30 7 31 10 32 15 33 13 35 8 37 9 38 11 40
REMARK H PARENT 21 20 23 22 32 24 29 26 15 34 13 36 9 39 11 41
REMARK Flexibility Score: inf
ROOT
ATOM      1  O   UNL     1       5.914  -5.136   5.118  1.00  0.00    -0.454 OA
ENDROOT
BRANCH   1   2
ATOM      2  C   UNL     1       4.614  -5.642   5.340  1.00  0.00     0.214 A 
ATOM      3  C   UNL     1       3.465  -4.885   5.803  1.00  0.00     0.180 A 
ATOM      4  O   UNL     1       2.298  -5.510   5.862  1.00  0.00    -0.452 OA
ATOM      5  C   UNL     1       4.444  -6.998   5.099  1.00  0.00     0.239 A 
ATOM      6  C   UNL     1       2.078  -6.710   5.352  1.00  0.00     0.146 A 
ATOM      7  O   UNL     1       5.456  -7.770   5.124  1.00  0.00    -0.285 OA
ATOM      8  C   UNL     1       3.145  -7.511   4.911  1.00  0.00     0.111 A 
ATOM      9  C   UNL     1       0.740  -7.191   5.229  1.00  0.00     0.094 A 
ATOM     10  C   UNL     1       2.928  -8.648   4.077  1.00  0.00     0.134 A 
ATOM     11  C   UNL     1       0.501  -8.308   4.387  1.00  0.00     0.123 A 
ATOM     12  C   UNL     1       1.588  -9.019   3.805  1.00  0.00     0.093 A 
BRANCH   3  13
ATOM     13  C   UNL     1       3.498  -3.590   6.466  1.00  0.00     0.025 A 
ATOM     14  C   UNL     1       2.944  -3.342   7.741  1.00  0.00     0.016 A 
ATOM     15  C   UNL     1       2.640  -2.021   8.125  1.00  0.00     0.051 A 
ATOM     16  C   UNL     1       2.995  -0.970   7.308  1.00  0.00     0.157 A 
ATOM     17  C   UNL     1       4.130  -2.508   5.792  1.00  0.00     0.062 A 
ATOM     18  C   UNL     1       3.782  -1.194   6.162  1.00  0.00     0.158 A 
BRANCH  16  19
ATOM     19  O   UNL     1       2.675   0.342   7.732  1.00  0.00    -0.504 OA
ATOM     20  H   UNL     1       2.580   1.131   7.075  1.00  0.00     0.293 HD
ENDBRANCH  16  19
BRANCH  18  21
ATOM     21  O   UNL     1       4.159  -0.142   5.326  1.00  0.00    -0.504 OA
ATOM     22  H   UNL     1       5.117  -0.015   5.031  1.00  0.00     0.293 HD
ENDBRANCH  18  21
ENDBRANCH   3  13
BRANCH  10  23
ATOM     23  O   UNL     1       3.989  -9.372   3.546  1.00  0.00    -0.507 OA
ATOM     24  H   UNL     1       4.703  -9.731   4.143  1.00  0.00     0.293 HD
ENDBRANCH  10  23
BRANCH  11  25
ATOM     25  O   UNL     1      -0.813  -8.615   4.013  1.00  0.00    -0.508 OA
ATOM     26  H   UNL     1      -1.482  -7.955   3.632  1.00  0.00     0.293 HD
ENDBRANCH  11  25
ENDBRANCH   1   2
BRANCH   1  27
ATOM     27  C   UNL     1       7.055  -5.163   5.971  1.00  0.00     0.339 C 
ATOM     28  C   UNL     1       7.601  -3.709   6.152  1.00  0.00     0.214 C 
ATOM     29  O   UNL     1       8.066  -6.049   5.474  1.00  0.00    -0.332 OA
ATOM     30  C   UNL     1       9.157  -3.646   6.034  1.00  0.00     0.180 C 
ATOM     31  C   UNL     1       8.783  -5.543   4.333  1.00  0.00     0.179 C 
ATOM     32  C   UNL     1       9.637  -4.268   4.675  1.00  0.00     0.177 C 
BRANCH  28  33
ATOM     33  O   UNL     1       7.068  -3.088   7.341  1.00  0.00    -0.384 OA
ATOM     34  H   UNL     1       7.826  -2.579   7.756  1.00  0.00     0.211 HD
ENDBRANCH  28  33
BRANCH  30  35
ATOM     35  O   UNL     1       9.765  -4.363   7.092  1.00  0.00    -0.387 OA
ATOM     36  H   UNL     1       9.040  -4.706   7.673  1.00  0.00     0.211 HD
ENDBRANCH  30  35
BRANCH  31  37
ATOM     37  C   UNL     1       7.865  -5.544   3.036  1.00  0.00     0.191 C 
BRANCH  37  38
ATOM     38  O   UNL     1       7.118  -6.739   2.910  1.00  0.00    -0.394 OA
ATOM     39  H   UNL     1       7.574  -7.265   2.174  1.00  0.00     0.210 HD
ENDBRANCH  37  38
ENDBRANCH  31  37
BRANCH  32  40
ATOM     40  O   UNL     1       9.586  -3.314   3.630  1.00  0.00    -0.387 OA
ATOM     41  H   UNL     1       9.581  -3.804   2.753  1.00  0.00     0.211 HD
ENDBRANCH  32  40
ENDBRANCH   1  27
TORSDOF 12
ENDMDL
MODEL 3
REMARK VINA RESULT:    -5.579      2.127      7.723
REMARK INTER + INTRA:          -9.828
REMARK INTER:                  -8.228
REMARK INTRA:                  -1.600
REMARK UNBOUND:                -1.639
REMARK SMILES O=c1c(O[C@H]2O[C@@H](CO)[C@@H](O)[C@H](O)[C@@H]2O)c(-c2ccc(O)c(O)c2)oc2cc(O)cc(O)c12
REMARK SMILES IDX 4 1 3 2 16 3 25 4 2 5 26 6 1 7 33 8 27 9 31 10 28 11 30 12
REMARK SMILES IDX 17 13 18 14 19 15 20 16 24 17 22 18 21 19 23 21 32 23 29 25
REMARK SMILES IDX 5 27 14 28 6 29 12 30 7 31 10 32 15 33 13 35 8 37 9 38 11 40
REMARK H PARENT 21 20 23 22 32 24 29 26 15 34 13 36 9 39 11 41
REMARK Flexibility Score: inf
ROOT
ATOM      1  O   UNL     1       3.763  -3.783   5.737  1.00  0.00    -0.454 OA
ENDROOT
BRANCH   1   2
ATOM      2  C   UNL     1       4.731  -2.759   5.839  1.00  0.00     0.214 A 
ATOM      3  C   UNL     1       6.111  -2.833   5.397  1.00  0.00     0.180 A 
ATOM      4  O   UNL     1       6.848  -1.735   5.488  1.00  0.00    -0.452 OA
ATOM      5  C   UNL     1       4.301  -1.580   6.434  1.00  0.00     0.239 A 
ATOM      6  C   UNL     1       6.358  -0.540   5.774  1.00  0.00     0.146 A 
ATOM      7  O   UNL     1       3.291  -1.602   7.208  1.00  0.00    -0.285 OA
ATOM      8  C   UNL     1       5.039  -0.396   6.235  1.00  0.00     0.111 A 
ATOM      9  C   UNL     1       7.172   0.618   5.595  1.00  0.00     0.094 A 
ATOM     10  C   UNL     1       4.388   0.874   6.243  1.00  0.00     0.134 A 
ATOM     11  C   UNL     1       6.539   1.888   5.579  1.00  0.00     0.123 A 
ATOM     12  C   UNL     1       5.155   2.010   5.886  1.00  0.00     0.093 A 
BRANCH   3  13
ATOM     13  C   UNL     1       6.859  -4.049   5.114  1.00  0.00     0.025 A 
ATOM     14  C   UNL     1       7.571  -4.781   6.089  1.00  0.00     0.016 A 
ATOM     15  C   UNL     1       8.588  -5.671   5.688  1.00  0.00     0.051 A 
ATOM     16  C   UNL     1       8.800  -5.912   4.348  1.00  0.00     0.157 A 
ATOM     17  C   UNL     1       6.872  -4.532   3.777  1.00  0.00     0.062 A 
ATOM     18  C   UNL     1       7.919  -5.387   3.383  1.00  0.00     0.158 A 
BRANCH  16  19
ATOM     19  O   UNL     1       9.828  -6.816   3.988  1.00  0.00    -0.504 OA
ATOM     20  H   UNL     1       9.870  -7.271   3.064  1.00  0.00     0.293 HD
ENDBRANCH  16  19
BRANCH  18  21
ATOM     21  O   UNL     1       8.112  -5.628   2.022  1.00  0.00    -0.504 OA
ATOM     22  H   UNL     1       8.108  -4.878   1.344  1.00  0.00     0.293 HD
ENDBRANCH  18  21
ENDBRANCH   3  13
BRANCH  10  23
ATOM     23  O   UNL     1       3.047   1.000   6.590  1.00  0.00    -0.507 OA
ATOM     24  H   UNL     1       2.728   0.702   7.487  1.00  0.00     0.293 HD
ENDBRANCH  10  23
BRANCH  11  25
ATOM     25  O   UNL     1       7.250   3.002   5.113  1.00  0.00    -0.508 OA
ATOM     26  H   UNL     1       6.940   3.628   4.379  1.00  0.00     0.293 HD
ENDBRANCH  11  25
ENDBRANCH   1   2
BRANCH   1  27
ATOM     27  C   UNL     1       3.650  -4.999   6.471  1.00  0.00     0.339 C 
ATOM     28  C   UNL     1       3.517  -6.196   5.474  1.00  0.00     0.214 C 
ATOM     29  O   UNL     1       2.556  -4.958   7.397  1.00  0.00    -0.332 OA
ATOM     30  C   UNL     1       2.407  -7.205   5.910  1.00  0.00     0.180 C 
ATOM     31  C   UNL     1       1.260  -5.070   6.780  1.00  0.00     0.179 C 
ATOM     32  C   UNL     1       1.033  -6.471   6.103  1.00  0.00     0.177 C 
BRANCH  28  33
ATOM     33  O   UNL     1       4.798  -6.801   5.200  1.00  0.00    -0.384 OA
ATOM     34  H   UNL     1       4.618  -7.579   4.594  1.00  0.00     0.211 HD
ENDBRANCH  28  33
BRANCH  30  35
ATOM     35  O   UNL     1       2.756  -7.828   7.132  1.00  0.00    -0.387 OA
ATOM     36  H   UNL     1       1.962  -7.789   7.723  1.00  0.00     0.211 HD
ENDBRANCH  30  35
BRANCH  31  37
ATOM     37  C   UNL     1       0.892  -3.747   5.980  1.00  0.00     0.191 C 
BRANCH  37  38
ATOM     38  O   UNL     1      -0.507  -3.557   5.874  1.00  0.00    -0.394 OA
ATOM     39  H   UNL     1      -0.633  -2.561   5.737  1.00  0.00     0.210 HD
ENDBRANCH  37  38
ENDBRANCH  31  37
BRANCH  32  40
ATOM     40  O   UNL     1       0.343  -6.347   4.873  1.00  0.00    -0.387 OA
ATOM     41  H   UNL     1      -0.535  -6.830   4.952  1.00  0.00     0.211 HD
ENDBRANCH  32  40
ENDBRANCH   1  27
TORSDOF 12
ENDMDL
MODEL 4
REMARK VINA RESULT:    -5.310      1.769      2.293
REMARK INTER + INTRA:          -9.432
REMARK INTER:                  -8.274
REMARK INTRA:                  -1.158
REMARK UNBOUND:                -1.639
REMARK SMILES O=c1c(O[C@H]2O[C@@H](CO)[C@@H](O)[C@H](O)[C@@H]2O)c(-c2ccc(O)c(O)c2)oc2cc(O)cc(O)c12
REMARK SMILES IDX 4 1 3 2 16 3 25 4 2 5 26 6 1 7 33 8 27 9 31 10 28 11 30 12
REMARK SMILES IDX 17 13 18 14 19 15 20 16 24 17 22 18 21 19 23 21 32 23 29 25
REMARK SMILES IDX 5 27 14 28 6 29 12 30 7 31 10 32 15 33 13 35 8 37 9 38 11 40
REMARK H PARENT 21 20 23 22 32 24 29 26 15 34 13 36 9 39 11 41
REMARK Flexibility Score: inf
ROOT
ATOM      1  O   UNL     1       6.136  -6.584   4.568  1.00  0.00    -0.454 OA
ENDROOT
BRANCH   1   2
ATOM      2  C   UNL     1       4.803  -6.454   5.014  1.00  0.00     0.214 A 
ATOM      3  C   UNL     1       4.177  -5.244   5.515  1.00  0.00     0.180 A 
ATOM      4  O   UNL     1       2.884  -5.289   5.799  1.00  0.00    -0.452 OA
ATOM      5  C   UNL     1       4.037  -7.612   4.973  1.00  0.00     0.239 A 
ATOM      6  C   UNL     1       2.094  -6.302   5.480  1.00  0.00     0.146 A 
ATOM      7  O   UNL     1       4.616  -8.745   4.972  1.00  0.00    -0.285 OA
ATOM      8  C   UNL     1       2.632  -7.514   5.017  1.00  0.00     0.111 A 
ATOM      9  C   UNL     1       0.679  -6.155   5.588  1.00  0.00     0.094 A 
ATOM     10  C   UNL     1       1.817  -8.491   4.370  1.00  0.00     0.134 A 
ATOM     11  C   UNL     1      -0.147  -7.105   4.934  1.00  0.00     0.123 A 
ATOM     12  C   UNL     1       0.421  -8.254   4.318  1.00  0.00     0.093 A 
BRANCH   3  13
ATOM     13  C   UNL     1       4.867  -4.055   5.995  1.00  0.00     0.025 A 
ATOM     14  C   UNL     1       5.102  -3.779   7.360  1.00  0.00     0.016 A 
ATOM     15  C   UNL     1       5.380  -2.459   7.767  1.00  0.00     0.051 A 
ATOM     16  C   UNL     1       5.539  -1.469   6.822  1.00  0.00     0.157 A 
ATOM     17  C   UNL     1       5.334  -3.117   5.035  1.00  0.00     0.062 A 
ATOM     18  C   UNL     1       5.567  -1.792   5.451  1.00  0.00     0.158 A 
BRANCH  16  19
ATOM     19  O   UNL     1       5.821  -0.157   7.271  1.00  0.00    -0.504 OA
ATOM     20  H   UNL     1       5.699   0.133   8.253  1.00  0.00     0.293 HD
ENDBRANCH  16  19
BRANCH  18  21
ATOM     21  O   UNL     1       5.735  -0.804   4.479  1.00  0.00    -0.504 OA
ATOM     22  H   UNL     1       6.301  -0.960   3.657  1.00  0.00     0.293 HD
ENDBRANCH  18  21
ENDBRANCH   3  13
BRANCH  10  23
ATOM     23  O   UNL     1       2.367  -9.638   3.809  1.00  0.00    -0.507 OA
ATOM     24  H   UNL     1       2.420  -9.740   2.818  1.00  0.00     0.293 HD
ENDBRANCH  10  23
BRANCH  11  25
ATOM     25  O   UNL     1      -1.511  -6.828   4.769  1.00  0.00    -0.508 OA
ATOM     26  H   UNL     1      -1.905  -6.248   4.037  1.00  0.00     0.293 HD
ENDBRANCH  11  25
ENDBRANCH   1   2
BRANCH   1  27
ATOM     27  C   UNL     1       7.227  -5.675   4.693  1.00  0.00     0.339 C 
ATOM     28  C   UNL     1       8.322  -6.030   3.635  1.00  0.00     0.214 C 
ATOM     29  O   UNL     1       7.760  -5.669   6.024  1.00  0.00    -0.332 OA
ATOM     30  C   UNL     1       9.760  -5.998   4.243  1.00  0.00     0.180 C 
ATOM     31  C   UNL     1       8.540  -6.835   6.350  1.00  0.00     0.179 C 
ATOM     32  C   UNL     1       9.855  -6.939   5.495  1.00  0.00     0.177 C 
BRANCH  28  33
ATOM     33  O   UNL     1       8.166  -5.249   2.431  1.00  0.00    -0.384 OA
ATOM     34  H   UNL     1       8.776  -5.659   1.749  1.00  0.00     0.211 HD
ENDBRANCH  28  33
BRANCH  30  35
ATOM     35  O   UNL     1      10.100  -4.684   4.644  1.00  0.00    -0.387 OA
ATOM     36  H   UNL     1      10.954  -4.449   4.201  1.00  0.00     0.211 HD
ENDBRANCH  30  35
BRANCH  31  37
ATOM     37  C   UNL     1       7.612  -8.114   6.516  1.00  0.00     0.191 C 
BRANCH  37  38
ATOM     38  O   UNL     1       7.495  -8.850   5.313  1.00  0.00    -0.394 OA
ATOM     39  H   UNL     1       8.086  -8.370   4.645  1.00  0.00     0.210 HD
ENDBRANCH  37  38
ENDBRANCH  31  37
BRANCH  32  40
ATOM     40  O   UNL     1      10.119  -8.276   5.111  1.00  0.00    -0.387 OA
ATOM     41  H   UNL     1      10.887  -8.618   5.662  1.00  0.00     0.211 HD
ENDBRANCH  32  40
ENDBRANCH   1  27
TORSDOF 12
ENDMDL
MODEL 5
REMARK VINA RESULT:    -5.258      1.892      5.315
REMARK INTER + INTRA:          -9.356
REMARK INTER:                  -7.485
REMARK INTRA:                  -1.872
REMARK UNBOUND:                -1.639
REMARK SMILES O=c1c(O[C@H]2O[C@@H](CO)[C@@H](O)[C@H](O)[C@@H]2O)c(-c2ccc(O)c(O)c2)oc2cc(O)cc(O)c12
REMARK SMILES IDX 4 1 3 2 16 3 25 4 2 5 26 6 1 7 33 8 27 9 31 10 28 11 30 12
REMARK SMILES IDX 17 13 18 14 19 15 20 16 24 17 22 18 21 19 23 21 32 23 29 25
REMARK SMILES IDX 5 27 14 28 6 29 12 30 7 31 10 32 15 33 13 35 8 37 9 38 11 40
REMARK H PARENT 21 20 23 22 32 24 29 26 15 34 13 36 9 39 11 41
REMARK Flexibility Score: inf
ROOT
ATOM      1  O   UNL     1       4.789  -2.883   6.121  1.00  0.00    -0.454 OA
ENDROOT
BRANCH   1   2
ATOM      2  C   UNL     1       4.202  -4.124   5.788  1.00  0.00     0.214 A 
ATOM      3  C   UNL     1       4.908  -5.355   5.484  1.00  0.00     0.180 A 
ATOM      4  O   UNL     1       4.187  -6.448   5.286  1.00  0.00    -0.452 OA
ATOM      5  C   UNL     1       2.815  -4.142   5.740  1.00  0.00     0.239 A 
ATOM      6  C   UNL     1       2.889  -6.529   5.533  1.00  0.00     0.146 A 
ATOM      7  O   UNL     1       2.180  -3.053   5.563  1.00  0.00    -0.285 OA
ATOM      8  C   UNL     1       2.136  -5.376   5.806  1.00  0.00     0.111 A 
ATOM      9  C   UNL     1       2.251  -7.805   5.541  1.00  0.00     0.094 A 
ATOM     10  C   UNL     1       0.834  -5.456   6.383  1.00  0.00     0.134 A 
ATOM     11  C   UNL     1       0.964  -7.909   6.130  1.00  0.00     0.123 A 
ATOM     12  C   UNL     1       0.270  -6.744   6.560  1.00  0.00     0.093 A 
BRANCH   3  13
ATOM     13  C   UNL     1       6.309  -5.471   5.105  1.00  0.00     0.025 A 
ATOM     14  C   UNL     1       6.775  -5.397   3.774  1.00  0.00     0.016 A 
ATOM     15  C   UNL     1       8.039  -5.927   3.447  1.00  0.00     0.051 A 
ATOM     16  C   UNL     1       8.862  -6.404   4.443  1.00  0.00     0.157 A 
ATOM     17  C   UNL     1       7.268  -5.667   6.136  1.00  0.00     0.062 A 
ATOM     18  C   UNL     1       8.510  -6.236   5.797  1.00  0.00     0.158 A 
BRANCH  16  19
ATOM     19  O   UNL     1      10.125  -6.924   4.073  1.00  0.00    -0.504 OA
ATOM     20  H   UNL     1      10.927  -6.320   3.838  1.00  0.00     0.293 HD
ENDBRANCH  16  19
BRANCH  18  21
ATOM     21  O   UNL     1       9.335  -6.705   6.821  1.00  0.00    -0.504 OA
ATOM     22  H   UNL     1       9.234  -6.383   7.773  1.00  0.00     0.293 HD
ENDBRANCH  18  21
ENDBRANCH   3  13
BRANCH  10  23
ATOM     23  O   UNL     1       0.135  -4.315   6.760  1.00  0.00    -0.507 OA
ATOM     24  H   UNL     1       0.607  -3.558   7.207  1.00  0.00     0.293 HD
ENDBRANCH  10  23
BRANCH  11  25
ATOM     25  O   UNL     1       0.444  -9.177   6.421  1.00  0.00    -0.508 OA
ATOM     26  H   UNL     1      -0.240  -9.377   7.142  1.00  0.00     0.293 HD
ENDBRANCH  11  25
ENDBRANCH   1   2
BRANCH   1  27
ATOM     27  C   UNL     1       5.357  -1.890   5.271  1.00  0.00     0.339 C 
ATOM     28  C   UNL     1       6.824  -1.597   5.724  1.00  0.00     0.214 C 
ATOM     29  O   UNL     1       4.562  -0.698   5.246  1.00  0.00    -0.332 OA
ATOM     30  C   UNL     1       7.136  -0.067   5.751  1.00  0.00     0.180 C 
ATOM     31  C   UNL     1       4.661   0.099   6.441  1.00  0.00     0.179 C 
ATOM     32  C   UNL     1       6.100   0.697   6.649  1.00  0.00     0.177 C 
BRANCH  28  33
ATOM     33  O   UNL     1       7.775  -2.387   4.980  1.00  0.00    -0.384 OA
ATOM     34  H   UNL     1       7.862  -3.257   5.470  1.00  0.00     0.211 HD
ENDBRANCH  28  33
BRANCH  30  35
ATOM     35  O   UNL     1       7.078   0.475   4.444  1.00  0.00    -0.387 OA
ATOM     36  H   UNL     1       6.753  -0.240   3.841  1.00  0.00     0.211 HD
ENDBRANCH  30  35
BRANCH  31  37
ATOM     37  C   UNL     1       3.923  -0.604   7.659  1.00  0.00     0.191 C 
BRANCH  37  38
ATOM     38  O   UNL     1       2.592  -0.967   7.342  1.00  0.00    -0.394 OA
ATOM     39  H   UNL     1       2.408  -0.549   6.438  1.00  0.00     0.210 HD
ENDBRANCH  37  38
ENDBRANCH  31  37
BRANCH  32  40
ATOM     40  O   UNL     1       6.484   0.663   8.012  1.00  0.00    -0.387 OA
ATOM     41  H   UNL     1       7.121  -0.102   8.143  1.00  0.00     0.211 HD
ENDBRANCH  32  40
ENDBRANCH   1  27
TORSDOF 12
ENDMDL
MODEL 6
REMARK VINA RESULT:    -5.201      2.823      6.690
REMARK INTER + INTRA:          -9.272
REMARK INTER:                  -7.733
REMARK INTRA:                  -1.539
REMARK UNBOUND:                -1.639
REMARK SMILES O=c1c(O[C@H]2O[C@@H](CO)[C@@H](O)[C@H](O)[C@@H]2O)c(-c2ccc(O)c(O)c2)oc2cc(O)cc(O)c12
REMARK SMILES IDX 4 1 3 2 16 3 25 4 2 5 26 6 1 7 33 8 27 9 31 10 28 11 30 12
REMARK SMILES IDX 17 13 18 14 19 15 20 16 24 17 22 18 21 19 23 21 32 23 29 25
REMARK SMILES IDX 5 27 14 28 6 29 12 30 7 31 10 32 15 33 13 35 8 37 9 38 11 40
REMARK H PARENT 21 20 23 22 32 24 29 26 15 34 13 36 9 39 11 41
REMARK Flexibility Score: inf
ROOT
ATOM      1  O   UNL     1       0.531  -5.742   6.057  1.00  0.00    -0.454 OA
ENDROOT
BRANCH   1   2
ATOM      2  C   UNL     1       1.776  -6.158   5.535  1.00  0.00     0.214 A 
ATOM      3  C   UNL     1       3.068  -5.559   5.814  1.00  0.00     0.180 A 
ATOM      4  O   UNL     1       4.142  -6.146   5.307  1.00  0.00    -0.452 OA
ATOM      5  C   UNL     1       1.734  -7.237   4.663  1.00  0.00     0.239 A 
ATOM      6  C   UNL     1       4.128  -7.336   4.728  1.00  0.00     0.146 A 
ATOM      7  O   UNL     1       0.649  -7.510   4.056  1.00  0.00    -0.285 OA
ATOM      8  C   UNL     1       2.914  -7.962   4.402  1.00  0.00     0.111 A 
ATOM      9  C   UNL     1       5.360  -7.999   4.449  1.00  0.00     0.094 A 
ATOM     10  C   UNL     1       2.855  -9.352   4.083  1.00  0.00     0.134 A 
ATOM     11  C   UNL     1       5.324  -9.386   4.150  1.00  0.00     0.123 A 
ATOM     12  C   UNL     1       4.080 -10.057   3.984  1.00  0.00     0.093 A 
BRANCH   3  13
ATOM     13  C   UNL     1       3.300  -4.232   6.366  1.00  0.00     0.025 A 
ATOM     14  C   UNL     1       2.873  -3.828   7.650  1.00  0.00     0.016 A 
ATOM     15  C   UNL     1       2.752  -2.455   7.944  1.00  0.00     0.051 A 
ATOM     16  C   UNL     1       3.164  -1.517   7.023  1.00  0.00     0.157 A 
ATOM     17  C   UNL     1       4.000  -3.287   5.568  1.00  0.00     0.062 A 
ATOM     18  C   UNL     1       3.835  -1.918   5.851  1.00  0.00     0.158 A 
BRANCH  16  19
ATOM     19  O   UNL     1       3.030  -0.149   7.360  1.00  0.00    -0.504 OA
ATOM     20  H   UNL     1       3.814   0.519   7.295  1.00  0.00     0.293 HD
ENDBRANCH  16  19
BRANCH  18  21
ATOM     21  O   UNL     1       4.268  -0.982   4.910  1.00  0.00    -0.504 OA
ATOM     22  H   UNL     1       4.973  -0.293   5.132  1.00  0.00     0.293 HD
ENDBRANCH  18  21
ENDBRANCH   3  13
BRANCH  10  23
ATOM     23  O   UNL     1       1.642  -9.998   3.873  1.00  0.00    -0.507 OA
ATOM     24  H   UNL     1       1.497 -10.543   3.051  1.00  0.00     0.293 HD
ENDBRANCH  10  23
BRANCH  11  25
ATOM     25  O   UNL     1       6.516 -10.122   4.166  1.00  0.00    -0.508 OA
ATOM     26  H   UNL     1       6.929 -10.584   3.364  1.00  0.00     0.293 HD
ENDBRANCH  11  25
ENDBRANCH   1   2
BRANCH   1  27
ATOM     27  C   UNL     1      -0.372  -6.438   6.913  1.00  0.00     0.339 C 
ATOM     28  C   UNL     1      -1.699  -6.731   6.139  1.00  0.00     0.214 C 
ATOM     29  O   UNL     1      -0.616  -5.712   8.125  1.00  0.00    -0.332 OA
ATOM     30  C   UNL     1      -2.964  -6.430   7.004  1.00  0.00     0.180 C 
ATOM     31  C   UNL     1      -1.470  -4.564   7.961  1.00  0.00     0.179 C 
ATOM     32  C   UNL     1      -2.933  -4.956   7.540  1.00  0.00     0.177 C 
BRANCH  28  33
ATOM     33  O   UNL     1      -1.683  -8.045   5.542  1.00  0.00    -0.384 OA
ATOM     34  H   UNL     1      -1.992  -7.928   4.596  1.00  0.00     0.211 HD
ENDBRANCH  28  33
BRANCH  30  35
ATOM     35  O   UNL     1      -3.026  -7.307   8.114  1.00  0.00    -0.387 OA
ATOM     36  H   UNL     1      -3.498  -8.126   7.819  1.00  0.00     0.211 HD
ENDBRANCH  30  35
BRANCH  31  37
ATOM     37  C   UNL     1      -0.717  -3.400   7.183  1.00  0.00     0.191 C 
BRANCH  37  38
ATOM     38  O   UNL     1      -1.102  -3.329   5.823  1.00  0.00    -0.394 OA
ATOM     39  H   UNL     1      -2.035  -3.722   5.787  1.00  0.00     0.210 HD
ENDBRANCH  37  38
ENDBRANCH  31  37
BRANCH  32  40
ATOM     40  O   UNL     1      -3.456  -4.053   6.582  1.00  0.00    -0.387 OA
ATOM     41  H   UNL     1      -2.982  -4.207   5.710  1.00  0.00     0.211 HD
ENDBRANCH  32  40
ENDBRANCH   1  27
TORSDOF 12
ENDMDL
MODEL 7
REMARK VINA RESULT:    -5.159      2.401      5.257
REMARK INTER + INTRA:          -9.210
REMARK INTER:                  -7.919
REMARK INTRA:                  -1.291
REMARK UNBOUND:                -1.639
REMARK SMILES O=c1c(O[C@H]2O[C@@H](CO)[C@@H](O)[C@H](O)[C@@H]2O)c(-c2ccc(O)c(O)c2)oc2cc(O)cc(O)c12
REMARK SMILES IDX 4 1 3 2 16 3 25 4 2 5 26 6 1 7 33 8 27 9 31 10 28 11 30 12
REMARK SMILES IDX 17 13 18 14 19 15 20 16 24 17 22 18 21 19 23 21 32 23 29 25
REMARK SMILES IDX 5 27 14 28 6 29 12 30 7 31 10 32 15 33 13 35 8 37 9 38 11 40
REMARK H PARENT 21 20 23 22 32 24 29 26 15 34 13 36 9 39 11 41
REMARK Flexibility Score: inf
ROOT
ATOM      1  O   UNL     1       2.813  -6.474   5.028  1.00  0.00    -0.454 OA
ENDROOT
BRANCH   1   2
ATOM      2  C   UNL     1       1.948  -5.571   5.684  1.00  0.00     0.214 A 
ATOM      3  C   UNL     1       2.182  -4.154   5.895  1.00  0.00     0.180 A 
ATOM      4  O   UNL     1       1.211  -3.444   6.449  1.00  0.00    -0.452 OA
ATOM      5  C   UNL     1       0.770  -6.115   6.179  1.00  0.00     0.239 A 
ATOM      6  C   UNL     1      -0.016  -3.899   6.645  1.00  0.00     0.146 A 
ATOM      7  O   UNL     1       0.708  -7.365   6.414  1.00  0.00    -0.285 OA
ATOM      8  C   UNL     1      -0.310  -5.264   6.488  1.00  0.00     0.111 A 
ATOM      9  C   UNL     1      -1.058  -2.992   7.002  1.00  0.00     0.094 A 
ATOM     10  C   UNL     1      -1.654  -5.728   6.376  1.00  0.00     0.134 A 
ATOM     11  C   UNL     1      -2.402  -3.428   6.876  1.00  0.00     0.123 A 
ATOM     12  C   UNL     1      -2.694  -4.782   6.551  1.00  0.00     0.093 A 
BRANCH   3  13
ATOM     13  C   UNL     1       3.467  -3.474   5.813  1.00  0.00     0.025 A 
ATOM     14  C   UNL     1       3.755  -2.443   4.892  1.00  0.00     0.016 A 
ATOM     15  C   UNL     1       5.096  -2.136   4.586  1.00  0.00     0.051 A 
ATOM     16  C   UNL     1       6.116  -2.757   5.274  1.00  0.00     0.157 A 
ATOM     17  C   UNL     1       4.492  -3.867   6.716  1.00  0.00     0.062 A 
ATOM     18  C   UNL     1       5.829  -3.589   6.374  1.00  0.00     0.158 A 
BRANCH  16  19
ATOM     19  O   UNL     1       7.449  -2.417   4.939  1.00  0.00    -0.504 OA
ATOM     20  H   UNL     1       8.099  -1.987   5.614  1.00  0.00     0.293 HD
ENDBRANCH  16  19
BRANCH  18  21
ATOM     21  O   UNL     1       6.849  -4.219   7.088  1.00  0.00    -0.504 OA
ATOM     22  H   UNL     1       7.412  -4.950   6.676  1.00  0.00     0.293 HD
ENDBRANCH  18  21
ENDBRANCH   3  13
BRANCH  10  23
ATOM     23  O   UNL     1      -1.942  -7.061   6.105  1.00  0.00    -0.507 OA
ATOM     24  H   UNL     1      -2.804  -7.313   5.672  1.00  0.00     0.293 HD
ENDBRANCH  10  23
BRANCH  11  25
ATOM     25  O   UNL     1      -3.436  -2.485   6.928  1.00  0.00    -0.508 OA
ATOM     26  H   UNL     1      -4.408  -2.694   7.125  1.00  0.00     0.293 HD
ENDBRANCH  11  25
ENDBRANCH   1   2
BRANCH   1  27
ATOM     27  C   UNL     1       3.891  -7.243   5.556  1.00  0.00     0.339 C 
ATOM     28  C   UNL     1       5.067  -7.264   4.525  1.00  0.00     0.214 C 
ATOM     29  O   UNL     1       3.473  -8.567   5.909  1.00  0.00    -0.332 OA
ATOM     30  C   UNL     1       5.681  -8.691   4.362  1.00  0.00     0.180 C 
ATOM     31  C   UNL     1       3.251  -9.434   4.780  1.00  0.00     0.179 C 
ATOM     32  C   UNL     1       4.572  -9.734   3.982  1.00  0.00     0.177 C 
BRANCH  28  33
ATOM     33  O   UNL     1       6.032  -6.227   4.802  1.00  0.00    -0.384 OA
ATOM     34  H   UNL     1       6.901  -6.542   4.413  1.00  0.00     0.211 HD
ENDBRANCH  28  33
BRANCH  30  35
ATOM     35  O   UNL     1       6.291  -9.109   5.570  1.00  0.00    -0.387 OA
ATOM     36  H   UNL     1       6.027  -8.465   6.274  1.00  0.00     0.211 HD
ENDBRANCH  30  35
BRANCH  31  37
ATOM     37  C   UNL     1       1.937  -9.016   3.989  1.00  0.00     0.191 C 
BRANCH  37  38
ATOM     38  O   UNL     1       1.438 -10.069   3.187  1.00  0.00    -0.394 OA
ATOM     39  H   UNL     1       2.175 -10.275   2.524  1.00  0.00     0.210 HD
ENDBRANCH  37  38
ENDBRANCH  31  37
BRANCH  32  40
ATOM     40  O   UNL     1       4.341  -9.748   2.584  1.00  0.00    -0.387 OA
ATOM     41  H   UNL     1       4.024  -8.836   2.307  1.00  0.00     0.211 HD
ENDBRANCH  32  40
ENDBRANCH   1  27
TORSDOF 12
ENDMDL
MODEL 8
REMARK VINA RESULT:    -4.937      1.967      6.169
REMARK INTER + INTRA:          -8.885
REMARK INTER:                  -7.601
REMARK INTRA:                  -1.285
REMARK UNBOUND:                -1.639
REMARK SMILES O=c1c(O[C@H]2O[C@@H](CO)[C@@H](O)[C@H](O)[C@@H]2O)c(-c2ccc(O)c(O)c2)oc2cc(O)cc(O)c12
REMARK SMILES IDX 4 1 3 2 16 3 25 4 2 5 26 6 1 7 33 8 27 9 31 10 28 11 30 12
REMARK SMILES IDX 17 13 18 14 19 15 20 16 24 17 22 18 21 19 23 21 32 23 29 25
REMARK SMILES IDX 5 27 14 28 6 29 12 30 7 31 10 32 15 33 13 35 8 37 9 38 11 40
REMARK H PARENT 21 20 23 22 32 24 29 26 15 34 13 36 9 39 11 41
REMARK Flexibility Score: inf
ROOT
ATOM      1  O   UNL     1       6.110  -4.094   5.695  1.00  0.00    -0.454 OA
ENDROOT
BRANCH   1   2
ATOM      2  C   UNL     1       5.348  -2.908   5.772  1.00  0.00     0.214 A 
ATOM      3  C   UNL     1       3.945  -2.809   6.132  1.00  0.00     0.180 A 
ATOM      4  O   UNL     1       3.421  -1.597   6.244  1.00  0.00    -0.452 OA
ATOM      5  C   UNL     1       6.022  -1.736   5.456  1.00  0.00     0.239 A 
ATOM      6  C   UNL     1       4.133  -0.482   6.236  1.00  0.00     0.146 A 
ATOM      7  O   UNL     1       7.070  -1.791   4.736  1.00  0.00    -0.285 OA
ATOM      8  C   UNL     1       5.489  -0.498   5.869  1.00  0.00     0.111 A 
ATOM      9  C   UNL     1       3.523   0.748   6.622  1.00  0.00     0.094 A 
ATOM     10  C   UNL     1       6.351   0.602   6.155  1.00  0.00     0.134 A 
ATOM     11  C   UNL     1       4.365   1.848   6.931  1.00  0.00     0.123 A 
ATOM     12  C   UNL     1       5.768   1.767   6.712  1.00  0.00     0.093 A 
BRANCH   3  13
ATOM     13  C   UNL     1       2.976  -3.895   6.122  1.00  0.00     0.025 A 
ATOM     14  C   UNL     1       3.311  -5.247   5.885  1.00  0.00     0.016 A 
ATOM     15  C   UNL     1       2.310  -6.151   5.478  1.00  0.00     0.051 A 
ATOM     16  C   UNL     1       0.995  -5.744   5.428  1.00  0.00     0.157 A 
ATOM     17  C   UNL     1       1.613  -3.579   6.369  1.00  0.00     0.062 A 
ATOM     18  C   UNL     1       0.625  -4.476   5.917  1.00  0.00     0.158 A 
BRANCH  16  19
ATOM     19  O   UNL     1       0.020  -6.684   5.018  1.00  0.00    -0.504 OA
ATOM     20  H   UNL     1       0.182  -7.702   5.049  1.00  0.00     0.293 HD
ENDBRANCH  16  19
BRANCH  18  21
ATOM     21  O   UNL     1      -0.703  -4.048   5.884  1.00  0.00    -0.504 OA
ATOM     22  H   UNL     1      -1.165  -3.816   5.015  1.00  0.00     0.293 HD
ENDBRANCH  18  21
ENDBRANCH   3  13
BRANCH  10  23
ATOM     23  O   UNL     1       7.716   0.542   5.897  1.00  0.00    -0.507 OA
ATOM     24  H   UNL     1       8.264   1.375   5.882  1.00  0.00     0.293 HD
ENDBRANCH  10  23
BRANCH  11  25
ATOM     25  O   UNL     1       3.825   2.960   7.591  1.00  0.00    -0.508 OA
ATOM     26  H   UNL     1       4.289   3.488   8.321  1.00  0.00     0.293 HD
ENDBRANCH  11  25
ENDBRANCH   1   2
BRANCH   1  27
ATOM     27  C   UNL     1       7.048  -4.632   6.623  1.00  0.00     0.339 C 
ATOM     28  C   UNL     1       8.500  -4.336   6.124  1.00  0.00     0.214 C 
ATOM     29  O   UNL     1       6.837  -6.034   6.835  1.00  0.00    -0.332 OA
ATOM     30  C   UNL     1       9.435  -5.580   6.261  1.00  0.00     0.180 C 
ATOM     31  C   UNL     1       7.265  -6.865   5.739  1.00  0.00     0.179 C 
ATOM     32  C   UNL     1       8.822  -6.821   5.521  1.00  0.00     0.177 C 
BRANCH  28  33
ATOM     33  O   UNL     1       9.025  -3.127   6.713  1.00  0.00    -0.384 OA
ATOM     34  H   UNL     1       8.429  -2.382   6.404  1.00  0.00     0.211 HD
ENDBRANCH  28  33
BRANCH  30  35
ATOM     35  O   UNL     1       9.614  -5.917   7.625  1.00  0.00    -0.387 OA
ATOM     36  H   UNL     1       9.636  -6.905   7.686  1.00  0.00     0.211 HD
ENDBRANCH  30  35
BRANCH  31  37
ATOM     37  C   UNL     1       6.296  -6.707   4.491  1.00  0.00     0.191 C 
BRANCH  37  38
ATOM     38  O   UNL     1       6.334  -7.834   3.637  1.00  0.00    -0.394 OA
ATOM     39  H   UNL     1       6.220  -7.466   2.699  1.00  0.00     0.210 HD
ENDBRANCH  37  38
ENDBRANCH  31  37
BRANCH  32  40
ATOM     40  O   UNL     1       9.152  -6.809   4.144  1.00  0.00    -0.387 OA
ATOM     41  H   UNL     1       9.829  -7.531   3.975  1.00  0.00     0.211 HD
ENDBRANCH  32  40
ENDBRANCH   1  27
TORSDOF 12
ENDMDL
MODEL 9
REMARK VINA RESULT:    -4.923      2.275      3.471
REMARK INTER + INTRA:          -8.864
REMARK INTER:                  -7.165
REMARK INTRA:                  -1.699
REMARK UNBOUND:                -1.639
REMARK SMILES O=c1c(O[C@H]2O[C@@H](CO)[C@@H](O)[C@H](O)[C@@H]2O)c(-c2ccc(O)c(O)c2)oc2cc(O)cc(O)c12
REMARK SMILES IDX 4 1 3 2 16 3 25 4 2 5 26 6 1 7 33 8 27 9 31 10 28 11 30 12
REMARK SMILES IDX 17 13 18 14 19 15 20 16 24 17 22 18 21 19 23 21 32 23 29 25
REMARK SMILES IDX 5 27 14 28 6 29 12 30 7 31 10 32 15 33 13 35 8 37 9 38 11 40
REMARK H PARENT 21 20 23 22 32 24 29 26 15 34 13 36 9 39 11 41
REMARK Flexibility Score: inf
ROOT
ATOM      1  O   UNL     1       3.798  -5.830   6.415  1.00  0.00    -0.454 OA
ENDROOT
BRANCH   1   2
ATOM      2  C   UNL     1       2.543  -5.216   6.620  1.00  0.00     0.214 A 
ATOM      3  C   UNL     1       2.249  -3.800   6.497  1.00  0.00     0.180 A 
ATOM      4  O   UNL     1       0.988  -3.417   6.635  1.00  0.00    -0.452 OA
ATOM      5  C   UNL     1       1.507  -6.065   6.986  1.00  0.00     0.239 A 
ATOM      6  C   UNL     1      -0.035  -4.254   6.687  1.00  0.00     0.146 A 
ATOM      7  O   UNL     1       1.778  -7.187   7.522  1.00  0.00    -0.285 OA
ATOM      8  C   UNL     1       0.173  -5.635   6.835  1.00  0.00     0.111 A 
ATOM      9  C   UNL     1      -1.366  -3.752   6.572  1.00  0.00     0.094 A 
ATOM     10  C   UNL     1      -0.866  -6.578   6.574  1.00  0.00     0.134 A 
ATOM     11  C   UNL     1      -2.410  -4.671   6.292  1.00  0.00     0.123 A 
ATOM     12  C   UNL     1      -2.155  -6.071   6.279  1.00  0.00     0.093 A 
BRANCH   3  13
ATOM     13  C   UNL     1       3.221  -2.716   6.506  1.00  0.00     0.025 A 
ATOM     14  C   UNL     1       3.233  -1.676   7.462  1.00  0.00     0.016 A 
ATOM     15  C   UNL     1       3.905  -0.472   7.174  1.00  0.00     0.051 A 
ATOM     16  C   UNL     1       4.645  -0.358   6.018  1.00  0.00     0.157 A 
ATOM     17  C   UNL     1       4.220  -2.703   5.495  1.00  0.00     0.062 A 
ATOM     18  C   UNL     1       4.851  -1.481   5.193  1.00  0.00     0.158 A 
BRANCH  16  19
ATOM     19  O   UNL     1       5.308   0.867   5.768  1.00  0.00    -0.504 OA
ATOM     20  H   UNL     1       4.914   1.597   5.157  1.00  0.00     0.293 HD
ENDBRANCH  16  19
BRANCH  18  21
ATOM     21  O   UNL     1       5.605  -1.388   4.022  1.00  0.00    -0.504 OA
ATOM     22  H   UNL     1       6.502  -0.923   4.003  1.00  0.00     0.293 HD
ENDBRANCH  18  21
ENDBRANCH   3  13
BRANCH  10  23
ATOM     23  O   UNL     1      -0.629  -7.947   6.608  1.00  0.00    -0.507 OA
ATOM     24  H   UNL     1       0.247  -8.300   6.929  1.00  0.00     0.293 HD
ENDBRANCH  10  23
BRANCH  11  25
ATOM     25  O   UNL     1      -3.658  -4.186   5.882  1.00  0.00    -0.508 OA
ATOM     26  H   UNL     1      -3.951  -3.216   5.926  1.00  0.00     0.293 HD
ENDBRANCH  11  25
ENDBRANCH   1   2
BRANCH   1  27
ATOM     27  C   UNL     1       4.299  -6.507   5.265  1.00  0.00     0.339 C 
ATOM     28  C   UNL     1       4.553  -8.009   5.617  1.00  0.00     0.214 C 
ATOM     29  O   UNL     1       5.480  -5.876   4.754  1.00  0.00    -0.332 OA
ATOM     30  C   UNL     1       5.919  -8.521   5.059  1.00  0.00     0.180 C 
ATOM     31  C   UNL     1       6.659  -6.104   5.550  1.00  0.00     0.179 C 
ATOM     32  C   UNL     1       7.099  -7.614   5.557  1.00  0.00     0.177 C 
BRANCH  28  33
ATOM     33  O   UNL     1       3.420  -8.833   5.269  1.00  0.00    -0.384 OA
ATOM     34  H   UNL     1       2.614  -8.380   5.657  1.00  0.00     0.211 HD
ENDBRANCH  28  33
BRANCH  30  35
ATOM     35  O   UNL     1       5.913  -8.509   3.644  1.00  0.00    -0.387 OA
ATOM     36  H   UNL     1       6.400  -9.315   3.337  1.00  0.00     0.211 HD
ENDBRANCH  30  35
BRANCH  31  37
ATOM     37  C   UNL     1       6.586  -5.304   6.920  1.00  0.00     0.191 C 
BRANCH  37  38
ATOM     38  O   UNL     1       6.049  -6.087   7.969  1.00  0.00    -0.394 OA
ATOM     39  H   UNL     1       6.572  -5.824   8.796  1.00  0.00     0.210 HD
ENDBRANCH  37  38
ENDBRANCH  31  37
BRANCH  32  40
ATOM     40  O   UNL     1       7.548  -8.016   6.838  1.00  0.00    -0.387 OA
ATOM     41  H   UNL     1       8.157  -7.303   7.199  1.00  0.00     0.211 HD
ENDBRANCH  32  40
ENDBRANCH   1  27
TORSDOF 12
ENDMDL
