MODEL 1
REMARK VINA RESULT:    -7.761      0.000      0.000
REMARK INTER + INTRA:          -9.675
REMARK INTER:                  -9.349
REMARK INTRA:                  -0.326
REMARK UNBOUND:                -0.326
REMARK SMILES O=c1c(O)c(-c2ccc(O)c(O)c2)oc2cc(O)cc(O)c12
REMARK SMILES IDX 5 1 3 2 2 3 1 4 22 5 20 6 19 7 17 8 16 9 15 10 14 11 6 12
REMARK SMILES IDX 7 13 8 14 9 15 13 16 11 17 10 18 12 20 4 22 21 24 18 26
REMARK H PARENT 10 19 12 21 4 23 21 25 18 27
REMARK Flexibility Score: inf
ROOT
ATOM      1  C   UNL     1       8.815   0.957  12.906  1.00  0.00     0.180 A 
ATOM      2  C   UNL     1       8.920   2.348  13.078  1.00  0.00     0.208 A 
ATOM      3  C   UNL     1       8.930   2.874  14.379  1.00  0.00     0.238 A 
ATOM      4  O   UNL     1       8.969   4.124  14.526  1.00  0.00    -0.285 OA
ATOM      5  C   UNL     1       8.852   2.003  15.492  1.00  0.00     0.111 A 
ATOM      6  C   UNL     1       8.895   2.424  16.856  1.00  0.00     0.134 A 
ATOM      7  C   UNL     1       8.679   1.488  17.874  1.00  0.00     0.093 A 
ATOM      8  C   UNL     1       8.486   0.136  17.581  1.00  0.00     0.123 A 
ATOM      9  C   UNL     1       8.502  -0.294  16.255  1.00  0.00     0.094 A 
ATOM     10  C   UNL     1       8.680   0.622  15.216  1.00  0.00     0.146 A 
ATOM     11  O   UNL     1       8.677   0.172  13.968  1.00  0.00    -0.452 OA
ENDROOT
BRANCH   1  12
ATOM     12  C   UNL     1       8.823   0.326  11.566  1.00  0.00     0.025 A 
ATOM     13  C   UNL     1       7.611   0.137  10.884  1.00  0.00     0.016 A 
ATOM     14  C   UNL     1       7.593  -0.475   9.628  1.00  0.00     0.051 A 
ATOM     15  C   UNL     1       8.781  -0.919   9.042  1.00  0.00     0.157 A 
ATOM     16  C   UNL     1      10.015  -0.140  10.983  1.00  0.00     0.062 A 
ATOM     17  C   UNL     1       9.999  -0.756   9.723  1.00  0.00     0.158 A 
BRANCH  15  18
ATOM     18  O   UNL     1       8.733  -1.524   7.786  1.00  0.00    -0.504 OA
ATOM     19  H   UNL     1       9.177  -1.114   6.973  1.00  0.00     0.293 HD
ENDBRANCH  15  18
BRANCH  17  20
ATOM     20  O   UNL     1      11.186  -1.211   9.150  1.00  0.00    -0.504 OA
ATOM     21  H   UNL     1      11.209  -2.036   8.561  1.00  0.00     0.293 HD
ENDBRANCH  17  20
ENDBRANCH   1  12
BRANCH   2  22
ATOM     22  O   UNL     1       8.974   3.192  11.964  1.00  0.00    -0.502 OA
ATOM     23  H   UNL     1       9.132   4.189  12.045  1.00  0.00     0.293 HD
ENDBRANCH   2  22
BRANCH   6  24
ATOM     24  O   UNL     1       9.171   3.733  17.260  1.00  0.00    -0.507 OA
ATOM     25  H   UNL     1       9.119   4.063  18.212  1.00  0.00     0.293 HD
ENDBRANCH   6  24
BRANCH   8  26
ATOM     26  O   UNL     1       8.286  -0.792  18.601  1.00  0.00    -0.508 OA
ATOM     27  H   UNL     1       7.783  -1.656  18.439  1.00  0.00     0.293 HD
ENDBRANCH   8  26
TORSDOF 6
ENDMDL
MODEL 2
REMARK VINA RESULT:    -7.720      1.572      6.974
REMARK INTER + INTRA:          -9.625
REMARK INTER:                  -9.320
REMARK INTRA:                  -0.305
REMARK UNBOUND:                -0.326
REMARK SMILES O=c1c(O)c(-c2ccc(O)c(O)c2)oc2cc(O)cc(O)c12
REMARK SMILES IDX 5 1 3 2 2 3 1 4 22 5 20 6 19 7 17 8 16 9 15 10 14 11 6 12
REMARK SMILES IDX 7 13 8 14 9 15 13 16 11 17 10 18 12 20 4 22 21 24 18 26
REMARK H PARENT 10 19 12 21 4 23 21 25 18 27
REMARK Flexibility Score: inf
ROOT
ATOM      1  C   UNL     1       8.783   0.423  13.223  1.00  0.00     0.180 A 
ATOM      2  C   UNL     1       7.653   0.523  12.393  1.00  0.00     0.208 A 
ATOM      3  C   UNL     1       7.749   0.101  11.058  1.00  0.00     0.238 A 
ATOM      4  O   UNL     1       6.750   0.243  10.305  1.00  0.00    -0.285 OA
ATOM      5  C   UNL     1       8.968  -0.432  10.573  1.00  0.00     0.111 A 
ATOM      6  C   UNL     1       9.167  -0.928   9.250  1.00  0.00     0.134 A 
ATOM      7  C   UNL     1      10.450  -1.311   8.841  1.00  0.00     0.093 A 
ATOM      8  C   UNL     1      11.528  -1.277   9.729  1.00  0.00     0.123 A 
ATOM      9  C   UNL     1      11.332  -0.850  11.040  1.00  0.00     0.094 A 
ATOM     10  C   UNL     1      10.070  -0.428  11.467  1.00  0.00     0.146 A 
ATOM     11  O   UNL     1       9.930  -0.019  12.721  1.00  0.00    -0.452 OA
ENDROOT
BRANCH   1  12
ATOM     12  C   UNL     1       8.751   0.824  14.648  1.00  0.00     0.025 A 
ATOM     13  C   UNL     1       8.946   2.171  14.991  1.00  0.00     0.016 A 
ATOM     14  C   UNL     1       8.941   2.569  16.330  1.00  0.00     0.051 A 
ATOM     15  C   UNL     1       8.757   1.628  17.346  1.00  0.00     0.157 A 
ATOM     16  C   UNL     1       8.587  -0.125  15.673  1.00  0.00     0.062 A 
ATOM     17  C   UNL     1       8.584   0.273  17.019  1.00  0.00     0.158 A 
BRANCH  15  18
ATOM     18  O   UNL     1       8.755   2.054  18.674  1.00  0.00    -0.504 OA
ATOM     19  H   UNL     1       8.979   1.431  19.440  1.00  0.00     0.293 HD
ENDBRANCH  15  18
BRANCH  17  20
ATOM     20  O   UNL     1       8.414  -0.674  18.028  1.00  0.00    -0.504 OA
ATOM     21  H   UNL     1       7.650  -0.613  18.691  1.00  0.00     0.293 HD
ENDBRANCH  17  20
ENDBRANCH   1  12
BRANCH   2  22
ATOM     22  O   UNL     1       6.465   1.072  12.886  1.00  0.00    -0.502 OA
ATOM     23  H   UNL     1       5.667   0.502  13.141  1.00  0.00     0.293 HD
ENDBRANCH   2  22
BRANCH   6  24
ATOM     24  O   UNL     1       8.140  -1.089   8.314  1.00  0.00    -0.507 OA
ATOM     25  H   UNL     1       8.211  -0.850   7.337  1.00  0.00     0.293 HD
ENDBRANCH   6  24
BRANCH   8  26
ATOM     26  O   UNL     1      12.799  -1.674   9.319  1.00  0.00    -0.508 OA
ATOM     27  H   UNL     1      12.937  -2.495   8.742  1.00  0.00     0.293 HD
ENDBRANCH   8  26
TORSDOF 6
ENDMDL
MODEL 3
REMARK VINA RESULT:    -7.437      3.546      7.084
REMARK INTER + INTRA:          -9.284
REMARK INTER:                  -8.969
REMARK INTRA:                  -0.315
REMARK UNBOUND:                -0.326
REMARK SMILES O=c1c(O)c(-c2ccc(O)c(O)c2)oc2cc(O)cc(O)c12
REMARK SMILES IDX 5 1 3 2 2 3 1 4 22 5 20 6 19 7 17 8 16 9 15 10 14 11 6 12
REMARK SMILES IDX 7 13 8 14 9 15 13 16 11 17 10 18 12 20 4 22 21 24 18 26
REMARK H PARENT 10 19 12 21 4 23 21 25 18 27
REMARK Flexibility Score: inf
ROOT
ATOM      1  C   UNL     1      10.333  -1.761  11.053  1.00  0.00     0.180 A 
ATOM      2  C   UNL     1      10.295  -3.164  11.128  1.00  0.00     0.208 A 
ATOM      3  C   UNL     1      11.504  -3.877  11.162  1.00  0.00     0.238 A 
ATOM      4  O   UNL     1      11.464  -5.135  11.174  1.00  0.00    -0.285 OA
ATOM      5  C   UNL     1      12.735  -3.178  11.138  1.00  0.00     0.111 A 
ATOM      6  C   UNL     1      14.020  -3.797  11.210  1.00  0.00     0.134 A 
ATOM      7  C   UNL     1      15.171  -3.017  11.047  1.00  0.00     0.093 A 
ATOM      8  C   UNL     1      15.086  -1.633  10.881  1.00  0.00     0.123 A 
ATOM      9  C   UNL     1      13.839  -1.013  10.869  1.00  0.00     0.094 A 
ATOM     10  C   UNL     1      12.670  -1.768  10.993  1.00  0.00     0.146 A 
ATOM     11  O   UNL     1      11.503  -1.139  10.966  1.00  0.00    -0.452 OA
ENDROOT
BRANCH   1  12
ATOM     12  C   UNL     1       9.101  -0.939  11.039  1.00  0.00     0.025 A 
ATOM     13  C   UNL     1       8.455  -0.684   9.819  1.00  0.00     0.016 A 
ATOM     14  C   UNL     1       7.303   0.105   9.779  1.00  0.00     0.051 A 
ATOM     15  C   UNL     1       6.788   0.664  10.952  1.00  0.00     0.157 A 
ATOM     16  C   UNL     1       8.593  -0.360  12.215  1.00  0.00     0.062 A 
ATOM     17  C   UNL     1       7.438   0.435  12.177  1.00  0.00     0.158 A 
BRANCH  15  18
ATOM     18  O   UNL     1       5.636   1.446  10.882  1.00  0.00    -0.504 OA
ATOM     19  H   UNL     1       4.723   1.045  10.705  1.00  0.00     0.293 HD
ENDBRANCH  15  18
BRANCH  17  20
ATOM     20  O   UNL     1       6.938   1.001  13.349  1.00  0.00    -0.504 OA
ATOM     21  H   UNL     1       7.527   1.154  14.159  1.00  0.00     0.293 HD
ENDBRANCH  17  20
ENDBRANCH   1  12
BRANCH   2  22
ATOM     22  O   UNL     1       9.068  -3.835  11.128  1.00  0.00    -0.502 OA
ATOM     23  H   UNL     1       8.260  -3.491  11.632  1.00  0.00     0.293 HD
ENDBRANCH   2  22
BRANCH   6  24
ATOM     24  O   UNL     1      14.218  -5.157  11.465  1.00  0.00    -0.507 OA
ATOM     25  H   UNL     1      15.047  -5.674  11.213  1.00  0.00     0.293 HD
ENDBRANCH   6  24
BRANCH   8  26
ATOM     26  O   UNL     1      16.238  -0.862  10.734  1.00  0.00    -0.508 OA
ATOM     27  H   UNL     1      16.194   0.100  10.420  1.00  0.00     0.293 HD
ENDBRANCH   8  26
TORSDOF 6
ENDMDL
MODEL 4
REMARK VINA RESULT:    -7.254      2.816      4.021
REMARK INTER + INTRA:          -9.063
REMARK INTER:                  -8.779
REMARK INTRA:                  -0.285
REMARK UNBOUND:                -0.326
REMARK SMILES O=c1c(O)c(-c2ccc(O)c(O)c2)oc2cc(O)cc(O)c12
REMARK SMILES IDX 5 1 3 2 2 3 1 4 22 5 20 6 19 7 17 8 16 9 15 10 14 11 6 12
REMARK SMILES IDX 7 13 8 14 9 15 13 16 11 17 10 18 12 20 4 22 21 24 18 26
REMARK H PARENT 10 19 12 21 4 23 21 25 18 27
REMARK Flexibility Score: inf
ROOT
ATOM      1  C   UNL     1      11.164  -0.073  12.568  1.00  0.00     0.180 A 
ATOM      2  C   UNL     1       9.921  -0.053  11.913  1.00  0.00     0.208 A 
ATOM      3  C   UNL     1       8.770   0.275  12.645  1.00  0.00     0.238 A 
ATOM      4  O   UNL     1       7.652   0.237  12.066  1.00  0.00    -0.285 OA
ATOM      5  C   UNL     1       8.877   0.596  14.020  1.00  0.00     0.111 A 
ATOM      6  C   UNL     1       7.782   0.983  14.850  1.00  0.00     0.134 A 
ATOM      7  C   UNL     1       7.984   1.151  16.225  1.00  0.00     0.093 A 
ATOM      8  C   UNL     1       9.254   1.011  16.789  1.00  0.00     0.123 A 
ATOM      9  C   UNL     1      10.340   0.692  15.977  1.00  0.00     0.094 A 
ATOM     10  C   UNL     1      10.164   0.482  14.607  1.00  0.00     0.146 A 
ATOM     11  O   UNL     1      11.223   0.169  13.873  1.00  0.00    -0.452 OA
ENDROOT
BRANCH   1  12
ATOM     12  C   UNL     1      12.425  -0.384  11.857  1.00  0.00     0.025 A 
ATOM     13  C   UNL     1      13.260   0.664  11.440  1.00  0.00     0.016 A 
ATOM     14  C   UNL     1      14.444   0.394  10.750  1.00  0.00     0.051 A 
ATOM     15  C   UNL     1      14.805  -0.923  10.453  1.00  0.00     0.157 A 
ATOM     16  C   UNL     1      12.779  -1.708  11.539  1.00  0.00     0.062 A 
ATOM     17  C   UNL     1      13.967  -1.980  10.844  1.00  0.00     0.158 A 
BRANCH  15  18
ATOM     18  O   UNL     1      15.994  -1.162   9.764  1.00  0.00    -0.504 OA
ATOM     19  H   UNL     1      16.572  -0.409   9.410  1.00  0.00     0.293 HD
ENDBRANCH  15  18
BRANCH  17  20
ATOM     20  O   UNL     1      14.313  -3.296  10.537  1.00  0.00    -0.504 OA
ATOM     21  H   UNL     1      15.035  -3.788  11.051  1.00  0.00     0.293 HD
ENDBRANCH  17  20
ENDBRANCH   1  12
BRANCH   2  22
ATOM     22  O   UNL     1       9.835  -0.395  10.559  1.00  0.00    -0.502 OA
ATOM     23  H   UNL     1       9.008  -0.820  10.158  1.00  0.00     0.293 HD
ENDBRANCH   2  22
BRANCH   6  24
ATOM     24  O   UNL     1       6.493   1.239  14.373  1.00  0.00    -0.507 OA
ATOM     25  H   UNL     1       5.657   0.779  14.700  1.00  0.00     0.293 HD
ENDBRANCH   6  24
BRANCH   8  26
ATOM     26  O   UNL     1       9.449   1.195  18.156  1.00  0.00    -0.508 OA
ATOM     27  H   UNL     1       8.939   0.651  18.842  1.00  0.00     0.293 HD
ENDBRANCH   8  26
TORSDOF 6
ENDMDL
MODEL 5
REMARK VINA RESULT:    -7.232      2.286      7.055
REMARK INTER + INTRA:          -9.038
REMARK INTER:                  -8.723
REMARK INTRA:                  -0.315
REMARK UNBOUND:                -0.326
REMARK SMILES O=c1c(O)c(-c2ccc(O)c(O)c2)oc2cc(O)cc(O)c12
REMARK SMILES IDX 5 1 3 2 2 3 1 4 22 5 20 6 19 7 17 8 16 9 15 10 14 11 6 12
REMARK SMILES IDX 7 13 8 14 9 15 13 16 11 17 10 18 12 20 4 22 21 24 18 26
REMARK H PARENT 10 19 12 21 4 23 21 25 18 27
REMARK Flexibility Score: inf
ROOT
ATOM      1  C   UNL     1      10.219  -0.099  13.492  1.00  0.00     0.180 A 
ATOM      2  C   UNL     1       9.437  -0.183  12.328  1.00  0.00     0.208 A 
ATOM      3  C   UNL     1      10.056  -0.520  11.114  1.00  0.00     0.238 A 
ATOM      4  O   UNL     1       9.360  -0.541  10.065  1.00  0.00    -0.285 OA
ATOM      5  C   UNL     1      11.446  -0.785  11.082  1.00  0.00     0.111 A 
ATOM      6  C   UNL     1      12.171  -1.174   9.915  1.00  0.00     0.134 A 
ATOM      7  C   UNL     1      13.566  -1.284   9.973  1.00  0.00     0.093 A 
ATOM      8  C   UNL     1      14.255  -1.081  11.171  1.00  0.00     0.123 A 
ATOM      9  C   UNL     1      13.550  -0.758  12.329  1.00  0.00     0.094 A 
ATOM     10  C   UNL     1      12.162  -0.607  12.295  1.00  0.00     0.146 A 
ATOM     11  O   UNL     1      11.531  -0.289  13.417  1.00  0.00    -0.452 OA
ENDROOT
BRANCH   1  12
ATOM     12  C   UNL     1       9.634   0.226  14.813  1.00  0.00     0.025 A 
ATOM     13  C   UNL     1       9.222  -0.815  15.661  1.00  0.00     0.016 A 
ATOM     14  C   UNL     1       8.649  -0.531  16.903  1.00  0.00     0.051 A 
ATOM     15  C   UNL     1       8.463   0.792  17.310  1.00  0.00     0.157 A 
ATOM     16  C   UNL     1       9.427   1.557  15.216  1.00  0.00     0.062 A 
ATOM     17  C   UNL     1       8.849   1.844  16.462  1.00  0.00     0.158 A 
BRANCH  15  18
ATOM     18  O   UNL     1       7.889   1.045  18.556  1.00  0.00    -0.504 OA
ATOM     19  H   UNL     1       8.386   1.540  19.287  1.00  0.00     0.293 HD
ENDBRANCH  15  18
BRANCH  17  20
ATOM     20  O   UNL     1       8.653   3.166  16.856  1.00  0.00    -0.504 OA
ATOM     21  H   UNL     1       7.829   3.687  16.578  1.00  0.00     0.293 HD
ENDBRANCH  17  20
ENDBRANCH   1  12
BRANCH   2  22
ATOM     22  O   UNL     1       8.069   0.103  12.377  1.00  0.00    -0.502 OA
ATOM     23  H   UNL     1       7.711   0.993  12.703  1.00  0.00     0.293 HD
ENDBRANCH   2  22
BRANCH   6  24
ATOM     24  O   UNL     1      11.570  -1.490   8.693  1.00  0.00    -0.507 OA
ATOM     25  H   UNL     1      10.575  -1.505   8.529  1.00  0.00     0.293 HD
ENDBRANCH   6  24
BRANCH   8  26
ATOM     26  O   UNL     1      15.642  -1.205  11.224  1.00  0.00    -0.508 OA
ATOM     27  H   UNL     1      16.252  -0.434  10.980  1.00  0.00     0.293 HD
ENDBRANCH   8  26
TORSDOF 6
ENDMDL
MODEL 6
REMARK VINA RESULT:    -7.227      2.081      7.206
REMARK INTER + INTRA:          -9.031
REMARK INTER:                  -8.708
REMARK INTRA:                  -0.322
REMARK UNBOUND:                -0.326
REMARK SMILES O=c1c(O)c(-c2ccc(O)c(O)c2)oc2cc(O)cc(O)c12
REMARK SMILES IDX 5 1 3 2 2 3 1 4 22 5 20 6 19 7 17 8 16 9 15 10 14 11 6 12
REMARK SMILES IDX 7 13 8 14 9 15 13 16 11 17 10 18 12 20 4 22 21 24 18 26
REMARK H PARENT 10 19 12 21 4 23 21 25 18 27
REMARK Flexibility Score: inf
ROOT
ATOM      1  C   UNL     1      10.502  -0.267  13.891  1.00  0.00     0.180 A 
ATOM      2  C   UNL     1      11.878  -0.550  13.869  1.00  0.00     0.208 A 
ATOM      3  C   UNL     1      12.487  -0.880  12.648  1.00  0.00     0.238 A 
ATOM      4  O   UNL     1      13.708  -1.187  12.644  1.00  0.00    -0.285 OA
ATOM      5  C   UNL     1      11.716  -0.906  11.461  1.00  0.00     0.111 A 
ATOM      6  C   UNL     1      12.236  -1.188  10.162  1.00  0.00     0.134 A 
ATOM      7  C   UNL     1      11.358  -1.314   9.079  1.00  0.00     0.093 A 
ATOM      8  C   UNL     1       9.986  -1.105   9.235  1.00  0.00     0.123 A 
ATOM      9  C   UNL     1       9.476  -0.771  10.488  1.00  0.00     0.094 A 
ATOM     10  C   UNL     1      10.322  -0.673  11.595  1.00  0.00     0.146 A 
ATOM     11  O   UNL     1       9.793  -0.364  12.772  1.00  0.00    -0.452 OA
ENDROOT
BRANCH   1  12
ATOM     12  C   UNL     1       9.795   0.114  15.135  1.00  0.00     0.025 A 
ATOM     13  C   UNL     1       9.255  -0.888  15.957  1.00  0.00     0.016 A 
ATOM     14  C   UNL     1       8.567  -0.551  17.125  1.00  0.00     0.051 A 
ATOM     15  C   UNL     1       8.394   0.789  17.482  1.00  0.00     0.157 A 
ATOM     16  C   UNL     1       9.603   1.462  15.485  1.00  0.00     0.062 A 
ATOM     17  C   UNL     1       8.910   1.802  16.657  1.00  0.00     0.158 A 
BRANCH  15  18
ATOM     18  O   UNL     1       7.704   1.095  18.655  1.00  0.00    -0.504 OA
ATOM     19  H   UNL     1       6.932   0.530  18.988  1.00  0.00     0.293 HD
ENDBRANCH  15  18
BRANCH  17  20
ATOM     20  O   UNL     1       8.729   3.141  17.000  1.00  0.00    -0.504 OA
ATOM     21  H   UNL     1       7.966   3.438  17.598  1.00  0.00     0.293 HD
ENDBRANCH  17  20
ENDBRANCH   1  12
BRANCH   2  22
ATOM     22  O   UNL     1      12.617  -0.540  15.057  1.00  0.00    -0.502 OA
ATOM     23  H   UNL     1      13.560  -0.175  15.107  1.00  0.00     0.293 HD
ENDBRANCH   2  22
BRANCH   6  24
ATOM     24  O   UNL     1      13.599  -1.324   9.880  1.00  0.00    -0.507 OA
ATOM     25  H   UNL     1      14.297  -0.619  10.066  1.00  0.00     0.293 HD
ENDBRANCH   6  24
BRANCH   8  26
ATOM     26  O   UNL     1       9.121  -1.218   8.149  1.00  0.00    -0.508 OA
ATOM     27  H   UNL     1       9.428  -1.019   7.205  1.00  0.00     0.293 HD
ENDBRANCH   8  26
TORSDOF 6
ENDMDL
MODEL 7
REMARK VINA RESULT:    -7.190      1.838      7.029
REMARK INTER + INTRA:          -8.987
REMARK INTER:                  -8.664
REMARK INTRA:                  -0.323
REMARK UNBOUND:                -0.326
REMARK SMILES O=c1c(O)c(-c2ccc(O)c(O)c2)oc2cc(O)cc(O)c12
REMARK SMILES IDX 5 1 3 2 2 3 1 4 22 5 20 6 19 7 17 8 16 9 15 10 14 11 6 12
REMARK SMILES IDX 7 13 8 14 9 15 13 16 11 17 10 18 12 20 4 22 21 24 18 26
REMARK H PARENT 10 19 12 21 4 23 21 25 18 27
REMARK Flexibility Score: inf
ROOT
ATOM      1  C   UNL     1       9.132   1.103  14.227  1.00  0.00     0.180 A 
ATOM      2  C   UNL     1      10.177   0.393  13.610  1.00  0.00     0.208 A 
ATOM      3  C   UNL     1       9.995  -0.089  12.305  1.00  0.00     0.238 A 
ATOM      4  O   UNL     1      10.913  -0.771  11.778  1.00  0.00    -0.285 OA
ATOM      5  C   UNL     1       8.777   0.158  11.625  1.00  0.00     0.111 A 
ATOM      6  C   UNL     1       8.499  -0.249  10.286  1.00  0.00     0.134 A 
ATOM      7  C   UNL     1       7.215  -0.064   9.761  1.00  0.00     0.093 A 
ATOM      8  C   UNL     1       6.217   0.571  10.504  1.00  0.00     0.123 A 
ATOM      9  C   UNL     1       6.497   1.025  11.791  1.00  0.00     0.094 A 
ATOM     10  C   UNL     1       7.759   0.823  12.356  1.00  0.00     0.146 A 
ATOM     11  O   UNL     1       7.979   1.261  13.588  1.00  0.00    -0.452 OA
ENDROOT
BRANCH   1  12
ATOM     12  C   UNL     1       9.259   1.664  15.591  1.00  0.00     0.025 A 
ATOM     13  C   UNL     1       9.806   2.945  15.763  1.00  0.00     0.016 A 
ATOM     14  C   UNL     1       9.954   3.486  17.042  1.00  0.00     0.051 A 
ATOM     15  C   UNL     1       9.573   2.752  18.169  1.00  0.00     0.157 A 
ATOM     16  C   UNL     1       8.895   0.918  16.727  1.00  0.00     0.062 A 
ATOM     17  C   UNL     1       9.045   1.459  18.013  1.00  0.00     0.158 A 
BRANCH  15  18
ATOM     18  O   UNL     1       9.731   3.318  19.434  1.00  0.00    -0.504 OA
ATOM     19  H   UNL     1      10.349   2.919  20.129  1.00  0.00     0.293 HD
ENDBRANCH  15  18
BRANCH  17  20
ATOM     20  O   UNL     1       8.678   0.715  19.133  1.00  0.00    -0.504 OA
ATOM     21  H   UNL     1       8.761   1.091  20.071  1.00  0.00     0.293 HD
ENDBRANCH  17  20
ENDBRANCH   1  12
BRANCH   2  22
ATOM     22  O   UNL     1      11.363   0.141  14.307  1.00  0.00    -0.502 OA
ATOM     23  H   UNL     1      11.414  -0.521  15.071  1.00  0.00     0.293 HD
ENDBRANCH   2  22
BRANCH   6  24
ATOM     24  O   UNL     1       9.450  -0.809   9.427  1.00  0.00    -0.507 OA
ATOM     25  H   UNL     1       9.251  -1.163   8.504  1.00  0.00     0.293 HD
ENDBRANCH   6  24
BRANCH   8  26
ATOM     26  O   UNL     1       4.945   0.764   9.969  1.00  0.00    -0.508 OA
ATOM     27  H   UNL     1       4.789   0.785   8.968  1.00  0.00     0.293 HD
ENDBRANCH   8  26
TORSDOF 6
ENDMDL
MODEL 8
REMARK VINA RESULT:    -7.098      3.527      6.596
REMARK INTER + INTRA:          -8.876
REMARK INTER:                  -8.564
REMARK INTRA:                  -0.312
REMARK UNBOUND:                -0.326
REMARK SMILES O=c1c(O)c(-c2ccc(O)c(O)c2)oc2cc(O)cc(O)c12
REMARK SMILES IDX 5 1 3 2 2 3 1 4 22 5 20 6 19 7 17 8 16 9 15 10 14 11 6 12
REMARK SMILES IDX 7 13 8 14 9 15 13 16 11 17 10 18 12 20 4 22 21 24 18 26
REMARK H PARENT 10 19 12 21 4 23 21 25 18 27
REMARK Flexibility Score: inf
ROOT
ATOM      1  C   UNL     1      11.751  -1.232  11.463  1.00  0.00     0.180 A 
ATOM      2  C   UNL     1      11.115  -0.529  12.500  1.00  0.00     0.208 A 
ATOM      3  C   UNL     1       9.790  -0.101  12.320  1.00  0.00     0.238 A 
ATOM      4  O   UNL     1       9.244   0.575  13.231  1.00  0.00    -0.285 OA
ATOM      5  C   UNL     1       9.112  -0.395  11.113  1.00  0.00     0.111 A 
ATOM      6  C   UNL     1       7.756  -0.046  10.838  1.00  0.00     0.134 A 
ATOM      7  C   UNL     1       7.229  -0.272   9.561  1.00  0.00     0.093 A 
ATOM      8  C   UNL     1       7.989  -0.896   8.569  1.00  0.00     0.123 A 
ATOM      9  C   UNL     1       9.295  -1.294   8.846  1.00  0.00     0.094 A 
ATOM     10  C   UNL     1       9.860  -1.049  10.099  1.00  0.00     0.146 A 
ATOM     11  O   UNL     1      11.111  -1.435  10.317  1.00  0.00    -0.452 OA
ENDROOT
BRANCH   1  12
ATOM     12  C   UNL     1      13.137  -1.737  11.588  1.00  0.00     0.025 A 
ATOM     13  C   UNL     1      13.372  -2.955  12.246  1.00  0.00     0.016 A 
ATOM     14  C   UNL     1      14.673  -3.441  12.394  1.00  0.00     0.051 A 
ATOM     15  C   UNL     1      15.759  -2.713  11.902  1.00  0.00     0.157 A 
ATOM     16  C   UNL     1      14.233  -0.996  11.112  1.00  0.00     0.062 A 
ATOM     17  C   UNL     1      15.541  -1.482  11.261  1.00  0.00     0.158 A 
BRANCH  15  18
ATOM     18  O   UNL     1      17.047  -3.224  12.062  1.00  0.00    -0.504 OA
ATOM     19  H   UNL     1      17.739  -3.183  11.323  1.00  0.00     0.293 HD
ENDBRANCH  15  18
BRANCH  17  20
ATOM     20  O   UNL     1      16.622  -0.743  10.781  1.00  0.00    -0.504 OA
ATOM     21  H   UNL     1      17.572  -1.091  10.843  1.00  0.00     0.293 HD
ENDBRANCH  17  20
ENDBRANCH   1  12
BRANCH   2  22
ATOM     22  O   UNL     1      11.810  -0.230  13.676  1.00  0.00    -0.502 OA
ATOM     23  H   UNL     1      11.364   0.205  14.475  1.00  0.00     0.293 HD
ENDBRANCH   2  22
BRANCH   6  24
ATOM     24  O   UNL     1       6.882   0.496  11.786  1.00  0.00    -0.507 OA
ATOM     25  H   UNL     1       6.902   1.453  12.104  1.00  0.00     0.293 HD
ENDBRANCH   6  24
BRANCH   8  26
ATOM     26  O   UNL     1       7.453  -1.131   7.304  1.00  0.00    -0.508 OA
ATOM     27  H   UNL     1       8.044  -1.207   6.485  1.00  0.00     0.293 HD
ENDBRANCH   8  26
TORSDOF 6
ENDMDL
MODEL 9
REMARK VINA RESULT:    -7.043      3.089      4.927
REMARK INTER + INTRA:          -8.809
REMARK INTER:                  -8.475
REMARK INTRA:                  -0.334
REMARK UNBOUND:                -0.326
REMARK SMILES O=c1c(O)c(-c2ccc(O)c(O)c2)oc2cc(O)cc(O)c12
REMARK SMILES IDX 5 1 3 2 2 3 1 4 22 5 20 6 19 7 17 8 16 9 15 10 14 11 6 12
REMARK SMILES IDX 7 13 8 14 9 15 13 16 11 17 10 18 12 20 4 22 21 24 18 26
REMARK H PARENT 10 19 12 21 4 23 21 25 18 27
REMARK Flexibility Score: inf
ROOT
ATOM      1  C   UNL     1      10.910  -0.748  11.764  1.00  0.00     0.180 A 
ATOM      2  C   UNL     1       9.973  -0.804  10.717  1.00  0.00     0.208 A 
ATOM      3  C   UNL     1       8.683  -0.296  10.930  1.00  0.00     0.238 A 
ATOM      4  O   UNL     1       7.832  -0.398  10.007  1.00  0.00    -0.285 OA
ATOM      5  C   UNL     1       8.348   0.277  12.181  1.00  0.00     0.111 A 
ATOM      6  C   UNL     1       7.083   0.859  12.494  1.00  0.00     0.134 A 
ATOM      7  C   UNL     1       6.821   1.278  13.804  1.00  0.00     0.093 A 
ATOM      8  C   UNL     1       7.801   1.197  14.796  1.00  0.00     0.123 A 
ATOM      9  C   UNL     1       9.059   0.684  14.485  1.00  0.00     0.094 A 
ATOM     10  C   UNL     1       9.339   0.225  13.196  1.00  0.00     0.146 A 
ATOM     11  O   UNL     1      10.546  -0.265  12.946  1.00  0.00    -0.452 OA
ENDROOT
BRANCH   1  12
ATOM     12  C   UNL     1      12.297  -1.240  11.607  1.00  0.00     0.025 A 
ATOM     13  C   UNL     1      12.615  -2.550  12.000  1.00  0.00     0.016 A 
ATOM     14  C   UNL     1      13.921  -3.029  11.880  1.00  0.00     0.051 A 
ATOM     15  C   UNL     1      14.933  -2.204  11.381  1.00  0.00     0.157 A 
ATOM     16  C   UNL     1      13.321  -0.405  11.125  1.00  0.00     0.062 A 
ATOM     17  C   UNL     1      14.635  -0.884  11.005  1.00  0.00     0.158 A 
BRANCH  15  18
ATOM     18  O   UNL     1      16.228  -2.710  11.271  1.00  0.00    -0.504 OA
ATOM     19  H   UNL     1      17.046  -2.140  11.454  1.00  0.00     0.293 HD
ENDBRANCH  15  18
BRANCH  17  20
ATOM     20  O   UNL     1      15.642  -0.051  10.521  1.00  0.00    -0.504 OA
ATOM     21  H   UNL     1      16.609  -0.170  10.800  1.00  0.00     0.293 HD
ENDBRANCH  17  20
ENDBRANCH   1  12
BRANCH   2  22
ATOM     22  O   UNL     1      10.318  -1.394   9.497  1.00  0.00    -0.502 OA
ATOM     23  H   UNL     1       9.665  -1.950   8.958  1.00  0.00     0.293 HD
ENDBRANCH   2  22
BRANCH   6  24
ATOM     24  O   UNL     1       6.068   1.071  11.556  1.00  0.00    -0.507 OA
ATOM     25  H   UNL     1       5.599   0.341  11.042  1.00  0.00     0.293 HD
ENDBRANCH   6  24
BRANCH   8  26
ATOM     26  O   UNL     1       7.537   1.629  16.094  1.00  0.00    -0.508 OA
ATOM     27  H   UNL     1       6.867   1.151  16.685  1.00  0.00     0.293 HD
ENDBRANCH   8  26
TORSDOF 6
ENDMDL
