MODEL 1
REMARK VINA RESULT:    -7.866      0.000      0.000
REMARK INTER + INTRA:         -10.069
REMARK INTER:                  -9.706
REMARK INTRA:                  -0.363
REMARK UNBOUND:                -0.363
REMARK SMILES Oc1cc(O)c2cc(O)c(-c3cc(O)c(O)c(O)c3)[o+]c2c1
REMARK SMILES IDX 10 1 20 2 21 3 22 4 2 5 3 6 4 7 6 8 7 9 8 10 11 11 12 12
REMARK SMILES IDX 13 13 19 14 15 15 17 16 14 17 16 19 18 21 9 23 1 25 5 27
REMARK H PARENT 14 18 16 20 18 22 9 24 1 26 5 28
REMARK Flexibility Score: inf
ROOT
ATOM      1  C   UNL     1      22.891  19.825 -15.807  1.00  0.00     0.402 A 
ATOM      2  O   UNL     1      23.611  20.892 -15.473  1.00  0.00    -0.202 OA
ATOM      3  C   UNL     1      23.198  22.141 -15.664  1.00  0.00     0.368 A 
ATOM      4  C   UNL     1      24.029  23.198 -15.283  1.00  0.00     0.162 A 
ATOM      5  C   UNL     1      23.621  24.519 -15.474  1.00  0.00     0.128 A 
ATOM      6  C   UNL     1      22.375  24.788 -16.050  1.00  0.00     0.093 A 
ATOM      7  C   UNL     1      21.525  23.746 -16.441  1.00  0.00     0.136 A 
ATOM      8  C   UNL     1      21.933  22.401 -16.245  1.00  0.00     0.125 A 
ATOM      9  C   UNL     1      21.142  21.295 -16.594  1.00  0.00     0.078 A 
ATOM     10  C   UNL     1      21.611  19.998 -16.366  1.00  0.00     0.223 A 
ENDROOT
BRANCH   1  11
ATOM     11  C   UNL     1      23.466  18.485 -15.553  1.00  0.00     0.091 A 
ATOM     12  C   UNL     1      24.039  17.727 -16.588  1.00  0.00     0.068 A 
ATOM     13  C   UNL     1      24.600  16.469 -16.324  1.00  0.00     0.162 A 
ATOM     14  C   UNL     1      23.492  17.981 -14.243  1.00  0.00     0.068 A 
ATOM     15  C   UNL     1      24.600  15.963 -15.013  1.00  0.00     0.200 A 
ATOM     16  C   UNL     1      24.047  16.727 -13.971  1.00  0.00     0.162 A 
BRANCH  13  17
ATOM     17  O   UNL     1      25.160  15.724 -17.361  1.00  0.00    -0.504 OA
ATOM     18  H   UNL     1      24.793  15.764 -18.304  1.00  0.00     0.293 HD
ENDBRANCH  13  17
BRANCH  15  19
ATOM     19  O   UNL     1      25.149  14.711 -14.734  1.00  0.00    -0.502 OA
ATOM     20  H   UNL     1      24.719  14.066 -14.082  1.00  0.00     0.293 HD
ENDBRANCH  15  19
BRANCH  16  21
ATOM     21  O   UNL     1      24.040  16.256 -12.659  1.00  0.00    -0.504 OA
ATOM     22  H   UNL     1      24.894  16.086 -12.142  1.00  0.00     0.293 HD
ENDBRANCH  16  21
ENDBRANCH   1  11
BRANCH  10  23
ATOM     23  O   UNL     1      20.804  18.900 -16.666  1.00  0.00    -0.500 OA
ATOM     24  H   UNL     1      20.691  18.565 -17.615  1.00  0.00     0.294 HD
ENDBRANCH  10  23
BRANCH   5  25
ATOM     25  O   UNL     1      24.464  25.560 -15.087  1.00  0.00    -0.507 OA
ATOM     26  H   UNL     1      24.312  26.071 -14.226  1.00  0.00     0.293 HD
ENDBRANCH   5  25
BRANCH   7  27
ATOM     27  O   UNL     1      20.298  24.097 -17.012  1.00  0.00    -0.507 OA
ATOM     28  H   UNL     1      20.149  24.910 -17.591  1.00  0.00     0.293 HD
ENDBRANCH   7  27
TORSDOF 7
ENDMDL
MODEL 2
REMARK VINA RESULT:    -7.859      0.072      1.795
REMARK INTER + INTRA:         -10.060
REMARK INTER:                  -9.717
REMARK INTRA:                  -0.342
REMARK UNBOUND:                -0.363
REMARK SMILES Oc1cc(O)c2cc(O)c(-c3cc(O)c(O)c(O)c3)[o+]c2c1
REMARK SMILES IDX 10 1 20 2 21 3 22 4 2 5 3 6 4 7 6 8 7 9 8 10 11 11 12 12
REMARK SMILES IDX 13 13 19 14 15 15 17 16 14 17 16 19 18 21 9 23 1 25 5 27
REMARK H PARENT 14 18 16 20 18 22 9 24 1 26 5 28
REMARK Flexibility Score: inf
ROOT
ATOM      1  C   UNL     1      22.946  19.871 -15.752  1.00  0.00     0.402 A 
ATOM      2  O   UNL     1      23.654  20.952 -15.436  1.00  0.00    -0.202 OA
ATOM      3  C   UNL     1      23.224  22.192 -15.643  1.00  0.00     0.368 A 
ATOM      4  C   UNL     1      24.041  23.265 -15.279  1.00  0.00     0.162 A 
ATOM      5  C   UNL     1      23.616  24.578 -15.488  1.00  0.00     0.128 A 
ATOM      6  C   UNL     1      22.364  24.822 -16.064  1.00  0.00     0.093 A 
ATOM      7  C   UNL     1      21.527  23.765 -16.437  1.00  0.00     0.136 A 
ATOM      8  C   UNL     1      21.954  22.428 -16.224  1.00  0.00     0.125 A 
ATOM      9  C   UNL     1      21.175  21.307 -16.554  1.00  0.00     0.078 A 
ATOM     10  C   UNL     1      21.662  20.019 -16.309  1.00  0.00     0.223 A 
ENDROOT
BRANCH   1  11
ATOM     11  C   UNL     1      23.540  18.542 -15.481  1.00  0.00     0.091 A 
ATOM     12  C   UNL     1      23.537  17.989 -14.189  1.00  0.00     0.068 A 
ATOM     13  C   UNL     1      24.083  16.719 -13.957  1.00  0.00     0.162 A 
ATOM     14  C   UNL     1      24.068  17.792 -16.543  1.00  0.00     0.068 A 
ATOM     15  C   UNL     1      24.631  15.985 -15.023  1.00  0.00     0.200 A 
ATOM     16  C   UNL     1      24.617  16.526 -16.320  1.00  0.00     0.162 A 
BRANCH  13  17
ATOM     17  O   UNL     1      24.080  16.183 -12.669  1.00  0.00    -0.504 OA
ATOM     18  H   UNL     1      24.337  16.738 -11.862  1.00  0.00     0.293 HD
ENDBRANCH  13  17
BRANCH  15  19
ATOM     19  O   UNL     1      25.184  14.722 -14.808  1.00  0.00    -0.502 OA
ATOM     20  H   UNL     1      25.923  14.350 -15.392  1.00  0.00     0.293 HD
ENDBRANCH  15  19
BRANCH  16  21
ATOM     21  O   UNL     1      25.145  15.819 -17.400  1.00  0.00    -0.504 OA
ATOM     22  H   UNL     1      24.569  15.500 -18.170  1.00  0.00     0.293 HD
ENDBRANCH  16  21
ENDBRANCH   1  11
BRANCH  10  23
ATOM     23  O   UNL     1      20.869  18.906 -16.591  1.00  0.00    -0.500 OA
ATOM     24  H   UNL     1      20.776  18.543 -17.532  1.00  0.00     0.294 HD
ENDBRANCH  10  23
BRANCH   5  25
ATOM     25  O   UNL     1      24.446  25.635 -15.119  1.00  0.00    -0.507 OA
ATOM     26  H   UNL     1      24.919  25.648 -14.223  1.00  0.00     0.293 HD
ENDBRANCH   5  25
BRANCH   7  27
ATOM     27  O   UNL     1      20.293  24.091 -17.009  1.00  0.00    -0.507 OA
ATOM     28  H   UNL     1      19.986  25.032 -17.205  1.00  0.00     0.293 HD
ENDBRANCH   7  27
TORSDOF 7
ENDMDL
MODEL 3
REMARK VINA RESULT:    -7.690      1.545      1.595
REMARK INTER + INTRA:          -9.851
REMARK INTER:                 -10.040
REMARK INTRA:                   0.189
REMARK UNBOUND:                -0.363
REMARK SMILES Oc1cc(O)c2cc(O)c(-c3cc(O)c(O)c(O)c3)[o+]c2c1
REMARK SMILES IDX 10 1 20 2 21 3 22 4 2 5 3 6 4 7 6 8 7 9 8 10 11 11 12 12
REMARK SMILES IDX 13 13 19 14 15 15 17 16 14 17 16 19 18 21 9 23 1 25 5 27
REMARK H PARENT 14 18 16 20 18 22 9 24 1 26 5 28
REMARK Flexibility Score: inf
ROOT
ATOM      1  C   UNL     1      23.940  20.039 -15.988  1.00  0.00     0.402 A 
ATOM      2  O   UNL     1      24.438  21.232 -15.674  1.00  0.00    -0.202 OA
ATOM      3  C   UNL     1      23.741  22.360 -15.759  1.00  0.00     0.368 A 
ATOM      4  C   UNL     1      24.352  23.566 -15.410  1.00  0.00     0.162 A 
ATOM      5  C   UNL     1      23.644  24.766 -15.492  1.00  0.00     0.128 A 
ATOM      6  C   UNL     1      22.314  24.761 -15.927  1.00  0.00     0.093 A 
ATOM      7  C   UNL     1      21.678  23.566 -16.283  1.00  0.00     0.136 A 
ATOM      8  C   UNL     1      22.394  22.343 -16.198  1.00  0.00     0.125 A 
ATOM      9  C   UNL     1      21.834  21.097 -16.521  1.00  0.00     0.078 A 
ATOM     10  C   UNL     1      22.601  19.933 -16.407  1.00  0.00     0.223 A 
ENDROOT
BRANCH   1  11
ATOM     11  C   UNL     1      24.823  18.857 -15.861  1.00  0.00     0.091 A 
ATOM     12  C   UNL     1      24.638  17.717 -16.662  1.00  0.00     0.068 A 
ATOM     13  C   UNL     1      25.498  16.617 -16.543  1.00  0.00     0.162 A 
ATOM     14  C   UNL     1      25.901  18.894 -14.963  1.00  0.00     0.068 A 
ATOM     15  C   UNL     1      26.561  16.653 -15.625  1.00  0.00     0.200 A 
ATOM     16  C   UNL     1      26.762  17.800 -14.837  1.00  0.00     0.162 A 
BRANCH  13  17
ATOM     17  O   UNL     1      25.301  15.488 -17.339  1.00  0.00    -0.504 OA
ATOM     18  H   UNL     1      25.774  14.613 -17.146  1.00  0.00     0.293 HD
ENDBRANCH  13  17
BRANCH  15  19
ATOM     19  O   UNL     1      27.424  15.564 -15.490  1.00  0.00    -0.502 OA
ATOM     20  H   UNL     1      28.420  15.641 -15.657  1.00  0.00     0.293 HD
ENDBRANCH  15  19
BRANCH  16  21
ATOM     21  O   UNL     1      27.813  17.869 -13.923  1.00  0.00    -0.504 OA
ATOM     22  H   UNL     1      28.714  17.442 -14.102  1.00  0.00     0.293 HD
ENDBRANCH  16  21
ENDBRANCH   1  11
BRANCH  10  23
ATOM     23  O   UNL     1      22.031  18.690 -16.681  1.00  0.00    -0.500 OA
ATOM     24  H   UNL     1      21.614  18.123 -15.952  1.00  0.00     0.294 HD
ENDBRANCH  10  23
BRANCH   5  25
ATOM     25  O   UNL     1      24.272  25.959 -15.139  1.00  0.00    -0.507 OA
ATOM     26  H   UNL     1      25.257  25.989 -14.905  1.00  0.00     0.293 HD
ENDBRANCH   5  25
BRANCH   7  27
ATOM     27  O   UNL     1      20.349  23.645 -16.710  1.00  0.00    -0.507 OA
ATOM     28  H   UNL     1      20.030  24.216 -17.479  1.00  0.00     0.293 HD
ENDBRANCH   7  27
TORSDOF 7
ENDMDL
MODEL 4
REMARK VINA RESULT:    -7.681      1.221      7.215
REMARK INTER + INTRA:          -9.840
REMARK INTER:                  -9.458
REMARK INTRA:                  -0.382
REMARK UNBOUND:                -0.363
REMARK SMILES Oc1cc(O)c2cc(O)c(-c3cc(O)c(O)c(O)c3)[o+]c2c1
REMARK SMILES IDX 10 1 20 2 21 3 22 4 2 5 3 6 4 7 6 8 7 9 8 10 11 11 12 12
REMARK SMILES IDX 13 13 19 14 15 15 17 16 14 17 16 19 18 21 9 23 1 25 5 27
REMARK H PARENT 14 18 16 20 18 22 9 24 1 26 5 28
REMARK Flexibility Score: inf
ROOT
ATOM      1  C   UNL     1      23.266  20.273 -14.772  1.00  0.00     0.402 A 
ATOM      2  O   UNL     1      23.846  19.459 -15.650  1.00  0.00    -0.202 OA
ATOM      3  C   UNL     1      24.195  18.208 -15.366  1.00  0.00     0.368 A 
ATOM      4  C   UNL     1      24.803  17.430 -16.354  1.00  0.00     0.162 A 
ATOM      5  C   UNL     1      25.183  16.115 -16.083  1.00  0.00     0.128 A 
ATOM      6  C   UNL     1      24.955  15.572 -14.813  1.00  0.00     0.093 A 
ATOM      7  C   UNL     1      24.348  16.331 -13.806  1.00  0.00     0.136 A 
ATOM      8  C   UNL     1      23.957  17.668 -14.078  1.00  0.00     0.125 A 
ATOM      9  C   UNL     1      23.331  18.497 -13.134  1.00  0.00     0.078 A 
ATOM     10  C   UNL     1      22.971  19.804 -13.478  1.00  0.00     0.223 A 
ENDROOT
BRANCH   1  11
ATOM     11  C   UNL     1      22.934  21.649 -15.207  1.00  0.00     0.091 A 
ATOM     12  C   UNL     1      23.863  22.697 -15.090  1.00  0.00     0.068 A 
ATOM     13  C   UNL     1      23.538  23.988 -15.529  1.00  0.00     0.162 A 
ATOM     14  C   UNL     1      21.687  21.904 -15.799  1.00  0.00     0.068 A 
ATOM     15  C   UNL     1      22.278  24.239 -16.099  1.00  0.00     0.200 A 
ATOM     16  C   UNL     1      21.354  23.189 -16.236  1.00  0.00     0.162 A 
BRANCH  13  17
ATOM     17  O   UNL     1      24.466  25.021 -15.403  1.00  0.00    -0.504 OA
ATOM     18  H   UNL     1      25.450  24.836 -15.253  1.00  0.00     0.293 HD
ENDBRANCH  13  17
BRANCH  15  19
ATOM     19  O   UNL     1      21.937  25.520 -16.536  1.00  0.00    -0.502 OA
ATOM     20  H   UNL     1      21.373  25.675 -17.363  1.00  0.00     0.293 HD
ENDBRANCH  15  19
BRANCH  16  21
ATOM     21  O   UNL     1      20.100  23.405 -16.806  1.00  0.00    -0.504 OA
ATOM     22  H   UNL     1      19.267  23.536 -16.244  1.00  0.00     0.293 HD
ENDBRANCH  16  21
ENDBRANCH   1  11
BRANCH  10  23
ATOM     23  O   UNL     1      22.304  20.611 -12.556  1.00  0.00    -0.500 OA
ATOM     24  H   UNL     1      22.763  20.957 -11.723  1.00  0.00     0.294 HD
ENDBRANCH  10  23
BRANCH   5  25
ATOM     25  O   UNL     1      25.788  15.355 -17.083  1.00  0.00    -0.507 OA
ATOM     26  H   UNL     1      26.714  14.964 -16.962  1.00  0.00     0.293 HD
ENDBRANCH   5  25
BRANCH   7  27
ATOM     27  O   UNL     1      24.158  15.717 -12.564  1.00  0.00    -0.507 OA
ATOM     28  H   UNL     1      23.772  14.793 -12.437  1.00  0.00     0.293 HD
ENDBRANCH   7  27
TORSDOF 7
ENDMDL
MODEL 5
REMARK VINA RESULT:    -7.653      1.188      7.196
REMARK INTER + INTRA:          -9.805
REMARK INTER:                  -9.424
REMARK INTRA:                  -0.381
REMARK UNBOUND:                -0.363
REMARK SMILES Oc1cc(O)c2cc(O)c(-c3cc(O)c(O)c(O)c3)[o+]c2c1
REMARK SMILES IDX 10 1 20 2 21 3 22 4 2 5 3 6 4 7 6 8 7 9 8 10 11 11 12 12
REMARK SMILES IDX 13 13 19 14 15 15 17 16 14 17 16 19 18 21 9 23 1 25 5 27
REMARK H PARENT 14 18 16 20 18 22 9 24 1 26 5 28
REMARK Flexibility Score: inf
ROOT
ATOM      1  C   UNL     1      23.221  20.315 -14.846  1.00  0.00     0.402 A 
ATOM      2  O   UNL     1      23.786  19.482 -15.715  1.00  0.00    -0.202 OA
ATOM      3  C   UNL     1      24.152  18.242 -15.407  1.00  0.00     0.368 A 
ATOM      4  C   UNL     1      24.742  17.443 -16.388  1.00  0.00     0.162 A 
ATOM      5  C   UNL     1      25.139  16.138 -16.091  1.00  0.00     0.128 A 
ATOM      6  C   UNL     1      24.943  15.627 -14.803  1.00  0.00     0.093 A 
ATOM      7  C   UNL     1      24.354  16.407 -13.802  1.00  0.00     0.136 A 
ATOM      8  C   UNL     1      23.947  17.734 -14.101  1.00  0.00     0.125 A 
ATOM      9  C   UNL     1      23.337  18.584 -13.164  1.00  0.00     0.078 A 
ATOM     10  C   UNL     1      22.959  19.878 -13.534  1.00  0.00     0.223 A 
ENDROOT
BRANCH   1  11
ATOM     11  C   UNL     1      22.868  21.676 -15.309  1.00  0.00     0.091 A 
ATOM     12  C   UNL     1      21.610  21.956 -15.868  1.00  0.00     0.068 A 
ATOM     13  C   UNL     1      21.286  23.257 -16.279  1.00  0.00     0.162 A 
ATOM     14  C   UNL     1      23.787  22.723 -15.138  1.00  0.00     0.068 A 
ATOM     15  C   UNL     1      22.221  24.294 -16.126  1.00  0.00     0.200 A 
ATOM     16  C   UNL     1      23.474  24.023 -15.548  1.00  0.00     0.162 A 
BRANCH  13  17
ATOM     17  O   UNL     1      20.036  23.521 -16.838  1.00  0.00    -0.504 OA
ATOM     18  H   UNL     1      19.427  22.776 -17.153  1.00  0.00     0.293 HD
ENDBRANCH  13  17
BRANCH  15  19
ATOM     19  O   UNL     1      21.918  25.594 -16.534  1.00  0.00    -0.502 OA
ATOM     20  H   UNL     1      21.784  25.835 -17.509  1.00  0.00     0.293 HD
ENDBRANCH  15  19
BRANCH  16  21
ATOM     21  O   UNL     1      24.420  25.033 -15.373  1.00  0.00    -0.504 OA
ATOM     22  H   UNL     1      24.295  25.961 -15.758  1.00  0.00     0.293 HD
ENDBRANCH  16  21
ENDBRANCH   1  11
BRANCH  10  23
ATOM     23  O   UNL     1      22.307  20.705 -12.619  1.00  0.00    -0.500 OA
ATOM     24  H   UNL     1      22.188  20.437 -11.650  1.00  0.00     0.294 HD
ENDBRANCH  10  23
BRANCH   5  25
ATOM     25  O   UNL     1      25.726  15.356 -17.085  1.00  0.00    -0.507 OA
ATOM     26  H   UNL     1      25.359  14.443 -17.325  1.00  0.00     0.293 HD
ENDBRANCH   5  25
BRANCH   7  27
ATOM     27  O   UNL     1      24.197  15.826 -12.540  1.00  0.00    -0.507 OA
ATOM     28  H   UNL     1      24.900  15.835 -11.816  1.00  0.00     0.293 HD
ENDBRANCH   7  27
TORSDOF 7
ENDMDL
MODEL 6
REMARK VINA RESULT:    -7.594      2.403      2.661
REMARK INTER + INTRA:          -9.732
REMARK INTER:                  -9.546
REMARK INTRA:                  -0.186
REMARK UNBOUND:                -0.363
REMARK SMILES Oc1cc(O)c2cc(O)c(-c3cc(O)c(O)c(O)c3)[o+]c2c1
REMARK SMILES IDX 10 1 20 2 21 3 22 4 2 5 3 6 4 7 6 8 7 9 8 10 11 11 12 12
REMARK SMILES IDX 13 13 19 14 15 15 17 16 14 17 16 19 18 21 9 23 1 25 5 27
REMARK H PARENT 14 18 16 20 18 22 9 24 1 26 5 28
REMARK Flexibility Score: inf
ROOT
ATOM      1  C   UNL     1      24.843  20.431 -16.514  1.00  0.00     0.402 A 
ATOM      2  O   UNL     1      24.321  21.071 -15.472  1.00  0.00    -0.202 OA
ATOM      3  C   UNL     1      23.716  22.251 -15.568  1.00  0.00     0.368 A 
ATOM      4  C   UNL     1      23.201  22.848 -14.415  1.00  0.00     0.162 A 
ATOM      5  C   UNL     1      22.563  24.087 -14.486  1.00  0.00     0.128 A 
ATOM      6  C   UNL     1      22.439  24.736 -15.720  1.00  0.00     0.093 A 
ATOM      7  C   UNL     1      22.947  24.160 -16.890  1.00  0.00     0.136 A 
ATOM      8  C   UNL     1      23.593  22.898 -16.822  1.00  0.00     0.125 A 
ATOM      9  C   UNL     1      24.120  22.239 -17.944  1.00  0.00     0.078 A 
ATOM     10  C   UNL     1      24.740  20.994 -17.799  1.00  0.00     0.223 A 
ENDROOT
BRANCH   1  11
ATOM     11  C   UNL     1      25.502  19.126 -16.275  1.00  0.00     0.091 A 
ATOM     12  C   UNL     1      25.023  17.946 -16.869  1.00  0.00     0.068 A 
ATOM     13  C   UNL     1      25.674  16.724 -16.649  1.00  0.00     0.162 A 
ATOM     14  C   UNL     1      26.660  19.072 -15.484  1.00  0.00     0.068 A 
ATOM     15  C   UNL     1      26.819  16.675 -15.837  1.00  0.00     0.200 A 
ATOM     16  C   UNL     1      27.313  17.857 -15.258  1.00  0.00     0.162 A 
BRANCH  13  17
ATOM     17  O   UNL     1      25.186  15.558 -17.239  1.00  0.00    -0.504 OA
ATOM     18  H   UNL     1      25.571  15.200 -18.105  1.00  0.00     0.293 HD
ENDBRANCH  13  17
BRANCH  15  19
ATOM     19  O   UNL     1      27.476  15.466 -15.603  1.00  0.00    -0.502 OA
ATOM     20  H   UNL     1      26.993  14.649 -15.249  1.00  0.00     0.293 HD
ENDBRANCH  15  19
BRANCH  16  21
ATOM     21  O   UNL     1      28.453  17.842 -14.454  1.00  0.00    -0.504 OA
ATOM     22  H   UNL     1      29.120  17.080 -14.476  1.00  0.00     0.293 HD
ENDBRANCH  16  21
ENDBRANCH   1  11
BRANCH  10  23
ATOM     23  O   UNL     1      25.219  20.316 -18.921  1.00  0.00    -0.500 OA
ATOM     24  H   UNL     1      24.659  20.208 -19.757  1.00  0.00     0.294 HD
ENDBRANCH  10  23
BRANCH   5  25
ATOM     25  O   UNL     1      22.056  24.666 -13.324  1.00  0.00    -0.507 OA
ATOM     26  H   UNL     1      22.550  25.409 -12.844  1.00  0.00     0.293 HD
ENDBRANCH   5  25
BRANCH   7  27
ATOM     27  O   UNL     1      22.786  24.873 -18.082  1.00  0.00    -0.507 OA
ATOM     28  H   UNL     1      23.475  24.917 -18.818  1.00  0.00     0.293 HD
ENDBRANCH   7  27
TORSDOF 7
ENDMDL
MODEL 7
REMARK VINA RESULT:    -7.464      1.652      7.050
REMARK INTER + INTRA:          -9.572
REMARK INTER:                  -9.287
REMARK INTRA:                  -0.285
REMARK UNBOUND:                -0.363
REMARK SMILES Oc1cc(O)c2cc(O)c(-c3cc(O)c(O)c(O)c3)[o+]c2c1
REMARK SMILES IDX 10 1 20 2 21 3 22 4 2 5 3 6 4 7 6 8 7 9 8 10 11 11 12 12
REMARK SMILES IDX 13 13 19 14 15 15 17 16 14 17 16 19 18 21 9 23 1 25 5 27
REMARK H PARENT 14 18 16 20 18 22 9 24 1 26 5 28
REMARK Flexibility Score: inf
ROOT
ATOM      1  C   UNL     1      23.895  20.098 -16.479  1.00  0.00     0.402 A 
ATOM      2  O   UNL     1      24.556  19.709 -15.392  1.00  0.00    -0.202 OA
ATOM      3  C   UNL     1      25.117  18.510 -15.268  1.00  0.00     0.368 A 
ATOM      4  C   UNL     1      25.789  18.193 -14.085  1.00  0.00     0.162 A 
ATOM      5  C   UNL     1      26.384  16.940 -13.927  1.00  0.00     0.128 A 
ATOM      6  C   UNL     1      26.308  15.997 -14.958  1.00  0.00     0.093 A 
ATOM      7  C   UNL     1      25.641  16.291 -16.153  1.00  0.00     0.136 A 
ATOM      8  C   UNL     1      25.036  17.564 -16.319  1.00  0.00     0.125 A 
ATOM      9  C   UNL     1      24.359  17.951 -17.487  1.00  0.00     0.078 A 
ATOM     10  C   UNL     1      23.792  19.226 -17.579  1.00  0.00     0.223 A 
ENDROOT
BRANCH   1  11
ATOM     11  C   UNL     1      23.306  21.456 -16.491  1.00  0.00     0.091 A 
ATOM     12  C   UNL     1      21.914  21.649 -16.499  1.00  0.00     0.068 A 
ATOM     13  C   UNL     1      21.375  22.943 -16.487  1.00  0.00     0.162 A 
ATOM     14  C   UNL     1      24.151  22.575 -16.439  1.00  0.00     0.068 A 
ATOM     15  C   UNL     1      22.229  24.059 -16.458  1.00  0.00     0.200 A 
ATOM     16  C   UNL     1      23.621  23.869 -16.429  1.00  0.00     0.162 A 
BRANCH  13  17
ATOM     17  O   UNL     1      19.992  23.123 -16.500  1.00  0.00    -0.504 OA
ATOM     18  H   UNL     1      19.567  23.996 -16.213  1.00  0.00     0.293 HD
ENDBRANCH  13  17
BRANCH  15  19
ATOM     19  O   UNL     1      21.709  25.354 -16.451  1.00  0.00    -0.502 OA
ATOM     20  H   UNL     1      21.959  26.032 -15.741  1.00  0.00     0.293 HD
ENDBRANCH  15  19
BRANCH  16  21
ATOM     21  O   UNL     1      24.495  24.956 -16.392  1.00  0.00    -0.504 OA
ATOM     22  H   UNL     1      24.464  25.697 -17.081  1.00  0.00     0.293 HD
ENDBRANCH  16  21
ENDBRANCH   1  11
BRANCH  10  23
ATOM     23  O   UNL     1      23.162  19.628 -18.757  1.00  0.00    -0.500 OA
ATOM     24  H   UNL     1      23.677  20.053 -19.518  1.00  0.00     0.294 HD
ENDBRANCH  10  23
BRANCH   5  25
ATOM     25  O   UNL     1      27.050  16.642 -12.739  1.00  0.00    -0.507 OA
ATOM     26  H   UNL     1      27.829  15.996 -12.717  1.00  0.00     0.293 HD
ENDBRANCH   5  25
BRANCH   7  27
ATOM     27  O   UNL     1      25.606  15.295 -17.133  1.00  0.00    -0.507 OA
ATOM     28  H   UNL     1      24.775  14.790 -17.405  1.00  0.00     0.293 HD
ENDBRANCH   7  27
TORSDOF 7
ENDMDL
MODEL 8
REMARK VINA RESULT:    -7.372      2.078      7.205
REMARK INTER + INTRA:          -9.458
REMARK INTER:                  -9.074
REMARK INTRA:                  -0.384
REMARK UNBOUND:                -0.363
REMARK SMILES Oc1cc(O)c2cc(O)c(-c3cc(O)c(O)c(O)c3)[o+]c2c1
REMARK SMILES IDX 10 1 20 2 21 3 22 4 2 5 3 6 4 7 6 8 7 9 8 10 11 11 12 12
REMARK SMILES IDX 13 13 19 14 15 15 17 16 14 17 16 19 18 21 9 23 1 25 5 27
REMARK H PARENT 14 18 16 20 18 22 9 24 1 26 5 28
REMARK Flexibility Score: inf
ROOT
ATOM      1  C   UNL     1      24.470  20.690 -15.151  1.00  0.00     0.402 A 
ATOM      2  O   UNL     1      24.387  20.261 -13.895  1.00  0.00    -0.202 OA
ATOM      3  C   UNL     1      24.980  19.153 -13.461  1.00  0.00     0.368 A 
ATOM      4  C   UNL     1      24.831  18.782 -12.123  1.00  0.00     0.162 A 
ATOM      5  C   UNL     1      25.440  17.622 -11.641  1.00  0.00     0.128 A 
ATOM      6  C   UNL     1      26.204  16.827 -12.502  1.00  0.00     0.093 A 
ATOM      7  C   UNL     1      26.368  17.177 -13.847  1.00  0.00     0.136 A 
ATOM      8  C   UNL     1      25.753  18.357 -14.341  1.00  0.00     0.125 A 
ATOM      9  C   UNL     1      25.874  18.793 -15.670  1.00  0.00     0.078 A 
ATOM     10  C   UNL     1      25.241  19.970 -16.082  1.00  0.00     0.223 A 
ENDROOT
BRANCH   1  11
ATOM     11  C   UNL     1      23.755  21.934 -15.514  1.00  0.00     0.091 A 
ATOM     12  C   UNL     1      22.449  21.902 -16.033  1.00  0.00     0.068 A 
ATOM     13  C   UNL     1      21.779  23.093 -16.350  1.00  0.00     0.162 A 
ATOM     14  C   UNL     1      24.369  23.175 -15.285  1.00  0.00     0.068 A 
ATOM     15  C   UNL     1      22.411  24.330 -16.139  1.00  0.00     0.200 A 
ATOM     16  C   UNL     1      23.709  24.367 -15.600  1.00  0.00     0.162 A 
BRANCH  13  17
ATOM     17  O   UNL     1      20.486  23.049 -16.870  1.00  0.00    -0.504 OA
ATOM     18  H   UNL     1      19.758  22.495 -16.436  1.00  0.00     0.293 HD
ENDBRANCH  13  17
BRANCH  15  19
ATOM     19  O   UNL     1      21.761  25.525 -16.453  1.00  0.00    -0.502 OA
ATOM     20  H   UNL     1      22.267  26.385 -16.628  1.00  0.00     0.293 HD
ENDBRANCH  15  19
BRANCH  16  21
ATOM     21  O   UNL     1      24.359  25.580 -15.371  1.00  0.00    -0.504 OA
ATOM     22  H   UNL     1      24.636  26.195 -16.127  1.00  0.00     0.293 HD
ENDBRANCH  16  21
ENDBRANCH   1  11
BRANCH  10  23
ATOM     23  O   UNL     1      25.402  20.429 -17.390  1.00  0.00    -0.500 OA
ATOM     24  H   UNL     1      25.806  19.847 -18.113  1.00  0.00     0.294 HD
ENDBRANCH  10  23
BRANCH   5  25
ATOM     25  O   UNL     1      25.280  17.268 -10.302  1.00  0.00    -0.507 OA
ATOM     26  H   UNL     1      24.373  17.302  -9.851  1.00  0.00     0.293 HD
ENDBRANCH   5  25
BRANCH   7  27
ATOM     27  O   UNL     1      27.143  16.329 -14.644  1.00  0.00    -0.507 OA
ATOM     28  H   UNL     1      26.945  16.114 -15.610  1.00  0.00     0.293 HD
ENDBRANCH   7  27
TORSDOF 7
ENDMDL
MODEL 9
REMARK VINA RESULT:    -7.338      1.614      7.037
REMARK INTER + INTRA:          -9.416
REMARK INTER:                  -9.155
REMARK INTRA:                  -0.261
REMARK UNBOUND:                -0.363
REMARK SMILES Oc1cc(O)c2cc(O)c(-c3cc(O)c(O)c(O)c3)[o+]c2c1
REMARK SMILES IDX 10 1 20 2 21 3 22 4 2 5 3 6 4 7 6 8 7 9 8 10 11 11 12 12
REMARK SMILES IDX 13 13 19 14 15 15 17 16 14 17 16 19 18 21 9 23 1 25 5 27
REMARK H PARENT 14 18 16 20 18 22 9 24 1 26 5 28
REMARK Flexibility Score: inf
ROOT
ATOM      1  C   UNL     1      23.948  20.101 -16.360  1.00  0.00     0.402 A 
ATOM      2  O   UNL     1      24.558  19.663 -15.262  1.00  0.00    -0.202 OA
ATOM      3  C   UNL     1      25.091  18.450 -15.158  1.00  0.00     0.368 A 
ATOM      4  C   UNL     1      25.709  18.079 -13.961  1.00  0.00     0.162 A 
ATOM      5  C   UNL     1      26.275  16.811 -13.823  1.00  0.00     0.128 A 
ATOM      6  C   UNL     1      26.225  15.906 -14.888  1.00  0.00     0.093 A 
ATOM      7  C   UNL     1      25.611  16.253 -16.098  1.00  0.00     0.136 A 
ATOM      8  C   UNL     1      25.037  17.543 -16.243  1.00  0.00     0.125 A 
ATOM      9  C   UNL     1      24.414  17.982 -17.423  1.00  0.00     0.078 A 
ATOM     10  C   UNL     1      23.874  19.270 -17.493  1.00  0.00     0.223 A 
ENDROOT
BRANCH   1  11
ATOM     11  C   UNL     1      23.384  21.470 -16.348  1.00  0.00     0.091 A 
ATOM     12  C   UNL     1      24.214  22.603 -16.319  1.00  0.00     0.068 A 
ATOM     13  C   UNL     1      23.662  23.891 -16.331  1.00  0.00     0.162 A 
ATOM     14  C   UNL     1      21.993  21.644 -16.423  1.00  0.00     0.068 A 
ATOM     15  C   UNL     1      22.267  24.056 -16.383  1.00  0.00     0.200 A 
ATOM     16  C   UNL     1      21.434  22.925 -16.433  1.00  0.00     0.162 A 
BRANCH  13  17
ATOM     17  O   UNL     1      24.496  25.008 -16.296  1.00  0.00    -0.504 OA
ATOM     18  H   UNL     1      24.141  25.942 -16.464  1.00  0.00     0.293 HD
ENDBRANCH  13  17
BRANCH  15  19
ATOM     19  O   UNL     1      21.700  25.331 -16.391  1.00  0.00    -0.502 OA
ATOM     20  H   UNL     1      21.176  25.694 -15.603  1.00  0.00     0.293 HD
ENDBRANCH  15  19
BRANCH  16  21
ATOM     21  O   UNL     1      20.046  23.056 -16.493  1.00  0.00    -0.504 OA
ATOM     22  H   UNL     1      19.528  22.916 -17.352  1.00  0.00     0.293 HD
ENDBRANCH  16  21
ENDBRANCH   1  11
BRANCH  10  23
ATOM     23  O   UNL     1      23.300  19.724 -18.680  1.00  0.00    -0.500 OA
ATOM     24  H   UNL     1      22.455  20.282 -18.683  1.00  0.00     0.294 HD
ENDBRANCH  10  23
BRANCH   5  25
ATOM     25  O   UNL     1      26.887  16.460 -12.620  1.00  0.00    -0.507 OA
ATOM     26  H   UNL     1      26.358  16.060 -11.855  1.00  0.00     0.293 HD
ENDBRANCH   5  25
BRANCH   7  27
ATOM     27  O   UNL     1      25.599  15.292 -17.113  1.00  0.00    -0.507 OA
ATOM     28  H   UNL     1      25.875  14.329 -16.991  1.00  0.00     0.293 HD
ENDBRANCH   7  27
TORSDOF 7
ENDMDL
