MODEL 1
REMARK VINA RESULT:    -7.641      0.000      0.000
REMARK INTER + INTRA:          -7.865
REMARK INTER:                  -7.865
REMARK INTRA:                   0.000
REMARK UNBOUND:                 0.000
REMARK SMILES CC1(C)CC[C@]2(C)CC[C@@]3(C)C(=CC[C@H]4[C@@]5(C)CC[C@H](O)C(C)(C)[C@H]5CC[C@]43C)[C@@H]2C1
REMARK SMILES IDX 1 1 2 2 4 3 5 4 6 5 8 6 9 7 10 8 12 9 13 10 14 11 15 12
REMARK SMILES IDX 28 13 27 14 26 15 25 16 16 17 18 18 19 19 20 20 22 21 23 22
REMARK SMILES IDX 24 23 17 24 29 25 30 26 31 27 11 28 7 29 3 30 21 31
REMARK H PARENT 21 32
REMARK Flexibility Score: inf
ROOT
ATOM      1  C   UNL     1     128.637 119.969 118.627  1.00  0.00     0.011 C 
ATOM      2  C   UNL     1     127.504 120.740 119.340  1.00  0.00    -0.035 C 
ATOM      3  C   UNL     1     126.159 120.453 118.612  1.00  0.00     0.007 C 
ATOM      4  C   UNL     1     124.982 120.327 119.589  1.00  0.00     0.008 C 
ATOM      5  C   UNL     1     125.146 119.129 120.586  1.00  0.00    -0.026 C 
ATOM      6  C   UNL     1     124.098 119.318 121.729  1.00  0.00     0.008 C 
ATOM      7  C   UNL     1     124.697 119.795 123.052  1.00  0.00     0.012 C 
ATOM      8  C   UNL     1     125.764 118.807 123.631  1.00  0.00    -0.006 C 
ATOM      9  C   UNL     1     126.842 118.623 122.569  1.00  0.00    -0.064 C 
ATOM     10  C   UNL     1     128.042 118.130 122.915  1.00  0.00    -0.027 C 
ATOM     11  C   UNL     1     128.627 118.297 124.283  1.00  0.00     0.032 C 
ATOM     12  C   UNL     1     127.631 118.472 125.467  1.00  0.00     0.006 C 
ATOM     13  C   UNL     1     126.388 119.343 125.022  1.00  0.00    -0.020 C 
ATOM     14  C   UNL     1     126.869 120.825 124.871  1.00  0.00     0.008 C 
ATOM     15  C   UNL     1     128.080 121.261 125.733  1.00  0.00     0.005 C 
ATOM     16  C   UNL     1     128.192 120.523 127.092  1.00  0.00     0.003 C 
ATOM     17  C   UNL     1     128.338 118.948 126.852  1.00  0.00    -0.025 C 
ATOM     18  C   UNL     1     129.852 118.518 126.872  1.00  0.00     0.010 C 
ATOM     19  C   UNL     1     130.684 119.100 128.010  1.00  0.00     0.033 C 
ATOM     20  C   UNL     1     130.655 120.628 127.954  1.00  0.00     0.120 C 
ATOM     21  C   UNL     1     129.216 121.192 128.127  1.00  0.00    -0.006 C 
ATOM     22  C   UNL     1     128.720 120.989 129.592  1.00  0.00     0.014 C 
ATOM     23  C   UNL     1     129.299 122.737 127.946  1.00  0.00     0.014 C 
ATOM     24  C   UNL     1     127.643 118.170 128.021  1.00  0.00     0.012 C 
ATOM     25  C   UNL     1     125.268 119.256 126.119  1.00  0.00     0.012 C 
ATOM     26  C   UNL     1     126.646 119.024 121.097  1.00  0.00     0.022 C 
ATOM     27  C   UNL     1     127.446 120.328 120.842  1.00  0.00     0.015 C 
ATOM     28  C   UNL     1     125.096 117.409 123.830  1.00  0.00     0.017 C 
ATOM     29  C   UNL     1     124.778 117.822 119.835  1.00  0.00     0.012 C 
ATOM     30  C   UNL     1     127.824 122.248 119.265  1.00  0.00     0.011 C 
ENDROOT
BRANCH  20  31
ATOM     31  O   UNL     1     131.510 121.144 128.943  1.00  0.00    -0.393 OA
ATOM     32  H   UNL     1     131.123 120.900 129.826  1.00  0.00     0.210 HD
ENDBRANCH  20  31
TORSDOF 1
ENDMDL
MODEL 2
REMARK VINA RESULT:    -7.572      9.077     12.665
REMARK INTER + INTRA:          -7.793
REMARK INTER:                  -7.793
REMARK INTRA:                   0.000
REMARK UNBOUND:                 0.000
REMARK SMILES CC1(C)CC[C@]2(C)CC[C@@]3(C)C(=CC[C@H]4[C@@]5(C)CC[C@H](O)C(C)(C)[C@H]5CC[C@]43C)[C@@H]2C1
REMARK SMILES IDX 1 1 2 2 4 3 5 4 6 5 8 6 9 7 10 8 12 9 13 10 14 11 15 12
REMARK SMILES IDX 28 13 27 14 26 15 25 16 16 17 18 18 19 19 20 20 22 21 23 22
REMARK SMILES IDX 24 23 17 24 29 25 30 26 31 27 11 28 7 29 3 30 21 31
REMARK H PARENT 21 32
REMARK Flexibility Score: inf
ROOT
ATOM      1  C   UNL     1     117.422 121.742 133.969  1.00  0.00     0.011 C 
ATOM      2  C   UNL     1     116.499 120.618 133.448  1.00  0.00    -0.035 C 
ATOM      3  C   UNL     1     115.020 121.093 133.539  1.00  0.00     0.007 C 
ATOM      4  C   UNL     1     114.180 120.615 132.346  1.00  0.00     0.008 C 
ATOM      5  C   UNL     1     114.687 121.188 130.978  1.00  0.00    -0.026 C 
ATOM      6  C   UNL     1     114.001 120.369 129.839  1.00  0.00     0.008 C 
ATOM      7  C   UNL     1     114.925 119.369 129.146  1.00  0.00     0.012 C 
ATOM      8  C   UNL     1     116.166 120.048 128.474  1.00  0.00    -0.006 C 
ATOM      9  C   UNL     1     116.904 120.826 129.557  1.00  0.00    -0.064 C 
ATOM     10  C   UNL     1     118.178 121.201 129.359  1.00  0.00    -0.027 C 
ATOM     11  C   UNL     1     119.120 120.448 128.471  1.00  0.00     0.032 C 
ATOM     12  C   UNL     1     118.495 119.626 127.306  1.00  0.00     0.006 C 
ATOM     13  C   UNL     1     117.131 118.966 127.760  1.00  0.00    -0.020 C 
ATOM     14  C   UNL     1     117.467 117.798 128.746  1.00  0.00     0.008 C 
ATOM     15  C   UNL     1     118.849 117.116 128.581  1.00  0.00     0.005 C 
ATOM     16  C   UNL     1     119.384 117.108 127.126  1.00  0.00     0.003 C 
ATOM     17  C   UNL     1     119.541 118.608 126.590  1.00  0.00    -0.025 C 
ATOM     18  C   UNL     1     121.019 119.116 126.778  1.00  0.00     0.010 C 
ATOM     19  C   UNL     1     122.108 118.137 126.352  1.00  0.00     0.033 C 
ATOM     20  C   UNL     1     121.981 116.833 127.142  1.00  0.00     0.120 C 
ATOM     21  C   UNL     1     120.623 116.122 126.881  1.00  0.00    -0.006 C 
ATOM     22  C   UNL     1     120.578 115.539 125.435  1.00  0.00     0.014 C 
ATOM     23  C   UNL     1     120.566 114.875 127.813  1.00  0.00     0.014 C 
ATOM     24  C   UNL     1     119.253 118.649 125.050  1.00  0.00     0.012 C 
ATOM     25  C   UNL     1     116.377 118.403 126.503  1.00  0.00     0.012 C 
ATOM     26  C   UNL     1     116.274 121.174 130.917  1.00  0.00     0.022 C 
ATOM     27  C   UNL     1     116.895 120.241 131.989  1.00  0.00     0.015 C 
ATOM     28  C   UNL     1     115.660 121.103 127.439  1.00  0.00     0.017 C 
ATOM     29  C   UNL     1     114.191 122.654 130.855  1.00  0.00     0.012 C 
ATOM     30  C   UNL     1     116.701 119.374 134.339  1.00  0.00     0.011 C 
ENDROOT
BRANCH  20  31
ATOM     31  O   UNL     1     123.054 115.986 126.814  1.00  0.00    -0.393 OA
ATOM     32  H   UNL     1     123.575 115.832 127.645  1.00  0.00     0.210 HD
ENDBRANCH  20  31
TORSDOF 1
ENDMDL
MODEL 3
REMARK VINA RESULT:    -7.442      7.760     10.696
REMARK INTER + INTRA:          -7.659
REMARK INTER:                  -7.659
REMARK INTRA:                   0.000
REMARK UNBOUND:                 0.000
REMARK SMILES CC1(C)CC[C@]2(C)CC[C@@]3(C)C(=CC[C@H]4[C@@]5(C)CC[C@H](O)C(C)(C)[C@H]5CC[C@]43C)[C@@H]2C1
REMARK SMILES IDX 1 1 2 2 4 3 5 4 6 5 8 6 9 7 10 8 12 9 13 10 14 11 15 12
REMARK SMILES IDX 28 13 27 14 26 15 25 16 16 17 18 18 19 19 20 20 22 21 23 22
REMARK SMILES IDX 24 23 17 24 29 25 30 26 31 27 11 28 7 29 3 30 21 31
REMARK H PARENT 21 32
REMARK Flexibility Score: inf
ROOT
ATOM      1  C   UNL     1     113.996 120.614 128.359  1.00  0.00     0.011 C 
ATOM      2  C   UNL     1     114.546 121.802 127.539  1.00  0.00    -0.035 C 
ATOM      3  C   UNL     1     113.995 123.129 128.136  1.00  0.00     0.007 C 
ATOM      4  C   UNL     1     115.036 124.257 128.112  1.00  0.00     0.008 C 
ATOM      5  C   UNL     1     116.299 123.936 128.982  1.00  0.00    -0.026 C 
ATOM      6  C   UNL     1     117.411 124.965 128.599  1.00  0.00     0.008 C 
ATOM      7  C   UNL     1     118.528 124.383 127.734  1.00  0.00     0.012 C 
ATOM      8  C   UNL     1     119.284 123.200 128.427  1.00  0.00    -0.006 C 
ATOM      9  C   UNL     1     118.247 122.139 128.780  1.00  0.00    -0.064 C 
ATOM     10  C   UNL     1     118.641 120.883 129.047  1.00  0.00    -0.027 C 
ATOM     11  C   UNL     1     119.884 120.280 128.469  1.00  0.00     0.032 C 
ATOM     12  C   UNL     1     121.035 121.254 128.083  1.00  0.00     0.006 C 
ATOM     13  C   UNL     1     120.450 122.596 127.484  1.00  0.00    -0.020 C 
ATOM     14  C   UNL     1     119.892 122.281 126.056  1.00  0.00     0.008 C 
ATOM     15  C   UNL     1     120.542 121.100 125.294  1.00  0.00     0.005 C 
ATOM     16  C   UNL     1     122.037 120.870 125.632  1.00  0.00     0.003 C 
ATOM     17  C   UNL     1     122.207 120.563 127.193  1.00  0.00    -0.025 C 
ATOM     18  C   UNL     1     122.253 119.011 127.455  1.00  0.00     0.010 C 
ATOM     19  C   UNL     1     123.152 118.214 126.516  1.00  0.00     0.033 C 
ATOM     20  C   UNL     1     122.702 118.408 125.067  1.00  0.00     0.120 C 
ATOM     21  C   UNL     1     122.804 119.894 124.618  1.00  0.00    -0.006 C 
ATOM     22  C   UNL     1     124.296 120.323 124.473  1.00  0.00     0.014 C 
ATOM     23  C   UNL     1     122.223 119.983 123.176  1.00  0.00     0.014 C 
ATOM     24  C   UNL     1     123.575 121.136 127.697  1.00  0.00     0.012 C 
ATOM     25  C   UNL     1     121.593 123.668 127.386  1.00  0.00     0.012 C 
ATOM     26  C   UNL     1     116.735 122.419 128.804  1.00  0.00     0.022 C 
ATOM     27  C   UNL     1     116.105 121.772 127.543  1.00  0.00     0.015 C 
ATOM     28  C   UNL     1     119.876 123.707 129.780  1.00  0.00     0.017 C 
ATOM     29  C   UNL     1     115.935 124.184 130.471  1.00  0.00     0.012 C 
ATOM     30  C   UNL     1     114.065 121.648 126.081  1.00  0.00     0.011 C 
ENDROOT
BRANCH  20  31
ATOM     31  O   UNL     1     123.474 117.585 124.228  1.00  0.00    -0.393 OA
ATOM     32  H   UNL     1     124.406 117.602 124.573  1.00  0.00     0.210 HD
ENDBRANCH  20  31
TORSDOF 1
ENDMDL
MODEL 4
REMARK VINA RESULT:    -7.265      9.136     11.497
REMARK INTER + INTRA:          -7.477
REMARK INTER:                  -7.477
REMARK INTRA:                   0.000
REMARK UNBOUND:                 0.000
REMARK SMILES CC1(C)CC[C@]2(C)CC[C@@]3(C)C(=CC[C@H]4[C@@]5(C)CC[C@H](O)C(C)(C)[C@H]5CC[C@]43C)[C@@H]2C1
REMARK SMILES IDX 1 1 2 2 4 3 5 4 6 5 8 6 9 7 10 8 12 9 13 10 14 11 15 12
REMARK SMILES IDX 28 13 27 14 26 15 25 16 16 17 18 18 19 19 20 20 22 21 23 22
REMARK SMILES IDX 24 23 17 24 29 25 30 26 31 27 11 28 7 29 3 30 21 31
REMARK H PARENT 21 32
REMARK Flexibility Score: inf
ROOT
ATOM      1  C   UNL     1     121.775 117.946 126.773  1.00  0.00     0.011 C 
ATOM      2  C   UNL     1     120.544 118.325 125.922  1.00  0.00    -0.035 C 
ATOM      3  C   UNL     1     119.757 117.032 125.562  1.00  0.00     0.007 C 
ATOM      4  C   UNL     1     118.237 117.248 125.587  1.00  0.00     0.008 C 
ATOM      5  C   UNL     1     117.703 117.644 127.006  1.00  0.00    -0.026 C 
ATOM      6  C   UNL     1     116.244 118.175 126.831  1.00  0.00     0.008 C 
ATOM      7  C   UNL     1     116.114 119.693 126.954  1.00  0.00     0.012 C 
ATOM      8  C   UNL     1     116.585 120.236 128.344  1.00  0.00    -0.006 C 
ATOM      9  C   UNL     1     118.028 119.785 128.546  1.00  0.00    -0.064 C 
ATOM     10  C   UNL     1     118.795 120.397 129.463  1.00  0.00    -0.027 C 
ATOM     11  C   UNL     1     118.592 121.821 129.877  1.00  0.00     0.032 C 
ATOM     12  C   UNL     1     117.154 122.402 129.741  1.00  0.00     0.006 C 
ATOM     13  C   UNL     1     116.449 121.843 128.441  1.00  0.00    -0.020 C 
ATOM     14  C   UNL     1     117.118 122.525 127.201  1.00  0.00     0.008 C 
ATOM     15  C   UNL     1     117.740 123.927 127.421  1.00  0.00     0.005 C 
ATOM     16  C   UNL     1     117.029 124.773 128.508  1.00  0.00     0.003 C 
ATOM     17  C   UNL     1     117.081 124.017 129.917  1.00  0.00    -0.025 C 
ATOM     18  C   UNL     1     118.293 124.530 130.781  1.00  0.00     0.010 C 
ATOM     19  C   UNL     1     118.469 126.044 130.829  1.00  0.00     0.033 C 
ATOM     20  C   UNL     1     118.664 126.597 129.416  1.00  0.00     0.120 C 
ATOM     21  C   UNL     1     117.432 126.325 128.508  1.00  0.00    -0.006 C 
ATOM     22  C   UNL     1     116.220 127.202 128.949  1.00  0.00     0.014 C 
ATOM     23  C   UNL     1     117.789 126.832 127.078  1.00  0.00     0.014 C 
ATOM     24  C   UNL     1     115.786 124.340 130.736  1.00  0.00     0.012 C 
ATOM     25  C   UNL     1     114.919 122.195 128.481  1.00  0.00     0.012 C 
ATOM     26  C   UNL     1     118.685 118.675 127.709  1.00  0.00     0.022 C 
ATOM     27  C   UNL     1     119.655 119.343 126.700  1.00  0.00     0.015 C 
ATOM     28  C   UNL     1     115.745 119.543 129.464  1.00  0.00     0.017 C 
ATOM     29  C   UNL     1     117.624 116.356 127.869  1.00  0.00     0.012 C 
ATOM     30  C   UNL     1     121.040 119.008 124.630  1.00  0.00     0.011 C 
ENDROOT
BRANCH  20  31
ATOM     31  O   UNL     1     118.930 127.975 129.489  1.00  0.00    -0.393 OA
ATOM     32  H   UNL     1     119.143 128.185 130.437  1.00  0.00     0.210 HD
ENDBRANCH  20  31
TORSDOF 1
ENDMDL
MODEL 5
REMARK VINA RESULT:    -6.960      8.310     11.025
REMARK INTER + INTRA:          -7.163
REMARK INTER:                  -7.163
REMARK INTRA:                   0.000
REMARK UNBOUND:                 0.000
REMARK SMILES CC1(C)CC[C@]2(C)CC[C@@]3(C)C(=CC[C@H]4[C@@]5(C)CC[C@H](O)C(C)(C)[C@H]5CC[C@]43C)[C@@H]2C1
REMARK SMILES IDX 1 1 2 2 4 3 5 4 6 5 8 6 9 7 10 8 12 9 13 10 14 11 15 12
REMARK SMILES IDX 28 13 27 14 26 15 25 16 16 17 18 18 19 19 20 20 22 21 23 22
REMARK SMILES IDX 24 23 17 24 29 25 30 26 31 27 11 28 7 29 3 30 21 31
REMARK H PARENT 21 32
REMARK Flexibility Score: inf
ROOT
ATOM      1  C   UNL     1     124.259 119.455 128.478  1.00  0.00     0.011 C 
ATOM      2  C   UNL     1     123.397 119.544 127.200  1.00  0.00    -0.035 C 
ATOM      3  C   UNL     1     123.752 118.351 126.264  1.00  0.00     0.007 C 
ATOM      4  C   UNL     1     122.519 117.787 125.546  1.00  0.00     0.008 C 
ATOM      5  C   UNL     1     121.455 117.200 126.535  1.00  0.00    -0.026 C 
ATOM      6  C   UNL     1     120.129 116.993 125.735  1.00  0.00     0.008 C 
ATOM      7  C   UNL     1     119.048 118.028 126.042  1.00  0.00     0.012 C 
ATOM      8  C   UNL     1     118.622 118.040 127.548  1.00  0.00    -0.006 C 
ATOM      9  C   UNL     1     119.878 118.287 128.377  1.00  0.00    -0.064 C 
ATOM     10  C   UNL     1     119.766 118.703 129.648  1.00  0.00    -0.027 C 
ATOM     11  C   UNL     1     118.602 119.503 130.145  1.00  0.00     0.032 C 
ATOM     12  C   UNL     1     117.247 119.326 129.398  1.00  0.00     0.006 C 
ATOM     13  C   UNL     1     117.488 119.152 127.845  1.00  0.00    -0.020 C 
ATOM     14  C   UNL     1     117.919 120.541 127.267  1.00  0.00     0.008 C 
ATOM     15  C   UNL     1     117.420 121.800 128.020  1.00  0.00     0.005 C 
ATOM     16  C   UNL     1     116.049 121.620 128.719  1.00  0.00     0.003 C 
ATOM     17  C   UNL     1     116.131 120.439 129.796  1.00  0.00    -0.025 C 
ATOM     18  C   UNL     1     116.415 121.013 131.234  1.00  0.00     0.010 C 
ATOM     19  C   UNL     1     115.578 122.224 131.634  1.00  0.00     0.033 C 
ATOM     20  C   UNL     1     115.804 123.369 130.645  1.00  0.00     0.120 C 
ATOM     21  C   UNL     1     115.367 122.988 129.202  1.00  0.00    -0.006 C 
ATOM     22  C   UNL     1     113.813 122.884 129.108  1.00  0.00     0.014 C 
ATOM     23  C   UNL     1     115.741 124.182 128.274  1.00  0.00     0.014 C 
ATOM     24  C   UNL     1     114.749 119.706 129.879  1.00  0.00     0.012 C 
ATOM     25  C   UNL     1     116.157 118.679 127.158  1.00  0.00     0.012 C 
ATOM     26  C   UNL     1     121.300 118.131 127.812  1.00  0.00     0.022 C 
ATOM     27  C   UNL     1     121.885 119.548 127.579  1.00  0.00     0.015 C 
ATOM     28  C   UNL     1     118.111 116.615 127.935  1.00  0.00     0.017 C 
ATOM     29  C   UNL     1     121.942 115.797 126.990  1.00  0.00     0.012 C 
ATOM     30  C   UNL     1     123.719 120.875 126.490  1.00  0.00     0.011 C 
ENDROOT
BRANCH  20  31
ATOM     31  O   UNL     1     115.109 124.508 131.087  1.00  0.00    -0.393 OA
ATOM     32  H   UNL     1     114.940 125.079 130.292  1.00  0.00     0.210 HD
ENDBRANCH  20  31
TORSDOF 1
ENDMDL
MODEL 6
REMARK VINA RESULT:    -6.843      9.514     12.181
REMARK INTER + INTRA:          -7.043
REMARK INTER:                  -7.043
REMARK INTRA:                   0.000
REMARK UNBOUND:                 0.000
REMARK SMILES CC1(C)CC[C@]2(C)CC[C@@]3(C)C(=CC[C@H]4[C@@]5(C)CC[C@H](O)C(C)(C)[C@H]5CC[C@]43C)[C@@H]2C1
REMARK SMILES IDX 1 1 2 2 4 3 5 4 6 5 8 6 9 7 10 8 12 9 13 10 14 11 15 12
REMARK SMILES IDX 28 13 27 14 26 15 25 16 16 17 18 18 19 19 20 20 22 21 23 22
REMARK SMILES IDX 24 23 17 24 29 25 30 26 31 27 11 28 7 29 3 30 21 31
REMARK H PARENT 21 32
REMARK Flexibility Score: inf
ROOT
ATOM      1  C   UNL     1     115.495 121.538 127.911  1.00  0.00     0.011 C 
ATOM      2  C   UNL     1     115.486 122.422 129.178  1.00  0.00    -0.035 C 
ATOM      3  C   UNL     1     114.081 122.342 129.842  1.00  0.00     0.007 C 
ATOM      4  C   UNL     1     114.161 122.332 131.375  1.00  0.00     0.008 C 
ATOM      5  C   UNL     1     114.926 121.085 131.936  1.00  0.00    -0.026 C 
ATOM      6  C   UNL     1     115.249 121.364 133.439  1.00  0.00     0.008 C 
ATOM      7  C   UNL     1     116.713 121.707 133.709  1.00  0.00     0.012 C 
ATOM      8  C   UNL     1     117.696 120.566 133.283  1.00  0.00    -0.006 C 
ATOM      9  C   UNL     1     117.457 120.285 131.803  1.00  0.00    -0.064 C 
ATOM     10  C   UNL     1     118.385 119.626 131.091  1.00  0.00    -0.027 C 
ATOM     11  C   UNL     1     119.844 119.661 131.424  1.00  0.00     0.032 C 
ATOM     12  C   UNL     1     120.228 119.919 132.911  1.00  0.00     0.006 C 
ATOM     13  C   UNL     1     119.237 120.961 133.568  1.00  0.00    -0.020 C 
ATOM     14  C   UNL     1     119.560 122.372 132.973  1.00  0.00     0.008 C 
ATOM     15  C   UNL     1     121.010 122.612 132.483  1.00  0.00     0.005 C 
ATOM     16  C   UNL     1     122.085 121.813 133.264  1.00  0.00     0.003 C 
ATOM     17  C   UNL     1     121.806 120.243 133.133  1.00  0.00    -0.025 C 
ATOM     18  C   UNL     1     122.664 119.619 131.970  1.00  0.00     0.010 C 
ATOM     19  C   UNL     1     124.129 120.042 131.935  1.00  0.00     0.033 C 
ATOM     20  C   UNL     1     124.234 121.562 131.800  1.00  0.00     0.120 C 
ATOM     21  C   UNL     1     123.590 122.301 133.007  1.00  0.00    -0.006 C 
ATOM     22  C   UNL     1     124.451 122.108 134.293  1.00  0.00     0.014 C 
ATOM     23  C   UNL     1     123.662 123.828 132.707  1.00  0.00     0.014 C 
ATOM     24  C   UNL     1     122.252 119.517 134.448  1.00  0.00     0.012 C 
ATOM     25  C   UNL     1     119.450 120.978 135.124  1.00  0.00     0.012 C 
ATOM     26  C   UNL     1     116.205 120.765 131.050  1.00  0.00     0.022 C 
ATOM     27  C   UNL     1     116.612 121.963 130.153  1.00  0.00     0.015 C 
ATOM     28  C   UNL     1     117.311 119.260 134.049  1.00  0.00     0.017 C 
ATOM     29  C   UNL     1     113.964 119.867 131.890  1.00  0.00     0.012 C 
ATOM     30  C   UNL     1     115.778 123.877 128.755  1.00  0.00     0.011 C 
ENDROOT
BRANCH  20  31
ATOM     31  O   UNL     1     125.586 121.923 131.664  1.00  0.00    -0.393 OA
ATOM     32  H   UNL     1     125.896 121.582 130.784  1.00  0.00     0.210 HD
ENDBRANCH  20  31
TORSDOF 1
ENDMDL
MODEL 7
REMARK VINA RESULT:    -6.761      8.300     11.413
REMARK INTER + INTRA:          -6.959
REMARK INTER:                  -6.959
REMARK INTRA:                   0.000
REMARK UNBOUND:                 0.000
REMARK SMILES CC1(C)CC[C@]2(C)CC[C@@]3(C)C(=CC[C@H]4[C@@]5(C)CC[C@H](O)C(C)(C)[C@H]5CC[C@]43C)[C@@H]2C1
REMARK SMILES IDX 1 1 2 2 4 3 5 4 6 5 8 6 9 7 10 8 12 9 13 10 14 11 15 12
REMARK SMILES IDX 28 13 27 14 26 15 25 16 16 17 18 18 19 19 20 20 22 21 23 22
REMARK SMILES IDX 24 23 17 24 29 25 30 26 31 27 11 28 7 29 3 30 21 31
REMARK H PARENT 21 32
REMARK Flexibility Score: inf
ROOT
ATOM      1  C   UNL     1     123.885 117.990 129.151  1.00  0.00     0.011 C 
ATOM      2  C   UNL     1     123.797 119.454 129.634  1.00  0.00    -0.035 C 
ATOM      3  C   UNL     1     124.920 120.284 128.948  1.00  0.00     0.007 C 
ATOM      4  C   UNL     1     124.455 121.699 128.576  1.00  0.00     0.008 C 
ATOM      5  C   UNL     1     123.282 121.699 127.536  1.00  0.00    -0.026 C 
ATOM      6  C   UNL     1     122.671 123.136 127.512  1.00  0.00     0.008 C 
ATOM      7  C   UNL     1     121.322 123.253 128.221  1.00  0.00     0.012 C 
ATOM      8  C   UNL     1     120.223 122.329 127.597  1.00  0.00    -0.006 C 
ATOM      9  C   UNL     1     120.750 120.898 127.640  1.00  0.00    -0.064 C 
ATOM     10  C   UNL     1     119.897 119.869 127.512  1.00  0.00    -0.027 C 
ATOM     11  C   UNL     1     118.459 119.948 127.921  1.00  0.00     0.032 C 
ATOM     12  C   UNL     1     117.789 121.353 127.902  1.00  0.00     0.006 C 
ATOM     13  C   UNL     1     118.812 122.463 128.374  1.00  0.00    -0.020 C 
ATOM     14  C   UNL     1     119.019 122.300 129.917  1.00  0.00     0.008 C 
ATOM     15  C   UNL     1     117.850 121.676 130.720  1.00  0.00     0.005 C 
ATOM     16  C   UNL     1     116.446 121.972 130.132  1.00  0.00     0.003 C 
ATOM     17  C   UNL     1     116.342 121.399 128.641  1.00  0.00    -0.025 C 
ATOM     18  C   UNL     1     115.678 119.971 128.637  1.00  0.00     0.010 C 
ATOM     19  C   UNL     1     114.426 119.829 129.497  1.00  0.00     0.033 C 
ATOM     20  C   UNL     1     114.747 120.166 130.954  1.00  0.00     0.120 C 
ATOM     21  C   UNL     1     115.230 121.635 131.119  1.00  0.00    -0.006 C 
ATOM     22  C   UNL     1     114.051 122.630 130.890  1.00  0.00     0.014 C 
ATOM     23  C   UNL     1     115.625 121.827 132.614  1.00  0.00     0.014 C 
ATOM     24  C   UNL     1     115.409 122.322 127.786  1.00  0.00     0.012 C 
ATOM     25  C   UNL     1     118.224 123.884 128.062  1.00  0.00     0.012 C 
ATOM     26  C   UNL     1     122.231 120.557 127.873  1.00  0.00     0.022 C 
ATOM     27  C   UNL     1     122.382 120.030 129.324  1.00  0.00     0.015 C 
ATOM     28  C   UNL     1     120.058 122.694 126.088  1.00  0.00     0.017 C 
ATOM     29  C   UNL     1     123.884 121.431 126.130  1.00  0.00     0.012 C 
ATOM     30  C   UNL     1     123.999 119.471 131.164  1.00  0.00     0.011 C 
ENDROOT
BRANCH  20  31
ATOM     31  O   UNL     1     113.610 119.928 131.746  1.00  0.00    -0.393 OA
ATOM     32  H   UNL     1     113.928 119.595 132.627  1.00  0.00     0.210 HD
ENDBRANCH  20  31
TORSDOF 1
ENDMDL
MODEL 8
REMARK VINA RESULT:    -6.740      8.352     11.169
REMARK INTER + INTRA:          -6.937
REMARK INTER:                  -6.937
REMARK INTRA:                   0.000
REMARK UNBOUND:                 0.000
REMARK SMILES CC1(C)CC[C@]2(C)CC[C@@]3(C)C(=CC[C@H]4[C@@]5(C)CC[C@H](O)C(C)(C)[C@H]5CC[C@]43C)[C@@H]2C1
REMARK SMILES IDX 1 1 2 2 4 3 5 4 6 5 8 6 9 7 10 8 12 9 13 10 14 11 15 12
REMARK SMILES IDX 28 13 27 14 26 15 25 16 16 17 18 18 19 19 20 20 22 21 23 22
REMARK SMILES IDX 24 23 17 24 29 25 30 26 31 27 11 28 7 29 3 30 21 31
REMARK H PARENT 21 32
REMARK Flexibility Score: inf
ROOT
ATOM      1  C   UNL     1     113.908 121.152 127.386  1.00  0.00     0.011 C 
ATOM      2  C   UNL     1     114.511 122.202 128.345  1.00  0.00    -0.035 C 
ATOM      3  C   UNL     1     113.608 122.312 129.609  1.00  0.00     0.007 C 
ATOM      4  C   UNL     1     114.425 122.510 130.893  1.00  0.00     0.008 C 
ATOM      5  C   UNL     1     115.376 121.303 131.200  1.00  0.00    -0.026 C 
ATOM      6  C   UNL     1     116.388 121.765 132.297  1.00  0.00     0.008 C 
ATOM      7  C   UNL     1     117.795 122.041 131.771  1.00  0.00     0.012 C 
ATOM      8  C   UNL     1     118.456 120.787 131.106  1.00  0.00    -0.006 C 
ATOM      9  C   UNL     1     117.528 120.320 129.989  1.00  0.00    -0.064 C 
ATOM     10  C   UNL     1     117.997 119.507 129.029  1.00  0.00    -0.027 C 
ATOM     11  C   UNL     1     119.433 119.488 128.608  1.00  0.00     0.032 C 
ATOM     12  C   UNL     1     120.491 119.922 129.664  1.00  0.00     0.006 C 
ATOM     13  C   UNL     1     119.937 121.112 130.548  1.00  0.00    -0.020 C 
ATOM     14  C   UNL     1     119.918 122.401 129.661  1.00  0.00     0.008 C 
ATOM     15  C   UNL     1     120.944 122.470 128.502  1.00  0.00     0.005 C 
ATOM     16  C   UNL     1     122.269 121.716 128.780  1.00  0.00     0.003 C 
ATOM     17  C   UNL     1     121.974 120.165 129.044  1.00  0.00    -0.025 C 
ATOM     18  C   UNL     1     122.161 119.328 127.724  1.00  0.00     0.010 C 
ATOM     19  C   UNL     1     123.421 119.641 126.923  1.00  0.00     0.033 C 
ATOM     20  C   UNL     1     123.435 121.117 126.520  1.00  0.00     0.120 C 
ATOM     21  C   UNL     1     123.454 122.059 127.757  1.00  0.00    -0.006 C 
ATOM     22  C   UNL     1     124.835 121.988 128.480  1.00  0.00     0.014 C 
ATOM     23  C   UNL     1     123.359 123.521 127.228  1.00  0.00     0.014 C 
ATOM     24  C   UNL     1     123.009 119.601 130.075  1.00  0.00     0.012 C 
ATOM     25  C   UNL     1     120.880 121.329 131.784  1.00  0.00     0.012 C 
ATOM     26  C   UNL     1     116.064 120.776 129.870  1.00  0.00     0.022 C 
ATOM     27  C   UNL     1     115.973 121.807 128.714  1.00  0.00     0.015 C 
ATOM     28  C   UNL     1     118.502 119.630 132.154  1.00  0.00     0.017 C 
ATOM     29  C   UNL     1     114.523 120.160 131.813  1.00  0.00     0.012 C 
ATOM     30  C   UNL     1     114.549 123.561 127.615  1.00  0.00     0.011 C 
ENDROOT
BRANCH  20  31
ATOM     31  O   UNL     1     124.546 121.362 125.695  1.00  0.00    -0.393 OA
ATOM     32  H   UNL     1     124.913 120.479 125.423  1.00  0.00     0.210 HD
ENDBRANCH  20  31
TORSDOF 1
ENDMDL
MODEL 9
REMARK VINA RESULT:    -6.720      8.149     11.470
REMARK INTER + INTRA:          -6.916
REMARK INTER:                  -6.916
REMARK INTRA:                   0.000
REMARK UNBOUND:                 0.000
REMARK SMILES CC1(C)CC[C@]2(C)CC[C@@]3(C)C(=CC[C@H]4[C@@]5(C)CC[C@H](O)C(C)(C)[C@H]5CC[C@]43C)[C@@H]2C1
REMARK SMILES IDX 1 1 2 2 4 3 5 4 6 5 8 6 9 7 10 8 12 9 13 10 14 11 15 12
REMARK SMILES IDX 28 13 27 14 26 15 25 16 16 17 18 18 19 19 20 20 22 21 23 22
REMARK SMILES IDX 24 23 17 24 29 25 30 26 31 27 11 28 7 29 3 30 21 31
REMARK H PARENT 21 32
REMARK Flexibility Score: inf
ROOT
ATOM      1  C   UNL     1     115.719 121.399 132.935  1.00  0.00     0.011 C 
ATOM      2  C   UNL     1     115.311 121.481 131.447  1.00  0.00    -0.035 C 
ATOM      3  C   UNL     1     114.386 122.716 131.242  1.00  0.00     0.007 C 
ATOM      4  C   UNL     1     114.653 123.429 129.909  1.00  0.00     0.008 C 
ATOM      5  C   UNL     1     116.105 124.012 129.812  1.00  0.00    -0.026 C 
ATOM      6  C   UNL     1     116.367 124.383 128.317  1.00  0.00     0.008 C 
ATOM      7  C   UNL     1     117.290 123.410 127.585  1.00  0.00     0.012 C 
ATOM      8  C   UNL     1     118.710 123.307 128.238  1.00  0.00    -0.006 C 
ATOM      9  C   UNL     1     118.515 122.898 129.694  1.00  0.00    -0.064 C 
ATOM     10  C   UNL     1     119.546 122.389 130.387  1.00  0.00    -0.027 C 
ATOM     11  C   UNL     1     120.672 121.642 129.742  1.00  0.00     0.032 C 
ATOM     12  C   UNL     1     120.991 121.980 128.256  1.00  0.00     0.006 C 
ATOM     13  C   UNL     1     119.660 122.263 127.451  1.00  0.00    -0.020 C 
ATOM     14  C   UNL     1     118.922 120.897 127.249  1.00  0.00     0.008 C 
ATOM     15  C   UNL     1     119.801 119.622 127.221  1.00  0.00     0.005 C 
ATOM     16  C   UNL     1     121.228 119.847 126.659  1.00  0.00     0.003 C 
ATOM     17  C   UNL     1     122.006 120.926 127.548  1.00  0.00    -0.025 C 
ATOM     18  C   UNL     1     122.903 120.216 128.630  1.00  0.00     0.010 C 
ATOM     19  C   UNL     1     123.736 119.043 128.123  1.00  0.00     0.033 C 
ATOM     20  C   UNL     1     122.824 117.969 127.527  1.00  0.00     0.120 C 
ATOM     21  C   UNL     1     122.021 118.499 126.305  1.00  0.00    -0.006 C 
ATOM     22  C   UNL     1     122.965 118.727 125.084  1.00  0.00     0.014 C 
ATOM     23  C   UNL     1     121.058 117.361 125.854  1.00  0.00     0.014 C 
ATOM     24  C   UNL     1     122.980 121.752 126.641  1.00  0.00     0.012 C 
ATOM     25  C   UNL     1     120.013 122.890 126.056  1.00  0.00     0.012 C 
ATOM     26  C   UNL     1     117.162 122.993 130.418  1.00  0.00     0.022 C 
ATOM     27  C   UNL     1     116.585 121.559 130.552  1.00  0.00     0.015 C 
ATOM     28  C   UNL     1     119.355 124.730 128.261  1.00  0.00     0.017 C 
ATOM     29  C   UNL     1     116.151 125.331 130.629  1.00  0.00     0.012 C 
ATOM     30  C   UNL     1     114.545 120.192 131.083  1.00  0.00     0.011 C 
ENDROOT
BRANCH  20  31
ATOM     31  O   UNL     1     123.598 116.854 127.163  1.00  0.00    -0.393 OA
ATOM     32  H   UNL     1     124.425 116.875 127.713  1.00  0.00     0.210 HD
ENDBRANCH  20  31
TORSDOF 1
ENDMDL
