MODEL 1
REMARK VINA RESULT:    -1.751      0.000      0.000
REMARK INTER + INTRA:          -4.914
REMARK INTER:                  -3.183
REMARK INTRA:                  -1.731
REMARK UNBOUND:                -1.731
REMARK SMILES CCCCCCCCCCCCCCCC(=O)[O-]
REMARK SMILES IDX 9 1 10 2 11 3 12 4 13 5 14 6 15 7 16 8 17 9 18 10 8 11 7 12
REMARK SMILES IDX 6 13 5 14 4 15 3 16 2 17 1 18
REMARK H PARENT
REMARK Flexibility Score: inf
ROOT
ATOM      1  C   UNL     1      39.896  39.159  65.037  1.00  0.00     0.000 C 
ENDROOT
BRANCH   1   2
ATOM      2  C   UNL     1      38.928  39.051  66.225  1.00  0.00     0.000 C 
BRANCH   2   3
ATOM      3  C   UNL     1      38.175  40.372  66.440  1.00  0.00     0.000 C 
BRANCH   3   4
ATOM      4  C   UNL     1      37.878  41.114  65.125  1.00  0.00     0.000 C 
BRANCH   4   5
ATOM      5  C   UNL     1      37.662  42.634  65.266  1.00  0.00     0.000 C 
BRANCH   5   6
ATOM      6  C   UNL     1      36.191  43.080  65.339  1.00  0.00     0.006 C 
BRANCH   6   7
ATOM      7  C   UNL     1      35.601  42.958  66.749  1.00  0.00     0.053 C 
BRANCH   7   8
ATOM      8  C   UNL     1      34.558  41.886  66.787  1.00  0.00     0.041 C 
ATOM      9  O   UNL     1      33.350  42.167  66.564  1.00  0.00    -0.550 OA
ATOM     10  O   UNL     1      34.910  40.583  67.117  1.00  0.00    -0.550 OA
ENDBRANCH   7   8
ENDBRANCH   6   7
ENDBRANCH   5   6
ENDBRANCH   4   5
ENDBRANCH   3   4
ENDBRANCH   2   3
ENDBRANCH   1   2
BRANCH   1  11
ATOM     11  C   UNL     1      40.839  37.950  64.930  1.00  0.00     0.000 C 
BRANCH  11  12
ATOM     12  C   UNL     1      40.893  37.124  66.224  1.00  0.00    -0.000 C 
BRANCH  12  13
ATOM     13  C   UNL     1      42.046  37.591  67.125  1.00  0.00    -0.000 C 
BRANCH  13  14
ATOM     14  C   UNL     1      43.086  38.445  66.376  1.00  0.00    -0.000 C 
BRANCH  14  15
ATOM     15  C   UNL     1      43.396  39.807  67.023  1.00  0.00    -0.000 C 
BRANCH  15  16
ATOM     16  C   UNL     1      42.745  40.985  66.283  1.00  0.00    -0.000 C 
BRANCH  16  17
ATOM     17  C   UNL     1      41.607  41.592  67.112  1.00  0.00    -0.003 C 
ATOM     18  C   UNL     1      40.999  42.803  66.410  1.00  0.00     0.004 C 
ENDBRANCH  16  17
ENDBRANCH  15  16
ENDBRANCH  14  15
ENDBRANCH  13  14
ENDBRANCH  12  13
ENDBRANCH  11  12
ENDBRANCH   1  11
TORSDOF 14
ENDMDL
MODEL 2
REMARK VINA RESULT:    -1.061      2.524      6.651
REMARK INTER + INTRA:          -3.660
REMARK INTER:                  -3.151
REMARK INTRA:                  -0.509
REMARK UNBOUND:                -1.731
REMARK SMILES CCCCCCCCCCCCCCCC(=O)[O-]
REMARK SMILES IDX 9 1 10 2 11 3 12 4 13 5 14 6 15 7 16 8 17 9 18 10 8 11 7 12
REMARK SMILES IDX 6 13 5 14 4 15 3 16 2 17 1 18
REMARK H PARENT
REMARK Flexibility Score: inf
ROOT
ATOM      1  C   UNL     1      38.741  38.977  66.547  1.00  0.00     0.000 C 
ENDROOT
BRANCH   1   2
ATOM      2  C   UNL     1      40.015  38.364  65.944  1.00  0.00     0.000 C 
BRANCH   2   3
ATOM      3  C   UNL     1      41.020  37.995  67.045  1.00  0.00     0.000 C 
BRANCH   3   4
ATOM      4  C   UNL     1      42.471  37.935  66.535  1.00  0.00     0.000 C 
BRANCH   4   5
ATOM      5  C   UNL     1      43.415  39.002  67.124  1.00  0.00     0.000 C 
BRANCH   5   6
ATOM      6  C   UNL     1      43.455  40.335  66.354  1.00  0.00     0.006 C 
BRANCH   6   7
ATOM      7  C   UNL     1      42.792  41.485  67.120  1.00  0.00     0.053 C 
BRANCH   7   8
ATOM      8  C   UNL     1      41.552  41.935  66.415  1.00  0.00     0.041 C 
ATOM      9  O   UNL     1      41.038  43.053  66.687  1.00  0.00    -0.550 OA
ATOM     10  O   UNL     1      40.934  41.100  65.493  1.00  0.00    -0.550 OA
ENDBRANCH   7   8
ENDBRANCH   6   7
ENDBRANCH   5   6
ENDBRANCH   4   5
ENDBRANCH   3   4
ENDBRANCH   2   3
ENDBRANCH   1   2
BRANCH   1  11
ATOM     11  C   UNL     1      37.720  39.394  65.478  1.00  0.00     0.000 C 
BRANCH  11  12
ATOM     12  C   UNL     1      37.054  40.742  65.788  1.00  0.00    -0.000 C 
BRANCH  12  13
ATOM     13  C   UNL     1      37.271  41.738  64.638  1.00  0.00    -0.000 C 
BRANCH  13  14
ATOM     14  C   UNL     1      36.482  43.048  64.822  1.00  0.00    -0.000 C 
BRANCH  14  15
ATOM     15  C   UNL     1      35.004  42.867  65.217  1.00  0.00    -0.000 C 
BRANCH  15  16
ATOM     16  C   UNL     1      34.787  42.869  66.738  1.00  0.00    -0.000 C 
BRANCH  16  17
ATOM     17  C   UNL     1      33.562  42.027  67.117  1.00  0.00    -0.003 C 
ATOM     18  C   UNL     1      33.401  40.834  66.180  1.00  0.00     0.004 C 
ENDBRANCH  16  17
ENDBRANCH  15  16
ENDBRANCH  14  15
ENDBRANCH  13  14
ENDBRANCH  12  13
ENDBRANCH  11  12
ENDBRANCH   1  11
TORSDOF 14
ENDMDL
MODEL 3
REMARK VINA RESULT:    -0.754     13.387     15.513
REMARK INTER + INTRA:          -3.101
REMARK INTER:                  -3.029
REMARK INTRA:                  -0.073
REMARK UNBOUND:                -1.731
REMARK SMILES CCCCCCCCCCCCCCCC(=O)[O-]
REMARK SMILES IDX 9 1 10 2 11 3 12 4 13 5 14 6 15 7 16 8 17 9 18 10 8 11 7 12
REMARK SMILES IDX 6 13 5 14 4 15 3 16 2 17 1 18
REMARK H PARENT
REMARK Flexibility Score: inf
ROOT
ATOM      1  C   UNL     1      35.830  26.999  64.499  1.00  0.00     0.000 C 
ENDROOT
BRANCH   1   2
ATOM      2  C   UNL     1      35.499  25.553  64.898  1.00  0.00     0.000 C 
BRANCH   2   3
ATOM      3  C   UNL     1      33.987  25.372  65.094  1.00  0.00     0.000 C 
BRANCH   3   4
ATOM      4  C   UNL     1      33.640  24.531  66.336  1.00  0.00     0.000 C 
BRANCH   4   5
ATOM      5  C   UNL     1      32.484  23.529  66.144  1.00  0.00     0.000 C 
BRANCH   5   6
ATOM      6  C   UNL     1      31.106  24.164  65.886  1.00  0.00     0.006 C 
BRANCH   6   7
ATOM      7  C   UNL     1      30.155  23.234  65.125  1.00  0.00     0.053 C 
BRANCH   7   8
ATOM      8  C   UNL     1      30.214  23.515  63.656  1.00  0.00     0.041 C 
ATOM      9  O   UNL     1      31.320  23.742  63.098  1.00  0.00    -0.550 OA
ATOM     10  O   UNL     1      29.043  23.576  62.912  1.00  0.00    -0.550 OA
ENDBRANCH   7   8
ENDBRANCH   6   7
ENDBRANCH   5   6
ENDBRANCH   4   5
ENDBRANCH   3   4
ENDBRANCH   2   3
ENDBRANCH   1   2
BRANCH   1  11
ATOM     11  C   UNL     1      36.336  27.840  65.681  1.00  0.00     0.000 C 
BRANCH  11  12
ATOM     12  C   UNL     1      36.974  26.985  66.786  1.00  0.00    -0.000 C 
BRANCH  12  13
ATOM     13  C   UNL     1      38.232  26.271  66.270  1.00  0.00    -0.000 C 
BRANCH  13  14
ATOM     14  C   UNL     1      39.480  26.559  67.125  1.00  0.00    -0.000 C 
BRANCH  14  15
ATOM     15  C   UNL     1      40.489  27.536  66.493  1.00  0.00    -0.000 C 
BRANCH  15  16
ATOM     16  C   UNL     1      40.444  28.935  67.125  1.00  0.00    -0.000 C 
BRANCH  16  17
ATOM     17  C   UNL     1      39.019  29.500  67.104  1.00  0.00    -0.003 C 
ATOM     18  C   UNL     1      38.665  30.055  65.728  1.00  0.00     0.004 C 
ENDBRANCH  16  17
ENDBRANCH  15  16
ENDBRANCH  14  15
ENDBRANCH  13  14
ENDBRANCH  12  13
ENDBRANCH  11  12
ENDBRANCH   1  11
TORSDOF 14
ENDMDL
MODEL 4
REMARK VINA RESULT:    -0.702     13.622     15.641
REMARK INTER + INTRA:          -3.007
REMARK INTER:                  -2.604
REMARK INTRA:                  -0.403
REMARK UNBOUND:                -1.731
REMARK SMILES CCCCCCCCCCCCCCCC(=O)[O-]
REMARK SMILES IDX 9 1 10 2 11 3 12 4 13 5 14 6 15 7 16 8 17 9 18 10 8 11 7 12
REMARK SMILES IDX 6 13 5 14 4 15 3 16 2 17 1 18
REMARK H PARENT
REMARK Flexibility Score: inf
ROOT
ATOM      1  C   UNL     1      35.723  25.410  65.199  1.00  0.00     0.000 C 
ENDROOT
BRANCH   1   2
ATOM      2  C   UNL     1      34.407  24.906  65.811  1.00  0.00     0.000 C 
BRANCH   2   3
ATOM      3  C   UNL     1      33.241  25.090  64.830  1.00  0.00     0.000 C 
BRANCH   3   4
ATOM      4  C   UNL     1      33.068  23.896  63.874  1.00  0.00     0.000 C 
BRANCH   4   5
ATOM      5  C   UNL     1      31.685  23.794  63.200  1.00  0.00     0.000 C 
BRANCH   5   6
ATOM      6  C   UNL     1      30.489  24.124  64.111  1.00  0.00     0.006 C 
BRANCH   6   7
ATOM      7  C   UNL     1      30.006  22.916  64.922  1.00  0.00     0.053 C 
BRANCH   7   8
ATOM      8  C   UNL     1      30.068  23.213  66.387  1.00  0.00     0.041 C 
ATOM      9  O   UNL     1      29.007  23.314  67.059  1.00  0.00    -0.550 OA
ATOM     10  O   UNL     1      31.295  23.428  67.003  1.00  0.00    -0.550 OA
ENDBRANCH   7   8
ENDBRANCH   6   7
ENDBRANCH   5   6
ENDBRANCH   4   5
ENDBRANCH   3   4
ENDBRANCH   2   3
ENDBRANCH   1   2
BRANCH   1  11
ATOM     11  C   UNL     1      35.964  26.905  65.460  1.00  0.00     0.000 C 
BRANCH  11  12
ATOM     12  C   UNL     1      36.960  27.155  66.602  1.00  0.00    -0.000 C 
BRANCH  12  13
ATOM     13  C   UNL     1      38.160  26.202  66.503  1.00  0.00    -0.000 C 
BRANCH  13  14
ATOM     14  C   UNL     1      39.490  26.866  66.904  1.00  0.00    -0.000 C 
BRANCH  14  15
ATOM     15  C   UNL     1      39.418  28.390  67.113  1.00  0.00    -0.000 C 
BRANCH  15  16
ATOM     16  C   UNL     1      39.026  29.152  65.839  1.00  0.00    -0.000 C 
BRANCH  16  17
ATOM     17  C   UNL     1      39.353  30.644  65.969  1.00  0.00    -0.003 C 
ATOM     18  C   UNL     1      38.584  31.278  67.125  1.00  0.00     0.004 C 
ENDBRANCH  16  17
ENDBRANCH  15  16
ENDBRANCH  14  15
ENDBRANCH  13  14
ENDBRANCH  12  13
ENDBRANCH  11  12
ENDBRANCH   1  11
TORSDOF 14
ENDMDL
MODEL 5
REMARK VINA RESULT:    -0.517      1.671      6.403
REMARK INTER + INTRA:          -2.671
REMARK INTER:                  -3.578
REMARK INTRA:                   0.907
REMARK UNBOUND:                -1.731
REMARK SMILES CCCCCCCCCCCCCCCC(=O)[O-]
REMARK SMILES IDX 9 1 10 2 11 3 12 4 13 5 14 6 15 7 16 8 17 9 18 10 8 11 7 12
REMARK SMILES IDX 6 13 5 14 4 15 3 16 2 17 1 18
REMARK H PARENT
REMARK Flexibility Score: inf
ROOT
ATOM      1  C   UNL     1      40.469  41.178  66.191  1.00  0.00     0.000 C 
ENDROOT
BRANCH   1   2
ATOM      2  C   UNL     1      41.700  40.802  67.030  1.00  0.00     0.000 C 
BRANCH   2   3
ATOM      3  C   UNL     1      42.861  40.353  66.130  1.00  0.00     0.000 C 
BRANCH   3   4
ATOM      4  C   UNL     1      43.196  38.859  66.285  1.00  0.00     0.000 C 
BRANCH   4   5
ATOM      5  C   UNL     1      42.081  38.001  66.917  1.00  0.00     0.000 C 
BRANCH   5   6
ATOM      6  C   UNL     1      40.736  38.024  66.168  1.00  0.00     0.006 C 
BRANCH   6   7
ATOM      7  C   UNL     1      39.537  38.210  67.104  1.00  0.00     0.053 C 
BRANCH   7   8
ATOM      8  C   UNL     1      38.405  38.867  66.378  1.00  0.00     0.041 C 
ATOM      9  O   UNL     1      38.569  39.298  65.206  1.00  0.00    -0.550 OA
ATOM     10  O   UNL     1      37.183  39.048  67.013  1.00  0.00    -0.550 OA
ENDBRANCH   7   8
ENDBRANCH   6   7
ENDBRANCH   5   6
ENDBRANCH   4   5
ENDBRANCH   3   4
ENDBRANCH   2   3
ENDBRANCH   1   2
BRANCH   1  11
ATOM     11  C   UNL     1      40.105  42.666  66.308  1.00  0.00     0.000 C 
BRANCH  11  12
ATOM     12  C   UNL     1      38.747  42.892  66.991  1.00  0.00    -0.000 C 
BRANCH  12  13
ATOM     13  C   UNL     1      37.591  42.558  66.036  1.00  0.00    -0.000 C 
BRANCH  13  14
ATOM     14  C   UNL     1      36.238  43.118  66.512  1.00  0.00    -0.000 C 
BRANCH  14  15
ATOM     15  C   UNL     1      35.282  42.077  67.124  1.00  0.00    -0.000 C 
BRANCH  15  16
ATOM     16  C   UNL     1      33.848  42.191  66.586  1.00  0.00    -0.000 C 
BRANCH  16  17
ATOM     17  C   UNL     1      33.008  40.979  67.003  1.00  0.00    -0.003 C 
ATOM     18  C   UNL     1      33.729  39.672  66.684  1.00  0.00     0.004 C 
ENDBRANCH  16  17
ENDBRANCH  15  16
ENDBRANCH  14  15
ENDBRANCH  13  14
ENDBRANCH  12  13
ENDBRANCH  11  12
ENDBRANCH   1  11
TORSDOF 14
ENDMDL
MODEL 6
REMARK VINA RESULT:    -0.313      1.366      3.448
REMARK INTER + INTRA:          -2.299
REMARK INTER:                  -1.148
REMARK INTRA:                  -1.151
REMARK UNBOUND:                -1.731
REMARK SMILES CCCCCCCCCCCCCCCC(=O)[O-]
REMARK SMILES IDX 9 1 10 2 11 3 12 4 13 5 14 6 15 7 16 8 17 9 18 10 8 11 7 12
REMARK SMILES IDX 6 13 5 14 4 15 3 16 2 17 1 18
REMARK H PARENT
REMARK Flexibility Score: inf
ROOT
ATOM      1  C   UNL     1      37.523  40.559  65.271  1.00  0.00     0.000 C 
ENDROOT
BRANCH   1   2
ATOM      2  C   UNL     1      37.901  41.532  64.144  1.00  0.00     0.000 C 
BRANCH   2   3
ATOM      3  C   UNL     1      36.683  42.351  63.695  1.00  0.00     0.000 C 
BRANCH   3   4
ATOM      4  C   UNL     1      35.941  43.014  64.870  1.00  0.00     0.000 C 
BRANCH   4   5
ATOM      5  C   UNL     1      34.437  42.685  64.962  1.00  0.00     0.000 C 
BRANCH   5   6
ATOM      6  C   UNL     1      33.933  42.326  66.372  1.00  0.00     0.006 C 
BRANCH   6   7
ATOM      7  C   UNL     1      34.884  41.389  67.124  1.00  0.00     0.053 C 
BRANCH   7   8
ATOM      8  C   UNL     1      34.349  39.992  67.123  1.00  0.00     0.041 C 
ATOM      9  O   UNL     1      35.138  39.010  67.097  1.00  0.00    -0.550 OA
ATOM     10  O   UNL     1      32.977  39.772  67.101  1.00  0.00    -0.550 OA
ENDBRANCH   7   8
ENDBRANCH   6   7
ENDBRANCH   5   6
ENDBRANCH   4   5
ENDBRANCH   3   4
ENDBRANCH   2   3
ENDBRANCH   1   2
BRANCH   1  11
ATOM     11  C   UNL     1      38.571  40.516  66.394  1.00  0.00     0.000 C 
BRANCH  11  12
ATOM     12  C   UNL     1      39.250  41.874  66.624  1.00  0.00    -0.000 C 
BRANCH  12  13
ATOM     13  C   UNL     1      40.776  41.719  66.700  1.00  0.00    -0.000 C 
BRANCH  13  14
ATOM     14  C   UNL     1      41.216  40.306  67.124  1.00  0.00    -0.000 C 
BRANCH  14  15
ATOM     15  C   UNL     1      42.038  39.538  66.073  1.00  0.00    -0.000 C 
BRANCH  15  16
ATOM     16  C   UNL     1      41.463  38.148  65.762  1.00  0.00    -0.000 C 
BRANCH  16  17
ATOM     17  C   UNL     1      40.136  38.261  65.003  1.00  0.00    -0.003 C 
ATOM     18  C   UNL     1      40.219  37.578  63.641  1.00  0.00     0.004 C 
ENDBRANCH  16  17
ENDBRANCH  15  16
ENDBRANCH  14  15
ENDBRANCH  13  14
ENDBRANCH  12  13
ENDBRANCH  11  12
ENDBRANCH   1  11
TORSDOF 14
ENDMDL
MODEL 7
REMARK VINA RESULT:    -0.277      3.334      7.493
REMARK INTER + INTRA:          -2.234
REMARK INTER:                  -2.041
REMARK INTRA:                  -0.193
REMARK UNBOUND:                -1.731
REMARK SMILES CCCCCCCCCCCCCCCC(=O)[O-]
REMARK SMILES IDX 9 1 10 2 11 3 12 4 13 5 14 6 15 7 16 8 17 9 18 10 8 11 7 12
REMARK SMILES IDX 6 13 5 14 4 15 3 16 2 17 1 18
REMARK H PARENT
REMARK Flexibility Score: inf
ROOT
ATOM      1  C   UNL     1      38.555  43.106  65.096  1.00  0.00     0.000 C 
ENDROOT
BRANCH   1   2
ATOM      2  C   UNL     1      38.918  42.512  66.466  1.00  0.00     0.000 C 
BRANCH   2   3
ATOM      3  C   UNL     1      40.221  43.124  67.000  1.00  0.00     0.000 C 
BRANCH   3   4
ATOM      4  C   UNL     1      41.462  42.280  66.659  1.00  0.00     0.000 C 
BRANCH   4   5
ATOM      5  C   UNL     1      41.359  40.787  67.030  1.00  0.00     0.000 C 
BRANCH   5   6
ATOM      6  C   UNL     1      41.153  39.832  65.840  1.00  0.00     0.006 C 
BRANCH   6   7
ATOM      7  C   UNL     1      40.685  38.437  66.270  1.00  0.00     0.053 C 
BRANCH   7   8
ATOM      8  C   UNL     1      41.848  37.612  66.721  1.00  0.00     0.041 C 
ATOM      9  O   UNL     1      41.689  36.397  67.014  1.00  0.00    -0.550 OA
ATOM     10  O   UNL     1      43.101  38.195  66.867  1.00  0.00    -0.550 OA
ENDBRANCH   7   8
ENDBRANCH   6   7
ENDBRANCH   5   6
ENDBRANCH   4   5
ENDBRANCH   3   4
ENDBRANCH   2   3
ENDBRANCH   1   2
BRANCH   1  11
ATOM     11  C   UNL     1      37.462  42.303  64.373  1.00  0.00     0.000 C 
BRANCH  11  12
ATOM     12  C   UNL     1      36.102  42.380  65.084  1.00  0.00    -0.000 C 
BRANCH  12  13
ATOM     13  C   UNL     1      35.030  42.967  64.153  1.00  0.00    -0.000 C 
BRANCH  13  14
ATOM     14  C   UNL     1      33.613  42.903  64.754  1.00  0.00    -0.000 C 
BRANCH  14  15
ATOM     15  C   UNL     1      33.542  43.125  66.276  1.00  0.00    -0.000 C 
BRANCH  15  16
ATOM     16  C   UNL     1      33.959  41.886  67.082  1.00  0.00    -0.000 C 
BRANCH  16  17
ATOM     17  C   UNL     1      33.231  40.634  66.579  1.00  0.00    -0.003 C 
ATOM     18  C   UNL     1      33.895  39.363  67.101  1.00  0.00     0.004 C 
ENDBRANCH  16  17
ENDBRANCH  15  16
ENDBRANCH  14  15
ENDBRANCH  13  14
ENDBRANCH  12  13
ENDBRANCH  11  12
ENDBRANCH   1  11
TORSDOF 14
ENDMDL
