MODEL 1
REMARK VINA RESULT:    21.496      0.000      0.000
REMARK INTER + INTRA:          25.000
REMARK INTER:                  25.266
REMARK INTRA:                  -0.267
REMARK UNBOUND:                -0.267
REMARK SMILES O=c1cc(-c2ccc(O)c(O)c2)oc2cc(O)cc(O)c12
REMARK SMILES IDX 4 1 3 2 2 3 1 4 21 5 19 6 18 7 16 8 15 9 14 10 13 11 5 12
REMARK SMILES IDX 6 13 7 14 8 15 12 16 10 17 9 18 11 20 20 22 17 24
REMARK H PARENT 9 19 11 21 20 23 17 25
REMARK Flexibility Score: inf
ROOT
ATOM      1  C   UNL     1      -6.250   7.225  16.081  1.00  0.00     0.138 A 
ATOM      2  C   UNL     1      -7.165   6.923  15.063  1.00  0.00     0.100 A 
ATOM      3  C   UNL     1      -7.416   5.591  14.733  1.00  0.00     0.197 A 
ATOM      4  O   UNL     1      -8.288   5.350  13.858  1.00  0.00    -0.289 OA
ATOM      5  C   UNL     1      -6.720   4.557  15.404  1.00  0.00     0.107 A 
ATOM      6  C   UNL     1      -6.864   3.165  15.121  1.00  0.00     0.134 A 
ATOM      7  C   UNL     1      -6.211   2.227  15.930  1.00  0.00     0.093 A 
ATOM      8  C   UNL     1      -5.372   2.632  16.971  1.00  0.00     0.123 A 
ATOM      9  C   UNL     1      -5.183   3.989  17.220  1.00  0.00     0.094 A 
ATOM     10  C   UNL     1      -5.848   4.949  16.453  1.00  0.00     0.146 A 
ATOM     11  O   UNL     1      -5.652   6.234  16.734  1.00  0.00    -0.456 OA
ENDROOT
BRANCH   1  12
ATOM     12  C   UNL     1      -5.946   8.625  16.473  1.00  0.00     0.021 A 
ATOM     13  C   UNL     1      -4.630   9.104  16.360  1.00  0.00     0.016 A 
ATOM     14  C   UNL     1      -4.319  10.419  16.715  1.00  0.00     0.051 A 
ATOM     15  C   UNL     1      -5.317  11.280  17.179  1.00  0.00     0.157 A 
ATOM     16  C   UNL     1      -6.951   9.501  16.928  1.00  0.00     0.062 A 
ATOM     17  C   UNL     1      -6.640  10.822  17.283  1.00  0.00     0.158 A 
BRANCH  15  18
ATOM     18  O   UNL     1      -4.977  12.587  17.527  1.00  0.00    -0.504 OA
ATOM     19  H   UNL     1      -4.017  12.870  17.682  1.00  0.00     0.293 HD
ENDBRANCH  15  18
BRANCH  17  20
ATOM     20  O   UNL     1      -7.643  11.680  17.734  1.00  0.00    -0.504 OA
ATOM     21  H   UNL     1      -8.362  12.031  17.112  1.00  0.00     0.293 HD
ENDBRANCH  17  20
ENDBRANCH   1  12
BRANCH   6  22
ATOM     22  O   UNL     1      -7.608   2.658  14.054  1.00  0.00    -0.507 OA
ATOM     23  H   UNL     1      -7.748   1.678  13.861  1.00  0.00     0.293 HD
ENDBRANCH   6  22
BRANCH   8  24
ATOM     24  O   UNL     1      -4.714   1.691  17.761  1.00  0.00    -0.508 OA
ATOM     25  H   UNL     1      -5.186   1.214  18.520  1.00  0.00     0.293 HD
ENDBRANCH   8  24
TORSDOF 5
ENDMDL
MODEL 2
REMARK VINA RESULT:    22.533      1.986      3.584
REMARK INTER + INTRA:          26.218
REMARK INTER:                  26.530
REMARK INTRA:                  -0.311
REMARK UNBOUND:                -0.267
REMARK SMILES O=c1cc(-c2ccc(O)c(O)c2)oc2cc(O)cc(O)c12
REMARK SMILES IDX 4 1 3 2 2 3 1 4 21 5 19 6 18 7 16 8 15 9 14 10 13 11 5 12
REMARK SMILES IDX 6 13 7 14 8 15 12 16 10 17 9 18 11 20 20 22 17 24
REMARK H PARENT 9 19 11 21 20 23 17 25
REMARK Flexibility Score: inf
ROOT
ATOM      1  C   UNL     1      -7.123   8.720  16.509  1.00  0.00     0.138 A 
ATOM      2  C   UNL     1      -6.201   8.331  17.490  1.00  0.00     0.100 A 
ATOM      3  C   UNL     1      -5.696   7.030  17.485  1.00  0.00     0.197 A 
ATOM      4  O   UNL     1      -4.824   6.728  18.340  1.00  0.00    -0.289 OA
ATOM      5  C   UNL     1      -6.143   6.105  16.511  1.00  0.00     0.107 A 
ATOM      6  C   UNL     1      -5.728   4.742  16.435  1.00  0.00     0.134 A 
ATOM      7  C   UNL     1      -6.148   3.953  15.356  1.00  0.00     0.093 A 
ATOM      8  C   UNL     1      -7.015   4.461  14.386  1.00  0.00     0.123 A 
ATOM      9  C   UNL     1      -7.468   5.774  14.482  1.00  0.00     0.094 A 
ATOM     10  C   UNL     1      -7.040   6.597  15.526  1.00  0.00     0.146 A 
ATOM     11  O   UNL     1      -7.484   7.849  15.572  1.00  0.00    -0.456 OA
ENDROOT
BRANCH   1  12
ATOM     12  C   UNL     1      -7.693  10.091  16.468  1.00  0.00     0.021 A 
ATOM     13  C   UNL     1      -7.687  10.878  17.632  1.00  0.00     0.016 A 
ATOM     14  C   UNL     1      -8.209  12.173  17.618  1.00  0.00     0.051 A 
ATOM     15  C   UNL     1      -8.738  12.709  16.440  1.00  0.00     0.157 A 
ATOM     16  C   UNL     1      -8.214  10.640  15.280  1.00  0.00     0.062 A 
ATOM     17  C   UNL     1      -8.738  11.942  15.264  1.00  0.00     0.158 A 
BRANCH  15  18
ATOM     18  O   UNL     1      -9.254  14.005  16.457  1.00  0.00    -0.504 OA
ATOM     19  H   UNL     1      -9.971  14.290  17.113  1.00  0.00     0.293 HD
ENDBRANCH  15  18
BRANCH  17  20
ATOM     20  O   UNL     1      -9.253  12.475  14.083  1.00  0.00    -0.504 OA
ATOM     21  H   UNL     1     -10.045  12.055  13.611  1.00  0.00     0.293 HD
ENDBRANCH  17  20
ENDBRANCH   1  12
BRANCH   6  22
ATOM     22  O   UNL     1      -4.933   4.113  17.396  1.00  0.00    -0.507 OA
ATOM     23  H   UNL     1      -5.062   3.168  17.723  1.00  0.00     0.293 HD
ENDBRANCH   6  22
BRANCH   8  24
ATOM     24  O   UNL     1      -7.440   3.664  13.325  1.00  0.00    -0.508 OA
ATOM     25  H   UNL     1      -8.195   3.953  12.715  1.00  0.00     0.293 HD
ENDBRANCH   8  24
TORSDOF 5
ENDMDL
MODEL 3
REMARK VINA RESULT:    23.758      1.434      7.386
REMARK INTER + INTRA:          27.657
REMARK INTER:                  27.923
REMARK INTRA:                  -0.265
REMARK UNBOUND:                -0.267
REMARK SMILES O=c1cc(-c2ccc(O)c(O)c2)oc2cc(O)cc(O)c12
REMARK SMILES IDX 4 1 3 2 2 3 1 4 21 5 19 6 18 7 16 8 15 9 14 10 13 11 5 12
REMARK SMILES IDX 6 13 7 14 8 15 12 16 10 17 9 18 11 20 20 22 17 24
REMARK H PARENT 9 19 11 21 20 23 17 25
REMARK Flexibility Score: inf
ROOT
ATOM      1  C   UNL     1      -6.032   7.842  16.531  1.00  0.00     0.138 A 
ATOM      2  C   UNL     1      -4.781   8.459  16.404  1.00  0.00     0.100 A 
ATOM      3  C   UNL     1      -4.657   9.828  16.649  1.00  0.00     0.197 A 
ATOM      4  O   UNL     1      -3.511  10.341  16.588  1.00  0.00    -0.289 OA
ATOM      5  C   UNL     1      -5.802  10.587  16.991  1.00  0.00     0.107 A 
ATOM      6  C   UNL     1      -5.803  11.995  17.223  1.00  0.00     0.134 A 
ATOM      7  C   UNL     1      -6.974  12.620  17.670  1.00  0.00     0.093 A 
ATOM      8  C   UNL     1      -8.158  11.897  17.835  1.00  0.00     0.123 A 
ATOM      9  C   UNL     1      -8.181  10.532  17.560  1.00  0.00     0.094 A 
ATOM     10  C   UNL     1      -7.020   9.874  17.145  1.00  0.00     0.146 A 
ATOM     11  O   UNL     1      -7.081   8.567  16.908  1.00  0.00    -0.456 OA
ENDROOT
BRANCH   1  12
ATOM     12  C   UNL     1      -6.220   6.390  16.282  1.00  0.00     0.021 A 
ATOM     13  C   UNL     1      -5.932   5.470  17.305  1.00  0.00     0.016 A 
ATOM     14  C   UNL     1      -6.107   4.100  17.099  1.00  0.00     0.051 A 
ATOM     15  C   UNL     1      -6.581   3.625  15.873  1.00  0.00     0.157 A 
ATOM     16  C   UNL     1      -6.710   5.907  15.054  1.00  0.00     0.062 A 
ATOM     17  C   UNL     1      -6.888   4.531  14.846  1.00  0.00     0.158 A 
BRANCH  15  18
ATOM     18  O   UNL     1      -6.745   2.251  15.696  1.00  0.00    -0.504 OA
ATOM     19  H   UNL     1      -7.266   1.867  14.917  1.00  0.00     0.293 HD
ENDBRANCH  15  18
BRANCH  17  20
ATOM     20  O   UNL     1      -7.373   4.064  13.625  1.00  0.00    -0.504 OA
ATOM     21  H   UNL     1      -7.174   4.545  12.755  1.00  0.00     0.293 HD
ENDBRANCH  17  20
ENDBRANCH   1  12
BRANCH   6  22
ATOM     22  O   UNL     1      -4.699  12.823  17.006  1.00  0.00    -0.507 OA
ATOM     23  H   UNL     1      -4.539  13.365  16.172  1.00  0.00     0.293 HD
ENDBRANCH   6  22
BRANCH   8  24
ATOM     24  O   UNL     1      -9.323  12.529  18.265  1.00  0.00    -0.508 OA
ATOM     25  H   UNL     1      -9.675  13.361  17.805  1.00  0.00     0.293 HD
ENDBRANCH   8  24
TORSDOF 5
ENDMDL
