MODEL 1
REMARK VINA RESULT:    -3.428      0.000      0.000
REMARK INTER + INTRA:         -12.399
REMARK INTER:                  -7.836
REMARK INTRA:                  -4.563
REMARK UNBOUND:                -4.563
REMARK SMILES CCCCCCCCCCCCCCCCCCCCCCCC(=O)[O-]
REMARK SMILES IDX 13 1 14 2 15 3 16 4 17 5 18 6 19 7 20 8 21 9 22 10 23 11
REMARK SMILES IDX 24 12 25 13 26 14 12 15 11 16 10 17 9 18 8 19 7 20 6 21 5 22
REMARK SMILES IDX 4 23 3 24 2 25 1 26
REMARK H PARENT
REMARK Flexibility Score: inf
ROOT
ATOM      1  C   UNL     1     186.229 186.495 167.553  1.00  0.00     0.000 C 
ENDROOT
BRANCH   1   2
ATOM      2  C   UNL     1     187.412 185.692 166.984  1.00  0.00     0.000 C 
BRANCH   2   3
ATOM      3  C   UNL     1     188.265 185.001 168.069  1.00  0.00     0.000 C 
BRANCH   3   4
ATOM      4  C   UNL     1     189.764 185.013 167.723  1.00  0.00     0.000 C 
BRANCH   4   5
ATOM      5  C   UNL     1     190.651 184.633 168.918  1.00  0.00     0.000 C 
BRANCH   5   6
ATOM      6  C   UNL     1     189.835 184.278 170.173  1.00  0.00     0.000 C 
BRANCH   6   7
ATOM      7  C   UNL     1     190.549 184.680 171.473  1.00  0.00     0.000 C 
BRANCH   7   8
ATOM      8  C   UNL     1     189.796 184.207 172.730  1.00  0.00     0.000 C 
BRANCH   8   9
ATOM      9  C   UNL     1     189.395 185.372 173.649  1.00  0.00     0.000 C 
BRANCH   9  10
ATOM     10  C   UNL     1     190.475 186.467 173.722  1.00  0.00     0.006 C 
BRANCH  10  11
ATOM     11  C   UNL     1     191.394 186.296 174.939  1.00  0.00     0.053 C 
BRANCH  11  12
ATOM     12  C   UNL     1     191.779 187.616 175.535  1.00  0.00     0.041 C 
ATOM     13  O   UNL     1     191.351 187.947 176.673  1.00  0.00    -0.550 OA
ATOM     14  O   UNL     1     192.636 188.466 174.849  1.00  0.00    -0.550 OA
ENDBRANCH  11  12
ENDBRANCH  10  11
ENDBRANCH   9  10
ENDBRANCH   8   9
ENDBRANCH   7   8
ENDBRANCH   6   7
ENDBRANCH   5   6
ENDBRANCH   4   5
ENDBRANCH   3   4
ENDBRANCH   2   3
ENDBRANCH   1   2
BRANCH   1  15
ATOM     15  C   UNL     1     185.820 186.037 168.963  1.00  0.00     0.000 C 
BRANCH  15  16
ATOM     16  C   UNL     1     186.025 187.130 170.024  1.00  0.00     0.000 C 
BRANCH  16  17
ATOM     17  C   UNL     1     187.112 186.765 171.049  1.00  0.00     0.000 C 
BRANCH  17  18
ATOM     18  C   UNL     1     188.365 187.629 170.847  1.00  0.00    -0.000 C 
BRANCH  18  19
ATOM     19  C   UNL     1     188.106 188.846 169.944  1.00  0.00    -0.000 C 
BRANCH  19  20
ATOM     20  C   UNL     1     188.960 188.825 168.662  1.00  0.00    -0.000 C 
BRANCH  20  21
ATOM     21  C   UNL     1     190.354 188.216 168.891  1.00  0.00    -0.000 C 
BRANCH  21  22
ATOM     22  C   UNL     1     191.452 189.286 169.012  1.00  0.00    -0.000 C 
BRANCH  22  23
ATOM     23  C   UNL     1     191.966 189.443 170.453  1.00  0.00    -0.000 C 
BRANCH  23  24
ATOM     24  C   UNL     1     192.043 188.103 171.206  1.00  0.00    -0.000 C 
BRANCH  24  25
ATOM     25  C   UNL     1     193.320 187.315 170.872  1.00  0.00    -0.003 C 
ATOM     26  C   UNL     1     193.781 186.424 172.026  1.00  0.00     0.004 C 
ENDBRANCH  24  25
ENDBRANCH  23  24
ENDBRANCH  22  23
ENDBRANCH  21  22
ENDBRANCH  20  21
ENDBRANCH  19  20
ENDBRANCH  18  19
ENDBRANCH  17  18
ENDBRANCH  16  17
ENDBRANCH  15  16
ENDBRANCH   1  15
TORSDOF 22
ENDMDL
MODEL 2
REMARK VINA RESULT:    -3.420      1.544      3.462
REMARK INTER + INTRA:         -12.381
REMARK INTER:                  -8.420
REMARK INTRA:                  -3.961
REMARK UNBOUND:                -4.563
REMARK SMILES CCCCCCCCCCCCCCCCCCCCCCCC(=O)[O-]
REMARK SMILES IDX 13 1 14 2 15 3 16 4 17 5 18 6 19 7 20 8 21 9 22 10 23 11
REMARK SMILES IDX 24 12 25 13 26 14 12 15 11 16 10 17 9 18 8 19 7 20 6 21 5 22
REMARK SMILES IDX 4 23 3 24 2 25 1 26
REMARK H PARENT
REMARK Flexibility Score: inf
ROOT
ATOM      1  C   UNL     1     188.102 188.042 170.598  1.00  0.00     0.000 C 
ENDROOT
BRANCH   1   2
ATOM      2  C   UNL     1     187.923 186.673 171.278  1.00  0.00     0.000 C 
BRANCH   2   3
ATOM      3  C   UNL     1     189.022 186.353 172.314  1.00  0.00     0.000 C 
BRANCH   3   4
ATOM      4  C   UNL     1     188.530 185.377 173.399  1.00  0.00     0.000 C 
BRANCH   4   5
ATOM      5  C   UNL     1     189.453 184.160 173.563  1.00  0.00     0.000 C 
BRANCH   5   6
ATOM      6  C   UNL     1     190.741 184.276 172.729  1.00  0.00     0.000 C 
BRANCH   6   7
ATOM      7  C   UNL     1     191.999 183.927 173.539  1.00  0.00     0.000 C 
BRANCH   7   8
ATOM      8  C   UNL     1     191.905 184.393 175.004  1.00  0.00     0.000 C 
BRANCH   8   9
ATOM      9  C   UNL     1     192.458 185.813 175.207  1.00  0.00     0.000 C 
BRANCH   9  10
ATOM     10  C   UNL     1     191.346 186.861 175.385  1.00  0.00     0.006 C 
BRANCH  10  11
ATOM     11  C   UNL     1     191.866 188.157 176.023  1.00  0.00     0.053 C 
BRANCH  11  12
ATOM     12  C   UNL     1     191.371 188.324 177.427  1.00  0.00     0.041 C 
ATOM     13  O   UNL     1     191.678 187.481 178.312  1.00  0.00    -0.550 OA
ATOM     14  O   UNL     1     190.599 189.428 177.767  1.00  0.00    -0.550 OA
ENDBRANCH  11  12
ENDBRANCH  10  11
ENDBRANCH   9  10
ENDBRANCH   8   9
ENDBRANCH   7   8
ENDBRANCH   6   7
ENDBRANCH   5   6
ENDBRANCH   4   5
ENDBRANCH   3   4
ENDBRANCH   2   3
ENDBRANCH   1   2
BRANCH   1  15
ATOM     15  C   UNL     1     186.852 188.491 169.824  1.00  0.00     0.000 C 
BRANCH  15  16
ATOM     16  C   UNL     1     185.666 187.530 170.004  1.00  0.00     0.000 C 
BRANCH  16  17
ATOM     17  C   UNL     1     184.937 187.233 168.683  1.00  0.00     0.000 C 
BRANCH  17  18
ATOM     18  C   UNL     1     185.877 186.543 167.684  1.00  0.00    -0.000 C 
BRANCH  18  19
ATOM     19  C   UNL     1     186.372 185.176 168.184  1.00  0.00    -0.000 C 
BRANCH  19  20
ATOM     20  C   UNL     1     187.897 185.011 168.046  1.00  0.00    -0.000 C 
BRANCH  20  21
ATOM     21  C   UNL     1     188.570 186.242 167.418  1.00  0.00    -0.000 C 
BRANCH  21  22
ATOM     22  C   UNL     1     190.082 186.295 167.696  1.00  0.00    -0.000 C 
BRANCH  22  23
ATOM     23  C   UNL     1     190.491 185.427 168.897  1.00  0.00    -0.000 C 
BRANCH  23  24
ATOM     24  C   UNL     1     191.679 186.017 169.678  1.00  0.00    -0.000 C 
BRANCH  24  25
ATOM     25  C   UNL     1     191.754 187.548 169.565  1.00  0.00    -0.003 C 
ATOM     26  C   UNL     1     191.738 188.242 170.927  1.00  0.00     0.004 C 
ENDBRANCH  24  25
ENDBRANCH  23  24
ENDBRANCH  22  23
ENDBRANCH  21  22
ENDBRANCH  20  21
ENDBRANCH  19  20
ENDBRANCH  18  19
ENDBRANCH  17  18
ENDBRANCH  16  17
ENDBRANCH  15  16
ENDBRANCH   1  15
TORSDOF 22
ENDMDL
MODEL 3
REMARK VINA RESULT:    -3.418      1.682      3.849
REMARK INTER + INTRA:         -12.377
REMARK INTER:                  -7.764
REMARK INTRA:                  -4.614
REMARK UNBOUND:                -4.563
REMARK SMILES CCCCCCCCCCCCCCCCCCCCCCCC(=O)[O-]
REMARK SMILES IDX 13 1 14 2 15 3 16 4 17 5 18 6 19 7 20 8 21 9 22 10 23 11
REMARK SMILES IDX 24 12 25 13 26 14 12 15 11 16 10 17 9 18 8 19 7 20 6 21 5 22
REMARK SMILES IDX 4 23 3 24 2 25 1 26
REMARK H PARENT
REMARK Flexibility Score: inf
ROOT
ATOM      1  C   UNL     1     188.628 185.002 168.222  1.00  0.00     0.000 C 
ENDROOT
BRANCH   1   2
ATOM      2  C   UNL     1     187.232 185.151 167.592  1.00  0.00     0.000 C 
BRANCH   2   3
ATOM      3  C   UNL     1     186.135 185.524 168.611  1.00  0.00     0.000 C 
BRANCH   3   4
ATOM      4  C   UNL     1     185.439 186.850 168.255  1.00  0.00     0.000 C 
BRANCH   4   5
ATOM      5  C   UNL     1     185.543 187.895 169.377  1.00  0.00     0.000 C 
BRANCH   5   6
ATOM      6  C   UNL     1     186.440 187.430 170.538  1.00  0.00     0.000 C 
BRANCH   6   7
ATOM      7  C   UNL     1     187.785 188.170 170.576  1.00  0.00     0.000 C 
BRANCH   7   8
ATOM      8  C   UNL     1     188.920 187.300 171.147  1.00  0.00     0.000 C 
BRANCH   8   9
ATOM      9  C   UNL     1     188.437 185.904 171.571  1.00  0.00     0.000 C 
BRANCH   9  10
ATOM     10  C   UNL     1     188.748 185.594 173.046  1.00  0.00     0.006 C 
BRANCH  10  11
ATOM     11  C   UNL     1     190.142 186.081 173.461  1.00  0.00     0.053 C 
BRANCH  11  12
ATOM     12  C   UNL     1     190.873 185.053 174.270  1.00  0.00     0.041 C 
ATOM     13  O   UNL     1     190.682 183.826 174.057  1.00  0.00    -0.550 OA
ATOM     14  O   UNL     1     191.790 185.450 175.236  1.00  0.00    -0.550 OA
ENDBRANCH  11  12
ENDBRANCH  10  11
ENDBRANCH   9  10
ENDBRANCH   8   9
ENDBRANCH   7   8
ENDBRANCH   6   7
ENDBRANCH   5   6
ENDBRANCH   4   5
ENDBRANCH   3   4
ENDBRANCH   2   3
ENDBRANCH   1   2
BRANCH   1  15
ATOM     15  C   UNL     1     189.639 186.028 167.683  1.00  0.00     0.000 C 
BRANCH  15  16
ATOM     16  C   UNL     1     188.960 187.257 167.058  1.00  0.00     0.000 C 
BRANCH  16  17
ATOM     17  C   UNL     1     189.652 188.575 167.440  1.00  0.00     0.000 C 
BRANCH  17  18
ATOM     18  C   UNL     1     191.143 188.347 167.725  1.00  0.00    -0.000 C 
BRANCH  18  19
ATOM     19  C   UNL     1     191.730 189.397 168.682  1.00  0.00    -0.000 C 
BRANCH  19  20
ATOM     20  C   UNL     1     192.391 188.766 169.921  1.00  0.00    -0.000 C 
BRANCH  20  21
ATOM     21  C   UNL     1     192.783 187.296 169.697  1.00  0.00    -0.000 C 
BRANCH  21  22
ATOM     22  C   UNL     1     192.205 186.361 170.773  1.00  0.00    -0.000 C 
BRANCH  22  23
ATOM     23  C   UNL     1     193.248 185.369 171.315  1.00  0.00    -0.000 C 
BRANCH  23  24
ATOM     24  C   UNL     1     192.794 183.904 171.193  1.00  0.00    -0.000 C 
BRANCH  24  25
ATOM     25  C   UNL     1     191.518 183.753 170.350  1.00  0.00    -0.003 C 
ATOM     26  C   UNL     1     191.789 183.146 168.973  1.00  0.00     0.004 C 
ENDBRANCH  24  25
ENDBRANCH  23  24
ENDBRANCH  22  23
ENDBRANCH  21  22
ENDBRANCH  20  21
ENDBRANCH  19  20
ENDBRANCH  18  19
ENDBRANCH  17  18
ENDBRANCH  16  17
ENDBRANCH  15  16
ENDBRANCH   1  15
TORSDOF 22
ENDMDL
MODEL 4
REMARK VINA RESULT:    -3.410      5.307      8.311
REMARK INTER + INTRA:         -12.359
REMARK INTER:                  -9.098
REMARK INTRA:                  -3.261
REMARK UNBOUND:                -4.563
REMARK SMILES CCCCCCCCCCCCCCCCCCCCCCCC(=O)[O-]
REMARK SMILES IDX 13 1 14 2 15 3 16 4 17 5 18 6 19 7 20 8 21 9 22 10 23 11
REMARK SMILES IDX 24 12 25 13 26 14 12 15 11 16 10 17 9 18 8 19 7 20 6 21 5 22
REMARK SMILES IDX 4 23 3 24 2 25 1 26
REMARK H PARENT
REMARK Flexibility Score: inf
ROOT
ATOM      1  C   UNL     1     185.345 186.902 170.018  1.00  0.00     0.000 C 
ENDROOT
BRANCH   1   2
ATOM      2  C   UNL     1     184.355 187.863 169.337  1.00  0.00     0.000 C 
BRANCH   2   3
ATOM      3  C   UNL     1     182.961 187.881 170.000  1.00  0.00     0.000 C 
BRANCH   3   4
ATOM      4  C   UNL     1     181.848 188.244 169.001  1.00  0.00     0.000 C 
BRANCH   4   5
ATOM      5  C   UNL     1     182.289 188.082 167.538  1.00  0.00     0.000 C 
BRANCH   5   6
ATOM      6  C   UNL     1     181.099 187.959 166.570  1.00  0.00     0.000 C 
BRANCH   6   7
ATOM      7  C   UNL     1     180.255 189.241 166.510  1.00  0.00     0.000 C 
BRANCH   7   8
ATOM      8  C   UNL     1     181.094 190.485 166.163  1.00  0.00     0.000 C 
BRANCH   8   9
ATOM      9  C   UNL     1     180.680 191.721 166.978  1.00  0.00     0.000 C 
BRANCH   9  10
ATOM     10  C   UNL     1     179.830 191.361 168.209  1.00  0.00     0.006 C 
BRANCH  10  11
ATOM     11  C   UNL     1     179.891 192.445 169.293  1.00  0.00     0.053 C 
BRANCH  11  12
ATOM     12  C   UNL     1     180.574 191.955 170.533  1.00  0.00     0.041 C 
ATOM     13  O   UNL     1     179.940 191.881 171.620  1.00  0.00    -0.550 OA
ATOM     14  O   UNL     1     181.902 191.549 170.482  1.00  0.00    -0.550 OA
ENDBRANCH  11  12
ENDBRANCH  10  11
ENDBRANCH   9  10
ENDBRANCH   8   9
ENDBRANCH   7   8
ENDBRANCH   6   7
ENDBRANCH   5   6
ENDBRANCH   4   5
ENDBRANCH   3   4
ENDBRANCH   2   3
ENDBRANCH   1   2
BRANCH   1  15
ATOM     15  C   UNL     1     186.033 185.952 169.024  1.00  0.00     0.000 C 
BRANCH  15  16
ATOM     16  C   UNL     1     186.012 186.485 167.583  1.00  0.00     0.000 C 
BRANCH  16  17
ATOM     17  C   UNL     1     186.791 185.588 166.607  1.00  0.00     0.000 C 
BRANCH  17  18
ATOM     18  C   UNL     1     188.303 185.699 166.851  1.00  0.00    -0.000 C 
BRANCH  18  19
ATOM     19  C   UNL     1     188.838 187.120 166.611  1.00  0.00    -0.000 C 
BRANCH  19  20
ATOM     20  C   UNL     1     189.536 187.707 167.853  1.00  0.00    -0.000 C 
BRANCH  20  21
ATOM     21  C   UNL     1     188.740 188.858 168.489  1.00  0.00    -0.000 C 
BRANCH  21  22
ATOM     22  C   UNL     1     188.510 188.655 169.996  1.00  0.00    -0.000 C 
BRANCH  22  23
ATOM     23  C   UNL     1     189.486 187.638 170.610  1.00  0.00    -0.000 C 
BRANCH  23  24
ATOM     24  C   UNL     1     188.800 186.678 171.598  1.00  0.00    -0.000 C 
BRANCH  24  25
ATOM     25  C   UNL     1     189.399 185.263 171.554  1.00  0.00    -0.003 C 
ATOM     26  C   UNL     1     189.609 184.756 170.127  1.00  0.00     0.004 C 
ENDBRANCH  24  25
ENDBRANCH  23  24
ENDBRANCH  22  23
ENDBRANCH  21  22
ENDBRANCH  20  21
ENDBRANCH  19  20
ENDBRANCH  18  19
ENDBRANCH  17  18
ENDBRANCH  16  17
ENDBRANCH  15  16
ENDBRANCH   1  15
TORSDOF 22
ENDMDL
MODEL 5
REMARK VINA RESULT:    -3.380      5.037      7.683
REMARK INTER + INTRA:         -12.290
REMARK INTER:                  -9.403
REMARK INTRA:                  -2.887
REMARK UNBOUND:                -4.563
REMARK SMILES CCCCCCCCCCCCCCCCCCCCCCCC(=O)[O-]
REMARK SMILES IDX 13 1 14 2 15 3 16 4 17 5 18 6 19 7 20 8 21 9 22 10 23 11
REMARK SMILES IDX 24 12 25 13 26 14 12 15 11 16 10 17 9 18 8 19 7 20 6 21 5 22
REMARK SMILES IDX 4 23 3 24 2 25 1 26
REMARK H PARENT
REMARK Flexibility Score: inf
ROOT
ATOM      1  C   UNL     1     186.883 185.960 166.251  1.00  0.00     0.000 C 
ENDROOT
BRANCH   1   2
ATOM      2  C   UNL     1     186.996 185.121 167.535  1.00  0.00     0.000 C 
BRANCH   2   3
ATOM      3  C   UNL     1     185.984 185.528 168.627  1.00  0.00     0.000 C 
BRANCH   3   4
ATOM      4  C   UNL     1     185.324 186.887 168.329  1.00  0.00     0.000 C 
BRANCH   4   5
ATOM      5  C   UNL     1     184.518 187.428 169.520  1.00  0.00     0.000 C 
BRANCH   5   6
ATOM      6  C   UNL     1     183.271 188.215 169.082  1.00  0.00     0.000 C 
BRANCH   6   7
ATOM      7  C   UNL     1     182.187 188.253 170.170  1.00  0.00     0.000 C 
BRANCH   7   8
ATOM      8  C   UNL     1     181.223 189.441 170.002  1.00  0.00     0.000 C 
BRANCH   8   9
ATOM      9  C   UNL     1     181.533 190.279 168.751  1.00  0.00     0.000 C 
BRANCH   9  10
ATOM     10  C   UNL     1     181.001 191.719 168.856  1.00  0.00     0.006 C 
BRANCH  10  11
ATOM     11  C   UNL     1     179.814 191.830 169.822  1.00  0.00     0.053 C 
BRANCH  11  12
ATOM     12  C   UNL     1     180.018 192.918 170.832  1.00  0.00     0.041 C 
ATOM     13  O   UNL     1     180.401 194.061 170.463  1.00  0.00    -0.550 OA
ATOM     14  O   UNL     1     179.754 192.681 172.175  1.00  0.00    -0.550 OA
ENDBRANCH  11  12
ENDBRANCH  10  11
ENDBRANCH   9  10
ENDBRANCH   8   9
ENDBRANCH   7   8
ENDBRANCH   6   7
ENDBRANCH   5   6
ENDBRANCH   4   5
ENDBRANCH   3   4
ENDBRANCH   2   3
ENDBRANCH   1   2
BRANCH   1  15
ATOM     15  C   UNL     1     188.231 186.551 165.804  1.00  0.00     0.000 C 
BRANCH  15  16
ATOM     16  C   UNL     1     189.221 186.717 166.968  1.00  0.00     0.000 C 
BRANCH  16  17
ATOM     17  C   UNL     1     189.699 188.167 167.139  1.00  0.00     0.000 C 
BRANCH  17  18
ATOM     18  C   UNL     1     189.572 188.616 168.602  1.00  0.00    -0.000 C 
BRANCH  18  19
ATOM     19  C   UNL     1     188.143 189.049 168.966  1.00  0.00    -0.000 C 
BRANCH  19  20
ATOM     20  C   UNL     1     187.769 188.696 170.417  1.00  0.00    -0.000 C 
BRANCH  20  21
ATOM     21  C   UNL     1     188.760 187.713 171.061  1.00  0.00    -0.000 C 
BRANCH  21  22
ATOM     22  C   UNL     1     188.232 186.268 171.078  1.00  0.00    -0.000 C 
BRANCH  22  23
ATOM     23  C   UNL     1     189.258 185.258 170.542  1.00  0.00    -0.000 C 
BRANCH  23  24
ATOM     24  C   UNL     1     190.157 184.679 171.648  1.00  0.00    -0.000 C 
BRANCH  24  25
ATOM     25  C   UNL     1     189.502 184.754 173.037  1.00  0.00    -0.003 C 
ATOM     26  C   UNL     1     190.341 185.541 174.043  1.00  0.00     0.004 C 
ENDBRANCH  24  25
ENDBRANCH  23  24
ENDBRANCH  22  23
ENDBRANCH  21  22
ENDBRANCH  20  21
ENDBRANCH  19  20
ENDBRANCH  18  19
ENDBRANCH  17  18
ENDBRANCH  16  17
ENDBRANCH  15  16
ENDBRANCH   1  15
TORSDOF 22
ENDMDL
MODEL 6
REMARK VINA RESULT:    -3.354      5.011      7.839
REMARK INTER + INTRA:         -12.231
REMARK INTER:                  -9.161
REMARK INTRA:                  -3.070
REMARK UNBOUND:                -4.563
REMARK SMILES CCCCCCCCCCCCCCCCCCCCCCCC(=O)[O-]
REMARK SMILES IDX 13 1 14 2 15 3 16 4 17 5 18 6 19 7 20 8 21 9 22 10 23 11
REMARK SMILES IDX 24 12 25 13 26 14 12 15 11 16 10 17 9 18 8 19 7 20 6 21 5 22
REMARK SMILES IDX 4 23 3 24 2 25 1 26
REMARK H PARENT
REMARK Flexibility Score: inf
ROOT
ATOM      1  C   UNL     1     183.115 188.332 169.707  1.00  0.00     0.000 C 
ENDROOT
BRANCH   1   2
ATOM      2  C   UNL     1     183.943 187.119 170.165  1.00  0.00     0.000 C 
BRANCH   2   3
ATOM      3  C   UNL     1     185.444 187.431 170.344  1.00  0.00     0.000 C 
BRANCH   3   4
ATOM      4  C   UNL     1     186.174 187.563 168.996  1.00  0.00     0.000 C 
BRANCH   4   5
ATOM      5  C   UNL     1     185.925 186.365 168.067  1.00  0.00     0.000 C 
BRANCH   5   6
ATOM      6  C   UNL     1     186.738 185.122 168.472  1.00  0.00     0.000 C 
BRANCH   6   7
ATOM      7  C   UNL     1     188.253 185.346 168.353  1.00  0.00     0.000 C 
BRANCH   7   8
ATOM      8  C   UNL     1     189.001 185.016 169.658  1.00  0.00     0.000 C 
BRANCH   8   9
ATOM      9  C   UNL     1     189.189 186.248 170.557  1.00  0.00     0.000 C 
BRANCH   9  10
ATOM     10  C   UNL     1     188.587 186.053 171.960  1.00  0.00     0.006 C 
BRANCH  10  11
ATOM     11  C   UNL     1     189.666 185.935 173.044  1.00  0.00     0.053 C 
BRANCH  11  12
ATOM     12  C   UNL     1     189.918 184.508 173.426  1.00  0.00     0.041 C 
ATOM     13  O   UNL     1     188.959 183.763 173.761  1.00  0.00    -0.550 OA
ATOM     14  O   UNL     1     191.207 183.992 173.381  1.00  0.00    -0.550 OA
ENDBRANCH  11  12
ENDBRANCH  10  11
ENDBRANCH   9  10
ENDBRANCH   8   9
ENDBRANCH   7   8
ENDBRANCH   6   7
ENDBRANCH   5   6
ENDBRANCH   4   5
ENDBRANCH   3   4
ENDBRANCH   2   3
ENDBRANCH   1   2
BRANCH   1  15
ATOM     15  C   UNL     1     182.627 188.207 168.254  1.00  0.00     0.000 C 
BRANCH  15  16
ATOM     16  C   UNL     1     181.124 187.901 168.157  1.00  0.00     0.000 C 
BRANCH  16  17
ATOM     17  C   UNL     1     180.678 187.561 166.726  1.00  0.00     0.000 C 
BRANCH  17  18
ATOM     18  C   UNL     1     179.987 188.765 166.069  1.00  0.00    -0.000 C 
BRANCH  18  19
ATOM     19  C   UNL     1     180.977 189.692 165.344  1.00  0.00    -0.000 C 
BRANCH  19  20
ATOM     20  C   UNL     1     181.039 191.097 165.971  1.00  0.00    -0.000 C 
BRANCH  20  21
ATOM     21  C   UNL     1     179.647 191.658 166.305  1.00  0.00    -0.000 C 
BRANCH  21  22
ATOM     22  C   UNL     1     179.514 192.066 167.781  1.00  0.00    -0.000 C 
BRANCH  22  23
ATOM     23  C   UNL     1     180.781 191.759 168.596  1.00  0.00    -0.000 C 
BRANCH  23  24
ATOM     24  C   UNL     1     180.476 191.039 169.921  1.00  0.00    -0.000 C 
BRANCH  24  25
ATOM     25  C   UNL     1     179.055 190.452 169.957  1.00  0.00    -0.003 C 
ATOM     26  C   UNL     1     178.937 189.252 170.896  1.00  0.00     0.004 C 
ENDBRANCH  24  25
ENDBRANCH  23  24
ENDBRANCH  22  23
ENDBRANCH  21  22
ENDBRANCH  20  21
ENDBRANCH  19  20
ENDBRANCH  18  19
ENDBRANCH  17  18
ENDBRANCH  16  17
ENDBRANCH  15  16
ENDBRANCH   1  15
TORSDOF 22
ENDMDL
MODEL 7
REMARK VINA RESULT:    -3.347      5.598      8.711
REMARK INTER + INTRA:         -12.216
REMARK INTER:                  -9.044
REMARK INTRA:                  -3.172
REMARK UNBOUND:                -4.563
REMARK SMILES CCCCCCCCCCCCCCCCCCCCCCCC(=O)[O-]
REMARK SMILES IDX 13 1 14 2 15 3 16 4 17 5 18 6 19 7 20 8 21 9 22 10 23 11
REMARK SMILES IDX 24 12 25 13 26 14 12 15 11 16 10 17 9 18 8 19 7 20 6 21 5 22
REMARK SMILES IDX 4 23 3 24 2 25 1 26
REMARK H PARENT
REMARK Flexibility Score: inf
ROOT
ATOM      1  C   UNL     1     185.047 187.791 169.324  1.00  0.00     0.000 C 
ENDROOT
BRANCH   1   2
ATOM      2  C   UNL     1     184.575 186.959 170.529  1.00  0.00     0.000 C 
BRANCH   2   3
ATOM      3  C   UNL     1     183.122 187.260 170.953  1.00  0.00     0.000 C 
BRANCH   3   4
ATOM      4  C   UNL     1     182.319 187.940 169.830  1.00  0.00     0.000 C 
BRANCH   4   5
ATOM      5  C   UNL     1     181.818 189.338 170.222  1.00  0.00     0.000 C 
BRANCH   5   6
ATOM      6  C   UNL     1     180.296 189.382 170.443  1.00  0.00     0.000 C 
BRANCH   6   7
ATOM      7  C   UNL     1     179.675 190.714 169.995  1.00  0.00     0.000 C 
BRANCH   7   8
ATOM      8  C   UNL     1     180.681 191.615 169.256  1.00  0.00     0.000 C 
BRANCH   8   9
ATOM      9  C   UNL     1     180.161 192.078 167.886  1.00  0.00     0.000 C 
BRANCH   9  10
ATOM     10  C   UNL     1     179.851 190.903 166.943  1.00  0.00     0.006 C 
BRANCH  10  11
ATOM     11  C   UNL     1     181.124 190.203 166.448  1.00  0.00     0.053 C 
BRANCH  11  12
ATOM     12  C   UNL     1     181.040 188.716 166.606  1.00  0.00     0.041 C 
ATOM     13  O   UNL     1     182.019 187.988 166.292  1.00  0.00    -0.550 OA
ATOM     14  O   UNL     1     179.892 188.136 167.132  1.00  0.00    -0.550 OA
ENDBRANCH  11  12
ENDBRANCH  10  11
ENDBRANCH   9  10
ENDBRANCH   8   9
ENDBRANCH   7   8
ENDBRANCH   6   7
ENDBRANCH   5   6
ENDBRANCH   4   5
ENDBRANCH   3   4
ENDBRANCH   2   3
ENDBRANCH   1   2
BRANCH   1  15
ATOM     15  C   UNL     1     185.565 186.923 168.165  1.00  0.00     0.000 C 
BRANCH  15  16
ATOM     16  C   UNL     1     186.029 185.533 168.627  1.00  0.00     0.000 C 
BRANCH  16  17
ATOM     17  C   UNL     1     186.761 184.754 167.523  1.00  0.00     0.000 C 
BRANCH  17  18
ATOM     18  C   UNL     1     187.412 185.714 166.516  1.00  0.00    -0.000 C 
BRANCH  18  19
ATOM     19  C   UNL     1     188.939 185.793 166.677  1.00  0.00    -0.000 C 
BRANCH  19  20
ATOM     20  C   UNL     1     189.418 187.194 167.103  1.00  0.00    -0.000 C 
BRANCH  20  21
ATOM     21  C   UNL     1     189.618 187.313 168.622  1.00  0.00    -0.000 C 
BRANCH  21  22
ATOM     22  C   UNL     1     188.682 188.353 169.261  1.00  0.00    -0.000 C 
BRANCH  22  23
ATOM     23  C   UNL     1     188.432 188.084 170.754  1.00  0.00    -0.000 C 
BRANCH  23  24
ATOM     24  C   UNL     1     188.304 186.584 171.074  1.00  0.00    -0.000 C 
BRANCH  24  25
ATOM     25  C   UNL     1     189.267 186.136 172.185  1.00  0.00    -0.003 C 
ATOM     26  C   UNL     1     188.558 185.385 173.312  1.00  0.00     0.004 C 
ENDBRANCH  24  25
ENDBRANCH  23  24
ENDBRANCH  22  23
ENDBRANCH  21  22
ENDBRANCH  20  21
ENDBRANCH  19  20
ENDBRANCH  18  19
ENDBRANCH  17  18
ENDBRANCH  16  17
ENDBRANCH  15  16
ENDBRANCH   1  15
TORSDOF 22
ENDMDL
MODEL 8
REMARK VINA RESULT:    -3.329     12.296     15.108
REMARK INTER + INTRA:         -12.174
REMARK INTER:                  -8.433
REMARK INTRA:                  -3.741
REMARK UNBOUND:                -4.563
REMARK SMILES CCCCCCCCCCCCCCCCCCCCCCCC(=O)[O-]
REMARK SMILES IDX 13 1 14 2 15 3 16 4 17 5 18 6 19 7 20 8 21 9 22 10 23 11
REMARK SMILES IDX 24 12 25 13 26 14 12 15 11 16 10 17 9 18 8 19 7 20 6 21 5 22
REMARK SMILES IDX 4 23 3 24 2 25 1 26
REMARK H PARENT
REMARK Flexibility Score: inf
ROOT
ATOM      1  C   UNL     1     180.910 194.514 180.284  1.00  0.00     0.000 C 
ENDROOT
BRANCH   1   2
ATOM      2  C   UNL     1     182.385 194.706 179.889  1.00  0.00     0.000 C 
BRANCH   2   3
ATOM      3  C   UNL     1     182.661 194.437 178.394  1.00  0.00     0.000 C 
BRANCH   3   4
ATOM      4  C   UNL     1     183.260 195.665 177.685  1.00  0.00     0.000 C 
BRANCH   4   5
ATOM      5  C   UNL     1     183.204 196.934 178.548  1.00  0.00     0.000 C 
BRANCH   5   6
ATOM      6  C   UNL     1     182.084 197.897 178.115  1.00  0.00     0.000 C 
BRANCH   6   7
ATOM      7  C   UNL     1     181.783 197.810 176.611  1.00  0.00     0.000 C 
BRANCH   7   8
ATOM      8  C   UNL     1     180.289 197.574 176.321  1.00  0.00     0.000 C 
BRANCH   8   9
ATOM      9  C   UNL     1     179.618 196.681 177.376  1.00  0.00     0.000 C 
BRANCH   9  10
ATOM     10  C   UNL     1     179.524 195.210 176.933  1.00  0.00     0.006 C 
BRANCH  10  11
ATOM     11  C   UNL     1     179.734 195.045 175.422  1.00  0.00     0.053 C 
BRANCH  11  12
ATOM     12  C   UNL     1     180.931 194.197 175.116  1.00  0.00     0.041 C 
ATOM     13  O   UNL     1     181.006 193.021 175.561  1.00  0.00    -0.550 OA
ATOM     14  O   UNL     1     181.950 194.695 174.312  1.00  0.00    -0.550 OA
ENDBRANCH  11  12
ENDBRANCH  10  11
ENDBRANCH   9  10
ENDBRANCH   8   9
ENDBRANCH   7   8
ENDBRANCH   6   7
ENDBRANCH   5   6
ENDBRANCH   4   5
ENDBRANCH   3   4
ENDBRANCH   2   3
ENDBRANCH   1   2
BRANCH   1  15
ATOM     15  C   UNL     1     180.742 193.970 181.713  1.00  0.00     0.000 C 
BRANCH  15  16
ATOM     16  C   UNL     1     180.653 195.087 182.765  1.00  0.00     0.000 C 
BRANCH  16  17
ATOM     17  C   UNL     1     181.842 195.081 183.739  1.00  0.00     0.000 C 
BRANCH  17  18
ATOM     18  C   UNL     1     182.929 196.064 183.281  1.00  0.00    -0.000 C 
BRANCH  18  19
ATOM     19  C   UNL     1     184.337 195.447 183.312  1.00  0.00    -0.000 C 
BRANCH  19  20
ATOM     20  C   UNL     1     184.342 193.962 182.906  1.00  0.00    -0.000 C 
BRANCH  20  21
ATOM     21  C   UNL     1     185.636 193.241 183.317  1.00  0.00    -0.000 C 
BRANCH  21  22
ATOM     22  C   UNL     1     186.016 192.111 182.345  1.00  0.00    -0.000 C 
BRANCH  22  23
ATOM     23  C   UNL     1     186.402 192.635 180.952  1.00  0.00    -0.000 C 
BRANCH  23  24
ATOM     24  C   UNL     1     187.736 193.401 180.953  1.00  0.00    -0.000 C 
BRANCH  24  25
ATOM     25  C   UNL     1     187.566 194.880 180.572  1.00  0.00    -0.003 C 
ATOM     26  C   UNL     1     186.167 195.195 180.043  1.00  0.00     0.004 C 
ENDBRANCH  24  25
ENDBRANCH  23  24
ENDBRANCH  22  23
ENDBRANCH  21  22
ENDBRANCH  20  21
ENDBRANCH  19  20
ENDBRANCH  18  19
ENDBRANCH  17  18
ENDBRANCH  16  17
ENDBRANCH  15  16
ENDBRANCH   1  15
TORSDOF 22
ENDMDL
MODEL 9
REMARK VINA RESULT:    -3.312      1.759      2.697
REMARK INTER + INTRA:         -12.136
REMARK INTER:                  -7.265
REMARK INTRA:                  -4.871
REMARK UNBOUND:                -4.563
REMARK SMILES CCCCCCCCCCCCCCCCCCCCCCCC(=O)[O-]
REMARK SMILES IDX 13 1 14 2 15 3 16 4 17 5 18 6 19 7 20 8 21 9 22 10 23 11
REMARK SMILES IDX 24 12 25 13 26 14 12 15 11 16 10 17 9 18 8 19 7 20 6 21 5 22
REMARK SMILES IDX 4 23 3 24 2 25 1 26
REMARK H PARENT
REMARK Flexibility Score: inf
ROOT
ATOM      1  C   UNL     1     186.754 185.022 166.872  1.00  0.00     0.000 C 
ENDROOT
BRANCH   1   2
ATOM      2  C   UNL     1     186.885 186.449 166.311  1.00  0.00     0.000 C 
BRANCH   2   3
ATOM      3  C   UNL     1     188.084 186.625 165.355  1.00  0.00     0.000 C 
BRANCH   3   4
ATOM      4  C   UNL     1     189.012 185.397 165.354  1.00  0.00     0.000 C 
BRANCH   4   5
ATOM      5  C   UNL     1     190.421 185.719 165.873  1.00  0.00     0.000 C 
BRANCH   5   6
ATOM      6  C   UNL     1     190.914 184.703 166.918  1.00  0.00     0.000 C 
BRANCH   6   7
ATOM      7  C   UNL     1     190.316 184.954 168.311  1.00  0.00     0.000 C 
BRANCH   7   8
ATOM      8  C   UNL     1     191.005 184.119 169.407  1.00  0.00     0.000 C 
BRANCH   8   9
ATOM      9  C   UNL     1     190.823 184.723 170.809  1.00  0.00     0.000 C 
BRANCH   9  10
ATOM     10  C   UNL     1     189.393 185.238 171.050  1.00  0.00     0.006 C 
BRANCH  10  11
ATOM     11  C   UNL     1     189.301 186.134 172.293  1.00  0.00     0.053 C 
BRANCH  11  12
ATOM     12  C   UNL     1     189.544 185.363 173.555  1.00  0.00     0.041 C 
ATOM     13  O   UNL     1     190.272 185.846 174.462  1.00  0.00    -0.550 OA
ATOM     14  O   UNL     1     188.941 184.125 173.742  1.00  0.00    -0.550 OA
ENDBRANCH  11  12
ENDBRANCH  10  11
ENDBRANCH   9  10
ENDBRANCH   8   9
ENDBRANCH   7   8
ENDBRANCH   6   7
ENDBRANCH   5   6
ENDBRANCH   4   5
ENDBRANCH   3   4
ENDBRANCH   2   3
ENDBRANCH   1   2
BRANCH   1  15
ATOM     15  C   UNL     1     186.712 184.987 168.409  1.00  0.00     0.000 C 
BRANCH  15  16
ATOM     16  C   UNL     1     185.705 185.988 168.997  1.00  0.00     0.000 C 
BRANCH  16  17
ATOM     17  C   UNL     1     186.309 186.848 170.119  1.00  0.00     0.000 C 
BRANCH  17  18
ATOM     18  C   UNL     1     186.172 188.343 169.796  1.00  0.00    -0.000 C 
BRANCH  18  19
ATOM     19  C   UNL     1     187.528 189.066 169.752  1.00  0.00    -0.000 C 
BRANCH  19  20
ATOM     20  C   UNL     1     188.661 188.169 169.221  1.00  0.00    -0.000 C 
BRANCH  20  21
ATOM     21  C   UNL     1     189.367 188.772 167.995  1.00  0.00    -0.000 C 
BRANCH  21  22
ATOM     22  C   UNL     1     190.897 188.631 168.067  1.00  0.00    -0.000 C 
BRANCH  22  23
ATOM     23  C   UNL     1     191.392 188.288 169.481  1.00  0.00    -0.000 C 
BRANCH  23  24
ATOM     24  C   UNL     1     192.924 188.357 169.607  1.00  0.00    -0.000 C 
BRANCH  24  25
ATOM     25  C   UNL     1     193.532 187.043 170.123  1.00  0.00    -0.003 C 
ATOM     26  C   UNL     1     194.092 186.171 168.999  1.00  0.00     0.004 C 
ENDBRANCH  24  25
ENDBRANCH  23  24
ENDBRANCH  22  23
ENDBRANCH  21  22
ENDBRANCH  20  21
ENDBRANCH  19  20
ENDBRANCH  18  19
ENDBRANCH  17  18
ENDBRANCH  16  17
ENDBRANCH  15  16
ENDBRANCH   1  15
TORSDOF 22
ENDMDL
