MODEL 1
REMARK VINA RESULT:    -2.876      0.000      0.000
REMARK INTER + INTRA:          -6.424
REMARK INTER:                  -4.894
REMARK INTRA:                  -1.530
REMARK UNBOUND:                -1.530
REMARK SMILES CCCCCCCCCCCCCC(=O)[O-]
REMARK SMILES IDX 8 1 9 2 10 3 11 4 12 5 13 6 14 7 15 8 16 9 7 10 6 11 5 12
REMARK SMILES IDX 4 13 3 14 2 15 1 16
REMARK H PARENT
REMARK Flexibility Score: inf
ROOT
ATOM      1  C   UNL     1     -11.335 -16.762  14.734  1.00  0.00     0.000 C 
ENDROOT
BRANCH   1   2
ATOM      2  C   UNL     1     -10.777 -17.569  15.913  1.00  0.00     0.000 C 
BRANCH   2   3
ATOM      3  C   UNL     1     -11.538 -18.889  16.086  1.00  0.00     0.000 C 
BRANCH   3   4
ATOM      4  C   UNL     1     -10.599 -20.090  15.935  1.00  0.00     0.000 C 
BRANCH   4   5
ATOM      5  C   UNL     1     -11.025 -20.978  14.758  1.00  0.00     0.006 C 
BRANCH   5   6
ATOM      6  C   UNL     1     -12.347 -21.709  15.028  1.00  0.00     0.053 C 
BRANCH   6   7
ATOM      7  C   UNL     1     -12.880 -22.369  13.793  1.00  0.00     0.041 C 
ATOM      8  O   UNL     1     -12.182 -22.412  12.747  1.00  0.00    -0.550 OA
ATOM      9  O   UNL     1     -14.135 -22.964  13.809  1.00  0.00    -0.550 OA
ENDBRANCH   6   7
ENDBRANCH   5   6
ENDBRANCH   4   5
ENDBRANCH   3   4
ENDBRANCH   2   3
ENDBRANCH   1   2
BRANCH   1  10
ATOM     10  C   UNL     1     -10.436 -16.898  13.499  1.00  0.00     0.000 C 
BRANCH  10  11
ATOM     11  C   UNL     1      -8.989 -17.203  13.903  1.00  0.00    -0.000 C 
BRANCH  11  12
ATOM     12  C   UNL     1      -8.408 -18.338  13.051  1.00  0.00    -0.000 C 
BRANCH  12  13
ATOM     13  C   UNL     1      -9.489 -18.970  12.165  1.00  0.00    -0.000 C 
BRANCH  13  14
ATOM     14  C   UNL     1      -8.987 -19.140  10.723  1.00  0.00    -0.000 C 
BRANCH  14  15
ATOM     15  C   UNL     1      -9.794 -18.307   9.715  1.00  0.00    -0.003 C 
ATOM     16  C   UNL     1      -9.421 -16.825   9.739  1.00  0.00     0.004 C 
ENDBRANCH  14  15
ENDBRANCH  13  14
ENDBRANCH  12  13
ENDBRANCH  11  12
ENDBRANCH  10  11
ENDBRANCH   1  10
TORSDOF 12
ENDMDL
MODEL 2
REMARK VINA RESULT:    -2.796      2.656      4.856
REMARK INTER + INTRA:          -6.288
REMARK INTER:                  -4.651
REMARK INTRA:                  -1.637
REMARK UNBOUND:                -1.530
REMARK SMILES CCCCCCCCCCCCCC(=O)[O-]
REMARK SMILES IDX 8 1 9 2 10 3 11 4 12 5 13 6 14 7 15 8 16 9 7 10 6 11 5 12
REMARK SMILES IDX 4 13 3 14 2 15 1 16
REMARK H PARENT
REMARK Flexibility Score: inf
ROOT
ATOM      1  C   UNL     1     -10.554 -16.779  13.889  1.00  0.00     0.000 C 
ENDROOT
BRANCH   1   2
ATOM      2  C   UNL     1      -9.117 -16.774  14.425  1.00  0.00     0.000 C 
BRANCH   2   3
ATOM      3  C   UNL     1      -8.152 -17.420  13.424  1.00  0.00     0.000 C 
BRANCH   3   4
ATOM      4  C   UNL     1      -8.285 -18.947  13.437  1.00  0.00     0.000 C 
BRANCH   4   5
ATOM      5  C   UNL     1      -8.307 -19.510  12.009  1.00  0.00     0.006 C 
BRANCH   5   6
ATOM      6  C   UNL     1      -9.659 -19.288  11.317  1.00  0.00     0.053 C 
BRANCH   6   7
ATOM      7  C   UNL     1      -9.521 -18.446  10.086  1.00  0.00     0.041 C 
ATOM      8  O   UNL     1      -9.844 -17.230  10.112  1.00  0.00    -0.550 OA
ATOM      9  O   UNL     1      -9.005 -18.997   8.920  1.00  0.00    -0.550 OA
ENDBRANCH   6   7
ENDBRANCH   5   6
ENDBRANCH   4   5
ENDBRANCH   3   4
ENDBRANCH   2   3
ENDBRANCH   1   2
BRANCH   1  10
ATOM     10  C   UNL     1     -11.567 -16.934  15.030  1.00  0.00     0.000 C 
BRANCH  10  11
ATOM     11  C   UNL     1     -11.070 -17.942  16.073  1.00  0.00    -0.000 C 
BRANCH  11  12
ATOM     12  C   UNL     1     -11.786 -19.290  15.919  1.00  0.00    -0.000 C 
BRANCH  12  13
ATOM     13  C   UNL     1     -10.833 -20.359  15.368  1.00  0.00    -0.000 C 
BRANCH  13  14
ATOM     14  C   UNL     1     -11.613 -21.471  14.651  1.00  0.00    -0.000 C 
BRANCH  14  15
ATOM     15  C   UNL     1     -10.809 -22.113  13.509  1.00  0.00    -0.003 C 
ATOM     16  C   UNL     1     -11.648 -22.346  12.254  1.00  0.00     0.004 C 
ENDBRANCH  14  15
ENDBRANCH  13  14
ENDBRANCH  12  13
ENDBRANCH  11  12
ENDBRANCH  10  11
ENDBRANCH   1  10
TORSDOF 12
ENDMDL
MODEL 3
REMARK VINA RESULT:    -2.751      1.478      3.902
REMARK INTER + INTRA:          -6.211
REMARK INTER:                  -4.486
REMARK INTRA:                  -1.725
REMARK UNBOUND:                -1.530
REMARK SMILES CCCCCCCCCCCCCC(=O)[O-]
REMARK SMILES IDX 8 1 9 2 10 3 11 4 12 5 13 6 14 7 15 8 16 9 7 10 6 11 5 12
REMARK SMILES IDX 4 13 3 14 2 15 1 16
REMARK H PARENT
REMARK Flexibility Score: inf
ROOT
ATOM      1  C   UNL     1      -9.739 -18.429  10.871  1.00  0.00     0.000 C 
ENDROOT
BRANCH   1   2
ATOM      2  C   UNL     1      -9.107 -19.747  11.336  1.00  0.00     0.000 C 
BRANCH   2   3
ATOM      3  C   UNL     1     -10.161 -20.677  11.949  1.00  0.00     0.000 C 
BRANCH   3   4
ATOM      4  C   UNL     1      -9.543 -22.021  12.351  1.00  0.00     0.000 C 
BRANCH   4   5
ATOM      5  C   UNL     1     -10.546 -22.875  13.139  1.00  0.00     0.006 C 
BRANCH   5   6
ATOM      6  C   UNL     1     -12.000 -22.467  12.864  1.00  0.00     0.053 C 
BRANCH   6   7
ATOM      7  C   UNL     1     -12.814 -22.430  14.121  1.00  0.00     0.041 C 
ATOM      8  O   UNL     1     -14.012 -22.044  14.087  1.00  0.00    -0.550 OA
ATOM      9  O   UNL     1     -12.260 -22.852  15.322  1.00  0.00    -0.550 OA
ENDBRANCH   6   7
ENDBRANCH   5   6
ENDBRANCH   4   5
ENDBRANCH   3   4
ENDBRANCH   2   3
ENDBRANCH   1   2
BRANCH   1  10
ATOM     10  C   UNL     1     -10.010 -17.499  12.061  1.00  0.00     0.000 C 
BRANCH  10  11
ATOM     11  C   UNL     1      -8.822 -17.486  13.030  1.00  0.00    -0.000 C 
BRANCH  11  12
ATOM     12  C   UNL     1      -9.183 -16.760  14.332  1.00  0.00    -0.000 C 
BRANCH  12  13
ATOM     13  C   UNL     1     -10.679 -16.893  14.641  1.00  0.00    -0.000 C 
BRANCH  13  14
ATOM     14  C   UNL     1     -10.915 -17.869  15.803  1.00  0.00    -0.000 C 
BRANCH  14  15
ATOM     15  C   UNL     1     -11.057 -19.325  15.332  1.00  0.00    -0.003 C 
ATOM     16  C   UNL     1      -9.835 -20.177  15.668  1.00  0.00     0.004 C 
ENDBRANCH  14  15
ENDBRANCH  13  14
ENDBRANCH  12  13
ENDBRANCH  11  12
ENDBRANCH  10  11
ENDBRANCH   1  10
TORSDOF 12
ENDMDL
MODEL 4
REMARK VINA RESULT:    -2.716      1.337      3.493
REMARK INTER + INTRA:          -6.151
REMARK INTER:                  -4.383
REMARK INTRA:                  -1.768
REMARK UNBOUND:                -1.530
REMARK SMILES CCCCCCCCCCCCCC(=O)[O-]
REMARK SMILES IDX 8 1 9 2 10 3 11 4 12 5 13 6 14 7 15 8 16 9 7 10 6 11 5 12
REMARK SMILES IDX 4 13 3 14 2 15 1 16
REMARK H PARENT
REMARK Flexibility Score: inf
ROOT
ATOM      1  C   UNL     1      -9.111 -21.008  11.722  1.00  0.00     0.000 C 
ENDROOT
BRANCH   1   2
ATOM      2  C   UNL     1      -8.214 -21.353  12.917  1.00  0.00     0.000 C 
BRANCH   2   3
ATOM      3  C   UNL     1      -8.870 -20.932  14.238  1.00  0.00     0.000 C 
BRANCH   3   4
ATOM      4  C   UNL     1     -10.355 -20.611  14.037  1.00  0.00     0.000 C 
BRANCH   4   5
ATOM      5  C   UNL     1     -11.239 -21.560  14.860  1.00  0.00     0.006 C 
BRANCH   5   6
ATOM      6  C   UNL     1     -11.478 -22.898  14.148  1.00  0.00     0.053 C 
BRANCH   6   7
ATOM      7  C   UNL     1     -12.578 -22.800  13.135  1.00  0.00     0.041 C 
ATOM      8  O   UNL     1     -12.304 -22.748  11.908  1.00  0.00    -0.550 OA
ATOM      9  O   UNL     1     -13.904 -22.799  13.546  1.00  0.00    -0.550 OA
ENDBRANCH   6   7
ENDBRANCH   5   6
ENDBRANCH   4   5
ENDBRANCH   3   4
ENDBRANCH   2   3
ENDBRANCH   1   2
BRANCH   1  10
ATOM     10  C   UNL     1      -8.653 -19.709  11.047  1.00  0.00     0.000 C 
BRANCH  10  11
ATOM     11  C   UNL     1      -9.852 -18.820  10.696  1.00  0.00    -0.000 C 
BRANCH  11  12
ATOM     12  C   UNL     1      -9.871 -17.554  11.562  1.00  0.00    -0.000 C 
BRANCH  12  13
ATOM     13  C   UNL     1      -8.721 -17.564  12.577  1.00  0.00    -0.000 C 
BRANCH  13  14
ATOM     14  C   UNL     1      -9.199 -17.077  13.953  1.00  0.00    -0.000 C 
BRANCH  14  15
ATOM     15  C   UNL     1     -10.713 -16.819  13.995  1.00  0.00    -0.003 C 
ATOM     16  C   UNL     1     -11.344 -17.216  15.329  1.00  0.00     0.004 C 
ENDBRANCH  14  15
ENDBRANCH  13  14
ENDBRANCH  12  13
ENDBRANCH  11  12
ENDBRANCH  10  11
ENDBRANCH   1  10
TORSDOF 12
ENDMDL
MODEL 5
REMARK VINA RESULT:    -2.582      2.566      4.845
REMARK INTER + INTRA:          -5.923
REMARK INTER:                  -4.549
REMARK INTRA:                  -1.375
REMARK UNBOUND:                -1.530
REMARK SMILES CCCCCCCCCCCCCC(=O)[O-]
REMARK SMILES IDX 8 1 9 2 10 3 11 4 12 5 13 6 14 7 15 8 16 9 7 10 6 11 5 12
REMARK SMILES IDX 4 13 3 14 2 15 1 16
REMARK H PARENT
REMARK Flexibility Score: inf
ROOT
ATOM      1  C   UNL     1      -9.730 -18.392  10.185  1.00  0.00     0.000 C 
ENDROOT
BRANCH   1   2
ATOM      2  C   UNL     1      -9.737 -17.136  11.066  1.00  0.00     0.000 C 
BRANCH   2   3
ATOM      3  C   UNL     1     -10.199 -17.465  12.490  1.00  0.00     0.000 C 
BRANCH   3   4
ATOM      4  C   UNL     1      -9.007 -17.547  13.451  1.00  0.00     0.000 C 
BRANCH   4   5
ATOM      5  C   UNL     1      -9.231 -16.660  14.684  1.00  0.00     0.006 C 
BRANCH   5   6
ATOM      6  C   UNL     1      -9.824 -17.442  15.863  1.00  0.00     0.053 C 
BRANCH   6   7
ATOM      7  C   UNL     1     -11.320 -17.501  15.796  1.00  0.00     0.041 C 
ATOM      8  O   UNL     1     -11.988 -16.445  15.643  1.00  0.00    -0.550 OA
ATOM      9  O   UNL     1     -11.972 -18.725  15.868  1.00  0.00    -0.550 OA
ENDBRANCH   6   7
ENDBRANCH   5   6
ENDBRANCH   4   5
ENDBRANCH   3   4
ENDBRANCH   2   3
ENDBRANCH   1   2
BRANCH   1  10
ATOM     10  C   UNL     1      -8.324 -18.675   9.641  1.00  0.00     0.000 C 
BRANCH  10  11
ATOM     11  C   UNL     1      -7.875 -20.098   9.990  1.00  0.00    -0.000 C 
BRANCH  11  12
ATOM     12  C   UNL     1      -8.305 -20.477  11.413  1.00  0.00    -0.000 C 
BRANCH  12  13
ATOM     13  C   UNL     1      -8.190 -21.989  11.639  1.00  0.00    -0.000 C 
BRANCH  13  14
ATOM     14  C   UNL     1      -9.306 -22.492  12.567  1.00  0.00    -0.000 C 
BRANCH  14  15
ATOM     15  C   UNL     1     -10.116 -21.345  13.192  1.00  0.00    -0.003 C 
ATOM     16  C   UNL     1      -9.775 -21.114  14.664  1.00  0.00     0.004 C 
ENDBRANCH  14  15
ENDBRANCH  13  14
ENDBRANCH  12  13
ENDBRANCH  11  12
ENDBRANCH  10  11
ENDBRANCH   1  10
TORSDOF 12
ENDMDL
MODEL 6
REMARK VINA RESULT:    -2.581      2.610      4.263
REMARK INTER + INTRA:          -5.922
REMARK INTER:                  -4.220
REMARK INTRA:                  -1.702
REMARK UNBOUND:                -1.530
REMARK SMILES CCCCCCCCCCCCCC(=O)[O-]
REMARK SMILES IDX 8 1 9 2 10 3 11 4 12 5 13 6 14 7 15 8 16 9 7 10 6 11 5 12
REMARK SMILES IDX 4 13 3 14 2 15 1 16
REMARK H PARENT
REMARK Flexibility Score: inf
ROOT
ATOM      1  C   UNL     1     -11.087 -20.515  15.020  1.00  0.00     0.000 C 
ENDROOT
BRANCH   1   2
ATOM      2  C   UNL     1     -10.010 -20.233  16.076  1.00  0.00     0.000 C 
BRANCH   2   3
ATOM      3  C   UNL     1      -8.605 -20.343  15.473  1.00  0.00     0.000 C 
BRANCH   3   4
ATOM      4  C   UNL     1      -8.118 -18.983  14.960  1.00  0.00     0.000 C 
BRANCH   4   5
ATOM      5  C   UNL     1      -8.871 -17.834  15.644  1.00  0.00     0.006 C 
BRANCH   5   6
ATOM      6  C   UNL     1      -9.275 -16.732  14.654  1.00  0.00     0.053 C 
BRANCH   6   7
ATOM      7  C   UNL     1     -10.752 -16.722  14.405  1.00  0.00     0.041 C 
ATOM      8  O   UNL     1     -11.553 -16.976  15.342  1.00  0.00    -0.550 OA
ATOM      9  O   UNL     1     -11.243 -16.400  13.147  1.00  0.00    -0.550 OA
ENDBRANCH   6   7
ENDBRANCH   5   6
ENDBRANCH   4   5
ENDBRANCH   3   4
ENDBRANCH   2   3
ENDBRANCH   1   2
BRANCH   1  10
ATOM     10  C   UNL     1     -10.859 -21.877  14.352  1.00  0.00     0.000 C 
BRANCH  10  11
ATOM     11  C   UNL     1     -10.747 -21.730  12.830  1.00  0.00    -0.000 C 
BRANCH  11  12
ATOM     12  C   UNL     1      -9.287 -21.836  12.374  1.00  0.00    -0.000 C 
BRANCH  12  13
ATOM     13  C   UNL     1      -8.880 -20.612  11.543  1.00  0.00    -0.000 C 
BRANCH  13  14
ATOM     14  C   UNL     1      -9.963 -19.525  11.600  1.00  0.00    -0.000 C 
BRANCH  14  15
ATOM     15  C   UNL     1      -9.712 -18.388  10.597  1.00  0.00    -0.003 C 
ATOM     16  C   UNL     1      -8.828 -18.817   9.426  1.00  0.00     0.004 C 
ENDBRANCH  14  15
ENDBRANCH  13  14
ENDBRANCH  12  13
ENDBRANCH  11  12
ENDBRANCH  10  11
ENDBRANCH   1  10
TORSDOF 12
ENDMDL
MODEL 7
REMARK VINA RESULT:    -2.579      1.621      4.401
REMARK INTER + INTRA:          -5.918
REMARK INTER:                  -4.424
REMARK INTRA:                  -1.495
REMARK UNBOUND:                -1.530
REMARK SMILES CCCCCCCCCCCCCC(=O)[O-]
REMARK SMILES IDX 8 1 9 2 10 3 11 4 12 5 13 6 14 7 15 8 16 9 7 10 6 11 5 12
REMARK SMILES IDX 4 13 3 14 2 15 1 16
REMARK H PARENT
REMARK Flexibility Score: inf
ROOT
ATOM      1  C   UNL     1      -9.570 -18.627   9.771  1.00  0.00     0.000 C 
ENDROOT
BRANCH   1   2
ATOM      2  C   UNL     1      -8.106 -19.062   9.629  1.00  0.00     0.000 C 
BRANCH   2   3
ATOM      3  C   UNL     1      -7.923 -20.526  10.045  1.00  0.00     0.000 C 
BRANCH   3   4
ATOM      4  C   UNL     1      -7.876 -20.663  11.571  1.00  0.00     0.000 C 
BRANCH   4   5
ATOM      5  C   UNL     1      -8.879 -21.717  12.061  1.00  0.00     0.006 C 
BRANCH   5   6
ATOM      6  C   UNL     1     -10.151 -21.085  12.642  1.00  0.00     0.053 C 
BRANCH   6   7
ATOM      7  C   UNL     1     -11.249 -22.091  12.804  1.00  0.00     0.041 C 
ATOM      8  O   UNL     1     -11.691 -22.365  13.950  1.00  0.00    -0.550 OA
ATOM      9  O   UNL     1     -11.804 -22.701  11.686  1.00  0.00    -0.550 OA
ENDBRANCH   6   7
ENDBRANCH   5   6
ENDBRANCH   4   5
ENDBRANCH   3   4
ENDBRANCH   2   3
ENDBRANCH   1   2
BRANCH   1  10
ATOM     10  C   UNL     1      -9.677 -17.293  10.520  1.00  0.00     0.000 C 
BRANCH  10  11
ATOM     11  C   UNL     1      -9.739 -17.517  12.036  1.00  0.00    -0.000 C 
BRANCH  11  12
ATOM     12  C   UNL     1      -8.397 -17.181  12.697  1.00  0.00    -0.000 C 
BRANCH  12  13
ATOM     13  C   UNL     1      -8.534 -17.123  14.223  1.00  0.00    -0.000 C 
BRANCH  13  14
ATOM     14  C   UNL     1      -9.588 -18.124  14.719  1.00  0.00    -0.000 C 
BRANCH  14  15
ATOM     15  C   UNL     1     -10.557 -17.505  15.739  1.00  0.00    -0.003 C 
ATOM     16  C   UNL     1     -11.612 -16.612  15.087  1.00  0.00     0.004 C 
ENDBRANCH  14  15
ENDBRANCH  13  14
ENDBRANCH  12  13
ENDBRANCH  11  12
ENDBRANCH  10  11
ENDBRANCH   1  10
TORSDOF 12
ENDMDL
MODEL 8
REMARK VINA RESULT:    -2.563      2.397      5.243
REMARK INTER + INTRA:          -5.890
REMARK INTER:                  -4.548
REMARK INTRA:                  -1.342
REMARK UNBOUND:                -1.530
REMARK SMILES CCCCCCCCCCCCCC(=O)[O-]
REMARK SMILES IDX 8 1 9 2 10 3 11 4 12 5 13 6 14 7 15 8 16 9 7 10 6 11 5 12
REMARK SMILES IDX 4 13 3 14 2 15 1 16
REMARK H PARENT
REMARK Flexibility Score: inf
ROOT
ATOM      1  C   UNL     1      -9.980 -19.281  11.105  1.00  0.00     0.000 C 
ENDROOT
BRANCH   1   2
ATOM      2  C   UNL     1      -9.721 -17.871  11.651  1.00  0.00     0.000 C 
BRANCH   2   3
ATOM      3  C   UNL     1      -8.243 -17.682  12.009  1.00  0.00     0.000 C 
BRANCH   3   4
ATOM      4  C   UNL     1      -8.082 -17.226  13.464  1.00  0.00     0.000 C 
BRANCH   4   5
ATOM      5  C   UNL     1      -8.658 -18.268  14.434  1.00  0.00     0.006 C 
BRANCH   5   6
ATOM      6  C   UNL     1      -9.473 -17.623  15.563  1.00  0.00     0.053 C 
BRANCH   6   7
ATOM      7  C   UNL     1     -10.941 -17.629  15.262  1.00  0.00     0.041 C 
ATOM      8  O   UNL     1     -11.632 -18.652  15.504  1.00  0.00    -0.550 OA
ATOM      9  O   UNL     1     -11.549 -16.492  14.745  1.00  0.00    -0.550 OA
ENDBRANCH   6   7
ENDBRANCH   5   6
ENDBRANCH   4   5
ENDBRANCH   3   4
ENDBRANCH   2   3
ENDBRANCH   1   2
BRANCH   1  10
ATOM     10  C   UNL     1      -8.728 -20.158  11.228  1.00  0.00     0.000 C 
BRANCH  10  11
ATOM     11  C   UNL     1      -8.976 -21.341  12.170  1.00  0.00    -0.000 C 
BRANCH  11  12
ATOM     12  C   UNL     1     -10.417 -21.334  12.694  1.00  0.00    -0.000 C 
BRANCH  12  13
ATOM     13  C   UNL     1     -11.153 -22.620  12.298  1.00  0.00    -0.000 C 
BRANCH  13  14
ATOM     14  C   UNL     1     -12.514 -22.714  13.004  1.00  0.00    -0.000 C 
BRANCH  14  15
ATOM     15  C   UNL     1     -12.553 -21.918  14.318  1.00  0.00    -0.003 C 
ATOM     16  C   UNL     1     -13.972 -21.731  14.854  1.00  0.00     0.004 C 
ENDBRANCH  14  15
ENDBRANCH  13  14
ENDBRANCH  12  13
ENDBRANCH  11  12
ENDBRANCH  10  11
ENDBRANCH   1  10
TORSDOF 12
ENDMDL
MODEL 9
REMARK VINA RESULT:    -2.403      1.410      4.460
REMARK INTER + INTRA:          -5.618
REMARK INTER:                  -4.114
REMARK INTRA:                  -1.504
REMARK UNBOUND:                -1.530
REMARK SMILES CCCCCCCCCCCCCC(=O)[O-]
REMARK SMILES IDX 8 1 9 2 10 3 11 4 12 5 13 6 14 7 15 8 16 9 7 10 6 11 5 12
REMARK SMILES IDX 4 13 3 14 2 15 1 16
REMARK H PARENT
REMARK Flexibility Score: inf
ROOT
ATOM      1  C   UNL     1      -8.192 -17.574  12.392  1.00  0.00     0.000 C 
ENDROOT
BRANCH   1   2
ATOM      2  C   UNL     1      -9.398 -17.403  11.460  1.00  0.00     0.000 C 
BRANCH   2   3
ATOM      3  C   UNL     1      -9.840 -18.750  10.877  1.00  0.00     0.000 C 
BRANCH   3   4
ATOM      4  C   UNL     1      -8.690 -19.763  10.896  1.00  0.00     0.000 C 
BRANCH   4   5
ATOM      5  C   UNL     1      -9.058 -21.000  11.728  1.00  0.00     0.006 C 
BRANCH   5   6
ATOM      6  C   UNL     1     -10.529 -20.989  12.167  1.00  0.00     0.053 C 
BRANCH   6   7
ATOM      7  C   UNL     1     -11.014 -22.362  12.518  1.00  0.00     0.041 C 
ATOM      8  O   UNL     1     -12.028 -22.840  11.946  1.00  0.00    -0.550 OA
ATOM      9  O   UNL     1     -10.328 -23.124  13.454  1.00  0.00    -0.550 OA
ENDBRANCH   6   7
ENDBRANCH   5   6
ENDBRANCH   4   5
ENDBRANCH   3   4
ENDBRANCH   2   3
ENDBRANCH   1   2
BRANCH   1  10
ATOM     10  C   UNL     1      -8.643 -17.776  13.844  1.00  0.00     0.000 C 
BRANCH  10  11
ATOM     11  C   UNL     1      -9.662 -16.707  14.257  1.00  0.00    -0.000 C 
BRANCH  11  12
ATOM     12  C   UNL     1     -10.957 -17.350  14.768  1.00  0.00    -0.000 C 
BRANCH  12  13
ATOM     13  C   UNL     1     -10.728 -18.815  15.158  1.00  0.00    -0.000 C 
BRANCH  13  14
ATOM     14  C   UNL     1     -11.913 -19.358  15.971  1.00  0.00    -0.000 C 
BRANCH  14  15
ATOM     15  C   UNL     1     -12.078 -20.880  15.829  1.00  0.00    -0.003 C 
ATOM     16  C   UNL     1     -13.378 -21.271  15.129  1.00  0.00     0.004 C 
ENDBRANCH  14  15
ENDBRANCH  13  14
ENDBRANCH  12  13
ENDBRANCH  11  12
ENDBRANCH  10  11
ENDBRANCH   1  10
TORSDOF 12
ENDMDL
