MODEL 1
REMARK VINA RESULT:    -6.177      0.000      0.000
REMARK INTER + INTRA:          -6.565
REMARK INTER:                  -6.718
REMARK INTRA:                   0.153
REMARK UNBOUND:                 0.153
REMARK SMILES C[C@@H]1[C@H]2C3=CC[C@@H]4[C@@]5(C)CC[C@H](O)C(C)(C)[C@H]5CC[C@]4(C)[C@@]3(C)CC[C@]2(C(=O)[O-])CC[C@@H]1C
REMARK SMILES IDX 26 1 30 2 25 3 3 4 31 5 24 6 4 7 2 8 32 9 22 10 5 11 1 12
REMARK SMILES IDX 33 13 23 14 20 15 6 16 7 17 19 18 21 19 8 20 18 21 17 22
REMARK SMILES IDX 10 23 9 24 14 25 11 26 12 27 15 28 16 29 27 30 28 31 29 32
REMARK SMILES IDX 13 33
REMARK H PARENT 13 34
REMARK Flexibility Score: inf
ROOT
ATOM      1  C   UNL     1      -1.930  34.347  14.942  1.00  0.00     0.017 C 
ATOM      2  C   UNL     1      -1.109  33.593  13.856  1.00  0.00     0.014 C 
ATOM      3  C   UNL     1      -1.694  33.692  16.313  1.00  0.00     0.014 C 
ATOM      4  C   UNL     1      -1.472  35.887  14.897  1.00  0.00     0.030 C 
ATOM      5  C   UNL     1      -0.768  34.465  12.604  1.00  0.00     0.004 C 
ATOM      6  C   UNL     1      -2.306  34.529  17.470  1.00  0.00     0.013 C 
ATOM      7  C   UNL     1      -1.717  36.598  16.223  1.00  0.00    -0.063 C 
ATOM      8  C   UNL     1      -2.063  36.479  13.510  1.00  0.00    -0.003 C 
ATOM      9  C   UNL     1      -1.869  35.478  12.308  1.00  0.00    -0.011 C 
ATOM     10  C   UNL     1      -1.650  35.936  17.598  1.00  0.00    -0.006 C 
ATOM     11  C   UNL     1      -1.885  37.911  16.237  1.00  0.00    -0.027 C 
ATOM     12  C   UNL     1      -1.746  37.974  13.200  1.00  0.00     0.008 C 
ATOM     13  C   UNL     1      -1.599  36.151  10.953  1.00  0.00     0.008 C 
ATOM     14  C   UNL     1      -0.126  35.749  17.946  1.00  0.00     0.017 C 
ATOM     15  C   UNL     1      -2.415  36.893  18.753  1.00  0.00    -0.020 C 
ATOM     16  C   UNL     1      -3.219  38.318  16.747  1.00  0.00     0.032 C 
ATOM     17  C   UNL     1      -3.628  37.685  18.133  1.00  0.00     0.006 C 
ATOM     18  C   UNL     1      -1.471  37.986  19.346  1.00  0.00     0.008 C 
ATOM     19  C   UNL     1      -2.902  36.044  19.950  1.00  0.00     0.012 C 
ATOM     20  C   UNL     1      -4.393  38.804  18.997  1.00  0.00    -0.025 C 
ATOM     21  C   UNL     1      -2.134  39.164  20.091  1.00  0.00     0.005 C 
ATOM     22  C   UNL     1      -3.353  39.870  19.478  1.00  0.00     0.003 C 
ATOM     23  C   UNL     1      -5.076  38.278  20.281  1.00  0.00     0.010 C 
ATOM     24  C   UNL     1      -5.530  39.417  18.089  1.00  0.00     0.012 C 
ATOM     25  C   UNL     1      -3.956  41.071  20.358  1.00  0.00    -0.006 C 
ATOM     26  C   UNL     1      -5.867  39.390  20.973  1.00  0.00     0.033 C 
ATOM     27  C   UNL     1      -5.055  40.624  21.394  1.00  0.00     0.120 C 
ATOM     28  C   UNL     1      -4.435  42.199  19.390  1.00  0.00     0.014 C 
ATOM     29  C   UNL     1      -2.812  41.761  21.173  1.00  0.00     0.014 C 
ENDROOT
BRANCH   1  30
ATOM     30  C   UNL     1      -3.434  34.218  14.654  1.00  0.00     0.048 C 
ATOM     31  O   UNL     1      -3.923  33.236  14.024  1.00  0.00    -0.550 OA
ATOM     32  O   UNL     1      -4.321  35.181  15.148  1.00  0.00    -0.550 OA
ENDBRANCH   1  30
BRANCH  27  33
ATOM     33  O   UNL     1      -5.946  41.669  21.568  1.00  0.00    -0.393 OA
ATOM     34  H   UNL     1      -5.468  42.414  22.074  1.00  0.00     0.210 HD
ENDBRANCH  27  33
TORSDOF 2
ENDMDL
MODEL 2
REMARK VINA RESULT:    -5.343      1.943      3.302
REMARK INTER + INTRA:          -5.659
REMARK INTER:                  -5.864
REMARK INTRA:                   0.205
REMARK UNBOUND:                 0.153
REMARK SMILES C[C@@H]1[C@H]2C3=CC[C@@H]4[C@@]5(C)CC[C@H](O)C(C)(C)[C@H]5CC[C@]4(C)[C@@]3(C)CC[C@]2(C(=O)[O-])CC[C@@H]1C
REMARK SMILES IDX 26 1 30 2 25 3 3 4 31 5 24 6 4 7 2 8 32 9 22 10 5 11 1 12
REMARK SMILES IDX 33 13 23 14 20 15 6 16 7 17 19 18 21 19 8 20 18 21 17 22
REMARK SMILES IDX 10 23 9 24 14 25 11 26 12 27 15 28 16 29 27 30 28 31 29 32
REMARK SMILES IDX 13 33
REMARK H PARENT 13 34
REMARK Flexibility Score: inf
ROOT
ATOM      1  C   UNL     1      -3.155  33.639  15.612  1.00  0.00     0.017 C 
ATOM      2  C   UNL     1      -3.246  32.515  14.539  1.00  0.00     0.014 C 
ATOM      3  C   UNL     1      -1.730  34.217  15.633  1.00  0.00     0.014 C 
ATOM      4  C   UNL     1      -4.270  34.736  15.243  1.00  0.00     0.030 C 
ATOM      5  C   UNL     1      -4.692  32.280  13.993  1.00  0.00     0.004 C 
ATOM      6  C   UNL     1      -1.631  35.489  16.521  1.00  0.00     0.013 C 
ATOM      7  C   UNL     1      -3.929  36.113  15.802  1.00  0.00    -0.063 C 
ATOM      8  C   UNL     1      -5.696  34.035  15.563  1.00  0.00    -0.003 C 
ATOM      9  C   UNL     1      -5.746  32.541  15.064  1.00  0.00    -0.011 C 
ATOM     10  C   UNL     1      -2.514  36.657  15.987  1.00  0.00    -0.006 C 
ATOM     11  C   UNL     1      -4.902  36.977  16.044  1.00  0.00    -0.027 C 
ATOM     12  C   UNL     1      -6.970  34.886  15.273  1.00  0.00     0.008 C 
ATOM     13  C   UNL     1      -7.122  32.084  14.554  1.00  0.00     0.008 C 
ATOM     14  C   UNL     1      -1.988  37.072  14.563  1.00  0.00     0.017 C 
ATOM     15  C   UNL     1      -2.521  37.978  17.032  1.00  0.00    -0.020 C 
ATOM     16  C   UNL     1      -4.994  37.358  17.476  1.00  0.00     0.032 C 
ATOM     17  C   UNL     1      -3.641  37.838  18.131  1.00  0.00     0.006 C 
ATOM     18  C   UNL     1      -2.831  39.320  16.297  1.00  0.00     0.008 C 
ATOM     19  C   UNL     1      -1.144  38.162  17.710  1.00  0.00     0.012 C 
ATOM     20  C   UNL     1      -3.961  39.061  19.122  1.00  0.00    -0.025 C 
ATOM     21  C   UNL     1      -3.264  40.518  17.168  1.00  0.00     0.005 C 
ATOM     22  C   UNL     1      -4.317  40.325  18.270  1.00  0.00     0.003 C 
ATOM     23  C   UNL     1      -2.784  39.487  20.029  1.00  0.00     0.010 C 
ATOM     24  C   UNL     1      -5.137  38.610  20.076  1.00  0.00     0.012 C 
ATOM     25  C   UNL     1      -4.671  41.646  19.112  1.00  0.00    -0.006 C 
ATOM     26  C   UNL     1      -3.217  40.579  21.010  1.00  0.00     0.033 C 
ATOM     27  C   UNL     1      -3.760  41.869  20.376  1.00  0.00     0.120 C 
ATOM     28  C   UNL     1      -6.198  41.627  19.440  1.00  0.00     0.014 C 
ATOM     29  C   UNL     1      -4.516  42.913  18.205  1.00  0.00     0.014 C 
ENDROOT
BRANCH   1  30
ATOM     30  C   UNL     1      -3.406  33.057  17.012  1.00  0.00     0.048 C 
ATOM     31  O   UNL     1      -3.359  31.816  17.250  1.00  0.00    -0.550 OA
ATOM     32  O   UNL     1      -3.640  33.917  18.090  1.00  0.00    -0.550 OA
ENDBRANCH   1  30
BRANCH  27  33
ATOM     33  O   UNL     1      -4.502  42.527  21.343  1.00  0.00    -0.393 OA
ATOM     34  H   UNL     1      -5.291  42.981  20.883  1.00  0.00     0.210 HD
ENDBRANCH  27  33
TORSDOF 2
ENDMDL
MODEL 3
REMARK VINA RESULT:    -5.317      2.226      7.869
REMARK INTER + INTRA:          -5.631
REMARK INTER:                  -5.868
REMARK INTRA:                   0.237
REMARK UNBOUND:                 0.153
REMARK SMILES C[C@@H]1[C@H]2C3=CC[C@@H]4[C@@]5(C)CC[C@H](O)C(C)(C)[C@H]5CC[C@]4(C)[C@@]3(C)CC[C@]2(C(=O)[O-])CC[C@@H]1C
REMARK SMILES IDX 26 1 30 2 25 3 3 4 31 5 24 6 4 7 2 8 32 9 22 10 5 11 1 12
REMARK SMILES IDX 33 13 23 14 20 15 6 16 7 17 19 18 21 19 8 20 18 21 17 22
REMARK SMILES IDX 10 23 9 24 14 25 11 26 12 27 15 28 16 29 27 30 28 31 29 32
REMARK SMILES IDX 13 33
REMARK H PARENT 13 34
REMARK Flexibility Score: inf
ROOT
ATOM      1  C   UNL     1      -1.946  38.012  19.778  1.00  0.00     0.017 C 
ATOM      2  C   UNL     1      -2.380  38.929  20.959  1.00  0.00     0.014 C 
ATOM      3  C   UNL     1      -1.518  36.639  20.321  1.00  0.00     0.014 C 
ATOM      4  C   UNL     1      -3.191  37.925  18.766  1.00  0.00     0.030 C 
ATOM      5  C   UNL     1      -3.373  40.063  20.546  1.00  0.00     0.004 C 
ATOM      6  C   UNL     1      -1.287  35.608  19.182  1.00  0.00     0.013 C 
ATOM      7  C   UNL     1      -3.154  36.658  17.917  1.00  0.00    -0.063 C 
ATOM      8  C   UNL     1      -3.300  39.387  18.077  1.00  0.00    -0.003 C 
ATOM      9  C   UNL     1      -3.110  40.550  19.125  1.00  0.00    -0.011 C 
ATOM     10  C   UNL     1      -2.586  35.315  18.373  1.00  0.00    -0.006 C 
ATOM     11  C   UNL     1      -3.756  36.645  16.739  1.00  0.00    -0.027 C 
ATOM     12  C   UNL     1      -4.454  39.588  17.049  1.00  0.00     0.008 C 
ATOM     13  C   UNL     1      -3.952  41.805  18.846  1.00  0.00     0.008 C 
ATOM     14  C   UNL     1      -3.646  34.671  19.342  1.00  0.00     0.017 C 
ATOM     15  C   UNL     1      -2.300  34.315  17.048  1.00  0.00    -0.020 C 
ATOM     16  C   UNL     1      -2.819  36.406  15.613  1.00  0.00     0.032 C 
ATOM     17  C   UNL     1      -1.881  35.147  15.778  1.00  0.00     0.006 C 
ATOM     18  C   UNL     1      -3.569  33.516  16.616  1.00  0.00     0.008 C 
ATOM     19  C   UNL     1      -1.212  33.264  17.366  1.00  0.00     0.012 C 
ATOM     20  C   UNL     1      -1.738  34.428  14.348  1.00  0.00    -0.025 C 
ATOM     21  C   UNL     1      -3.564  32.891  15.205  1.00  0.00     0.005 C 
ATOM     22  C   UNL     1      -3.090  33.720  14.000  1.00  0.00     0.003 C 
ATOM     23  C   UNL     1      -0.659  33.324  14.281  1.00  0.00     0.010 C 
ATOM     24  C   UNL     1      -1.332  35.532  13.294  1.00  0.00     0.012 C 
ATOM     25  C   UNL     1      -3.122  32.950  12.591  1.00  0.00    -0.006 C 
ATOM     26  C   UNL     1      -0.523  32.778  12.858  1.00  0.00     0.033 C 
ATOM     27  C   UNL     1      -1.797  32.170  12.252  1.00  0.00     0.120 C 
ATOM     28  C   UNL     1      -3.547  33.966  11.484  1.00  0.00     0.014 C 
ATOM     29  C   UNL     1      -4.286  31.904  12.582  1.00  0.00     0.014 C 
ENDROOT
BRANCH   1  30
ATOM     30  C   UNL     1      -0.713  38.602  19.074  1.00  0.00     0.048 C 
ATOM     31  O   UNL     1       0.249  39.120  19.711  1.00  0.00    -0.550 OA
ATOM     32  O   UNL     1      -0.603  38.521  17.682  1.00  0.00    -0.550 OA
ENDBRANCH   1  30
BRANCH  27  33
ATOM     33  O   UNL     1      -1.636  32.154  10.877  1.00  0.00    -0.393 OA
ATOM     34  H   UNL     1      -1.412  33.101  10.572  1.00  0.00     0.210 HD
ENDBRANCH  27  33
TORSDOF 2
ENDMDL
MODEL 4
REMARK VINA RESULT:    -5.053      3.180      7.943
REMARK INTER + INTRA:          -5.343
REMARK INTER:                  -5.495
REMARK INTRA:                   0.152
REMARK UNBOUND:                 0.153
REMARK SMILES C[C@@H]1[C@H]2C3=CC[C@@H]4[C@@]5(C)CC[C@H](O)C(C)(C)[C@H]5CC[C@]4(C)[C@@]3(C)CC[C@]2(C(=O)[O-])CC[C@@H]1C
REMARK SMILES IDX 26 1 30 2 25 3 3 4 31 5 24 6 4 7 2 8 32 9 22 10 5 11 1 12
REMARK SMILES IDX 33 13 23 14 20 15 6 16 7 17 19 18 21 19 8 20 18 21 17 22
REMARK SMILES IDX 10 23 9 24 14 25 11 26 12 27 15 28 16 29 27 30 28 31 29 32
REMARK SMILES IDX 13 33
REMARK H PARENT 13 34
REMARK Flexibility Score: inf
ROOT
ATOM      1  C   UNL     1      -2.427  37.819  16.058  1.00  0.00     0.017 C 
ATOM      2  C   UNL     1      -1.444  39.022  16.144  1.00  0.00     0.014 C 
ATOM      3  C   UNL     1      -3.001  37.723  14.635  1.00  0.00     0.014 C 
ATOM      4  C   UNL     1      -1.607  36.507  16.492  1.00  0.00     0.030 C 
ATOM      5  C   UNL     1      -0.370  38.881  17.271  1.00  0.00     0.004 C 
ATOM      6  C   UNL     1      -3.813  36.416  14.422  1.00  0.00     0.013 C 
ATOM      7  C   UNL     1      -2.212  35.233  15.913  1.00  0.00    -0.063 C 
ATOM      8  C   UNL     1      -1.348  36.659  18.084  1.00  0.00    -0.003 C 
ATOM      9  C   UNL     1      -0.917  38.123  18.476  1.00  0.00    -0.011 C 
ATOM     10  C   UNL     1      -2.934  35.138  14.570  1.00  0.00    -0.006 C 
ATOM     11  C   UNL     1      -2.015  34.079  16.530  1.00  0.00    -0.027 C 
ATOM     12  C   UNL     1      -0.544  35.513  18.771  1.00  0.00     0.008 C 
ATOM     13  C   UNL     1       0.088  38.205  19.636  1.00  0.00     0.008 C 
ATOM     14  C   UNL     1      -1.829  35.158  13.449  1.00  0.00     0.017 C 
ATOM     15  C   UNL     1      -3.846  33.724  14.488  1.00  0.00    -0.020 C 
ATOM     16  C   UNL     1      -3.277  33.450  16.998  1.00  0.00     0.032 C 
ATOM     17  C   UNL     1      -4.405  33.316  15.903  1.00  0.00     0.006 C 
ATOM     18  C   UNL     1      -3.007  32.498  14.008  1.00  0.00     0.008 C 
ATOM     19  C   UNL     1      -5.015  33.870  13.487  1.00  0.00     0.012 C 
ATOM     20  C   UNL     1      -5.146  31.905  16.106  1.00  0.00    -0.025 C 
ATOM     21  C   UNL     1      -3.593  31.095  14.273  1.00  0.00     0.005 C 
ATOM     22  C   UNL     1      -4.183  30.757  15.651  1.00  0.00     0.003 C 
ATOM     23  C   UNL     1      -6.436  31.722  15.274  1.00  0.00     0.010 C 
ATOM     24  C   UNL     1      -5.560  31.794  17.626  1.00  0.00     0.012 C 
ATOM     25  C   UNL     1      -4.770  29.269  15.793  1.00  0.00    -0.006 C 
ATOM     26  C   UNL     1      -7.125  30.400  15.616  1.00  0.00     0.033 C 
ATOM     27  C   UNL     1      -6.286  29.132  15.392  1.00  0.00     0.120 C 
ATOM     28  C   UNL     1      -4.457  28.752  17.233  1.00  0.00     0.014 C 
ATOM     29  C   UNL     1      -3.963  28.289  14.877  1.00  0.00     0.014 C 
ENDROOT
BRANCH   1  30
ATOM     30  C   UNL     1      -3.626  38.045  16.993  1.00  0.00     0.048 C 
ATOM     31  O   UNL     1      -4.015  39.201  17.330  1.00  0.00    -0.550 OA
ATOM     32  O   UNL     1      -4.364  36.951  17.455  1.00  0.00    -0.550 OA
ENDBRANCH   1  30
BRANCH  27  33
ATOM     33  O   UNL     1      -6.852  28.120  16.149  1.00  0.00    -0.393 OA
ATOM     34  H   UNL     1      -7.222  27.416  15.512  1.00  0.00     0.210 HD
ENDBRANCH  27  33
TORSDOF 2
ENDMDL
MODEL 5
REMARK VINA RESULT:    -5.014      2.943      8.345
REMARK INTER + INTRA:          -5.301
REMARK INTER:                  -5.453
REMARK INTRA:                   0.152
REMARK UNBOUND:                 0.153
REMARK SMILES C[C@@H]1[C@H]2C3=CC[C@@H]4[C@@]5(C)CC[C@H](O)C(C)(C)[C@H]5CC[C@]4(C)[C@@]3(C)CC[C@]2(C(=O)[O-])CC[C@@H]1C
REMARK SMILES IDX 26 1 30 2 25 3 3 4 31 5 24 6 4 7 2 8 32 9 22 10 5 11 1 12
REMARK SMILES IDX 33 13 23 14 20 15 6 16 7 17 19 18 21 19 8 20 18 21 17 22
REMARK SMILES IDX 10 23 9 24 14 25 11 26 12 27 15 28 16 29 27 30 28 31 29 32
REMARK SMILES IDX 13 33
REMARK H PARENT 13 34
REMARK Flexibility Score: inf
ROOT
ATOM      1  C   UNL     1      -2.272  37.817  15.539  1.00  0.00     0.017 C 
ATOM      2  C   UNL     1      -1.384  39.051  15.869  1.00  0.00     0.014 C 
ATOM      3  C   UNL     1      -2.673  37.851  14.055  1.00  0.00     0.014 C 
ATOM      4  C   UNL     1      -1.424  36.508  15.928  1.00  0.00     0.030 C 
ATOM      5  C   UNL     1      -0.438  38.840  17.095  1.00  0.00     0.004 C 
ATOM      6  C   UNL     1      -3.371  36.536  13.610  1.00  0.00     0.013 C 
ATOM      7  C   UNL     1      -1.877  35.277  15.150  1.00  0.00    -0.063 C 
ATOM      8  C   UNL     1      -1.357  36.493  17.546  1.00  0.00    -0.003 C 
ATOM      9  C   UNL     1      -1.069  37.925  18.139  1.00  0.00    -0.011 C 
ATOM     10  C   UNL     1      -2.434  35.297  13.727  1.00  0.00    -0.006 C 
ATOM     11  C   UNL     1      -1.678  34.073  15.661  1.00  0.00    -0.027 C 
ATOM     12  C   UNL     1      -0.565  35.321  18.200  1.00  0.00     0.008 C 
ATOM     13  C   UNL     1      -0.209  37.928  19.413  1.00  0.00     0.008 C 
ATOM     14  C   UNL     1      -1.212  35.498  12.755  1.00  0.00     0.017 C 
ATOM     15  C   UNL     1      -3.238  33.856  13.388  1.00  0.00    -0.020 C 
ATOM     16  C   UNL     1      -2.941  33.332  15.906  1.00  0.00     0.032 C 
ATOM     17  C   UNL     1      -3.927  33.264  14.675  1.00  0.00     0.006 C 
ATOM     18  C   UNL     1      -2.274  32.736  12.886  1.00  0.00     0.008 C 
ATOM     19  C   UNL     1      -4.292  34.053  12.275  1.00  0.00     0.012 C 
ATOM     20  C   UNL     1      -4.594  31.802  14.638  1.00  0.00    -0.025 C 
ATOM     21  C   UNL     1      -2.794  31.284  12.930  1.00  0.00     0.005 C 
ATOM     22  C   UNL     1      -3.514  30.764  14.183  1.00  0.00     0.003 C 
ATOM     23  C   UNL     1      -5.767  31.649  13.643  1.00  0.00     0.010 C 
ATOM     24  C   UNL     1      -5.170  31.501  16.078  1.00  0.00     0.012 C 
ATOM     25  C   UNL     1      -4.016  29.242  14.097  1.00  0.00    -0.006 C 
ATOM     26  C   UNL     1      -6.404  30.263  13.759  1.00  0.00     0.033 C 
ATOM     27  C   UNL     1      -5.466  29.072  13.505  1.00  0.00     0.120 C 
ATOM     28  C   UNL     1      -3.837  28.582  15.501  1.00  0.00     0.014 C 
ATOM     29  C   UNL     1      -3.050  28.412  13.186  1.00  0.00     0.014 C 
ENDROOT
BRANCH   1  30
ATOM     30  C   UNL     1      -3.581  37.875  16.343  1.00  0.00     0.048 C 
ATOM     31  O   UNL     1      -4.098  38.966  16.719  1.00  0.00    -0.550 OA
ATOM     32  O   UNL     1      -4.273  36.694  16.630  1.00  0.00    -0.550 OA
ENDBRANCH   1  30
BRANCH  27  33
ATOM     33  O   UNL     1      -6.048  27.955  14.078  1.00  0.00    -0.393 OA
ATOM     34  H   UNL     1      -5.454  27.648  14.849  1.00  0.00     0.210 HD
ENDBRANCH  27  33
TORSDOF 2
ENDMDL
MODEL 6
REMARK VINA RESULT:    -4.910      3.750      6.353
REMARK INTER + INTRA:          -5.187
REMARK INTER:                  -5.341
REMARK INTRA:                   0.154
REMARK UNBOUND:                 0.153
REMARK SMILES C[C@@H]1[C@H]2C3=CC[C@@H]4[C@@]5(C)CC[C@H](O)C(C)(C)[C@H]5CC[C@]4(C)[C@@]3(C)CC[C@]2(C(=O)[O-])CC[C@@H]1C
REMARK SMILES IDX 26 1 30 2 25 3 3 4 31 5 24 6 4 7 2 8 32 9 22 10 5 11 1 12
REMARK SMILES IDX 33 13 23 14 20 15 6 16 7 17 19 18 21 19 8 20 18 21 17 22
REMARK SMILES IDX 10 23 9 24 14 25 11 26 12 27 15 28 16 29 27 30 28 31 29 32
REMARK SMILES IDX 13 33
REMARK H PARENT 13 34
REMARK Flexibility Score: inf
ROOT
ATOM      1  C   UNL     1      -3.444  41.594  12.162  1.00  0.00     0.017 C 
ATOM      2  C   UNL     1      -3.255  42.451  10.878  1.00  0.00     0.014 C 
ATOM      3  C   UNL     1      -4.346  40.388  11.849  1.00  0.00     0.014 C 
ATOM      4  C   UNL     1      -1.979  41.165  12.665  1.00  0.00     0.030 C 
ATOM      5  C   UNL     1      -1.943  43.302  10.875  1.00  0.00     0.004 C 
ATOM      6  C   UNL     1      -4.393  39.375  13.026  1.00  0.00     0.013 C 
ATOM      7  C   UNL     1      -2.009  39.895  13.508  1.00  0.00    -0.063 C 
ATOM      8  C   UNL     1      -1.295  42.522  13.226  1.00  0.00    -0.003 C 
ATOM      9  C   UNL     1      -1.565  43.755  12.281  1.00  0.00    -0.011 C 
ATOM     10  C   UNL     1      -2.999  38.746  13.326  1.00  0.00    -0.006 C 
ATOM     11  C   UNL     1      -1.050  39.677  14.393  1.00  0.00    -0.027 C 
ATOM     12  C   UNL     1       0.162  42.394  13.767  1.00  0.00     0.008 C 
ATOM     13  C   UNL     1      -0.409  44.765  12.203  1.00  0.00     0.008 C 
ATOM     14  C   UNL     1      -2.534  37.932  12.061  1.00  0.00     0.017 C 
ATOM     15  C   UNL     1      -3.025  37.765  14.694  1.00  0.00    -0.020 C 
ATOM     16  C   UNL     1      -1.557  39.596  15.787  1.00  0.00     0.032 C 
ATOM     17  C   UNL     1      -2.759  38.597  16.005  1.00  0.00     0.006 C 
ATOM     18  C   UNL     1      -1.909  36.673  14.669  1.00  0.00     0.008 C 
ATOM     19  C   UNL     1      -4.369  37.011  14.817  1.00  0.00     0.012 C 
ATOM     20  C   UNL     1      -2.551  37.850  17.412  1.00  0.00    -0.025 C 
ATOM     21  C   UNL     1      -1.561  35.987  16.006  1.00  0.00     0.005 C 
ATOM     22  C   UNL     1      -1.370  36.832  17.275  1.00  0.00     0.003 C 
ATOM     23  C   UNL     1      -3.764  37.020  17.893  1.00  0.00     0.010 C 
ATOM     24  C   UNL     1      -2.287  38.956  18.509  1.00  0.00     0.012 C 
ATOM     25  C   UNL     1      -1.023  35.997  18.602  1.00  0.00    -0.006 C 
ATOM     26  C   UNL     1      -3.511  36.440  19.286  1.00  0.00     0.033 C 
ATOM     27  C   UNL     1      -2.285  35.523  19.416  1.00  0.00     0.120 C 
ATOM     28  C   UNL     1      -0.008  36.824  19.454  1.00  0.00     0.014 C 
ATOM     29  C   UNL     1      -0.211  34.712  18.227  1.00  0.00     0.014 C 
ENDROOT
BRANCH   1  30
ATOM     30  C   UNL     1      -4.173  42.409  13.243  1.00  0.00     0.048 C 
ATOM     31  O   UNL     1      -4.919  43.392  12.963  1.00  0.00    -0.550 OA
ATOM     32  O   UNL     1      -4.069  42.034  14.586  1.00  0.00    -0.550 OA
ENDBRANCH   1  30
BRANCH  27  33
ATOM     33  O   UNL     1      -1.948  35.466  20.757  1.00  0.00    -0.393 OA
ATOM     34  H   UNL     1      -2.631  36.016  21.279  1.00  0.00     0.210 HD
ENDBRANCH  27  33
TORSDOF 2
ENDMDL
MODEL 7
REMARK VINA RESULT:    -4.897      1.876      8.138
REMARK INTER + INTRA:          -5.173
REMARK INTER:                  -5.326
REMARK INTRA:                   0.153
REMARK UNBOUND:                 0.153
REMARK SMILES C[C@@H]1[C@H]2C3=CC[C@@H]4[C@@]5(C)CC[C@H](O)C(C)(C)[C@H]5CC[C@]4(C)[C@@]3(C)CC[C@]2(C(=O)[O-])CC[C@@H]1C
REMARK SMILES IDX 26 1 30 2 25 3 3 4 31 5 24 6 4 7 2 8 32 9 22 10 5 11 1 12
REMARK SMILES IDX 33 13 23 14 20 15 6 16 7 17 19 18 21 19 8 20 18 21 17 22
REMARK SMILES IDX 10 23 9 24 14 25 11 26 12 27 15 28 16 29 27 30 28 31 29 32
REMARK SMILES IDX 13 33
REMARK H PARENT 13 34
REMARK Flexibility Score: inf
ROOT
ATOM      1  C   UNL     1      -4.196  39.291  17.928  1.00  0.00     0.017 C 
ATOM      2  C   UNL     1      -4.217  40.497  18.911  1.00  0.00     0.014 C 
ATOM      3  C   UNL     1      -5.018  39.633  16.674  1.00  0.00     0.014 C 
ATOM      4  C   UNL     1      -2.655  38.976  17.599  1.00  0.00     0.030 C 
ATOM      5  C   UNL     1      -2.992  40.542  19.880  1.00  0.00     0.004 C 
ATOM      6  C   UNL     1      -4.854  38.563  15.560  1.00  0.00     0.013 C 
ATOM      7  C   UNL     1      -2.487  38.263  16.261  1.00  0.00    -0.063 C 
ATOM      8  C   UNL     1      -2.035  38.353  18.960  1.00  0.00    -0.003 C 
ATOM      9  C   UNL     1      -2.508  39.141  20.240  1.00  0.00    -0.011 C 
ATOM     10  C   UNL     1      -3.388  38.462  15.044  1.00  0.00    -0.006 C 
ATOM     11  C   UNL     1      -1.425  37.500  16.059  1.00  0.00    -0.027 C 
ATOM     12  C   UNL     1      -0.524  37.969  18.924  1.00  0.00     0.008 C 
ATOM     13  C   UNL     1      -1.459  39.230  21.360  1.00  0.00     0.008 C 
ATOM     14  C   UNL     1      -2.989  39.839  14.394  1.00  0.00     0.017 C 
ATOM     15  C   UNL     1      -3.184  37.200  13.946  1.00  0.00    -0.020 C 
ATOM     16  C   UNL     1      -1.774  36.079  15.805  1.00  0.00     0.032 C 
ATOM     17  C   UNL     1      -2.856  35.845  14.680  1.00  0.00     0.006 C 
ATOM     18  C   UNL     1      -1.988  37.440  12.973  1.00  0.00     0.008 C 
ATOM     19  C   UNL     1      -4.438  37.023  13.059  1.00  0.00     0.012 C 
ATOM     20  C   UNL     1      -2.438  34.545  13.834  1.00  0.00    -0.025 C 
ATOM     21  C   UNL     1      -1.444  36.216  12.207  1.00  0.00     0.005 C 
ATOM     22  C   UNL     1      -1.194  34.895  12.950  1.00  0.00     0.003 C 
ATOM     23  C   UNL     1      -3.517  34.034  12.852  1.00  0.00     0.010 C 
ATOM     24  C   UNL     1      -2.157  33.376  14.858  1.00  0.00     0.012 C 
ATOM     25  C   UNL     1      -0.639  33.696  12.037  1.00  0.00    -0.006 C 
ATOM     26  C   UNL     1      -3.071  32.736  12.177  1.00  0.00     0.033 C 
ATOM     27  C   UNL     1      -1.764  32.815  11.374  1.00  0.00     0.120 C 
ATOM     28  C   UNL     1       0.384  32.868  12.878  1.00  0.00     0.014 C 
ATOM     29  C   UNL     1       0.237  34.272  10.875  1.00  0.00     0.014 C 
ENDROOT
BRANCH   1  30
ATOM     30  C   UNL     1      -4.875  38.071  18.570  1.00  0.00     0.048 C 
ATOM     31  O   UNL     1      -5.772  38.182  19.456  1.00  0.00    -0.550 OA
ATOM     32  O   UNL     1      -4.549  36.783  18.133  1.00  0.00    -0.550 OA
ENDBRANCH   1  30
BRANCH  27  33
ATOM     33  O   UNL     1      -1.285  31.524  11.230  1.00  0.00    -0.393 OA
ATOM     34  H   UNL     1      -1.621  30.971  12.018  1.00  0.00     0.210 HD
ENDBRANCH  27  33
TORSDOF 2
ENDMDL
MODEL 8
REMARK VINA RESULT:    -4.888      2.252      3.927
REMARK INTER + INTRA:          -5.163
REMARK INTER:                  -5.340
REMARK INTRA:                   0.176
REMARK UNBOUND:                 0.153
REMARK SMILES C[C@@H]1[C@H]2C3=CC[C@@H]4[C@@]5(C)CC[C@H](O)C(C)(C)[C@H]5CC[C@]4(C)[C@@]3(C)CC[C@]2(C(=O)[O-])CC[C@@H]1C
REMARK SMILES IDX 26 1 30 2 25 3 3 4 31 5 24 6 4 7 2 8 32 9 22 10 5 11 1 12
REMARK SMILES IDX 33 13 23 14 20 15 6 16 7 17 19 18 21 19 8 20 18 21 17 22
REMARK SMILES IDX 10 23 9 24 14 25 11 26 12 27 15 28 16 29 27 30 28 31 29 32
REMARK SMILES IDX 13 33
REMARK H PARENT 13 34
REMARK Flexibility Score: inf
ROOT
ATOM      1  C   UNL     1      -4.336  32.600  12.900  1.00  0.00     0.017 C 
ATOM      2  C   UNL     1      -4.282  31.317  12.022  1.00  0.00     0.014 C 
ATOM      3  C   UNL     1      -5.638  32.609  13.719  1.00  0.00     0.014 C 
ATOM      4  C   UNL     1      -3.019  32.599  13.820  1.00  0.00     0.030 C 
ATOM      5  C   UNL     1      -2.832  30.878  11.635  1.00  0.00     0.004 C 
ATOM      6  C   UNL     1      -5.651  33.745  14.779  1.00  0.00     0.013 C 
ATOM      7  C   UNL     1      -3.206  33.416  15.093  1.00  0.00    -0.063 C 
ATOM      8  C   UNL     1      -1.783  32.893  12.815  1.00  0.00    -0.003 C 
ATOM      9  C   UNL     1      -1.907  32.078  11.471  1.00  0.00    -0.011 C 
ATOM     10  C   UNL     1      -4.526  33.578  15.844  1.00  0.00    -0.006 C 
ATOM     11  C   UNL     1      -2.149  33.941  15.693  1.00  0.00    -0.027 C 
ATOM     12  C   UNL     1      -0.360  32.929  13.452  1.00  0.00     0.008 C 
ATOM     13  C   UNL     1      -0.566  31.618  10.877  1.00  0.00     0.008 C 
ATOM     14  C   UNL     1      -4.777  32.238  16.631  1.00  0.00     0.017 C 
ATOM     15  C   UNL     1      -4.450  34.888  16.900  1.00  0.00    -0.020 C 
ATOM     16  C   UNL     1      -2.193  35.424  15.750  1.00  0.00     0.032 C 
ATOM     17  C   UNL     1      -3.528  36.033  16.332  1.00  0.00     0.006 C 
ATOM     18  C   UNL     1      -3.829  34.508  18.281  1.00  0.00     0.008 C 
ATOM     19  C   UNL     1      -5.858  35.450  17.197  1.00  0.00     0.012 C 
ATOM     20  C   UNL     1      -3.153  37.300  17.245  1.00  0.00    -0.025 C 
ATOM     21  C   UNL     1      -3.331  35.664  19.174  1.00  0.00     0.005 C 
ATOM     22  C   UNL     1      -2.484  36.793  18.566  1.00  0.00     0.003 C 
ATOM     23  C   UNL     1      -4.359  38.159  17.691  1.00  0.00     0.010 C 
ATOM     24  C   UNL     1      -2.209  38.240  16.398  1.00  0.00     0.012 C 
ATOM     25  C   UNL     1      -2.040  37.940  19.598  1.00  0.00    -0.006 C 
ATOM     26  C   UNL     1      -3.895  39.397  18.460  1.00  0.00     0.033 C 
ATOM     27  C   UNL     1      -3.068  39.126  19.727  1.00  0.00     0.120 C 
ATOM     28  C   UNL     1      -0.596  38.406  19.227  1.00  0.00     0.014 C 
ATOM     29  C   UNL     1      -1.862  37.331  21.029  1.00  0.00     0.014 C 
ENDROOT
BRANCH   1  30
ATOM     30  C   UNL     1      -4.377  33.852  12.009  1.00  0.00     0.048 C 
ATOM     31  O   UNL     1      -4.967  33.870  10.890  1.00  0.00    -0.550 OA
ATOM     32  O   UNL     1      -3.798  35.043  12.458  1.00  0.00    -0.550 OA
ENDBRANCH   1  30
BRANCH  27  33
ATOM     33  O   UNL     1      -2.370  40.284  20.023  1.00  0.00    -0.393 OA
ATOM     34  H   UNL     1      -3.043  40.999  20.301  1.00  0.00     0.210 HD
ENDBRANCH  27  33
TORSDOF 2
ENDMDL
