MODEL 1
REMARK VINA RESULT:    -6.030      0.000      0.000
REMARK INTER + INTRA:          -7.589
REMARK INTER:                  -7.264
REMARK INTRA:                  -0.326
REMARK UNBOUND:                -0.326
REMARK SMILES O=c1c(O)c(-c2ccc(O)c(O)c2)oc2cc(O)cc(O)c12
REMARK SMILES IDX 5 1 3 2 2 3 1 4 22 5 20 6 19 7 17 8 16 9 15 10 14 11 6 12
REMARK SMILES IDX 7 13 8 14 9 15 13 16 11 17 10 18 12 20 4 22 21 24 18 26
REMARK H PARENT 10 19 12 21 4 23 21 25 18 27
REMARK Flexibility Score: inf
ROOT
ATOM      1  C   UNL     1      14.504  -4.083  25.323  1.00  0.00     0.180 A 
ATOM      2  C   UNL     1      13.148  -3.793  25.554  1.00  0.00     0.208 A 
ATOM      3  C   UNL     1      12.554  -2.721  24.869  1.00  0.00     0.238 A 
ATOM      4  O   UNL     1      11.326  -2.501  25.039  1.00  0.00    -0.285 OA
ATOM      5  C   UNL     1      13.326  -1.944  23.973  1.00  0.00     0.111 A 
ATOM      6  C   UNL     1      12.838  -0.811  23.256  1.00  0.00     0.134 A 
ATOM      7  C   UNL     1      13.653  -0.195  22.297  1.00  0.00     0.093 A 
ATOM      8  C   UNL     1      14.962  -0.632  22.078  1.00  0.00     0.123 A 
ATOM      9  C   UNL     1      15.468  -1.700  22.817  1.00  0.00     0.094 A 
ATOM     10  C   UNL     1      14.666  -2.356  23.753  1.00  0.00     0.146 A 
ATOM     11  O   UNL     1      15.184  -3.375  24.428  1.00  0.00    -0.452 OA
ENDROOT
BRANCH   1  12
ATOM     12  C   UNL     1      15.206  -5.180  26.027  1.00  0.00     0.025 A 
ATOM     13  C   UNL     1      15.210  -6.468  25.468  1.00  0.00     0.016 A 
ATOM     14  C   UNL     1      15.884  -7.513  26.104  1.00  0.00     0.051 A 
ATOM     15  C   UNL     1      16.576  -7.285  27.298  1.00  0.00     0.157 A 
ATOM     16  C   UNL     1      15.920  -4.949  27.217  1.00  0.00     0.062 A 
ATOM     17  C   UNL     1      16.598  -5.997  27.856  1.00  0.00     0.158 A 
BRANCH  15  18
ATOM     18  O   UNL     1      17.237  -8.349  27.912  1.00  0.00    -0.504 OA
ATOM     19  H   UNL     1      18.156  -8.655  27.614  1.00  0.00     0.293 HD
ENDBRANCH  15  18
BRANCH  17  20
ATOM     20  O   UNL     1      17.298  -5.759  29.038  1.00  0.00    -0.504 OA
ATOM     21  H   UNL     1      17.873  -6.474  29.468  1.00  0.00     0.293 HD
ENDBRANCH  17  20
ENDBRANCH   1  12
BRANCH   2  22
ATOM     22  O   UNL     1      12.399  -4.588  26.427  1.00  0.00    -0.502 OA
ATOM     23  H   UNL     1      11.409  -4.439  26.584  1.00  0.00     0.293 HD
ENDBRANCH   2  22
BRANCH   6  24
ATOM     24  O   UNL     1      11.580  -0.238  23.465  1.00  0.00    -0.507 OA
ATOM     25  H   UNL     1      10.913  -0.031  22.736  1.00  0.00     0.293 HD
ENDBRANCH   6  24
BRANCH   8  26
ATOM     26  O   UNL     1      15.772  -0.004  21.135  1.00  0.00    -0.508 OA
ATOM     27  H   UNL     1      16.272   0.849  21.350  1.00  0.00     0.293 HD
ENDBRANCH   8  26
TORSDOF 6
ENDMDL
MODEL 2
REMARK VINA RESULT:    -6.007      3.847      9.331
REMARK INTER + INTRA:          -7.562
REMARK INTER:                  -7.233
REMARK INTRA:                  -0.329
REMARK UNBOUND:                -0.326
REMARK SMILES O=c1c(O)c(-c2ccc(O)c(O)c2)oc2cc(O)cc(O)c12
REMARK SMILES IDX 5 1 3 2 2 3 1 4 22 5 20 6 19 7 17 8 16 9 15 10 14 11 6 12
REMARK SMILES IDX 7 13 8 14 9 15 13 16 11 17 10 18 12 20 4 22 21 24 18 26
REMARK H PARENT 10 19 12 21 4 23 21 25 18 27
REMARK Flexibility Score: inf
ROOT
ATOM      1  C   UNL     1      11.390   1.140  22.440  1.00  0.00     0.180 A 
ATOM      2  C   UNL     1      12.726   0.764  22.215  1.00  0.00     0.208 A 
ATOM      3  C   UNL     1      13.223  -0.391  22.839  1.00  0.00     0.238 A 
ATOM      4  O   UNL     1      14.403  -0.753  22.591  1.00  0.00    -0.285 OA
ATOM      5  C   UNL     1      12.383  -1.148  23.691  1.00  0.00     0.111 A 
ATOM      6  C   UNL     1      12.793  -2.313  24.406  1.00  0.00     0.134 A 
ATOM      7  C   UNL     1      11.843  -3.057  25.118  1.00  0.00     0.093 A 
ATOM      8  C   UNL     1      10.511  -2.641  25.193  1.00  0.00     0.123 A 
ATOM      9  C   UNL     1      10.115  -1.471  24.548  1.00  0.00     0.094 A 
ATOM     10  C   UNL     1      11.032  -0.728  23.801  1.00  0.00     0.146 A 
ATOM     11  O   UNL     1      10.610   0.374  23.193  1.00  0.00    -0.452 OA
ENDROOT
BRANCH   1  12
ATOM     12  C   UNL     1      10.803   2.359  21.839  1.00  0.00     0.025 A 
ATOM     13  C   UNL     1      10.153   2.272  20.597  1.00  0.00     0.016 A 
ATOM     14  C   UNL     1       9.573   3.405  20.021  1.00  0.00     0.051 A 
ATOM     15  C   UNL     1       9.621   4.637  20.681  1.00  0.00     0.157 A 
ATOM     16  C   UNL     1      10.831   3.594  22.510  1.00  0.00     0.062 A 
ATOM     17  C   UNL     1      10.248   4.732  21.934  1.00  0.00     0.158 A 
BRANCH  15  18
ATOM     18  O   UNL     1       9.035   5.751  20.080  1.00  0.00    -0.504 OA
ATOM     19  H   UNL     1       8.047   5.787  19.861  1.00  0.00     0.293 HD
ENDBRANCH  15  18
BRANCH  17  20
ATOM     20  O   UNL     1      10.287   5.954  22.604  1.00  0.00    -0.504 OA
ATOM     21  H   UNL     1       9.723   6.126  23.429  1.00  0.00     0.293 HD
ENDBRANCH  17  20
ENDBRANCH   1  12
BRANCH   2  22
ATOM     22  O   UNL     1      13.531   1.514  21.352  1.00  0.00    -0.502 OA
ATOM     23  H   UNL     1      14.110   1.086  20.640  1.00  0.00     0.293 HD
ENDBRANCH   2  22
BRANCH   6  24
ATOM     24  O   UNL     1      14.115  -2.763  24.472  1.00  0.00    -0.507 OA
ATOM     25  H   UNL     1      14.441  -3.506  25.072  1.00  0.00     0.293 HD
ENDBRANCH   6  24
BRANCH   8  26
ATOM     26  O   UNL     1       9.577  -3.378  25.916  1.00  0.00    -0.508 OA
ATOM     27  H   UNL     1       9.459  -3.251  26.914  1.00  0.00     0.293 HD
ENDBRANCH   8  26
TORSDOF 6
ENDMDL
MODEL 3
REMARK VINA RESULT:    -5.989      4.033      9.717
REMARK INTER + INTRA:          -7.540
REMARK INTER:                  -7.260
REMARK INTRA:                  -0.280
REMARK UNBOUND:                -0.326
REMARK SMILES O=c1c(O)c(-c2ccc(O)c(O)c2)oc2cc(O)cc(O)c12
REMARK SMILES IDX 5 1 3 2 2 3 1 4 22 5 20 6 19 7 17 8 16 9 15 10 14 11 6 12
REMARK SMILES IDX 7 13 8 14 9 15 13 16 11 17 10 18 12 20 4 22 21 24 18 26
REMARK H PARENT 10 19 12 21 4 23 21 25 18 27
REMARK Flexibility Score: inf
ROOT
ATOM      1  C   UNL     1      11.382   1.399  21.594  1.00  0.00     0.180 A 
ATOM      2  C   UNL     1      12.683   1.339  21.063  1.00  0.00     0.208 A 
ATOM      3  C   UNL     1      13.615   0.461  21.640  1.00  0.00     0.238 A 
ATOM      4  O   UNL     1      14.760   0.372  21.126  1.00  0.00    -0.285 OA
ATOM      5  C   UNL     1      13.239  -0.334  22.750  1.00  0.00     0.111 A 
ATOM      6  C   UNL     1      14.114  -1.227  23.438  1.00  0.00     0.134 A 
ATOM      7  C   UNL     1      13.601  -2.061  24.441  1.00  0.00     0.093 A 
ATOM      8  C   UNL     1      12.259  -1.985  24.823  1.00  0.00     0.123 A 
ATOM      9  C   UNL     1      11.412  -1.073  24.198  1.00  0.00     0.094 A 
ATOM     10  C   UNL     1      11.886  -0.255  23.170  1.00  0.00     0.146 A 
ATOM     11  O   UNL     1      11.043   0.593  22.594  1.00  0.00    -0.452 OA
ENDROOT
BRANCH   1  12
ATOM     12  C   UNL     1      10.353   2.317  21.056  1.00  0.00     0.025 A 
ATOM     13  C   UNL     1      10.418   3.684  21.367  1.00  0.00     0.016 A 
ATOM     14  C   UNL     1       9.469   4.573  20.854  1.00  0.00     0.051 A 
ATOM     15  C   UNL     1       8.452   4.112  20.012  1.00  0.00     0.157 A 
ATOM     16  C   UNL     1       9.342   1.860  20.193  1.00  0.00     0.062 A 
ATOM     17  C   UNL     1       8.389   2.750  19.675  1.00  0.00     0.158 A 
BRANCH  15  18
ATOM     18  O   UNL     1       7.518   5.022  19.517  1.00  0.00    -0.504 OA
ATOM     19  H   UNL     1       7.068   4.896  18.618  1.00  0.00     0.293 HD
ENDBRANCH  15  18
BRANCH  17  20
ATOM     20  O   UNL     1       7.387   2.286  18.825  1.00  0.00    -0.504 OA
ATOM     21  H   UNL     1       6.606   1.742  19.171  1.00  0.00     0.293 HD
ENDBRANCH  17  20
ENDBRANCH   1  12
BRANCH   2  22
ATOM     22  O   UNL     1      13.024   2.116  19.953  1.00  0.00    -0.502 OA
ATOM     23  H   UNL     1      13.111   1.726  19.022  1.00  0.00     0.293 HD
ENDBRANCH   2  22
BRANCH   6  24
ATOM     24  O   UNL     1      15.488  -1.315  23.197  1.00  0.00    -0.507 OA
ATOM     25  H   UNL     1      15.907  -1.815  22.427  1.00  0.00     0.293 HD
ENDBRANCH   6  24
BRANCH   8  26
ATOM     26  O   UNL     1      11.761  -2.806  25.832  1.00  0.00    -0.508 OA
ATOM     27  H   UNL     1      11.263  -3.663  25.621  1.00  0.00     0.293 HD
ENDBRANCH   8  26
TORSDOF 6
ENDMDL
MODEL 4
REMARK VINA RESULT:    -5.909      0.584      1.455
REMARK INTER + INTRA:          -7.443
REMARK INTER:                  -7.129
REMARK INTRA:                  -0.314
REMARK UNBOUND:                -0.326
REMARK SMILES O=c1c(O)c(-c2ccc(O)c(O)c2)oc2cc(O)cc(O)c12
REMARK SMILES IDX 5 1 3 2 2 3 1 4 22 5 20 6 19 7 17 8 16 9 15 10 14 11 6 12
REMARK SMILES IDX 7 13 8 14 9 15 13 16 11 17 10 18 12 20 4 22 21 24 18 26
REMARK H PARENT 10 19 12 21 4 23 21 25 18 27
REMARK Flexibility Score: inf
ROOT
ATOM      1  C   UNL     1      14.520  -4.088  25.318  1.00  0.00     0.180 A 
ATOM      2  C   UNL     1      13.169  -3.817  25.597  1.00  0.00     0.208 A 
ATOM      3  C   UNL     1      12.540  -2.745  24.945  1.00  0.00     0.238 A 
ATOM      4  O   UNL     1      11.316  -2.542  25.157  1.00  0.00    -0.285 OA
ATOM      5  C   UNL     1      13.274  -1.948  24.033  1.00  0.00     0.111 A 
ATOM      6  C   UNL     1      12.748  -0.812  23.346  1.00  0.00     0.134 A 
ATOM      7  C   UNL     1      13.525  -0.175  22.370  1.00  0.00     0.093 A 
ATOM      8  C   UNL     1      14.831  -0.593  22.103  1.00  0.00     0.123 A 
ATOM      9  C   UNL     1      15.374  -1.663  22.812  1.00  0.00     0.094 A 
ATOM     10  C   UNL     1      14.611  -2.340  23.766  1.00  0.00     0.146 A 
ATOM     11  O   UNL     1      15.162  -3.361  24.411  1.00  0.00    -0.452 OA
ENDROOT
BRANCH   1  12
ATOM     12  C   UNL     1      15.258  -5.184  25.985  1.00  0.00     0.025 A 
ATOM     13  C   UNL     1      15.989  -4.914  27.153  1.00  0.00     0.016 A 
ATOM     14  C   UNL     1      16.677  -5.937  27.811  1.00  0.00     0.051 A 
ATOM     15  C   UNL     1      16.633  -7.246  27.322  1.00  0.00     0.157 A 
ATOM     16  C   UNL     1      15.199  -6.505  25.507  1.00  0.00     0.062 A 
ATOM     17  C   UNL     1      15.887  -7.534  26.168  1.00  0.00     0.158 A 
BRANCH  15  18
ATOM     18  O   UNL     1      17.331  -8.246  27.999  1.00  0.00    -0.504 OA
ATOM     19  H   UNL     1      17.180  -8.436  28.982  1.00  0.00     0.293 HD
ENDBRANCH  15  18
BRANCH  17  20
ATOM     20  O   UNL     1      15.827  -8.839  25.683  1.00  0.00    -0.504 OA
ATOM     21  H   UNL     1      15.378  -9.059  24.801  1.00  0.00     0.293 HD
ENDBRANCH  17  20
ENDBRANCH   1  12
BRANCH   2  22
ATOM     22  O   UNL     1      12.458  -4.632  26.483  1.00  0.00    -0.502 OA
ATOM     23  H   UNL     1      12.199  -5.585  26.256  1.00  0.00     0.293 HD
ENDBRANCH   2  22
BRANCH   6  24
ATOM     24  O   UNL     1      11.491  -0.258  23.603  1.00  0.00    -0.507 OA
ATOM     25  H   UNL     1      11.250   0.712  23.464  1.00  0.00     0.293 HD
ENDBRANCH   6  24
BRANCH   8  26
ATOM     26  O   UNL     1      15.602   0.056  21.142  1.00  0.00    -0.508 OA
ATOM     27  H   UNL     1      15.355   0.976  20.797  1.00  0.00     0.293 HD
ENDBRANCH   8  26
TORSDOF 6
ENDMDL
MODEL 5
REMARK VINA RESULT:    -5.836      1.693      2.573
REMARK INTER + INTRA:          -7.356
REMARK INTER:                  -7.407
REMARK INTRA:                   0.051
REMARK UNBOUND:                -0.326
REMARK SMILES O=c1c(O)c(-c2ccc(O)c(O)c2)oc2cc(O)cc(O)c12
REMARK SMILES IDX 5 1 3 2 2 3 1 4 22 5 20 6 19 7 17 8 16 9 15 10 14 11 6 12
REMARK SMILES IDX 7 13 8 14 9 15 13 16 11 17 10 18 12 20 4 22 21 24 18 26
REMARK H PARENT 10 19 12 21 4 23 21 25 18 27
REMARK Flexibility Score: inf
ROOT
ATOM      1  C   UNL     1      13.338  -3.119  24.495  1.00  0.00     0.180 A 
ATOM      2  C   UNL     1      12.277  -2.239  24.773  1.00  0.00     0.208 A 
ATOM      3  C   UNL     1      12.176  -1.044  24.044  1.00  0.00     0.238 A 
ATOM      4  O   UNL     1      11.193  -0.286  24.258  1.00  0.00    -0.285 OA
ATOM      5  C   UNL     1      13.144  -0.736  23.057  1.00  0.00     0.111 A 
ATOM      6  C   UNL     1      13.161   0.465  22.286  1.00  0.00     0.134 A 
ATOM      7  C   UNL     1      14.090   0.607  21.248  1.00  0.00     0.093 A 
ATOM      8  C   UNL     1      15.044  -0.383  20.995  1.00  0.00     0.123 A 
ATOM      9  C   UNL     1      15.073  -1.532  21.782  1.00  0.00     0.094 A 
ATOM     10  C   UNL     1      14.136  -1.717  22.801  1.00  0.00     0.146 A 
ATOM     11  O   UNL     1      14.192  -2.832  23.520  1.00  0.00    -0.452 OA
ENDROOT
BRANCH   1  12
ATOM     12  C   UNL     1      13.527  -4.385  25.239  1.00  0.00     0.025 A 
ATOM     13  C   UNL     1      14.783  -4.680  25.793  1.00  0.00     0.016 A 
ATOM     14  C   UNL     1      14.979  -5.859  26.516  1.00  0.00     0.051 A 
ATOM     15  C   UNL     1      13.921  -6.753  26.711  1.00  0.00     0.157 A 
ATOM     16  C   UNL     1      12.460  -5.275  25.454  1.00  0.00     0.062 A 
ATOM     17  C   UNL     1      12.653  -6.459  26.182  1.00  0.00     0.158 A 
BRANCH  15  18
ATOM     18  O   UNL     1      14.146  -7.923  27.435  1.00  0.00    -0.504 OA
ATOM     19  H   UNL     1      14.042  -8.842  27.021  1.00  0.00     0.293 HD
ENDBRANCH  15  18
BRANCH  17  20
ATOM     20  O   UNL     1      11.591  -7.338  26.384  1.00  0.00    -0.504 OA
ATOM     21  H   UNL     1      10.679  -7.173  25.975  1.00  0.00     0.293 HD
ENDBRANCH  17  20
ENDBRANCH   1  12
BRANCH   2  22
ATOM     22  O   UNL     1      11.321  -2.574  25.735  1.00  0.00    -0.502 OA
ATOM     23  H   UNL     1      11.310  -2.158  26.659  1.00  0.00     0.293 HD
ENDBRANCH   2  22
BRANCH   6  24
ATOM     24  O   UNL     1      12.312   1.552  22.517  1.00  0.00    -0.507 OA
ATOM     25  H   UNL     1      12.285   2.091  23.368  1.00  0.00     0.293 HD
ENDBRANCH   6  24
BRANCH   8  26
ATOM     26  O   UNL     1      15.974  -0.227  19.971  1.00  0.00    -0.508 OA
ATOM     27  H   UNL     1      16.321  -1.020  19.445  1.00  0.00     0.293 HD
ENDBRANCH   8  26
TORSDOF 6
ENDMDL
MODEL 6
REMARK VINA RESULT:    -5.789      4.273      7.265
REMARK INTER + INTRA:          -7.299
REMARK INTER:                  -6.972
REMARK INTRA:                  -0.327
REMARK UNBOUND:                -0.326
REMARK SMILES O=c1c(O)c(-c2ccc(O)c(O)c2)oc2cc(O)cc(O)c12
REMARK SMILES IDX 5 1 3 2 2 3 1 4 22 5 20 6 19 7 17 8 16 9 15 10 14 11 6 12
REMARK SMILES IDX 7 13 8 14 9 15 13 16 11 17 10 18 12 20 4 22 21 24 18 26
REMARK H PARENT 10 19 12 21 4 23 21 25 18 27
REMARK Flexibility Score: inf
ROOT
ATOM      1  C   UNL     1      11.141   0.995  22.456  1.00  0.00     0.180 A 
ATOM      2  C   UNL     1      10.900   0.807  21.084  1.00  0.00     0.208 A 
ATOM      3  C   UNL     1      10.519   1.908  20.302  1.00  0.00     0.238 A 
ATOM      4  O   UNL     1      10.358   1.744  19.064  1.00  0.00    -0.285 OA
ATOM      5  C   UNL     1      10.370   3.181  20.903  1.00  0.00     0.111 A 
ATOM      6  C   UNL     1       9.949   4.358  20.214  1.00  0.00     0.134 A 
ATOM      7  C   UNL     1       9.961   5.590  20.880  1.00  0.00     0.093 A 
ATOM      8  C   UNL     1      10.316   5.676  22.229  1.00  0.00     0.123 A 
ATOM      9  C   UNL     1      10.669   4.523  22.926  1.00  0.00     0.094 A 
ATOM     10  C   UNL     1      10.702   3.286  22.279  1.00  0.00     0.146 A 
ATOM     11  O   UNL     1      11.055   2.214  22.977  1.00  0.00    -0.452 OA
ENDROOT
BRANCH   1  12
ATOM     12  C   UNL     1      11.520  -0.122  23.350  1.00  0.00     0.025 A 
ATOM     13  C   UNL     1      12.878  -0.430  23.534  1.00  0.00     0.016 A 
ATOM     14  C   UNL     1      13.260  -1.466  24.389  1.00  0.00     0.051 A 
ATOM     15  C   UNL     1      12.294  -2.201  25.085  1.00  0.00     0.157 A 
ATOM     16  C   UNL     1      10.552  -0.849  24.067  1.00  0.00     0.062 A 
ATOM     17  C   UNL     1      10.934  -1.889  24.927  1.00  0.00     0.158 A 
BRANCH  15  18
ATOM     18  O   UNL     1      12.705  -3.232  25.930  1.00  0.00    -0.504 OA
ATOM     19  H   UNL     1      13.429  -3.889  25.665  1.00  0.00     0.293 HD
ENDBRANCH  15  18
BRANCH  17  20
ATOM     20  O   UNL     1       9.967  -2.607  25.628  1.00  0.00    -0.504 OA
ATOM     21  H   UNL     1       9.245  -3.133  25.151  1.00  0.00     0.293 HD
ENDBRANCH  17  20
ENDBRANCH   1  12
BRANCH   2  22
ATOM     22  O   UNL     1      11.076  -0.455  20.507  1.00  0.00    -0.502 OA
ATOM     23  H   UNL     1      11.462  -0.579  19.579  1.00  0.00     0.293 HD
ENDBRANCH   2  22
BRANCH   6  24
ATOM     24  O   UNL     1       9.489   4.367  18.894  1.00  0.00    -0.507 OA
ATOM     25  H   UNL     1       9.224   3.546  18.372  1.00  0.00     0.293 HD
ENDBRANCH   6  24
BRANCH   8  26
ATOM     26  O   UNL     1      10.310   6.903  22.888  1.00  0.00    -0.508 OA
ATOM     27  H   UNL     1      10.278   7.778  22.379  1.00  0.00     0.293 HD
ENDBRANCH   8  26
TORSDOF 6
ENDMDL
MODEL 7
REMARK VINA RESULT:    -5.784      5.244      8.375
REMARK INTER + INTRA:          -7.293
REMARK INTER:                  -6.984
REMARK INTRA:                  -0.309
REMARK UNBOUND:                -0.326
REMARK SMILES O=c1c(O)c(-c2ccc(O)c(O)c2)oc2cc(O)cc(O)c12
REMARK SMILES IDX 5 1 3 2 2 3 1 4 22 5 20 6 19 7 17 8 16 9 15 10 14 11 6 12
REMARK SMILES IDX 7 13 8 14 9 15 13 16 11 17 10 18 12 20 4 22 21 24 18 26
REMARK H PARENT 10 19 12 21 4 23 21 25 18 27
REMARK Flexibility Score: inf
ROOT
ATOM      1  C   UNL     1      10.881   2.233  22.022  1.00  0.00     0.180 A 
ATOM      2  C   UNL     1      10.317   2.163  20.736  1.00  0.00     0.208 A 
ATOM      3  C   UNL     1       9.702   3.305  20.198  1.00  0.00     0.238 A 
ATOM      4  O   UNL     1       9.248   3.251  19.025  1.00  0.00    -0.285 OA
ATOM      5  C   UNL     1       9.644   4.497  20.959  1.00  0.00     0.111 A 
ATOM      6  C   UNL     1       9.010   5.702  20.529  1.00  0.00     0.134 A 
ATOM      7  C   UNL     1       9.126   6.860  21.308  1.00  0.00     0.093 A 
ATOM      8  C   UNL     1       9.799   6.840  22.532  1.00  0.00     0.123 A 
ATOM      9  C   UNL     1      10.370   5.653  22.988  1.00  0.00     0.094 A 
ATOM     10  C   UNL     1      10.301   4.491  22.216  1.00  0.00     0.146 A 
ATOM     11  O   UNL     1      10.867   3.385  22.683  1.00  0.00    -0.452 OA
ENDROOT
BRANCH   1  12
ATOM     12  C   UNL     1      11.523   1.066  22.665  1.00  0.00     0.025 A 
ATOM     13  C   UNL     1      10.770   0.248  23.523  1.00  0.00     0.016 A 
ATOM     14  C   UNL     1      11.350  -0.871  24.125  1.00  0.00     0.051 A 
ATOM     15  C   UNL     1      12.685  -1.199  23.869  1.00  0.00     0.157 A 
ATOM     16  C   UNL     1      12.860   0.722  22.394  1.00  0.00     0.062 A 
ATOM     17  C   UNL     1      13.443  -0.403  22.996  1.00  0.00     0.158 A 
BRANCH  15  18
ATOM     18  O   UNL     1      13.238  -2.321  24.487  1.00  0.00    -0.504 OA
ATOM     19  H   UNL     1      12.697  -3.160  24.663  1.00  0.00     0.293 HD
ENDBRANCH  15  18
BRANCH  17  20
ATOM     20  O   UNL     1      14.770  -0.732  22.725  1.00  0.00    -0.504 OA
ATOM     21  H   UNL     1      15.150  -0.681  21.787  1.00  0.00     0.293 HD
ENDBRANCH  17  20
ENDBRANCH   1  12
BRANCH   2  22
ATOM     22  O   UNL     1      10.406   0.982  19.994  1.00  0.00    -0.502 OA
ATOM     23  H   UNL     1      11.041   0.232  20.240  1.00  0.00     0.293 HD
ENDBRANCH   2  22
BRANCH   6  24
ATOM     24  O   UNL     1       8.237   5.806  19.369  1.00  0.00    -0.507 OA
ATOM     25  H   UNL     1       7.314   5.416  19.256  1.00  0.00     0.293 HD
ENDBRANCH   6  24
BRANCH   8  26
ATOM     26  O   UNL     1       9.897   7.992  23.308  1.00  0.00    -0.508 OA
ATOM     27  H   UNL     1       9.550   8.022  24.259  1.00  0.00     0.293 HD
ENDBRANCH   8  26
TORSDOF 6
ENDMDL
MODEL 8
REMARK VINA RESULT:    -5.754      1.487      7.114
REMARK INTER + INTRA:          -7.256
REMARK INTER:                  -6.931
REMARK INTRA:                  -0.326
REMARK UNBOUND:                -0.326
REMARK SMILES O=c1c(O)c(-c2ccc(O)c(O)c2)oc2cc(O)cc(O)c12
REMARK SMILES IDX 5 1 3 2 2 3 1 4 22 5 20 6 19 7 17 8 16 9 15 10 14 11 6 12
REMARK SMILES IDX 7 13 8 14 9 15 13 16 11 17 10 18 12 20 4 22 21 24 18 26
REMARK H PARENT 10 19 12 21 4 23 21 25 18 27
REMARK Flexibility Score: inf
ROOT
ATOM      1  C   UNL     1      14.874  -4.615  25.524  1.00  0.00     0.180 A 
ATOM      2  C   UNL     1      14.727  -5.911  25.000  1.00  0.00     0.208 A 
ATOM      3  C   UNL     1      15.319  -6.990  25.674  1.00  0.00     0.238 A 
ATOM      4  O   UNL     1      15.137  -8.154  25.230  1.00  0.00    -0.285 OA
ATOM      5  C   UNL     1      16.064  -6.759  26.856  1.00  0.00     0.111 A 
ATOM      6  C   UNL     1      16.740  -7.773  27.598  1.00  0.00     0.134 A 
ATOM      7  C   UNL     1      17.337  -7.451  28.823  1.00  0.00     0.093 A 
ATOM      8  C   UNL     1      17.339  -6.137  29.300  1.00  0.00     0.123 A 
ATOM      9  C   UNL     1      16.733  -5.130  28.552  1.00  0.00     0.094 A 
ATOM     10  C   UNL     1      16.098  -5.427  27.345  1.00  0.00     0.146 A 
ATOM     11  O   UNL     1      15.524  -4.439  26.669  1.00  0.00    -0.452 OA
ENDROOT
BRANCH   1  12
ATOM     12  C   UNL     1      14.301  -3.424  24.857  1.00  0.00     0.025 A 
ATOM     13  C   UNL     1      12.997  -3.013  25.176  1.00  0.00     0.016 A 
ATOM     14  C   UNL     1      12.444  -1.881  24.574  1.00  0.00     0.051 A 
ATOM     15  C   UNL     1      13.189  -1.134  23.655  1.00  0.00     0.157 A 
ATOM     16  C   UNL     1      15.055  -2.659  23.949  1.00  0.00     0.062 A 
ATOM     17  C   UNL     1      14.502  -1.521  23.344  1.00  0.00     0.158 A 
BRANCH  15  18
ATOM     18  O   UNL     1      12.609  -0.009  23.068  1.00  0.00    -0.504 OA
ATOM     19  H   UNL     1      12.391   0.824  23.601  1.00  0.00     0.293 HD
ENDBRANCH  15  18
BRANCH  17  20
ATOM     20  O   UNL     1      15.255  -0.772  22.441  1.00  0.00    -0.504 OA
ATOM     21  H   UNL     1      15.214   0.240  22.424  1.00  0.00     0.293 HD
ENDBRANCH  17  20
ENDBRANCH   1  12
BRANCH   2  22
ATOM     22  O   UNL     1      13.968  -6.118  23.844  1.00  0.00    -0.502 OA
ATOM     23  H   UNL     1      14.373  -6.093  22.916  1.00  0.00     0.293 HD
ENDBRANCH   2  22
BRANCH   6  24
ATOM     24  O   UNL     1      16.876  -9.096  27.167  1.00  0.00    -0.507 OA
ATOM     25  H   UNL     1      16.122  -9.670  26.822  1.00  0.00     0.293 HD
ENDBRANCH   6  24
BRANCH   8  26
ATOM     26  O   UNL     1      17.949  -5.822  30.511  1.00  0.00    -0.508 OA
ATOM     27  H   UNL     1      17.935  -4.880  30.883  1.00  0.00     0.293 HD
ENDBRANCH   8  26
TORSDOF 6
ENDMDL
MODEL 9
REMARK VINA RESULT:    -5.726      4.651      9.262
REMARK INTER + INTRA:          -7.224
REMARK INTER:                  -6.957
REMARK INTRA:                  -0.267
REMARK UNBOUND:                -0.326
REMARK SMILES O=c1c(O)c(-c2ccc(O)c(O)c2)oc2cc(O)cc(O)c12
REMARK SMILES IDX 5 1 3 2 2 3 1 4 22 5 20 6 19 7 17 8 16 9 15 10 14 11 6 12
REMARK SMILES IDX 7 13 8 14 9 15 13 16 11 17 10 18 12 20 4 22 21 24 18 26
REMARK H PARENT 10 19 12 21 4 23 21 25 18 27
REMARK Flexibility Score: inf
ROOT
ATOM      1  C   UNL     1      11.424   0.693  21.707  1.00  0.00     0.180 A 
ATOM      2  C   UNL     1      12.467   0.365  22.591  1.00  0.00     0.208 A 
ATOM      3  C   UNL     1      12.341  -0.774  23.401  1.00  0.00     0.238 A 
ATOM      4  O   UNL     1      13.301  -1.094  24.150  1.00  0.00    -0.285 OA
ATOM      5  C   UNL     1      11.167  -1.563  23.330  1.00  0.00     0.111 A 
ATOM      6  C   UNL     1      10.915  -2.715  24.133  1.00  0.00     0.134 A 
ATOM      7  C   UNL     1       9.777  -3.494  23.887  1.00  0.00     0.093 A 
ATOM      8  C   UNL     1       8.849  -3.125  22.910  1.00  0.00     0.123 A 
ATOM      9  C   UNL     1       9.057  -1.968  22.162  1.00  0.00     0.094 A 
ATOM     10  C   UNL     1      10.200  -1.191  22.360  1.00  0.00     0.146 A 
ATOM     11  O   UNL     1      10.364  -0.103  21.618  1.00  0.00    -0.452 OA
ENDROOT
BRANCH   1  12
ATOM     12  C   UNL     1      11.473   1.892  20.841  1.00  0.00     0.025 A 
ATOM     13  C   UNL     1      10.751   3.039  21.207  1.00  0.00     0.016 A 
ATOM     14  C   UNL     1      10.798   4.189  20.415  1.00  0.00     0.051 A 
ATOM     15  C   UNL     1      11.579   4.215  19.255  1.00  0.00     0.157 A 
ATOM     16  C   UNL     1      12.273   1.929  19.685  1.00  0.00     0.062 A 
ATOM     17  C   UNL     1      12.324   3.083  18.889  1.00  0.00     0.158 A 
BRANCH  15  18
ATOM     18  O   UNL     1      11.605   5.377  18.482  1.00  0.00    -0.504 OA
ATOM     19  H   UNL     1      11.802   6.286  18.884  1.00  0.00     0.293 HD
ENDBRANCH  15  18
BRANCH  17  20
ATOM     20  O   UNL     1      13.115   3.108  17.742  1.00  0.00    -0.504 OA
ATOM     21  H   UNL     1      13.225   3.950  17.190  1.00  0.00     0.293 HD
ENDBRANCH  17  20
ENDBRANCH   1  12
BRANCH   2  22
ATOM     22  O   UNL     1      13.627   1.145  22.628  1.00  0.00    -0.502 OA
ATOM     23  H   UNL     1      14.555   0.739  22.625  1.00  0.00     0.293 HD
ENDBRANCH   2  22
BRANCH   6  24
ATOM     24  O   UNL     1      11.730  -3.119  25.195  1.00  0.00    -0.507 OA
ATOM     25  H   UNL     1      12.735  -3.189  25.155  1.00  0.00     0.293 HD
ENDBRANCH   6  24
BRANCH   8  26
ATOM     26  O   UNL     1       7.712  -3.896  22.682  1.00  0.00    -0.508 OA
ATOM     27  H   UNL     1       7.151  -4.251  23.447  1.00  0.00     0.293 HD
ENDBRANCH   8  26
TORSDOF 6
ENDMDL
