MODEL 1
REMARK VINA RESULT:    -3.897      0.000      0.000
REMARK INTER + INTRA:          -3.897
REMARK INTER:                  -3.897
REMARK INTRA:                   0.000
REMARK UNBOUND:                 0.000
REMARK SMILES C=C1CC[C@@H]2C[C@H]1C2(C)C
REMARK SMILES IDX 9 1 8 2 5 3 4 4 3 5 2 6 1 7 7 8 6 9 10 10
REMARK H PARENT
REMARK Flexibility Score: inf
ROOT
ATOM      1  C   UNL     1     133.601 136.718 128.608  1.00  0.00     0.012 C 
ATOM      2  C   UNL     1     133.979 135.393 129.322  1.00  0.00    -0.026 C 
ATOM      3  C   UNL     1     132.966 134.769 130.316  1.00  0.00    -0.004 C 
ATOM      4  C   UNL     1     132.214 135.877 131.121  1.00  0.00     0.008 C 
ATOM      5  C   UNL     1     133.198 136.914 131.786  1.00  0.00     0.031 C 
ATOM      6  C   UNL     1     134.655 136.697 131.353  1.00  0.00    -0.074 C 
ATOM      7  C   UNL     1     135.619 137.557 131.696  1.00  0.00     0.008 C 
ATOM      8  C   UNL     1     134.955 135.454 130.520  1.00  0.00     0.021 C 
ATOM      9  C   UNL     1     134.154 134.325 131.187  1.00  0.00     0.012 C 
ATOM     10  C   UNL     1     134.439 134.373 128.250  1.00  0.00     0.012 C 
ENDROOT
TORSDOF 0
ENDMDL
MODEL 2
REMARK VINA RESULT:    -3.882      3.698      4.789
REMARK INTER + INTRA:          -3.882
REMARK INTER:                  -3.882
REMARK INTRA:                   0.000
REMARK UNBOUND:                 0.000
REMARK SMILES C=C1CC[C@@H]2C[C@H]1C2(C)C
REMARK SMILES IDX 9 1 8 2 5 3 4 4 3 5 2 6 1 7 7 8 6 9 10 10
REMARK H PARENT
REMARK Flexibility Score: inf
ROOT
ATOM      1  C   UNL     1     136.668 140.201 128.492  1.00  0.00     0.012 C 
ATOM      2  C   UNL     1     135.352 139.801 129.211  1.00  0.00    -0.026 C 
ATOM      3  C   UNL     1     134.775 140.752 130.290  1.00  0.00    -0.004 C 
ATOM      4  C   UNL     1     135.918 141.422 131.118  1.00  0.00     0.008 C 
ATOM      5  C   UNL     1     136.949 140.372 131.685  1.00  0.00     0.031 C 
ATOM      6  C   UNL     1     136.689 138.954 131.155  1.00  0.00    -0.074 C 
ATOM      7  C   UNL     1     137.536 137.950 131.407  1.00  0.00     0.008 C 
ATOM      8  C   UNL     1     135.420 138.740 130.335  1.00  0.00     0.021 C 
ATOM      9  C   UNL     1     134.326 139.514 131.086  1.00  0.00     0.012 C 
ATOM     10  C   UNL     1     134.297 139.439 128.136  1.00  0.00     0.012 C 
ENDROOT
TORSDOF 0
ENDMDL
MODEL 3
REMARK VINA RESULT:    -3.867      4.723      6.776
REMARK INTER + INTRA:          -3.867
REMARK INTER:                  -3.867
REMARK INTRA:                   0.000
REMARK UNBOUND:                 0.000
REMARK SMILES C=C1CC[C@@H]2C[C@H]1C2(C)C
REMARK SMILES IDX 9 1 8 2 5 3 4 4 3 5 2 6 1 7 7 8 6 9 10 10
REMARK H PARENT
REMARK Flexibility Score: inf
ROOT
ATOM      1  C   UNL     1     140.210 137.009 128.608  1.00  0.00     0.012 C 
ATOM      2  C   UNL     1     139.809 138.339 129.301  1.00  0.00    -0.026 C 
ATOM      3  C   UNL     1     140.765 138.944 130.359  1.00  0.00    -0.004 C 
ATOM      4  C   UNL     1     141.448 137.822 131.206  1.00  0.00     0.008 C 
ATOM      5  C   UNL     1     140.408 136.800 131.804  1.00  0.00     0.031 C 
ATOM      6  C   UNL     1     138.984 137.041 131.280  1.00  0.00    -0.074 C 
ATOM      7  C   UNL     1     137.987 136.195 131.559  1.00  0.00     0.008 C 
ATOM      8  C   UNL     1     138.757 138.290 130.434  1.00  0.00     0.021 C 
ATOM      9  C   UNL     1     139.532 139.404 131.155  1.00  0.00     0.012 C 
ATOM     10  C   UNL     1     139.433 139.368 128.205  1.00  0.00     0.012 C 
ENDROOT
TORSDOF 0
ENDMDL
MODEL 4
REMARK VINA RESULT:    -3.835      5.265      6.772
REMARK INTER + INTRA:          -3.835
REMARK INTER:                  -3.835
REMARK INTRA:                   0.000
REMARK UNBOUND:                 0.000
REMARK SMILES C=C1CC[C@@H]2C[C@H]1C2(C)C
REMARK SMILES IDX 9 1 8 2 5 3 4 4 3 5 2 6 1 7 7 8 6 9 10 10
REMARK H PARENT
REMARK Flexibility Score: inf
ROOT
ATOM      1  C   UNL     1     141.525 137.764 131.250  1.00  0.00     0.012 C 
ATOM      2  C   UNL     1     140.021 138.111 131.412  1.00  0.00    -0.026 C 
ATOM      3  C   UNL     1     139.462 138.348 132.838  1.00  0.00    -0.004 C 
ATOM      4  C   UNL     1     140.135 137.388 133.872  1.00  0.00     0.008 C 
ATOM      5  C   UNL     1     140.088 135.880 133.416  1.00  0.00     0.031 C 
ATOM      6  C   UNL     1     139.545 135.718 131.988  1.00  0.00    -0.074 C 
ATOM      7  C   UNL     1     139.558 134.533 131.368  1.00  0.00     0.008 C 
ATOM      8  C   UNL     1     138.986 136.966 131.311  1.00  0.00     0.021 C 
ATOM      9  C   UNL     1     138.154 137.668 132.397  1.00  0.00     0.012 C 
ATOM     10  C   UNL     1     139.683 139.284 130.457  1.00  0.00     0.012 C 
ENDROOT
TORSDOF 0
ENDMDL
MODEL 5
REMARK VINA RESULT:    -3.829      3.308      4.777
REMARK INTER + INTRA:          -3.829
REMARK INTER:                  -3.829
REMARK INTRA:                   0.000
REMARK UNBOUND:                 0.000
REMARK SMILES C=C1CC[C@@H]2C[C@H]1C2(C)C
REMARK SMILES IDX 9 1 8 2 5 3 4 4 3 5 2 6 1 7 7 8 6 9 10 10
REMARK H PARENT
REMARK Flexibility Score: inf
ROOT
ATOM      1  C   UNL     1     137.681 132.227 131.263  1.00  0.00     0.012 C 
ATOM      2  C   UNL     1     138.030 133.730 131.426  1.00  0.00    -0.026 C 
ATOM      3  C   UNL     1     138.256 134.290 132.854  1.00  0.00    -0.004 C 
ATOM      4  C   UNL     1     137.287 133.620 133.880  1.00  0.00     0.008 C 
ATOM      5  C   UNL     1     135.782 133.668 133.412  1.00  0.00     0.031 C 
ATOM      6  C   UNL     1     135.633 134.210 131.982  1.00  0.00    -0.074 C 
ATOM      7  C   UNL     1     134.453 134.198 131.353  1.00  0.00     0.008 C 
ATOM      8  C   UNL     1     136.887 134.766 131.315  1.00  0.00     0.021 C 
ATOM      9  C   UNL     1     137.581 135.598 132.405  1.00  0.00     0.012 C 
ATOM     10  C   UNL     1     139.210 134.065 130.480  1.00  0.00     0.012 C 
ENDROOT
TORSDOF 0
ENDMDL
MODEL 6
REMARK VINA RESULT:    -3.823      4.877      6.737
REMARK INTER + INTRA:          -3.823
REMARK INTER:                  -3.823
REMARK INTRA:                   0.000
REMARK UNBOUND:                 0.000
REMARK SMILES C=C1CC[C@@H]2C[C@H]1C2(C)C
REMARK SMILES IDX 9 1 8 2 5 3 4 4 3 5 2 6 1 7 7 8 6 9 10 10
REMARK H PARENT
REMARK Flexibility Score: inf
ROOT
ATOM      1  C   UNL     1     137.729 137.536 132.257  1.00  0.00     0.012 C 
ATOM      2  C   UNL     1     139.134 138.053 131.847  1.00  0.00    -0.026 C 
ATOM      3  C   UNL     1     139.877 137.346 130.685  1.00  0.00    -0.004 C 
ATOM      4  C   UNL     1     139.609 135.806 130.701  1.00  0.00     0.008 C 
ATOM      5  C   UNL     1     139.883 135.160 132.112  1.00  0.00     0.031 C 
ATOM      6  C   UNL     1     140.185 136.214 133.188  1.00  0.00    -0.074 C 
ATOM      7  C   UNL     1     140.306 135.879 134.477  1.00  0.00     0.008 C 
ATOM      8  C   UNL     1     140.348 137.657 132.722  1.00  0.00     0.021 C 
ATOM      9  C   UNL     1     141.196 137.569 131.443  1.00  0.00     0.012 C 
ATOM     10  C   UNL     1     139.049 139.585 131.632  1.00  0.00     0.012 C 
ENDROOT
TORSDOF 0
ENDMDL
MODEL 7
REMARK VINA RESULT:    -3.809      1.126      2.246
REMARK INTER + INTRA:          -3.809
REMARK INTER:                  -3.809
REMARK INTRA:                   0.000
REMARK UNBOUND:                 0.000
REMARK SMILES C=C1CC[C@@H]2C[C@H]1C2(C)C
REMARK SMILES IDX 9 1 8 2 5 3 4 4 3 5 2 6 1 7 7 8 6 9 10 10
REMARK H PARENT
REMARK Flexibility Score: inf
ROOT
ATOM      1  C   UNL     1     135.837 134.850 128.974  1.00  0.00     0.012 C 
ATOM      2  C   UNL     1     134.309 134.875 129.240  1.00  0.00    -0.026 C 
ATOM      3  C   UNL     1     133.653 136.205 129.689  1.00  0.00    -0.004 C 
ATOM      4  C   UNL     1     134.602 137.007 130.637  1.00  0.00     0.008 C 
ATOM      5  C   UNL     1     135.141 136.132 131.833  1.00  0.00     0.031 C 
ATOM      6  C   UNL     1     134.748 134.653 131.698  1.00  0.00    -0.074 C 
ATOM      7  C   UNL     1     135.227 133.726 132.534  1.00  0.00     0.008 C 
ATOM      8  C   UNL     1     133.784 134.289 130.572  1.00  0.00     0.021 C 
ATOM      9  C   UNL     1     132.713 135.392 130.595  1.00  0.00     0.012 C 
ATOM     10  C   UNL     1     133.588 134.260 128.013  1.00  0.00     0.012 C 
ENDROOT
TORSDOF 0
ENDMDL
MODEL 8
REMARK VINA RESULT:    -3.796      3.955      5.277
REMARK INTER + INTRA:          -3.796
REMARK INTER:                  -3.796
REMARK INTRA:                   0.000
REMARK UNBOUND:                 0.000
REMARK SMILES C=C1CC[C@@H]2C[C@H]1C2(C)C
REMARK SMILES IDX 9 1 8 2 5 3 4 4 3 5 2 6 1 7 7 8 6 9 10 10
REMARK H PARENT
REMARK Flexibility Score: inf
ROOT
ATOM      1  C   UNL     1     135.964 141.499 131.250  1.00  0.00     0.012 C 
ATOM      2  C   UNL     1     135.656 139.981 131.352  1.00  0.00    -0.026 C 
ATOM      3  C   UNL     1     135.451 139.356 132.756  1.00  0.00    -0.004 C 
ATOM      4  C   UNL     1     136.405 140.011 133.806  1.00  0.00     0.008 C 
ATOM      5  C   UNL     1     137.908 140.022 133.333  1.00  0.00     0.031 C 
ATOM      6  C   UNL     1     138.068 139.544 131.882  1.00  0.00    -0.074 C 
ATOM      7  C   UNL     1     139.244 139.614 131.251  1.00  0.00     0.008 C 
ATOM      8  C   UNL     1     136.827 138.981 131.196  1.00  0.00     0.021 C 
ATOM      9  C   UNL     1     136.159 138.087 132.252  1.00  0.00     0.012 C 
ATOM     10  C   UNL     1     134.482 139.653 130.396  1.00  0.00     0.012 C 
ENDROOT
TORSDOF 0
ENDMDL
MODEL 9
REMARK VINA RESULT:    -3.738      4.481      6.403
REMARK INTER + INTRA:          -3.738
REMARK INTER:                  -3.738
REMARK INTRA:                   0.000
REMARK UNBOUND:                 0.000
REMARK SMILES C=C1CC[C@@H]2C[C@H]1C2(C)C
REMARK SMILES IDX 9 1 8 2 5 3 4 4 3 5 2 6 1 7 7 8 6 9 10 10
REMARK H PARENT
REMARK Flexibility Score: inf
ROOT
ATOM      1  C   UNL     1     137.831 136.806 130.776  1.00  0.00     0.012 C 
ATOM      2  C   UNL     1     139.296 136.606 131.245  1.00  0.00    -0.026 C 
ATOM      3  C   UNL     1     139.775 137.337 132.525  1.00  0.00    -0.004 C 
ATOM      4  C   UNL     1     139.129 138.756 132.635  1.00  0.00     0.008 C 
ATOM      5  C   UNL     1     139.306 139.605 131.319  1.00  0.00     0.031 C 
ATOM      6  C   UNL     1     139.920 138.785 130.174  1.00  0.00    -0.074 C 
ATOM      7  C   UNL     1     140.021 139.283 128.937  1.00  0.00     0.008 C 
ATOM      8  C   UNL     1     140.416 137.382 130.511  1.00  0.00     0.021 C 
ATOM      9  C   UNL     1     141.146 137.531 131.855  1.00  0.00     0.012 C 
ATOM     10  C   UNL     1     139.588 135.085 131.304  1.00  0.00     0.012 C 
ENDROOT
TORSDOF 0
ENDMDL
