MODEL 1
REMARK VINA RESULT:    -4.634      0.000      0.000
REMARK INTER + INTRA:         -13.430
REMARK INTER:                 -10.052
REMARK INTRA:                  -3.379
REMARK UNBOUND:                -3.379
REMARK SMILES CCCCCCCCCCCCCCCCCCCCCC(=O)[O-]
REMARK SMILES IDX 12 1 11 2 10 3 9 4 8 5 7 6 6 7 5 8 4 9 3 10 2 11 1 12 13 13
REMARK SMILES IDX 14 14 15 15 16 16 17 17 18 18 19 19 20 20 21 21 22 22 23 23
REMARK SMILES IDX 24 24
REMARK H PARENT
REMARK Flexibility Score: inf
ROOT
ATOM      1  C   UNL     1     -54.070  14.878 -28.679  1.00  0.00     0.000 C 
ENDROOT
BRANCH   1   2
ATOM      2  C   UNL     1     -53.182  15.724 -27.748  1.00  0.00     0.000 C 
BRANCH   2   3
ATOM      3  C   UNL     1     -53.532  17.224 -27.692  1.00  0.00     0.000 C 
BRANCH   3   4
ATOM      4  C   UNL     1     -52.616  18.142 -28.524  1.00  0.00    -0.000 C 
BRANCH   4   5
ATOM      5  C   UNL     1     -53.251  18.625 -29.846  1.00  0.00    -0.000 C 
BRANCH   5   6
ATOM      6  C   UNL     1     -52.404  18.257 -31.076  1.00  0.00    -0.000 C 
BRANCH   6   7
ATOM      7  C   UNL     1     -52.642  16.814 -31.554  1.00  0.00    -0.000 C 
BRANCH   7   8
ATOM      8  C   UNL     1     -51.344  15.990 -31.695  1.00  0.00    -0.000 C 
BRANCH   8   9
ATOM      9  C   UNL     1     -50.681  15.710 -30.335  1.00  0.00    -0.000 C 
BRANCH   9  10
ATOM     10  C   UNL     1     -50.002  14.325 -30.290  1.00  0.00    -0.000 C 
BRANCH  10  11
ATOM     11  C   UNL     1     -50.220  13.574 -28.966  1.00  0.00    -0.003 C 
ATOM     12  C   UNL     1     -49.896  12.085 -29.064  1.00  0.00     0.004 C 
ENDBRANCH  10  11
ENDBRANCH   9  10
ENDBRANCH   8   9
ENDBRANCH   7   8
ENDBRANCH   6   7
ENDBRANCH   5   6
ENDBRANCH   4   5
ENDBRANCH   3   4
ENDBRANCH   2   3
ENDBRANCH   1   2
BRANCH   1  13
ATOM     13  C   UNL     1     -54.075  13.386 -28.309  1.00  0.00     0.000 C 
BRANCH  13  14
ATOM     14  C   UNL     1     -53.821  12.471 -29.521  1.00  0.00     0.000 C 
BRANCH  14  15
ATOM     15  C   UNL     1     -53.534  13.203 -30.847  1.00  0.00     0.000 C 
BRANCH  15  16
ATOM     16  C   UNL     1     -52.686  12.414 -31.864  1.00  0.00     0.000 C 
BRANCH  16  17
ATOM     17  C   UNL     1     -52.444  10.937 -31.503  1.00  0.00     0.000 C 
BRANCH  17  18
ATOM     18  C   UNL     1     -51.437  10.250 -32.441  1.00  0.00     0.000 C 
BRANCH  18  19
ATOM     19  C   UNL     1     -51.022   8.851 -31.935  1.00  0.00     0.000 C 
BRANCH  19  20
ATOM     20  C   UNL     1     -50.070   8.105 -32.886  1.00  0.00     0.006 C 
BRANCH  20  21
ATOM     21  C   UNL     1     -48.598   8.471 -32.665  1.00  0.00     0.053 C 
BRANCH  21  22
ATOM     22  C   UNL     1     -48.191   8.170 -31.257  1.00  0.00     0.041 C 
ATOM     23  O   UNL     1     -48.162   6.979 -30.847  1.00  0.00    -0.550 OA
ATOM     24  O   UNL     1     -47.796   9.199 -30.411  1.00  0.00    -0.550 OA
ENDBRANCH  21  22
ENDBRANCH  20  21
ENDBRANCH  19  20
ENDBRANCH  18  19
ENDBRANCH  17  18
ENDBRANCH  16  17
ENDBRANCH  15  16
ENDBRANCH  14  15
ENDBRANCH  13  14
ENDBRANCH   1  13
TORSDOF 20
ENDMDL
MODEL 2
REMARK VINA RESULT:    -4.526      1.085      2.026
REMARK INTER + INTRA:         -13.197
REMARK INTER:                 -10.120
REMARK INTRA:                  -3.077
REMARK UNBOUND:                -3.379
REMARK SMILES CCCCCCCCCCCCCCCCCCCCCC(=O)[O-]
REMARK SMILES IDX 12 1 11 2 10 3 9 4 8 5 7 6 6 7 5 8 4 9 3 10 2 11 1 12 13 13
REMARK SMILES IDX 14 14 15 15 16 16 17 17 18 18 19 19 20 20 21 21 22 22 23 23
REMARK SMILES IDX 24 24
REMARK H PARENT
REMARK Flexibility Score: inf
ROOT
ATOM      1  C   UNL     1     -53.498  13.409 -30.082  1.00  0.00     0.000 C 
ENDROOT
BRANCH   1   2
ATOM      2  C   UNL     1     -54.104  14.531 -29.218  1.00  0.00     0.000 C 
BRANCH   2   3
ATOM      3  C   UNL     1     -53.135  15.179 -28.212  1.00  0.00     0.000 C 
BRANCH   3   4
ATOM      4  C   UNL     1     -53.581  16.548 -27.661  1.00  0.00    -0.000 C 
BRANCH   4   5
ATOM      5  C   UNL     1     -52.625  17.706 -28.018  1.00  0.00    -0.000 C 
BRANCH   5   6
ATOM      6  C   UNL     1     -52.886  18.277 -29.422  1.00  0.00    -0.000 C 
BRANCH   6   7
ATOM      7  C   UNL     1     -51.793  17.893 -30.434  1.00  0.00    -0.000 C 
BRANCH   7   8
ATOM      8  C   UNL     1     -52.271  16.889 -31.506  1.00  0.00    -0.000 C 
BRANCH   8   9
ATOM      9  C   UNL     1     -51.241  15.773 -31.759  1.00  0.00    -0.000 C 
BRANCH   9  10
ATOM     10  C   UNL     1     -50.362  15.498 -30.521  1.00  0.00    -0.000 C 
BRANCH  10  11
ATOM     11  C   UNL     1     -49.820  14.061 -30.457  1.00  0.00    -0.003 C 
ATOM     12  C   UNL     1     -49.905  13.452 -29.059  1.00  0.00     0.004 C 
ENDBRANCH  10  11
ENDBRANCH   9  10
ENDBRANCH   8   9
ENDBRANCH   7   8
ENDBRANCH   6   7
ENDBRANCH   5   6
ENDBRANCH   4   5
ENDBRANCH   3   4
ENDBRANCH   2   3
ENDBRANCH   1   2
BRANCH   1  13
ATOM     13  C   UNL     1     -53.354  12.080 -29.322  1.00  0.00     0.000 C 
BRANCH  13  14
ATOM     14  C   UNL     1     -52.645  10.994 -30.152  1.00  0.00     0.000 C 
BRANCH  14  15
ATOM     15  C   UNL     1     -52.136  11.451 -31.533  1.00  0.00     0.000 C 
BRANCH  15  16
ATOM     16  C   UNL     1     -51.582  10.330 -32.435  1.00  0.00     0.000 C 
BRANCH  16  17
ATOM     17  C   UNL     1     -51.542   8.934 -31.787  1.00  0.00     0.000 C 
BRANCH  17  18
ATOM     18  C   UNL     1     -51.056   7.840 -32.753  1.00  0.00     0.000 C 
BRANCH  18  19
ATOM     19  C   UNL     1     -49.772   7.142 -32.253  1.00  0.00     0.000 C 
BRANCH  19  20
ATOM     20  C   UNL     1     -49.443   7.433 -30.779  1.00  0.00     0.006 C 
BRANCH  20  21
ATOM     21  C   UNL     1     -47.962   7.756 -30.551  1.00  0.00     0.053 C 
BRANCH  21  22
ATOM     22  C   UNL     1     -47.809   9.127 -29.970  1.00  0.00     0.041 C 
ATOM     23  O   UNL     1     -46.667   9.560 -29.663  1.00  0.00    -0.550 OA
ATOM     24  O   UNL     1     -48.922   9.943 -29.813  1.00  0.00    -0.550 OA
ENDBRANCH  21  22
ENDBRANCH  20  21
ENDBRANCH  19  20
ENDBRANCH  18  19
ENDBRANCH  17  18
ENDBRANCH  16  17
ENDBRANCH  15  16
ENDBRANCH  14  15
ENDBRANCH  13  14
ENDBRANCH   1  13
TORSDOF 20
ENDMDL
MODEL 3
REMARK VINA RESULT:    -4.512      1.158      3.883
REMARK INTER + INTRA:         -13.165
REMARK INTER:                 -10.164
REMARK INTRA:                  -3.002
REMARK UNBOUND:                -3.379
REMARK SMILES CCCCCCCCCCCCCCCCCCCCCC(=O)[O-]
REMARK SMILES IDX 12 1 11 2 10 3 9 4 8 5 7 6 6 7 5 8 4 9 3 10 2 11 1 12 13 13
REMARK SMILES IDX 14 14 15 15 16 16 17 17 18 18 19 19 20 20 21 21 22 22 23 23
REMARK SMILES IDX 24 24
REMARK H PARENT
REMARK Flexibility Score: inf
ROOT
ATOM      1  C   UNL     1     -49.640  13.240 -29.354  1.00  0.00     0.000 C 
ENDROOT
BRANCH   1   2
ATOM      2  C   UNL     1     -49.645  14.247 -30.519  1.00  0.00     0.000 C 
BRANCH   2   3
ATOM      3  C   UNL     1     -50.802  15.264 -30.501  1.00  0.00     0.000 C 
BRANCH   3   4
ATOM      4  C   UNL     1     -52.036  14.867 -31.335  1.00  0.00    -0.000 C 
BRANCH   4   5
ATOM      5  C   UNL     1     -53.345  14.799 -30.520  1.00  0.00    -0.000 C 
BRANCH   5   6
ATOM      6  C   UNL     1     -53.122  14.289 -29.086  1.00  0.00    -0.000 C 
BRANCH   6   7
ATOM      7  C   UNL     1     -53.732  15.217 -28.022  1.00  0.00    -0.000 C 
BRANCH   7   8
ATOM      8  C   UNL     1     -52.756  16.302 -27.517  1.00  0.00    -0.000 C 
BRANCH   8   9
ATOM      9  C   UNL     1     -53.459  17.649 -27.269  1.00  0.00    -0.000 C 
BRANCH   9  10
ATOM     10  C   UNL     1     -53.607  18.477 -28.562  1.00  0.00    -0.000 C 
BRANCH  10  11
ATOM     11  C   UNL     1     -52.449  18.282 -29.555  1.00  0.00    -0.003 C 
ATOM     12  C   UNL     1     -52.851  18.558 -31.003  1.00  0.00     0.004 C 
ENDBRANCH  10  11
ENDBRANCH   9  10
ENDBRANCH   8   9
ENDBRANCH   7   8
ENDBRANCH   6   7
ENDBRANCH   5   6
ENDBRANCH   4   5
ENDBRANCH   3   4
ENDBRANCH   2   3
ENDBRANCH   1   2
BRANCH   1  13
ATOM     13  C   UNL     1     -49.760  11.781 -29.824  1.00  0.00     0.000 C 
BRANCH  13  14
ATOM     14  C   UNL     1     -51.222  11.330 -29.997  1.00  0.00     0.000 C 
BRANCH  14  15
ATOM     15  C   UNL     1     -51.705  11.213 -31.457  1.00  0.00     0.000 C 
BRANCH  15  16
ATOM     16  C   UNL     1     -52.648  10.027 -31.745  1.00  0.00     0.000 C 
BRANCH  16  17
ATOM     17  C   UNL     1     -52.105   8.995 -32.751  1.00  0.00     0.000 C 
BRANCH  17  18
ATOM     18  C   UNL     1     -51.250   7.904 -32.084  1.00  0.00     0.000 C 
BRANCH  18  19
ATOM     19  C   UNL     1     -49.790   7.911 -32.587  1.00  0.00     0.000 C 
BRANCH  19  20
ATOM     20  C   UNL     1     -48.902   8.960 -31.895  1.00  0.00     0.006 C 
BRANCH  20  21
ATOM     21  C   UNL     1     -47.542   8.398 -31.465  1.00  0.00     0.053 C 
BRANCH  21  22
ATOM     22  C   UNL     1     -47.430   8.386 -29.972  1.00  0.00     0.041 C 
ATOM     23  O   UNL     1     -47.577   7.309 -29.336  1.00  0.00    -0.550 OA
ATOM     24  O   UNL     1     -47.115   9.553 -29.289  1.00  0.00    -0.550 OA
ENDBRANCH  21  22
ENDBRANCH  20  21
ENDBRANCH  19  20
ENDBRANCH  18  19
ENDBRANCH  17  18
ENDBRANCH  16  17
ENDBRANCH  15  16
ENDBRANCH  14  15
ENDBRANCH  13  14
ENDBRANCH   1  13
TORSDOF 20
ENDMDL
MODEL 4
REMARK VINA RESULT:    -4.492      1.652      2.133
REMARK INTER + INTRA:         -13.124
REMARK INTER:                  -9.590
REMARK INTRA:                  -3.534
REMARK UNBOUND:                -3.379
REMARK SMILES CCCCCCCCCCCCCCCCCCCCCC(=O)[O-]
REMARK SMILES IDX 12 1 11 2 10 3 9 4 8 5 7 6 6 7 5 8 4 9 3 10 2 11 1 12 13 13
REMARK SMILES IDX 14 14 15 15 16 16 17 17 18 18 19 19 20 20 21 21 22 22 23 23
REMARK SMILES IDX 24 24
REMARK H PARENT
REMARK Flexibility Score: inf
ROOT
ATOM      1  C   UNL     1     -53.860  14.247 -29.197  1.00  0.00     0.000 C 
ENDROOT
BRANCH   1   2
ATOM      2  C   UNL     1     -53.799  15.198 -27.987  1.00  0.00     0.000 C 
BRANCH   2   3
ATOM      3  C   UNL     1     -52.599  16.163 -27.970  1.00  0.00     0.000 C 
BRANCH   3   4
ATOM      4  C   UNL     1     -52.760  17.426 -28.838  1.00  0.00    -0.000 C 
BRANCH   4   5
ATOM      5  C   UNL     1     -51.774  17.498 -30.024  1.00  0.00    -0.000 C 
BRANCH   5   6
ATOM      6  C   UNL     1     -52.282  16.739 -31.261  1.00  0.00    -0.000 C 
BRANCH   6   7
ATOM      7  C   UNL     1     -51.396  15.537 -31.629  1.00  0.00    -0.000 C 
BRANCH   7   8
ATOM      8  C   UNL     1     -50.127  15.417 -30.757  1.00  0.00    -0.000 C 
BRANCH   8   9
ATOM      9  C   UNL     1     -49.840  13.963 -30.342  1.00  0.00    -0.000 C 
BRANCH   9  10
ATOM     10  C   UNL     1     -50.219  13.689 -28.872  1.00  0.00    -0.000 C 
BRANCH  10  11
ATOM     11  C   UNL     1     -49.899  12.259 -28.408  1.00  0.00    -0.003 C 
ATOM     12  C   UNL     1     -48.630  11.694 -29.044  1.00  0.00     0.004 C 
ENDBRANCH  10  11
ENDBRANCH   9  10
ENDBRANCH   8   9
ENDBRANCH   7   8
ENDBRANCH   6   7
ENDBRANCH   5   6
ENDBRANCH   4   5
ENDBRANCH   3   4
ENDBRANCH   2   3
ENDBRANCH   1   2
BRANCH   1  13
ATOM     13  C   UNL     1     -54.123  12.786 -28.798  1.00  0.00     0.000 C 
BRANCH  13  14
ATOM     14  C   UNL     1     -53.309  11.784 -29.638  1.00  0.00     0.000 C 
BRANCH  14  15
ATOM     15  C   UNL     1     -52.971  12.249 -31.068  1.00  0.00     0.000 C 
BRANCH  15  16
ATOM     16  C   UNL     1     -52.344  11.175 -31.979  1.00  0.00     0.000 C 
BRANCH  16  17
ATOM     17  C   UNL     1     -51.202  10.365 -31.338  1.00  0.00     0.000 C 
BRANCH  17  18
ATOM     18  C   UNL     1     -49.939  10.315 -32.217  1.00  0.00     0.000 C 
BRANCH  18  19
ATOM     19  C   UNL     1     -49.124   9.021 -32.002  1.00  0.00     0.000 C 
BRANCH  19  20
ATOM     20  C   UNL     1     -49.375   7.946 -33.073  1.00  0.00     0.006 C 
BRANCH  20  21
ATOM     21  C   UNL     1     -50.112   6.718 -32.525  1.00  0.00     0.053 C 
BRANCH  21  22
ATOM     22  C   UNL     1     -51.591   6.949 -32.534  1.00  0.00     0.041 C 
ATOM     23  O   UNL     1     -52.195   7.139 -33.622  1.00  0.00    -0.550 OA
ATOM     24  O   UNL     1     -52.308   6.906 -31.345  1.00  0.00    -0.550 OA
ENDBRANCH  21  22
ENDBRANCH  20  21
ENDBRANCH  19  20
ENDBRANCH  18  19
ENDBRANCH  17  18
ENDBRANCH  16  17
ENDBRANCH  15  16
ENDBRANCH  14  15
ENDBRANCH  13  14
ENDBRANCH   1  13
TORSDOF 20
ENDMDL
MODEL 5
REMARK VINA RESULT:    -4.486      1.347      3.643
REMARK INTER + INTRA:         -13.110
REMARK INTER:                  -9.940
REMARK INTRA:                  -3.170
REMARK UNBOUND:                -3.379
REMARK SMILES CCCCCCCCCCCCCCCCCCCCCC(=O)[O-]
REMARK SMILES IDX 12 1 11 2 10 3 9 4 8 5 7 6 6 7 5 8 4 9 3 10 2 11 1 12 13 13
REMARK SMILES IDX 14 14 15 15 16 16 17 17 18 18 19 19 20 20 21 21 22 22 23 23
REMARK SMILES IDX 24 24
REMARK H PARENT
REMARK Flexibility Score: inf
ROOT
ATOM      1  C   UNL     1     -50.479  11.722 -30.620  1.00  0.00     0.000 C 
ENDROOT
BRANCH   1   2
ATOM      2  C   UNL     1     -50.551  12.394 -29.237  1.00  0.00     0.000 C 
BRANCH   2   3
ATOM      3  C   UNL     1     -50.087  13.863 -29.196  1.00  0.00     0.000 C 
BRANCH   3   4
ATOM      4  C   UNL     1     -49.936  14.541 -30.573  1.00  0.00    -0.000 C 
BRANCH   4   5
ATOM      5  C   UNL     1     -50.490  15.981 -30.623  1.00  0.00    -0.000 C 
BRANCH   5   6
ATOM      6  C   UNL     1     -51.731  16.105 -31.524  1.00  0.00    -0.000 C 
BRANCH   6   7
ATOM      7  C   UNL     1     -52.665  14.886 -31.424  1.00  0.00    -0.000 C 
BRANCH   7   8
ATOM      8  C   UNL     1     -53.869  15.109 -30.483  1.00  0.00    -0.000 C 
BRANCH   8   9
ATOM      9  C   UNL     1     -53.626  14.526 -29.079  1.00  0.00    -0.000 C 
BRANCH   9  10
ATOM     10  C   UNL     1     -53.906  15.554 -27.963  1.00  0.00    -0.000 C 
BRANCH  10  11
ATOM     11  C   UNL     1     -52.657  16.326 -27.508  1.00  0.00    -0.003 C 
ATOM     12  C   UNL     1     -52.585  17.739 -28.082  1.00  0.00     0.004 C 
ENDBRANCH  10  11
ENDBRANCH   9  10
ENDBRANCH   8   9
ENDBRANCH   7   8
ENDBRANCH   6   7
ENDBRANCH   5   6
ENDBRANCH   4   5
ENDBRANCH   3   4
ENDBRANCH   2   3
ENDBRANCH   1   2
BRANCH   1  13
ATOM     13  C   UNL     1     -51.864  11.367 -31.187  1.00  0.00     0.000 C 
BRANCH  13  14
ATOM     14  C   UNL     1     -52.897  11.064 -30.086  1.00  0.00     0.000 C 
BRANCH  14  15
ATOM     15  C   UNL     1     -53.352   9.593 -30.000  1.00  0.00     0.000 C 
BRANCH  15  16
ATOM     16  C   UNL     1     -52.236   8.547 -30.187  1.00  0.00     0.000 C 
BRANCH  16  17
ATOM     17  C   UNL     1     -52.336   7.713 -31.478  1.00  0.00     0.000 C 
BRANCH  17  18
ATOM     18  C   UNL     1     -51.189   7.997 -32.463  1.00  0.00     0.000 C 
BRANCH  18  19
ATOM     19  C   UNL     1     -49.810   7.607 -31.888  1.00  0.00     0.000 C 
BRANCH  19  20
ATOM     20  C   UNL     1     -48.961   8.811 -31.444  1.00  0.00     0.006 C 
BRANCH  20  21
ATOM     21  C   UNL     1     -47.507   8.435 -31.137  1.00  0.00     0.053 C 
BRANCH  21  22
ATOM     22  C   UNL     1     -47.164   8.789 -29.724  1.00  0.00     0.041 C 
ATOM     23  O   UNL     1     -47.376   9.953 -29.293  1.00  0.00    -0.550 OA
ATOM     24  O   UNL     1     -46.654   7.819 -28.869  1.00  0.00    -0.550 OA
ENDBRANCH  21  22
ENDBRANCH  20  21
ENDBRANCH  19  20
ENDBRANCH  18  19
ENDBRANCH  17  18
ENDBRANCH  16  17
ENDBRANCH  15  16
ENDBRANCH  14  15
ENDBRANCH  13  14
ENDBRANCH   1  13
TORSDOF 20
ENDMDL
MODEL 6
REMARK VINA RESULT:    -4.484      2.250      5.733
REMARK INTER + INTRA:         -13.105
REMARK INTER:                 -10.861
REMARK INTRA:                  -2.244
REMARK UNBOUND:                -3.379
REMARK SMILES CCCCCCCCCCCCCCCCCCCCCC(=O)[O-]
REMARK SMILES IDX 12 1 11 2 10 3 9 4 8 5 7 6 6 7 5 8 4 9 3 10 2 11 1 12 13 13
REMARK SMILES IDX 14 14 15 15 16 16 17 17 18 18 19 19 20 20 21 21 22 22 23 23
REMARK SMILES IDX 24 24
REMARK H PARENT
REMARK Flexibility Score: inf
ROOT
ATOM      1  C   UNL     1     -47.372   9.248 -29.695  1.00  0.00     0.000 C 
ENDROOT
BRANCH   1   2
ATOM      2  C   UNL     1     -48.689  10.034 -29.558  1.00  0.00     0.000 C 
BRANCH   2   3
ATOM      3  C   UNL     1     -48.631  11.251 -28.615  1.00  0.00     0.000 C 
BRANCH   3   4
ATOM      4  C   UNL     1     -49.797  12.249 -28.762  1.00  0.00    -0.000 C 
BRANCH   4   5
ATOM      5  C   UNL     1     -49.533  13.370 -29.790  1.00  0.00    -0.000 C 
BRANCH   5   6
ATOM      6  C   UNL     1     -50.567  14.505 -29.704  1.00  0.00    -0.000 C 
BRANCH   6   7
ATOM      7  C   UNL     1     -50.357  15.586 -30.778  1.00  0.00    -0.000 C 
BRANCH   7   8
ATOM      8  C   UNL     1     -51.674  16.203 -31.297  1.00  0.00    -0.000 C 
BRANCH   8   9
ATOM      9  C   UNL     1     -52.665  16.503 -30.159  1.00  0.00    -0.000 C 
BRANCH   9  10
ATOM     10  C   UNL     1     -52.433  17.894 -29.533  1.00  0.00    -0.000 C 
BRANCH  10  11
ATOM     11  C   UNL     1     -52.532  17.904 -27.998  1.00  0.00    -0.003 C 
ATOM     12  C   UNL     1     -52.727  16.511 -27.402  1.00  0.00     0.004 C 
ENDBRANCH  10  11
ENDBRANCH   9  10
ENDBRANCH   8   9
ENDBRANCH   7   8
ENDBRANCH   6   7
ENDBRANCH   5   6
ENDBRANCH   4   5
ENDBRANCH   3   4
ENDBRANCH   2   3
ENDBRANCH   1   2
BRANCH   1  13
ATOM     13  C   UNL     1     -47.405   8.218 -30.836  1.00  0.00     0.000 C 
BRANCH  13  14
ATOM     14  C   UNL     1     -48.385   8.605 -31.959  1.00  0.00     0.000 C 
BRANCH  14  15
ATOM     15  C   UNL     1     -48.712   7.481 -32.962  1.00  0.00     0.000 C 
BRANCH  15  16
ATOM     16  C   UNL     1     -49.919   6.597 -32.588  1.00  0.00     0.000 C 
BRANCH  16  17
ATOM     17  C   UNL     1     -50.873   6.274 -33.753  1.00  0.00     0.000 C 
BRANCH  17  18
ATOM     18  C   UNL     1     -52.198   7.051 -33.672  1.00  0.00     0.000 C 
BRANCH  18  19
ATOM     19  C   UNL     1     -52.236   8.025 -32.474  1.00  0.00     0.000 C 
BRANCH  19  20
ATOM     20  C   UNL     1     -52.318   9.506 -32.883  1.00  0.00     0.006 C 
BRANCH  20  21
ATOM     21  C   UNL     1     -51.565  10.433 -31.922  1.00  0.00     0.053 C 
BRANCH  21  22
ATOM     22  C   UNL     1     -52.501  11.433 -31.319  1.00  0.00     0.041 C 
ATOM     23  O   UNL     1     -53.090  11.176 -30.236  1.00  0.00    -0.550 OA
ATOM     24  O   UNL     1     -52.685  12.668 -31.928  1.00  0.00    -0.550 OA
ENDBRANCH  21  22
ENDBRANCH  20  21
ENDBRANCH  19  20
ENDBRANCH  18  19
ENDBRANCH  17  18
ENDBRANCH  16  17
ENDBRANCH  15  16
ENDBRANCH  14  15
ENDBRANCH  13  14
ENDBRANCH   1  13
TORSDOF 20
ENDMDL
MODEL 7
REMARK VINA RESULT:    -4.423      1.188      5.513
REMARK INTER + INTRA:         -12.973
REMARK INTER:                  -9.798
REMARK INTRA:                  -3.175
REMARK UNBOUND:                -3.379
REMARK SMILES CCCCCCCCCCCCCCCCCCCCCC(=O)[O-]
REMARK SMILES IDX 12 1 11 2 10 3 9 4 8 5 7 6 6 7 5 8 4 9 3 10 2 11 1 12 13 13
REMARK SMILES IDX 14 14 15 15 16 16 17 17 18 18 19 19 20 20 21 21 22 22 23 23
REMARK SMILES IDX 24 24
REMARK H PARENT
REMARK Flexibility Score: inf
ROOT
ATOM      1  C   UNL     1     -52.927  15.675 -27.815  1.00  0.00     0.000 C 
ENDROOT
BRANCH   1   2
ATOM      2  C   UNL     1     -53.769  14.774 -28.738  1.00  0.00     0.000 C 
BRANCH   2   3
ATOM      3  C   UNL     1     -53.761  13.276 -28.379  1.00  0.00     0.000 C 
BRANCH   3   4
ATOM      4  C   UNL     1     -53.696  12.314 -29.582  1.00  0.00    -0.000 C 
BRANCH   4   5
ATOM      5  C   UNL     1     -53.316  13.002 -30.911  1.00  0.00    -0.000 C 
BRANCH   5   6
ATOM      6  C   UNL     1     -52.607  12.047 -31.887  1.00  0.00    -0.000 C 
BRANCH   6   7
ATOM      7  C   UNL     1     -52.852  10.565 -31.555  1.00  0.00    -0.000 C 
BRANCH   7   8
ATOM      8  C   UNL     1     -52.178   9.592 -32.547  1.00  0.00    -0.000 C 
BRANCH   8   9
ATOM      9  C   UNL     1     -51.841   8.238 -31.896  1.00  0.00    -0.000 C 
BRANCH   9  10
ATOM     10  C   UNL     1     -50.465   7.702 -32.342  1.00  0.00    -0.000 C 
BRANCH  10  11
ATOM     11  C   UNL     1     -49.438   8.807 -32.637  1.00  0.00    -0.003 C 
ATOM     12  C   UNL     1     -48.114   8.604 -31.903  1.00  0.00     0.004 C 
ENDBRANCH  10  11
ENDBRANCH   9  10
ENDBRANCH   8   9
ENDBRANCH   7   8
ENDBRANCH   6   7
ENDBRANCH   5   6
ENDBRANCH   4   5
ENDBRANCH   3   4
ENDBRANCH   2   3
ENDBRANCH   1   2
BRANCH   1  13
ATOM     13  C   UNL     1     -53.463  17.113 -27.731  1.00  0.00     0.000 C 
BRANCH  13  14
ATOM     14  C   UNL     1     -52.611  18.114 -28.534  1.00  0.00     0.000 C 
BRANCH  14  15
ATOM     15  C   UNL     1     -53.085  18.369 -29.978  1.00  0.00     0.000 C 
BRANCH  15  16
ATOM     16  C   UNL     1     -52.105  17.925 -31.082  1.00  0.00     0.000 C 
BRANCH  16  17
ATOM     17  C   UNL     1     -52.285  16.475 -31.567  1.00  0.00     0.000 C 
BRANCH  17  18
ATOM     18  C   UNL     1     -50.954  15.708 -31.665  1.00  0.00     0.000 C 
BRANCH  18  19
ATOM     19  C   UNL     1     -50.379  15.349 -30.277  1.00  0.00     0.000 C 
BRANCH  19  20
ATOM     20  C   UNL     1     -49.744  13.949 -30.214  1.00  0.00     0.006 C 
BRANCH  20  21
ATOM     21  C   UNL     1     -50.112  13.184 -28.938  1.00  0.00     0.053 C 
BRANCH  21  22
ATOM     22  C   UNL     1     -49.517  11.811 -28.961  1.00  0.00     0.041 C 
ATOM     23  O   UNL     1     -48.624  11.494 -28.131  1.00  0.00    -0.550 OA
ATOM     24  O   UNL     1     -49.982  10.867 -29.867  1.00  0.00    -0.550 OA
ENDBRANCH  21  22
ENDBRANCH  20  21
ENDBRANCH  19  20
ENDBRANCH  18  19
ENDBRANCH  17  18
ENDBRANCH  16  17
ENDBRANCH  15  16
ENDBRANCH  14  15
ENDBRANCH  13  14
ENDBRANCH   1  13
TORSDOF 20
ENDMDL
MODEL 8
REMARK VINA RESULT:    -4.421      1.345      4.267
REMARK INTER + INTRA:         -12.968
REMARK INTER:                 -10.647
REMARK INTRA:                  -2.322
REMARK UNBOUND:                -3.379
REMARK SMILES CCCCCCCCCCCCCCCCCCCCCC(=O)[O-]
REMARK SMILES IDX 12 1 11 2 10 3 9 4 8 5 7 6 6 7 5 8 4 9 3 10 2 11 1 12 13 13
REMARK SMILES IDX 14 14 15 15 16 16 17 17 18 18 19 19 20 20 21 21 22 22 23 23
REMARK SMILES IDX 24 24
REMARK H PARENT
REMARK Flexibility Score: inf
ROOT
ATOM      1  C   UNL     1     -50.545  11.346 -30.598  1.00  0.00     0.000 C 
ENDROOT
BRANCH   1   2
ATOM      2  C   UNL     1     -49.978  12.754 -30.338  1.00  0.00     0.000 C 
BRANCH   2   3
ATOM      3  C   UNL     1     -50.246  13.319 -28.930  1.00  0.00     0.000 C 
BRANCH   3   4
ATOM      4  C   UNL     1     -51.181  14.543 -28.882  1.00  0.00    -0.000 C 
BRANCH   4   5
ATOM      5  C   UNL     1     -52.679  14.181 -28.787  1.00  0.00    -0.000 C 
BRANCH   5   6
ATOM      6  C   UNL     1     -53.505  15.267 -28.078  1.00  0.00    -0.000 C 
BRANCH   6   7
ATOM      7  C   UNL     1     -52.633  16.387 -27.484  1.00  0.00    -0.000 C 
BRANCH   7   8
ATOM      8  C   UNL     1     -53.296  17.780 -27.541  1.00  0.00    -0.000 C 
BRANCH   8   9
ATOM      9  C   UNL     1     -53.347  18.343 -28.973  1.00  0.00    -0.000 C 
BRANCH   9  10
ATOM     10  C   UNL     1     -52.072  18.011 -29.777  1.00  0.00    -0.000 C 
BRANCH  10  11
ATOM     11  C   UNL     1     -52.353  17.349 -31.135  1.00  0.00    -0.003 C 
ATOM     12  C   UNL     1     -53.838  17.080 -31.373  1.00  0.00     0.004 C 
ENDBRANCH  10  11
ENDBRANCH   9  10
ENDBRANCH   8   9
ENDBRANCH   7   8
ENDBRANCH   6   7
ENDBRANCH   5   6
ENDBRANCH   4   5
ENDBRANCH   3   4
ENDBRANCH   2   3
ENDBRANCH   1   2
BRANCH   1  13
ATOM     13  C   UNL     1     -51.773  11.356 -31.524  1.00  0.00     0.000 C 
BRANCH  13  14
ATOM     14  C   UNL     1     -51.896  10.072 -32.363  1.00  0.00     0.000 C 
BRANCH  14  15
ATOM     15  C   UNL     1     -52.132   8.780 -31.556  1.00  0.00     0.000 C 
BRANCH  15  16
ATOM     16  C   UNL     1     -52.299   7.499 -32.397  1.00  0.00     0.000 C 
BRANCH  16  17
ATOM     17  C   UNL     1     -51.092   6.543 -32.373  1.00  0.00     0.000 C 
BRANCH  17  18
ATOM     18  C   UNL     1     -50.210   6.664 -33.628  1.00  0.00     0.000 C 
BRANCH  18  19
ATOM     19  C   UNL     1     -48.856   7.346 -33.332  1.00  0.00     0.000 C 
BRANCH  19  20
ATOM     20  C   UNL     1     -48.436   7.272 -31.854  1.00  0.00     0.006 C 
BRANCH  20  21
ATOM     21  C   UNL     1     -48.093   8.643 -31.261  1.00  0.00     0.053 C 
BRANCH  21  22
ATOM     22  C   UNL     1     -47.180   8.492 -30.086  1.00  0.00     0.041 C 
ATOM     23  O   UNL     1     -46.490   9.468 -29.690  1.00  0.00    -0.550 OA
ATOM     24  O   UNL     1     -47.127   7.286 -29.398  1.00  0.00    -0.550 OA
ENDBRANCH  21  22
ENDBRANCH  20  21
ENDBRANCH  19  20
ENDBRANCH  18  19
ENDBRANCH  17  18
ENDBRANCH  16  17
ENDBRANCH  15  16
ENDBRANCH  14  15
ENDBRANCH  13  14
ENDBRANCH   1  13
TORSDOF 20
ENDMDL
MODEL 9
REMARK VINA RESULT:    -4.419      1.493      3.822
REMARK INTER + INTRA:         -12.965
REMARK INTER:                 -10.401
REMARK INTRA:                  -2.565
REMARK UNBOUND:                -3.379
REMARK SMILES CCCCCCCCCCCCCCCCCCCCCC(=O)[O-]
REMARK SMILES IDX 12 1 11 2 10 3 9 4 8 5 7 6 6 7 5 8 4 9 3 10 2 11 1 12 13 13
REMARK SMILES IDX 14 14 15 15 16 16 17 17 18 18 19 19 20 20 21 21 22 22 23 23
REMARK SMILES IDX 24 24
REMARK H PARENT
REMARK Flexibility Score: inf
ROOT
ATOM      1  C   UNL     1     -49.803  11.742 -29.276  1.00  0.00     0.000 C 
ENDROOT
BRANCH   1   2
ATOM      2  C   UNL     1     -50.965  12.661 -28.857  1.00  0.00     0.000 C 
BRANCH   2   3
ATOM      3  C   UNL     1     -50.739  14.163 -29.114  1.00  0.00     0.000 C 
BRANCH   3   4
ATOM      4  C   UNL     1     -49.852  14.494 -30.330  1.00  0.00    -0.000 C 
BRANCH   4   5
ATOM      5  C   UNL     1     -50.421  15.611 -31.232  1.00  0.00    -0.000 C 
BRANCH   5   6
ATOM      6  C   UNL     1     -51.957  15.594 -31.294  1.00  0.00    -0.000 C 
BRANCH   6   7
ATOM      7  C   UNL     1     -52.570  17.005 -31.290  1.00  0.00    -0.000 C 
BRANCH   7   8
ATOM      8  C   UNL     1     -51.996  17.922 -30.187  1.00  0.00    -0.000 C 
BRANCH   8   9
ATOM      9  C   UNL     1     -53.027  18.220 -29.084  1.00  0.00    -0.000 C 
BRANCH   9  10
ATOM     10  C   UNL     1     -52.508  17.840 -27.681  1.00  0.00    -0.000 C 
BRANCH  10  11
ATOM     11  C   UNL     1     -52.828  16.392 -27.276  1.00  0.00    -0.003 C 
ATOM     12  C   UNL     1     -54.025  15.812 -28.028  1.00  0.00     0.004 C 
ENDBRANCH  10  11
ENDBRANCH   9  10
ENDBRANCH   8   9
ENDBRANCH   7   8
ENDBRANCH   6   7
ENDBRANCH   5   6
ENDBRANCH   4   5
ENDBRANCH   3   4
ENDBRANCH   2   3
ENDBRANCH   1   2
BRANCH   1  13
ATOM     13  C   UNL     1     -50.112  10.928 -30.544  1.00  0.00     0.000 C 
BRANCH  13  14
ATOM     14  C   UNL     1     -51.612  10.623 -30.705  1.00  0.00     0.000 C 
BRANCH  14  15
ATOM     15  C   UNL     1     -51.947   9.463 -31.663  1.00  0.00     0.000 C 
BRANCH  15  16
ATOM     16  C   UNL     1     -50.799   9.026 -32.595  1.00  0.00     0.000 C 
BRANCH  16  17
ATOM     17  C   UNL     1     -50.489   7.518 -32.580  1.00  0.00     0.000 C 
BRANCH  17  18
ATOM     18  C   UNL     1     -51.157   6.782 -31.405  1.00  0.00     0.000 C 
BRANCH  18  19
ATOM     19  C   UNL     1     -50.139   6.347 -30.328  1.00  0.00     0.000 C 
BRANCH  19  20
ATOM     20  C   UNL     1     -48.674   6.440 -30.788  1.00  0.00     0.006 C 
BRANCH  20  21
ATOM     21  C   UNL     1     -47.753   7.052 -29.726  1.00  0.00     0.053 C 
BRANCH  21  22
ATOM     22  C   UNL     1     -47.325   8.427 -30.134  1.00  0.00     0.041 C 
ATOM     23  O   UNL     1     -46.877   9.231 -29.275  1.00  0.00    -0.550 OA
ATOM     24  O   UNL     1     -47.376   8.802 -31.471  1.00  0.00    -0.550 OA
ENDBRANCH  21  22
ENDBRANCH  20  21
ENDBRANCH  19  20
ENDBRANCH  18  19
ENDBRANCH  17  18
ENDBRANCH  16  17
ENDBRANCH  15  16
ENDBRANCH  14  15
ENDBRANCH  13  14
ENDBRANCH   1  13
TORSDOF 20
ENDMDL
