MODEL 1
REMARK VINA RESULT:    -3.731      0.000      0.000
REMARK INTER + INTRA:          -9.972
REMARK INTER:                  -7.220
REMARK INTRA:                  -2.752
REMARK UNBOUND:                -2.752
REMARK SMILES CCCCCCCCCCCCCCCCCC(=O)[O-]
REMARK SMILES IDX 10 1 11 2 12 3 13 4 14 5 15 6 16 7 17 8 18 9 19 10 20 11
REMARK SMILES IDX 9 12 8 13 7 14 6 15 5 16 4 17 3 18 2 19 1 20
REMARK H PARENT
REMARK Flexibility Score: inf
ROOT
ATOM      1  C   UNL     1      22.029  11.361  34.792  1.00  0.00     0.000 C 
ENDROOT
BRANCH   1   2
ATOM      2  C   UNL     1      21.947  10.060  35.611  1.00  0.00     0.000 C 
BRANCH   2   3
ATOM      3  C   UNL     1      20.824   9.126  35.129  1.00  0.00     0.000 C 
BRANCH   3   4
ATOM      4  C   UNL     1      19.846   8.751  36.254  1.00  0.00     0.000 C 
BRANCH   4   5
ATOM      5  C   UNL     1      19.258   7.338  36.087  1.00  0.00     0.000 C 
BRANCH   5   6
ATOM      6  C   UNL     1      18.201   7.238  34.966  1.00  0.00     0.000 C 
BRANCH   6   7
ATOM      7  C   UNL     1      18.184   5.845  34.311  1.00  0.00     0.006 C 
BRANCH   7   8
ATOM      8  C   UNL     1      18.489   5.908  32.809  1.00  0.00     0.053 C 
BRANCH   8   9
ATOM      9  C   UNL     1      19.839   6.501  32.543  1.00  0.00     0.041 C 
ATOM     10  O   UNL     1      19.947   7.549  31.855  1.00  0.00    -0.550 OA
ATOM     11  O   UNL     1      20.980   5.877  33.033  1.00  0.00    -0.550 OA
ENDBRANCH   8   9
ENDBRANCH   7   8
ENDBRANCH   6   7
ENDBRANCH   5   6
ENDBRANCH   4   5
ENDBRANCH   3   4
ENDBRANCH   2   3
ENDBRANCH   1   2
BRANCH   1  12
ATOM     12  C   UNL     1      21.764  12.614  35.643  1.00  0.00     0.000 C 
BRANCH  12  13
ATOM     13  C   UNL     1      20.418  13.281  35.310  1.00  0.00    -0.000 C 
BRANCH  13  14
ATOM     14  C   UNL     1      19.234  12.605  36.017  1.00  0.00    -0.000 C 
BRANCH  14  15
ATOM     15  C   UNL     1      18.294  11.880  35.041  1.00  0.00    -0.000 C 
BRANCH  15  16
ATOM     16  C   UNL     1      18.502  12.382  33.604  1.00  0.00    -0.000 C 
BRANCH  16  17
ATOM     17  C   UNL     1      18.912  11.258  32.638  1.00  0.00    -0.000 C 
BRANCH  17  18
ATOM     18  C   UNL     1      20.103  11.651  31.746  1.00  0.00    -0.000 C 
BRANCH  18  19
ATOM     19  C   UNL     1      20.174  13.165  31.491  1.00  0.00    -0.003 C 
ATOM     20  C   UNL     1      21.527  13.765  31.872  1.00  0.00     0.004 C 
ENDBRANCH  18  19
ENDBRANCH  17  18
ENDBRANCH  16  17
ENDBRANCH  15  16
ENDBRANCH  14  15
ENDBRANCH  13  14
ENDBRANCH  12  13
ENDBRANCH   1  12
TORSDOF 16
ENDMDL
MODEL 2
REMARK VINA RESULT:    -3.716      3.562      6.818
REMARK INTER + INTRA:          -9.945
REMARK INTER:                  -7.573
REMARK INTRA:                  -2.371
REMARK UNBOUND:                -2.752
REMARK SMILES CCCCCCCCCCCCCCCCCC(=O)[O-]
REMARK SMILES IDX 10 1 11 2 12 3 13 4 14 5 15 6 16 7 17 8 18 9 19 10 20 11
REMARK SMILES IDX 9 12 8 13 7 14 6 15 5 16 4 17 3 18 2 19 1 20
REMARK H PARENT
REMARK Flexibility Score: inf
ROOT
ATOM      1  C   UNL     1      21.553  10.156  35.299  1.00  0.00     0.000 C 
ENDROOT
BRANCH   1   2
ATOM      2  C   UNL     1      22.226  11.525  35.093  1.00  0.00     0.000 C 
BRANCH   2   3
ATOM      3  C   UNL     1      21.351  12.694  35.577  1.00  0.00     0.000 C 
BRANCH   3   4
ATOM      4  C   UNL     1      20.946  13.640  34.434  1.00  0.00     0.000 C 
BRANCH   4   5
ATOM      5  C   UNL     1      21.344  13.105  33.048  1.00  0.00     0.000 C 
BRANCH   5   6
ATOM      6  C   UNL     1      20.245  13.280  31.979  1.00  0.00     0.000 C 
BRANCH   6   7
ATOM      7  C   UNL     1      20.611  14.360  30.944  1.00  0.00     0.006 C 
BRANCH   7   8
ATOM      8  C   UNL     1      22.129  14.517  30.784  1.00  0.00     0.053 C 
BRANCH   8   9
ATOM      9  C   UNL     1      22.528  15.959  30.691  1.00  0.00     0.041 C 
ATOM     10  O   UNL     1      21.930  16.828  31.377  1.00  0.00    -0.550 OA
ATOM     11  O   UNL     1      23.541  16.344  29.822  1.00  0.00    -0.550 OA
ENDBRANCH   8   9
ENDBRANCH   7   8
ENDBRANCH   6   7
ENDBRANCH   5   6
ENDBRANCH   4   5
ENDBRANCH   3   4
ENDBRANCH   2   3
ENDBRANCH   1   2
BRANCH   1  12
ATOM     12  C   UNL     1      20.043  10.272  35.568  1.00  0.00     0.000 C 
BRANCH  12  13
ATOM     13  C   UNL     1      19.204  10.147  34.285  1.00  0.00    -0.000 C 
BRANCH  13  14
ATOM     14  C   UNL     1      19.995   9.534  33.119  1.00  0.00    -0.000 C 
BRANCH  14  15
ATOM     15  C   UNL     1      19.191   8.478  32.345  1.00  0.00    -0.000 C 
BRANCH  15  16
ATOM     16  C   UNL     1      19.099   7.167  33.140  1.00  0.00    -0.000 C 
BRANCH  16  17
ATOM     17  C   UNL     1      20.470   6.681  33.638  1.00  0.00    -0.000 C 
BRANCH  17  18
ATOM     18  C   UNL     1      20.548   6.603  35.173  1.00  0.00    -0.000 C 
BRANCH  18  19
ATOM     19  C   UNL     1      19.164   6.683  35.837  1.00  0.00    -0.003 C 
ATOM     20  C   UNL     1      19.236   7.126  37.298  1.00  0.00     0.004 C 
ENDBRANCH  18  19
ENDBRANCH  17  18
ENDBRANCH  16  17
ENDBRANCH  15  16
ENDBRANCH  14  15
ENDBRANCH  13  14
ENDBRANCH  12  13
ENDBRANCH   1  12
TORSDOF 16
ENDMDL
MODEL 3
REMARK VINA RESULT:    -3.701     17.757     19.958
REMARK INTER + INTRA:          -9.915
REMARK INTER:                  -7.822
REMARK INTRA:                  -2.093
REMARK UNBOUND:                -2.752
REMARK SMILES CCCCCCCCCCCCCCCCCC(=O)[O-]
REMARK SMILES IDX 10 1 11 2 12 3 13 4 14 5 15 6 16 7 17 8 18 9 19 10 20 11
REMARK SMILES IDX 9 12 8 13 7 14 6 15 5 16 4 17 3 18 2 19 1 20
REMARK H PARENT
REMARK Flexibility Score: inf
ROOT
ATOM      1  C   UNL     1      33.999   7.263  45.729  1.00  0.00     0.000 C 
ENDROOT
BRANCH   1   2
ATOM      2  C   UNL     1      33.819   7.706  44.266  1.00  0.00     0.000 C 
BRANCH   2   3
ATOM      3  C   UNL     1      34.751   8.866  43.878  1.00  0.00     0.000 C 
BRANCH   3   4
ATOM      4  C   UNL     1      34.003  10.202  43.741  1.00  0.00     0.000 C 
BRANCH   4   5
ATOM      5  C   UNL     1      34.374  11.210  44.843  1.00  0.00     0.000 C 
BRANCH   5   6
ATOM      6  C   UNL     1      35.530  10.736  45.750  1.00  0.00     0.000 C 
BRANCH   6   7
ATOM      7  C   UNL     1      36.474  11.890  46.133  1.00  0.00     0.006 C 
BRANCH   7   8
ATOM      8  C   UNL     1      35.837  12.847  47.148  1.00  0.00     0.053 C 
BRANCH   8   9
ATOM      9  C   UNL     1      35.878  14.267  46.669  1.00  0.00     0.041 C 
ATOM     10  O   UNL     1      35.500  14.555  45.504  1.00  0.00    -0.550 OA
ATOM     11  O   UNL     1      36.362  15.267  47.504  1.00  0.00    -0.550 OA
ENDBRANCH   8   9
ENDBRANCH   7   8
ENDBRANCH   6   7
ENDBRANCH   5   6
ENDBRANCH   4   5
ENDBRANCH   3   4
ENDBRANCH   2   3
ENDBRANCH   1   2
BRANCH   1  12
ATOM     12  C   UNL     1      34.372   5.777  45.857  1.00  0.00     0.000 C 
BRANCH  12  13
ATOM     13  C   UNL     1      33.892   5.160  47.182  1.00  0.00    -0.000 C 
BRANCH  13  14
ATOM     14  C   UNL     1      32.981   6.107  47.978  1.00  0.00    -0.000 C 
BRANCH  14  15
ATOM     15  C   UNL     1      31.495   5.938  47.627  1.00  0.00    -0.000 C 
BRANCH  15  16
ATOM     16  C   UNL     1      30.692   7.185  48.028  1.00  0.00    -0.000 C 
BRANCH  16  17
ATOM     17  C   UNL     1      31.535   8.206  48.809  1.00  0.00    -0.000 C 
BRANCH  17  18
ATOM     18  C   UNL     1      31.821   9.481  47.998  1.00  0.00    -0.000 C 
BRANCH  18  19
ATOM     19  C   UNL     1      32.994  10.293  48.571  1.00  0.00    -0.003 C 
ATOM     20  C   UNL     1      34.232   9.436  48.833  1.00  0.00     0.004 C 
ENDBRANCH  18  19
ENDBRANCH  17  18
ENDBRANCH  16  17
ENDBRANCH  15  16
ENDBRANCH  14  15
ENDBRANCH  13  14
ENDBRANCH  12  13
ENDBRANCH   1  12
TORSDOF 16
ENDMDL
MODEL 4
REMARK VINA RESULT:    -3.674      1.433      4.853
REMARK INTER + INTRA:          -9.863
REMARK INTER:                  -7.182
REMARK INTRA:                  -2.681
REMARK UNBOUND:                -2.752
REMARK SMILES CCCCCCCCCCCCCCCCCC(=O)[O-]
REMARK SMILES IDX 10 1 11 2 12 3 13 4 14 5 15 6 16 7 17 8 18 9 19 10 20 11
REMARK SMILES IDX 9 12 8 13 7 14 6 15 5 16 4 17 3 18 2 19 1 20
REMARK H PARENT
REMARK Flexibility Score: inf
ROOT
ATOM      1  C   UNL     1      22.270  11.165  34.321  1.00  0.00     0.000 C 
ENDROOT
BRANCH   1   2
ATOM      2  C   UNL     1      21.481  12.485  34.244  1.00  0.00     0.000 C 
BRANCH   2   3
ATOM      3  C   UNL     1      20.938  12.931  35.612  1.00  0.00     0.000 C 
BRANCH   3   4
ATOM      4  C   UNL     1      19.409  13.097  35.614  1.00  0.00     0.000 C 
BRANCH   4   5
ATOM      5  C   UNL     1      18.769  12.740  34.261  1.00  0.00     0.000 C 
BRANCH   5   6
ATOM      6  C   UNL     1      17.943  11.437  34.293  1.00  0.00     0.000 C 
BRANCH   6   7
ATOM      7  C   UNL     1      18.329  10.479  33.152  1.00  0.00     0.006 C 
BRANCH   7   8
ATOM      8  C   UNL     1      18.733  11.230  31.877  1.00  0.00     0.053 C 
BRANCH   8   9
ATOM      9  C   UNL     1      20.065  10.770  31.364  1.00  0.00     0.041 C 
ATOM     10  O   UNL     1      20.743  11.512  30.606  1.00  0.00    -0.550 OA
ATOM     11  O   UNL     1      20.541   9.509  31.702  1.00  0.00    -0.550 OA
ENDBRANCH   8   9
ENDBRANCH   7   8
ENDBRANCH   6   7
ENDBRANCH   5   6
ENDBRANCH   4   5
ENDBRANCH   3   4
ENDBRANCH   2   3
ENDBRANCH   1   2
BRANCH   1  12
ATOM     12  C   UNL     1      21.954  10.359  35.592  1.00  0.00     0.000 C 
BRANCH  12  13
ATOM     13  C   UNL     1      20.951   9.220  35.335  1.00  0.00    -0.000 C 
BRANCH  13  14
ATOM     14  C   UNL     1      19.819   9.185  36.373  1.00  0.00    -0.000 C 
BRANCH  14  15
ATOM     15  C   UNL     1      19.466   7.757  36.818  1.00  0.00    -0.000 C 
BRANCH  15  16
ATOM     16  C   UNL     1      19.704   6.753  35.680  1.00  0.00    -0.000 C 
BRANCH  16  17
ATOM     17  C   UNL     1      18.394   6.259  35.043  1.00  0.00    -0.000 C 
BRANCH  17  18
ATOM     18  C   UNL     1      18.505   6.096  33.517  1.00  0.00    -0.000 C 
BRANCH  18  19
ATOM     19  C   UNL     1      19.942   6.289  33.007  1.00  0.00    -0.003 C 
ATOM     20  C   UNL     1      20.081   5.998  31.513  1.00  0.00     0.004 C 
ENDBRANCH  18  19
ENDBRANCH  17  18
ENDBRANCH  16  17
ENDBRANCH  15  16
ENDBRANCH  14  15
ENDBRANCH  13  14
ENDBRANCH  12  13
ENDBRANCH   1  12
TORSDOF 16
ENDMDL
MODEL 5
REMARK VINA RESULT:    -3.665      3.671      6.905
REMARK INTER + INTRA:          -9.845
REMARK INTER:                  -7.554
REMARK INTRA:                  -2.291
REMARK UNBOUND:                -2.752
REMARK SMILES CCCCCCCCCCCCCCCCCC(=O)[O-]
REMARK SMILES IDX 10 1 11 2 12 3 13 4 14 5 15 6 16 7 17 8 18 9 19 10 20 11
REMARK SMILES IDX 9 12 8 13 7 14 6 15 5 16 4 17 3 18 2 19 1 20
REMARK H PARENT
REMARK Flexibility Score: inf
ROOT
ATOM      1  C   UNL     1      22.186  11.388  35.280  1.00  0.00     0.000 C 
ENDROOT
BRANCH   1   2
ATOM      2  C   UNL     1      21.086  12.408  35.626  1.00  0.00     0.000 C 
BRANCH   2   3
ATOM      3  C   UNL     1      20.792  13.378  34.470  1.00  0.00     0.000 C 
BRANCH   3   4
ATOM      4  C   UNL     1      21.587  13.038  33.198  1.00  0.00     0.000 C 
BRANCH   4   5
ATOM      5  C   UNL     1      21.256  13.971  32.020  1.00  0.00     0.000 C 
BRANCH   5   6
ATOM      6  C   UNL     1      21.876  13.520  30.681  1.00  0.00     0.000 C 
BRANCH   6   7
ATOM      7  C   UNL     1      22.335  14.714  29.825  1.00  0.00     0.006 C 
BRANCH   7   8
ATOM      8  C   UNL     1      22.738  15.920  30.682  1.00  0.00     0.053 C 
BRANCH   8   9
ATOM      9  C   UNL     1      24.133  16.375  30.375  1.00  0.00     0.041 C 
ATOM     10  O   UNL     1      24.918  15.626  29.736  1.00  0.00    -0.550 OA
ATOM     11  O   UNL     1      24.574  17.614  30.823  1.00  0.00    -0.550 OA
ENDBRANCH   8   9
ENDBRANCH   7   8
ENDBRANCH   6   7
ENDBRANCH   5   6
ENDBRANCH   4   5
ENDBRANCH   3   4
ENDBRANCH   2   3
ENDBRANCH   1   2
BRANCH   1  12
ATOM     12  C   UNL     1      21.738   9.934  35.508  1.00  0.00     0.000 C 
BRANCH  12  13
ATOM     13  C   UNL     1      20.255   9.828  35.902  1.00  0.00    -0.000 C 
BRANCH  13  14
ATOM     14  C   UNL     1      19.686   8.417  35.686  1.00  0.00    -0.000 C 
BRANCH  14  15
ATOM     15  C   UNL     1      20.740   7.424  35.172  1.00  0.00    -0.000 C 
BRANCH  15  16
ATOM     16  C   UNL     1      20.258   6.729  33.889  1.00  0.00    -0.000 C 
BRANCH  16  17
ATOM     17  C   UNL     1      19.285   7.597  33.076  1.00  0.00    -0.000 C 
BRANCH  17  18
ATOM     18  C   UNL     1      19.958   8.261  31.862  1.00  0.00    -0.000 C 
BRANCH  18  19
ATOM     19  C   UNL     1      20.275   9.745  32.104  1.00  0.00    -0.003 C 
ATOM     20  C   UNL     1      19.033  10.564  32.453  1.00  0.00     0.004 C 
ENDBRANCH  18  19
ENDBRANCH  17  18
ENDBRANCH  16  17
ENDBRANCH  15  16
ENDBRANCH  14  15
ENDBRANCH  13  14
ENDBRANCH  12  13
ENDBRANCH   1  12
TORSDOF 16
ENDMDL
MODEL 6
REMARK VINA RESULT:    -3.639      0.967      1.932
REMARK INTER + INTRA:          -9.794
REMARK INTER:                  -6.842
REMARK INTRA:                  -2.952
REMARK UNBOUND:                -2.752
REMARK SMILES CCCCCCCCCCCCCCCCCC(=O)[O-]
REMARK SMILES IDX 10 1 11 2 12 3 13 4 14 5 15 6 16 7 17 8 18 9 19 10 20 11
REMARK SMILES IDX 9 12 8 13 7 14 6 15 5 16 4 17 3 18 2 19 1 20
REMARK H PARENT
REMARK Flexibility Score: inf
ROOT
ATOM      1  C   UNL     1      21.062  13.094  35.280  1.00  0.00     0.000 C 
ENDROOT
BRANCH   1   2
ATOM      2  C   UNL     1      21.928  11.894  34.856  1.00  0.00     0.000 C 
BRANCH   2   3
ATOM      3  C   UNL     1      21.952  10.777  35.913  1.00  0.00     0.000 C 
BRANCH   3   4
ATOM      4  C   UNL     1      21.243   9.498  35.437  1.00  0.00     0.000 C 
BRANCH   4   5
ATOM      5  C   UNL     1      20.014   9.144  36.293  1.00  0.00     0.000 C 
BRANCH   5   6
ATOM      6  C   UNL     1      19.428   7.749  35.984  1.00  0.00     0.000 C 
BRANCH   6   7
ATOM      7  C   UNL     1      20.210   7.026  34.874  1.00  0.00     0.006 C 
BRANCH   7   8
ATOM      8  C   UNL     1      19.313   6.638  33.692  1.00  0.00     0.053 C 
BRANCH   8   9
ATOM      9  C   UNL     1      20.119   6.296  32.475  1.00  0.00     0.041 C 
ATOM     10  O   UNL     1      19.762   6.708  31.341  1.00  0.00    -0.550 OA
ATOM     11  O   UNL     1      21.249   5.496  32.593  1.00  0.00    -0.550 OA
ENDBRANCH   8   9
ENDBRANCH   7   8
ENDBRANCH   6   7
ENDBRANCH   5   6
ENDBRANCH   4   5
ENDBRANCH   3   4
ENDBRANCH   2   3
ENDBRANCH   1   2
BRANCH   1  12
ATOM     12  C   UNL     1      19.581  12.720  35.464  1.00  0.00     0.000 C 
BRANCH  12  13
ATOM     13  C   UNL     1      18.825  12.632  34.127  1.00  0.00    -0.000 C 
BRANCH  13  14
ATOM     14  C   UNL     1      18.209  11.245  33.888  1.00  0.00    -0.000 C 
BRANCH  14  15
ATOM     15  C   UNL     1      18.497  10.701  32.480  1.00  0.00    -0.000 C 
BRANCH  15  16
ATOM     16  C   UNL     1      19.917  10.120  32.397  1.00  0.00    -0.000 C 
BRANCH  16  17
ATOM     17  C   UNL     1      20.635  10.498  31.091  1.00  0.00    -0.000 C 
BRANCH  17  18
ATOM     18  C   UNL     1      21.621  11.664  31.275  1.00  0.00    -0.000 C 
BRANCH  18  19
ATOM     19  C   UNL     1      20.987  13.027  30.954  1.00  0.00    -0.003 C 
ATOM     20  C   UNL     1      21.507  14.146  31.857  1.00  0.00     0.004 C 
ENDBRANCH  18  19
ENDBRANCH  17  18
ENDBRANCH  16  17
ENDBRANCH  15  16
ENDBRANCH  14  15
ENDBRANCH  13  14
ENDBRANCH  12  13
ENDBRANCH   1  12
TORSDOF 16
ENDMDL
MODEL 7
REMARK VINA RESULT:    -3.597      3.573      6.726
REMARK INTER + INTRA:          -9.713
REMARK INTER:                  -7.207
REMARK INTRA:                  -2.506
REMARK UNBOUND:                -2.752
REMARK SMILES CCCCCCCCCCCCCCCCCC(=O)[O-]
REMARK SMILES IDX 10 1 11 2 12 3 13 4 14 5 15 6 16 7 17 8 18 9 19 10 20 11
REMARK SMILES IDX 9 12 8 13 7 14 6 15 5 16 4 17 3 18 2 19 1 20
REMARK H PARENT
REMARK Flexibility Score: inf
ROOT
ATOM      1  C   UNL     1      18.557  11.575  33.846  1.00  0.00     0.000 C 
ENDROOT
BRANCH   1   2
ATOM      2  C   UNL     1      18.152  11.539  32.362  1.00  0.00     0.000 C 
BRANCH   2   3
ATOM      3  C   UNL     1      19.284  11.038  31.450  1.00  0.00     0.000 C 
BRANCH   3   4
ATOM      4  C   UNL     1      20.629  10.927  32.187  1.00  0.00     0.000 C 
BRANCH   4   5
ATOM      5  C   UNL     1      21.694  11.890  31.632  1.00  0.00     0.000 C 
BRANCH   5   6
ATOM      6  C   UNL     1      21.602  13.316  32.215  1.00  0.00     0.000 C 
BRANCH   6   7
ATOM      7  C   UNL     1      21.224  14.355  31.144  1.00  0.00     0.006 C 
BRANCH   7   8
ATOM      8  C   UNL     1      22.383  14.644  30.182  1.00  0.00     0.053 C 
BRANCH   8   9
ATOM      9  C   UNL     1      23.056  15.945  30.502  1.00  0.00     0.041 C 
ATOM     10  O   UNL     1      22.410  16.874  31.052  1.00  0.00    -0.550 OA
ATOM     11  O   UNL     1      24.390  16.138  30.165  1.00  0.00    -0.550 OA
ENDBRANCH   8   9
ENDBRANCH   7   8
ENDBRANCH   6   7
ENDBRANCH   5   6
ENDBRANCH   4   5
ENDBRANCH   3   4
ENDBRANCH   2   3
ENDBRANCH   1   2
BRANCH   1  12
ATOM     12  C   UNL     1      18.521  12.995  34.437  1.00  0.00     0.000 C 
BRANCH  12  13
ATOM     13  C   UNL     1      19.801  13.343  35.216  1.00  0.00    -0.000 C 
BRANCH  13  14
ATOM     14  C   UNL     1      20.359  12.146  36.000  1.00  0.00    -0.000 C 
BRANCH  14  15
ATOM     15  C   UNL     1      21.794  11.781  35.587  1.00  0.00    -0.000 C 
BRANCH  15  16
ATOM     16  C   UNL     1      21.984  10.257  35.553  1.00  0.00    -0.000 C 
BRANCH  16  17
ATOM     17  C   UNL     1      20.677   9.492  35.817  1.00  0.00    -0.000 C 
BRANCH  17  18
ATOM     18  C   UNL     1      20.509   8.273  34.893  1.00  0.00    -0.000 C 
BRANCH  18  19
ATOM     19  C   UNL     1      19.297   7.408  35.274  1.00  0.00    -0.003 C 
ATOM     20  C   UNL     1      19.335   6.950  36.732  1.00  0.00     0.004 C 
ENDBRANCH  18  19
ENDBRANCH  17  18
ENDBRANCH  16  17
ENDBRANCH  15  16
ENDBRANCH  14  15
ENDBRANCH  13  14
ENDBRANCH  12  13
ENDBRANCH   1  12
TORSDOF 16
ENDMDL
MODEL 8
REMARK VINA RESULT:    -3.594      2.634      5.420
REMARK INTER + INTRA:          -9.707
REMARK INTER:                  -6.816
REMARK INTRA:                  -2.890
REMARK UNBOUND:                -2.752
REMARK SMILES CCCCCCCCCCCCCCCCCC(=O)[O-]
REMARK SMILES IDX 10 1 11 2 12 3 13 4 14 5 15 6 16 7 17 8 18 9 19 10 20 11
REMARK SMILES IDX 9 12 8 13 7 14 6 15 5 16 4 17 3 18 2 19 1 20
REMARK H PARENT
REMARK Flexibility Score: inf
ROOT
ATOM      1  C   UNL     1      20.922  13.231  34.986  1.00  0.00     0.000 C 
ENDROOT
BRANCH   1   2
ATOM      2  C   UNL     1      19.518  13.196  35.617  1.00  0.00     0.000 C 
BRANCH   2   3
ATOM      3  C   UNL     1      18.403  13.015  34.574  1.00  0.00     0.000 C 
BRANCH   3   4
ATOM      4  C   UNL     1      18.084  11.536  34.302  1.00  0.00     0.000 C 
BRANCH   4   5
ATOM      5  C   UNL     1      18.293  11.142  32.829  1.00  0.00     0.000 C 
BRANCH   5   6
ATOM      6  C   UNL     1      19.163  12.142  32.039  1.00  0.00     0.000 C 
BRANCH   6   7
ATOM      7  C   UNL     1      20.275  11.438  31.241  1.00  0.00     0.006 C 
BRANCH   7   8
ATOM      8  C   UNL     1      21.637  12.120  31.419  1.00  0.00     0.053 C 
BRANCH   8   9
ATOM      9  C   UNL     1      21.617  13.532  30.916  1.00  0.00     0.041 C 
ATOM     10  O   UNL     1      21.603  13.765  29.680  1.00  0.00    -0.550 OA
ATOM     11  O   UNL     1      21.644  14.590  31.817  1.00  0.00    -0.550 OA
ENDBRANCH   8   9
ENDBRANCH   7   8
ENDBRANCH   6   7
ENDBRANCH   5   6
ENDBRANCH   4   5
ENDBRANCH   3   4
ENDBRANCH   2   3
ENDBRANCH   1   2
BRANCH   1  12
ATOM     12  C   UNL     1      21.897  12.246  35.653  1.00  0.00     0.000 C 
BRANCH  12  13
ATOM     13  C   UNL     1      22.361  11.135  34.694  1.00  0.00    -0.000 C 
BRANCH  13  14
ATOM     14  C   UNL     1      21.374   9.959  34.631  1.00  0.00    -0.000 C 
BRANCH  14  15
ATOM     15  C   UNL     1      20.692   9.682  35.981  1.00  0.00    -0.000 C 
BRANCH  15  16
ATOM     16  C   UNL     1      19.745   8.477  35.879  1.00  0.00    -0.000 C 
BRANCH  16  17
ATOM     17  C   UNL     1      20.388   7.279  35.162  1.00  0.00    -0.000 C 
BRANCH  17  18
ATOM     18  C   UNL     1      19.419   6.583  34.190  1.00  0.00    -0.000 C 
BRANCH  18  19
ATOM     19  C   UNL     1      19.978   6.497  32.761  1.00  0.00    -0.003 C 
ATOM     20  C   UNL     1      19.846   7.814  31.997  1.00  0.00     0.004 C 
ENDBRANCH  18  19
ENDBRANCH  17  18
ENDBRANCH  16  17
ENDBRANCH  15  16
ENDBRANCH  14  15
ENDBRANCH  13  14
ENDBRANCH  12  13
ENDBRANCH   1  12
TORSDOF 16
ENDMDL
