MODEL 1
REMARK VINA RESULT:    -4.169      0.000      0.000
REMARK INTER + INTRA:          -9.504
REMARK INTER:                  -7.581
REMARK INTRA:                  -1.924
REMARK UNBOUND:                -1.924
REMARK SMILES CCCCCCCCCCCCCCCC(=O)[O-]
REMARK SMILES IDX 9 1 10 2 11 3 12 4 13 5 14 6 15 7 16 8 17 9 18 10 8 11 7 12
REMARK SMILES IDX 6 13 5 14 4 15 3 16 2 17 1 18
REMARK H PARENT
REMARK Flexibility Score: inf
ROOT
ATOM      1  C   UNL     1       9.240   7.994  20.426  1.00  0.00     0.000 C 
ENDROOT
BRANCH   1   2
ATOM      2  C   UNL     1      10.420   8.957  20.644  1.00  0.00     0.000 C 
BRANCH   2   3
ATOM      3  C   UNL     1      11.049   9.439  19.328  1.00  0.00     0.000 C 
BRANCH   3   4
ATOM      4  C   UNL     1      10.946  10.964  19.195  1.00  0.00     0.000 C 
BRANCH   4   5
ATOM      5  C   UNL     1      10.127  11.561  20.348  1.00  0.00     0.000 C 
BRANCH   5   6
ATOM      6  C   UNL     1       8.797  12.180  19.879  1.00  0.00     0.006 C 
BRANCH   6   7
ATOM      7  C   UNL     1       8.336  11.709  18.491  1.00  0.00     0.053 C 
BRANCH   7   8
ATOM      8  C   UNL     1       7.380  12.674  17.861  1.00  0.00     0.041 C 
ATOM      9  O   UNL     1       7.121  12.598  16.631  1.00  0.00    -0.550 OA
ATOM     10  O   UNL     1       6.752  13.639  18.638  1.00  0.00    -0.550 OA
ENDBRANCH   7   8
ENDBRANCH   6   7
ENDBRANCH   5   6
ENDBRANCH   4   5
ENDBRANCH   3   4
ENDBRANCH   2   3
ENDBRANCH   1   2
BRANCH   1  11
ATOM     11  C   UNL     1       8.622   8.032  19.014  1.00  0.00     0.000 C 
BRANCH  11  12
ATOM     12  C   UNL     1       8.545   6.670  18.295  1.00  0.00    -0.000 C 
BRANCH  12  13
ATOM     13  C   UNL     1       9.774   5.762  18.484  1.00  0.00    -0.000 C 
BRANCH  13  14
ATOM     14  C   UNL     1      11.003   6.253  17.699  1.00  0.00    -0.000 C 
BRANCH  14  15
ATOM     15  C   UNL     1      12.324   5.971  18.435  1.00  0.00    -0.000 C 
BRANCH  15  16
ATOM     16  C   UNL     1      12.112   5.667  19.929  1.00  0.00    -0.000 C 
BRANCH  16  17
ATOM     17  C   UNL     1      12.786   4.356  20.364  1.00  0.00    -0.003 C 
ATOM     18  C   UNL     1      11.910   3.520  21.296  1.00  0.00     0.004 C 
ENDBRANCH  16  17
ENDBRANCH  15  16
ENDBRANCH  14  15
ENDBRANCH  13  14
ENDBRANCH  12  13
ENDBRANCH  11  12
ENDBRANCH   1  11
TORSDOF 14
ENDMDL
MODEL 2
REMARK VINA RESULT:    -4.148      6.864      8.427
REMARK INTER + INTRA:          -9.466
REMARK INTER:                  -6.962
REMARK INTRA:                  -2.504
REMARK UNBOUND:                -1.924
REMARK SMILES CCCCCCCCCCCCCCCC(=O)[O-]
REMARK SMILES IDX 9 1 10 2 11 3 12 4 13 5 14 6 15 7 16 8 17 9 18 10 8 11 7 12
REMARK SMILES IDX 6 13 5 14 4 15 3 16 2 17 1 18
REMARK H PARENT
REMARK Flexibility Score: inf
ROOT
ATOM      1  C   UNL     1      11.541  13.061  23.214  1.00  0.00     0.000 C 
ENDROOT
BRANCH   1   2
ATOM      2  C   UNL     1      12.921  13.676  23.504  1.00  0.00     0.000 C 
BRANCH   2   3
ATOM      3  C   UNL     1      13.769  13.866  22.237  1.00  0.00     0.000 C 
BRANCH   3   4
ATOM      4  C   UNL     1      15.261  13.956  22.583  1.00  0.00     0.000 C 
BRANCH   4   5
ATOM      5  C   UNL     1      15.475  13.928  24.103  1.00  0.00     0.000 C 
BRANCH   5   6
ATOM      6  C   UNL     1      16.929  13.603  24.495  1.00  0.00     0.006 C 
BRANCH   6   7
ATOM      7  C   UNL     1      17.062  12.616  25.665  1.00  0.00     0.053 C 
BRANCH   7   8
ATOM      8  C   UNL     1      18.009  11.499  25.350  1.00  0.00     0.041 C 
ATOM      9  O   UNL     1      19.063  11.354  26.022  1.00  0.00    -0.550 OA
ATOM     10  O   UNL     1      17.711  10.600  24.334  1.00  0.00    -0.550 OA
ENDBRANCH   7   8
ENDBRANCH   6   7
ENDBRANCH   5   6
ENDBRANCH   4   5
ENDBRANCH   3   4
ENDBRANCH   2   3
ENDBRANCH   1   2
BRANCH   1  11
ATOM     11  C   UNL     1      11.242  12.811  21.722  1.00  0.00     0.000 C 
BRANCH  11  12
ATOM     12  C   UNL     1      11.076  11.330  21.325  1.00  0.00    -0.000 C 
BRANCH  12  13
ATOM     13  C   UNL     1      11.910  10.883  20.110  1.00  0.00    -0.000 C 
BRANCH  13  14
ATOM     14  C   UNL     1      13.036   9.905  20.489  1.00  0.00    -0.000 C 
BRANCH  14  15
ATOM     15  C   UNL     1      14.404  10.597  20.605  1.00  0.00    -0.000 C 
BRANCH  15  16
ATOM     16  C   UNL     1      15.080  10.342  21.963  1.00  0.00    -0.000 C 
BRANCH  16  17
ATOM     17  C   UNL     1      14.123   9.712  22.988  1.00  0.00    -0.003 C 
ATOM     18  C   UNL     1      14.151  10.421  24.341  1.00  0.00     0.004 C 
ENDBRANCH  16  17
ENDBRANCH  15  16
ENDBRANCH  14  15
ENDBRANCH  13  14
ENDBRANCH  12  13
ENDBRANCH  11  12
ENDBRANCH   1  11
TORSDOF 14
ENDMDL
MODEL 3
REMARK VINA RESULT:    -4.139      5.904      8.255
REMARK INTER + INTRA:          -9.451
REMARK INTER:                  -7.166
REMARK INTRA:                  -2.285
REMARK UNBOUND:                -1.924
REMARK SMILES CCCCCCCCCCCCCCCC(=O)[O-]
REMARK SMILES IDX 9 1 10 2 11 3 12 4 13 5 14 6 15 7 16 8 17 9 18 10 8 11 7 12
REMARK SMILES IDX 6 13 5 14 4 15 3 16 2 17 1 18
REMARK H PARENT
REMARK Flexibility Score: inf
ROOT
ATOM      1  C   UNL     1      17.000   9.854  23.449  1.00  0.00     0.000 C 
ENDROOT
BRANCH   1   2
ATOM      2  C   UNL     1      15.557   9.892  23.982  1.00  0.00     0.000 C 
BRANCH   2   3
ATOM      3  C   UNL     1      14.506   9.926  22.862  1.00  0.00     0.000 C 
BRANCH   3   4
ATOM      4  C   UNL     1      15.175   9.983  21.483  1.00  0.00     0.000 C 
BRANCH   4   5
ATOM      5  C   UNL     1      14.161  10.362  20.395  1.00  0.00     0.000 C 
BRANCH   5   6
ATOM      6  C   UNL     1      12.849  10.925  20.972  1.00  0.00     0.006 C 
BRANCH   6   7
ATOM      7  C   UNL     1      11.648  10.835  20.017  1.00  0.00     0.053 C 
BRANCH   7   8
ATOM      8  C   UNL     1      10.485  11.644  20.502  1.00  0.00     0.041 C 
ATOM      9  O   UNL     1      10.330  11.857  21.733  1.00  0.00    -0.550 OA
ATOM     10  O   UNL     1       9.588  12.189  19.591  1.00  0.00    -0.550 OA
ENDBRANCH   7   8
ENDBRANCH   6   7
ENDBRANCH   5   6
ENDBRANCH   4   5
ENDBRANCH   3   4
ENDBRANCH   2   3
ENDBRANCH   1   2
BRANCH   1  11
ATOM     11  C   UNL     1      17.877  11.053  23.863  1.00  0.00     0.000 C 
BRANCH  11  12
ATOM     12  C   UNL     1      17.427  11.783  25.144  1.00  0.00    -0.000 C 
BRANCH  12  13
ATOM     13  C   UNL     1      17.405  13.320  25.045  1.00  0.00    -0.000 C 
BRANCH  13  14
ATOM     14  C   UNL     1      17.373  13.822  23.591  1.00  0.00    -0.000 C 
BRANCH  14  15
ATOM     15  C   UNL     1      16.045  14.512  23.235  1.00  0.00    -0.000 C 
BRANCH  15  16
ATOM     16  C   UNL     1      15.053  13.559  22.546  1.00  0.00    -0.000 C 
BRANCH  16  17
ATOM     17  C   UNL     1      13.661  13.587  23.198  1.00  0.00    -0.003 C 
ATOM     18  C   UNL     1      13.683  13.153  24.663  1.00  0.00     0.004 C 
ENDBRANCH  16  17
ENDBRANCH  15  16
ENDBRANCH  14  15
ENDBRANCH  13  14
ENDBRANCH  12  13
ENDBRANCH  11  12
ENDBRANCH   1  11
TORSDOF 14
ENDMDL
MODEL 4
REMARK VINA RESULT:    -4.072      5.785      7.569
REMARK INTER + INTRA:          -9.328
REMARK INTER:                  -7.659
REMARK INTRA:                  -1.669
REMARK UNBOUND:                -1.924
REMARK SMILES CCCCCCCCCCCCCCCC(=O)[O-]
REMARK SMILES IDX 9 1 10 2 11 3 12 4 13 5 14 6 15 7 16 8 17 9 18 10 8 11 7 12
REMARK SMILES IDX 6 13 5 14 4 15 3 16 2 17 1 18
REMARK H PARENT
REMARK Flexibility Score: inf
ROOT
ATOM      1  C   UNL     1      11.209  12.730  22.979  1.00  0.00     0.000 C 
ENDROOT
BRANCH   1   2
ATOM      2  C   UNL     1      12.697  12.724  23.371  1.00  0.00     0.000 C 
BRANCH   2   3
ATOM      3  C   UNL     1      13.476  13.908  22.778  1.00  0.00     0.000 C 
BRANCH   3   4
ATOM      4  C   UNL     1      14.919  13.506  22.447  1.00  0.00     0.000 C 
BRANCH   4   5
ATOM      5  C   UNL     1      15.919  14.282  23.316  1.00  0.00     0.000 C 
BRANCH   5   6
ATOM      6  C   UNL     1      16.979  13.373  23.964  1.00  0.00     0.006 C 
BRANCH   6   7
ATOM      7  C   UNL     1      16.783  13.147  25.471  1.00  0.00     0.053 C 
BRANCH   7   8
ATOM      8  C   UNL     1      15.513  12.409  25.766  1.00  0.00     0.041 C 
ATOM      9  O   UNL     1      14.592  12.969  26.416  1.00  0.00    -0.550 OA
ATOM     10  O   UNL     1      15.336  11.114  25.296  1.00  0.00    -0.550 OA
ENDBRANCH   7   8
ENDBRANCH   6   7
ENDBRANCH   5   6
ENDBRANCH   4   5
ENDBRANCH   3   4
ENDBRANCH   2   3
ENDBRANCH   1   2
BRANCH   1  11
ATOM     11  C   UNL     1      10.937  12.795  21.462  1.00  0.00     0.000 C 
BRANCH  11  12
ATOM     12  C   UNL     1       9.725  11.974  20.977  1.00  0.00    -0.000 C 
BRANCH  12  13
ATOM     13  C   UNL     1       9.815  11.474  19.524  1.00  0.00    -0.000 C 
BRANCH  13  14
ATOM     14  C   UNL     1      11.189  10.870  19.185  1.00  0.00    -0.000 C 
BRANCH  14  15
ATOM     15  C   UNL     1      11.232   9.348  19.397  1.00  0.00    -0.000 C 
BRANCH  15  16
ATOM     16  C   UNL     1      12.497   8.892  20.145  1.00  0.00    -0.000 C 
BRANCH  16  17
ATOM     17  C   UNL     1      13.135  10.023  20.966  1.00  0.00    -0.003 C 
ATOM     18  C   UNL     1      14.551  10.366  20.505  1.00  0.00     0.004 C 
ENDBRANCH  16  17
ENDBRANCH  15  16
ENDBRANCH  14  15
ENDBRANCH  13  14
ENDBRANCH  12  13
ENDBRANCH  11  12
ENDBRANCH   1  11
TORSDOF 14
ENDMDL
MODEL 5
REMARK VINA RESULT:    -4.072      4.062      6.857
REMARK INTER + INTRA:          -9.327
REMARK INTER:                  -7.160
REMARK INTRA:                  -2.167
REMARK UNBOUND:                -1.924
REMARK SMILES CCCCCCCCCCCCCCCC(=O)[O-]
REMARK SMILES IDX 9 1 10 2 11 3 12 4 13 5 14 6 15 7 16 8 17 9 18 10 8 11 7 12
REMARK SMILES IDX 6 13 5 14 4 15 3 16 2 17 1 18
REMARK H PARENT
REMARK Flexibility Score: inf
ROOT
ATOM      1  C   UNL     1       8.571   7.786  20.103  1.00  0.00     0.000 C 
ENDROOT
BRANCH   1   2
ATOM      2  C   UNL     1       8.550   7.327  18.635  1.00  0.00     0.000 C 
BRANCH   2   3
ATOM      3  C   UNL     1       9.341   6.030  18.403  1.00  0.00     0.000 C 
BRANCH   3   4
ATOM      4  C   UNL     1      10.718   6.328  17.797  1.00  0.00     0.000 C 
BRANCH   4   5
ATOM      5  C   UNL     1      11.797   6.386  18.888  1.00  0.00     0.000 C 
BRANCH   5   6
ATOM      6  C   UNL     1      11.549   5.382  20.028  1.00  0.00     0.006 C 
BRANCH   6   7
ATOM      7  C   UNL     1      11.581   6.001  21.434  1.00  0.00     0.053 C 
BRANCH   7   8
ATOM      8  C   UNL     1      12.190   5.074  22.440  1.00  0.00     0.041 C 
ATOM      9  O   UNL     1      11.837   5.129  23.647  1.00  0.00    -0.550 OA
ATOM     10  O   UNL     1      13.126   4.129  22.039  1.00  0.00    -0.550 OA
ENDBRANCH   7   8
ENDBRANCH   6   7
ENDBRANCH   5   6
ENDBRANCH   4   5
ENDBRANCH   3   4
ENDBRANCH   2   3
ENDBRANCH   1   2
BRANCH   1  11
ATOM     11  C   UNL     1       9.083   9.223  20.327  1.00  0.00     0.000 C 
BRANCH  11  12
ATOM     12  C   UNL     1       9.428  10.004  19.043  1.00  0.00    -0.000 C 
BRANCH  12  13
ATOM     13  C   UNL     1      10.913  10.383  18.889  1.00  0.00    -0.000 C 
BRANCH  13  14
ATOM     14  C   UNL     1      11.795   9.799  20.007  1.00  0.00    -0.000 C 
BRANCH  14  15
ATOM     15  C   UNL     1      12.690  10.861  20.667  1.00  0.00    -0.000 C 
BRANCH  15  16
ATOM     16  C   UNL     1      12.062  11.450  21.942  1.00  0.00    -0.000 C 
BRANCH  16  17
ATOM     17  C   UNL     1      11.225  12.708  21.659  1.00  0.00    -0.003 C 
ATOM     18  C   UNL     1       9.904  12.727  22.427  1.00  0.00     0.004 C 
ENDBRANCH  16  17
ENDBRANCH  15  16
ENDBRANCH  14  15
ENDBRANCH  13  14
ENDBRANCH  12  13
ENDBRANCH  11  12
ENDBRANCH   1  11
TORSDOF 14
ENDMDL
MODEL 6
REMARK VINA RESULT:    -4.067      4.672      5.748
REMARK INTER + INTRA:          -9.319
REMARK INTER:                  -8.170
REMARK INTRA:                  -1.149
REMARK UNBOUND:                -1.924
REMARK SMILES CCCCCCCCCCCCCCCC(=O)[O-]
REMARK SMILES IDX 9 1 10 2 11 3 12 4 13 5 14 6 15 7 16 8 17 9 18 10 8 11 7 12
REMARK SMILES IDX 6 13 5 14 4 15 3 16 2 17 1 18
REMARK H PARENT
REMARK Flexibility Score: inf
ROOT
ATOM      1  C   UNL     1      11.376  10.478  19.330  1.00  0.00     0.000 C 
ENDROOT
BRANCH   1   2
ATOM      2  C   UNL     1      11.878  10.984  20.694  1.00  0.00     0.000 C 
BRANCH   2   3
ATOM      3  C   UNL     1      10.865  11.896  21.402  1.00  0.00     0.000 C 
BRANCH   3   4
ATOM      4  C   UNL     1      11.560  13.119  22.013  1.00  0.00     0.000 C 
BRANCH   4   5
ATOM      5  C   UNL     1      12.680  12.692  22.974  1.00  0.00     0.000 C 
BRANCH   5   6
ATOM      6  C   UNL     1      13.672  13.830  23.278  1.00  0.00     0.006 C 
BRANCH   6   7
ATOM      7  C   UNL     1      14.927  13.829  22.391  1.00  0.00     0.053 C 
BRANCH   7   8
ATOM      8  C   UNL     1      16.180  13.655  23.193  1.00  0.00     0.041 C 
ATOM      9  O   UNL     1      16.230  12.796  24.112  1.00  0.00    -0.550 OA
ATOM     10  O   UNL     1      17.301  14.422  22.905  1.00  0.00    -0.550 OA
ENDBRANCH   7   8
ENDBRANCH   6   7
ENDBRANCH   5   6
ENDBRANCH   4   5
ENDBRANCH   3   4
ENDBRANCH   2   3
ENDBRANCH   1   2
BRANCH   1  11
ATOM     11  C   UNL     1       9.954  10.939  18.949  1.00  0.00     0.000 C 
BRANCH  11  12
ATOM     12  C   UNL     1       8.854   9.871  19.109  1.00  0.00    -0.000 C 
BRANCH  12  13
ATOM     13  C   UNL     1       9.360   8.458  19.451  1.00  0.00    -0.000 C 
BRANCH  13  14
ATOM     14  C   UNL     1       8.622   7.355  18.671  1.00  0.00    -0.000 C 
BRANCH  14  15
ATOM     15  C   UNL     1       9.568   6.245  18.182  1.00  0.00    -0.000 C 
BRANCH  15  16
ATOM     16  C   UNL     1      11.021   6.731  18.038  1.00  0.00    -0.000 C 
BRANCH  16  17
ATOM     17  C   UNL     1      12.020   5.822  18.772  1.00  0.00    -0.003 C 
ATOM     18  C   UNL     1      11.574   5.473  20.191  1.00  0.00     0.004 C 
ENDBRANCH  16  17
ENDBRANCH  15  16
ENDBRANCH  14  15
ENDBRANCH  13  14
ENDBRANCH  12  13
ENDBRANCH  11  12
ENDBRANCH   1  11
TORSDOF 14
ENDMDL
MODEL 7
REMARK VINA RESULT:    -4.049      4.129      7.177
REMARK INTER + INTRA:          -9.287
REMARK INTER:                  -8.095
REMARK INTRA:                  -1.192
REMARK UNBOUND:                -1.924
REMARK SMILES CCCCCCCCCCCCCCCC(=O)[O-]
REMARK SMILES IDX 9 1 10 2 11 3 12 4 13 5 14 6 15 7 16 8 17 9 18 10 8 11 7 12
REMARK SMILES IDX 6 13 5 14 4 15 3 16 2 17 1 18
REMARK H PARENT
REMARK Flexibility Score: inf
ROOT
ATOM      1  C   UNL     1      11.537  11.165  20.251  1.00  0.00     0.000 C 
ENDROOT
BRANCH   1   2
ATOM      2  C   UNL     1      10.906  10.564  18.983  1.00  0.00     0.000 C 
BRANCH   2   3
ATOM      3  C   UNL     1       9.370  10.571  19.019  1.00  0.00     0.000 C 
BRANCH   3   4
ATOM      4  C   UNL     1       8.834   9.379  19.822  1.00  0.00     0.000 C 
BRANCH   4   5
ATOM      5  C   UNL     1       8.501   8.199  18.899  1.00  0.00     0.000 C 
BRANCH   5   6
ATOM      6  C   UNL     1       9.238   6.905  19.293  1.00  0.00     0.006 C 
BRANCH   6   7
ATOM      7  C   UNL     1       9.951   6.204  18.126  1.00  0.00     0.053 C 
BRANCH   7   8
ATOM      8  C   UNL     1      11.441   6.318  18.230  1.00  0.00     0.041 C 
ATOM      9  O   UNL     1      12.070   7.102  17.473  1.00  0.00    -0.550 OA
ATOM     10  O   UNL     1      12.130   5.582  19.185  1.00  0.00    -0.550 OA
ENDBRANCH   7   8
ENDBRANCH   6   7
ENDBRANCH   5   6
ENDBRANCH   4   5
ENDBRANCH   3   4
ENDBRANCH   2   3
ENDBRANCH   1   2
BRANCH   1  11
ATOM     11  C   UNL     1      10.748  12.331  20.880  1.00  0.00     0.000 C 
BRANCH  11  12
ATOM     12  C   UNL     1      10.403  12.161  22.373  1.00  0.00    -0.000 C 
BRANCH  12  13
ATOM     13  C   UNL     1      10.651  13.404  23.246  1.00  0.00    -0.000 C 
BRANCH  13  14
ATOM     14  C   UNL     1      12.123  13.853  23.240  1.00  0.00    -0.000 C 
BRANCH  14  15
ATOM     15  C   UNL     1      13.085  12.722  23.638  1.00  0.00    -0.000 C 
BRANCH  15  16
ATOM     16  C   UNL     1      14.187  12.489  22.589  1.00  0.00    -0.000 C 
BRANCH  16  17
ATOM     17  C   UNL     1      15.044  13.741  22.348  1.00  0.00    -0.003 C 
ATOM     18  C   UNL     1      15.819  14.178  23.591  1.00  0.00     0.004 C 
ENDBRANCH  16  17
ENDBRANCH  15  16
ENDBRANCH  14  15
ENDBRANCH  13  14
ENDBRANCH  12  13
ENDBRANCH  11  12
ENDBRANCH   1  11
TORSDOF 14
ENDMDL
MODEL 8
REMARK VINA RESULT:    -4.048      2.965      3.535
REMARK INTER + INTRA:          -9.284
REMARK INTER:                  -7.497
REMARK INTRA:                  -1.787
REMARK UNBOUND:                -1.924
REMARK SMILES CCCCCCCCCCCCCCCC(=O)[O-]
REMARK SMILES IDX 9 1 10 2 11 3 12 4 13 5 14 6 15 7 16 8 17 9 18 10 8 11 7 12
REMARK SMILES IDX 6 13 5 14 4 15 3 16 2 17 1 18
REMARK H PARENT
REMARK Flexibility Score: inf
ROOT
ATOM      1  C   UNL     1       9.454   8.089  20.879  1.00  0.00     0.000 C 
ENDROOT
BRANCH   1   2
ATOM      2  C   UNL     1      10.761   8.839  21.193  1.00  0.00     0.000 C 
BRANCH   2   3
ATOM      3  C   UNL     1      11.455   9.383  19.935  1.00  0.00     0.000 C 
BRANCH   3   4
ATOM      4  C   UNL     1      11.736  10.885  20.069  1.00  0.00     0.000 C 
BRANCH   4   5
ATOM      5  C   UNL     1      10.430  11.678  20.215  1.00  0.00     0.000 C 
BRANCH   5   6
ATOM      6  C   UNL     1      10.339  12.437  21.552  1.00  0.00     0.006 C 
BRANCH   6   7
ATOM      7  C   UNL     1      11.647  13.117  21.984  1.00  0.00     0.053 C 
BRANCH   7   8
ATOM      8  C   UNL     1      11.881  12.997  23.459  1.00  0.00     0.041 C 
ATOM      9  O   UNL     1      11.409  12.021  24.098  1.00  0.00    -0.550 OA
ATOM     10  O   UNL     1      12.647  13.948  24.121  1.00  0.00    -0.550 OA
ENDBRANCH   7   8
ENDBRANCH   6   7
ENDBRANCH   5   6
ENDBRANCH   4   5
ENDBRANCH   3   4
ENDBRANCH   2   3
ENDBRANCH   1   2
BRANCH   1  11
ATOM     11  C   UNL     1       8.904   8.311  19.456  1.00  0.00     0.000 C 
BRANCH  11  12
ATOM     12  C   UNL     1       8.612   7.025  18.657  1.00  0.00    -0.000 C 
BRANCH  12  13
ATOM     13  C   UNL     1       9.740   5.978  18.672  1.00  0.00    -0.000 C 
BRANCH  13  14
ATOM     14  C   UNL     1      10.938   6.381  17.794  1.00  0.00    -0.000 C 
BRANCH  14  15
ATOM     15  C   UNL     1      12.287   5.991  18.421  1.00  0.00    -0.000 C 
BRANCH  15  16
ATOM     16  C   UNL     1      12.170   5.686  19.925  1.00  0.00    -0.000 C 
BRANCH  16  17
ATOM     17  C   UNL     1      12.740   4.307  20.292  1.00  0.00    -0.003 C 
ATOM     18  C   UNL     1      11.881   3.563  21.314  1.00  0.00     0.004 C 
ENDBRANCH  16  17
ENDBRANCH  15  16
ENDBRANCH  14  15
ENDBRANCH  13  14
ENDBRANCH  12  13
ENDBRANCH  11  12
ENDBRANCH   1  11
TORSDOF 14
ENDMDL
MODEL 9
REMARK VINA RESULT:    -4.018      4.638      7.586
REMARK INTER + INTRA:          -9.229
REMARK INTER:                  -7.495
REMARK INTRA:                  -1.734
REMARK UNBOUND:                -1.924
REMARK SMILES CCCCCCCCCCCCCCCC(=O)[O-]
REMARK SMILES IDX 9 1 10 2 11 3 12 4 13 5 14 6 15 7 16 8 17 9 18 10 8 11 7 12
REMARK SMILES IDX 6 13 5 14 4 15 3 16 2 17 1 18
REMARK H PARENT
REMARK Flexibility Score: inf
ROOT
ATOM      1  C   UNL     1       8.530   7.214  18.713  1.00  0.00     0.000 C 
ENDROOT
BRANCH   1   2
ATOM      2  C   UNL     1       9.401   5.984  18.401  1.00  0.00     0.000 C 
BRANCH   2   3
ATOM      3  C   UNL     1      10.799   6.358  17.886  1.00  0.00     0.000 C 
BRANCH   3   4
ATOM      4  C   UNL     1      11.886   5.897  18.865  1.00  0.00     0.000 C 
BRANCH   4   5
ATOM      5  C   UNL     1      11.266   5.237  20.104  1.00  0.00     0.000 C 
BRANCH   5   6
ATOM      6  C   UNL     1      12.309   4.534  20.992  1.00  0.00     0.006 C 
BRANCH   6   7
ATOM      7  C   UNL     1      13.582   4.101  20.249  1.00  0.00     0.053 C 
BRANCH   7   8
ATOM      8  C   UNL     1      14.679   3.717  21.194  1.00  0.00     0.041 C 
ATOM      9  O   UNL     1      14.405   3.344  22.365  1.00  0.00    -0.550 OA
ATOM     10  O   UNL     1      16.002   3.742  20.771  1.00  0.00    -0.550 OA
ENDBRANCH   7   8
ENDBRANCH   6   7
ENDBRANCH   5   6
ENDBRANCH   4   5
ENDBRANCH   3   4
ENDBRANCH   2   3
ENDBRANCH   1   2
BRANCH   1  11
ATOM     11  C   UNL     1       9.304   8.447  19.219  1.00  0.00     0.000 C 
BRANCH  11  12
ATOM     12  C   UNL     1       9.569   8.478  20.738  1.00  0.00    -0.000 C 
BRANCH  12  13
ATOM     13  C   UNL     1      11.022   8.791  21.141  1.00  0.00    -0.000 C 
BRANCH  13  14
ATOM     14  C   UNL     1      11.845   9.386  19.985  1.00  0.00    -0.000 C 
BRANCH  14  15
ATOM     15  C   UNL     1      12.055  10.902  20.131  1.00  0.00    -0.000 C 
BRANCH  15  16
ATOM     16  C   UNL     1      10.752  11.698  19.944  1.00  0.00    -0.000 C 
BRANCH  16  17
ATOM     17  C   UNL     1      10.335  12.452  21.216  1.00  0.00    -0.003 C 
ATOM     18  C   UNL     1      11.528  12.982  22.010  1.00  0.00     0.004 C 
ENDBRANCH  16  17
ENDBRANCH  15  16
ENDBRANCH  14  15
ENDBRANCH  13  14
ENDBRANCH  12  13
ENDBRANCH  11  12
ENDBRANCH   1  11
TORSDOF 14
ENDMDL
