MODEL 1
REMARK VINA RESULT:    -6.311      0.000      0.000
REMARK INTER + INTRA:         -20.135
REMARK INTER:                 -16.642
REMARK INTRA:                  -3.493
REMARK UNBOUND:                -3.493
REMARK SMILES CCCCCCCCCCCCCCCCCCCCCCCCCCCCCC(=O)[O-]
REMARK SMILES IDX 16 1 17 2 18 3 19 4 20 5 21 6 22 7 23 8 24 9 25 10 26 11
REMARK SMILES IDX 27 12 28 13 29 14 30 15 31 16 32 17 15 18 14 19 13 20 12 21
REMARK SMILES IDX 11 22 10 23 9 24 8 25 7 26 6 27 5 28 4 29 3 30 2 31 1 32
REMARK H PARENT
REMARK Flexibility Score: inf
ROOT
ATOM      1  C   UNL     1      -4.539  43.356 102.555  1.00  0.00     0.000 C 
ENDROOT
BRANCH   1   2
ATOM      2  C   UNL     1      -4.433  43.874 104.006  1.00  0.00     0.000 C 
BRANCH   2   3
ATOM      3  C   UNL     1      -5.602  43.488 104.938  1.00  0.00     0.000 C 
BRANCH   3   4
ATOM      4  C   UNL     1      -6.997  43.513 104.280  1.00  0.00     0.000 C 
BRANCH   4   5
ATOM      5  C   UNL     1      -7.599  44.926 104.166  1.00  0.00     0.000 C 
BRANCH   5   6
ATOM      6  C   UNL     1      -8.276  45.170 102.797  1.00  0.00     0.000 C 
BRANCH   6   7
ATOM      7  C   UNL     1      -7.409  46.009 101.845  1.00  0.00     0.000 C 
BRANCH   7   8
ATOM      8  C   UNL     1      -7.487  45.493 100.400  1.00  0.00     0.000 C 
BRANCH   8   9
ATOM      9  C   UNL     1      -6.132  44.948  99.927  1.00  0.00     0.000 C 
BRANCH   9  10
ATOM     10  C   UNL     1      -5.911  45.264  98.440  1.00  0.00     0.000 C 
BRANCH  10  11
ATOM     11  C   UNL     1      -4.573  44.725  97.909  1.00  0.00     0.000 C 
BRANCH  11  12
ATOM     12  C   UNL     1      -4.608  43.212  97.640  1.00  0.00     0.000 C 
BRANCH  12  13
ATOM     13  C   UNL     1      -4.370  42.918  96.151  1.00  0.00     0.006 C 
BRANCH  13  14
ATOM     14  C   UNL     1      -5.603  42.307  95.470  1.00  0.00     0.053 C 
BRANCH  14  15
ATOM     15  C   UNL     1      -6.474  43.351  94.839  1.00  0.00     0.041 C 
ATOM     16  O   UNL     1      -7.638  43.559  95.276  1.00  0.00    -0.550 OA
ATOM     17  O   UNL     1      -6.000  44.094  93.764  1.00  0.00    -0.550 OA
ENDBRANCH  14  15
ENDBRANCH  13  14
ENDBRANCH  12  13
ENDBRANCH  11  12
ENDBRANCH  10  11
ENDBRANCH   9  10
ENDBRANCH   8   9
ENDBRANCH   7   8
ENDBRANCH   6   7
ENDBRANCH   5   6
ENDBRANCH   4   5
ENDBRANCH   3   4
ENDBRANCH   2   3
ENDBRANCH   1   2
BRANCH   1  18
ATOM     18  C   UNL     1      -3.281  42.643 102.025  1.00  0.00     0.000 C 
BRANCH  18  19
ATOM     19  C   UNL     1      -2.505  41.917 103.139  1.00  0.00     0.000 C 
BRANCH  19  20
ATOM     20  C   UNL     1      -2.665  40.389 103.081  1.00  0.00     0.000 C 
BRANCH  20  21
ATOM     21  C   UNL     1      -1.467  39.683 102.418  1.00  0.00     0.000 C 
BRANCH  21  22
ATOM     22  C   UNL     1      -1.902  38.607 101.411  1.00  0.00     0.000 C 
BRANCH  22  23
ATOM     23  C   UNL     1      -3.419  38.350 101.433  1.00  0.00     0.000 C 
BRANCH  23  24
ATOM     24  C   UNL     1      -3.769  36.902 101.814  1.00  0.00    -0.000 C 
BRANCH  24  25
ATOM     25  C   UNL     1      -5.117  36.448 101.224  1.00  0.00    -0.000 C 
BRANCH  25  26
ATOM     26  C   UNL     1      -4.980  35.283 100.232  1.00  0.00    -0.000 C 
BRANCH  26  27
ATOM     27  C   UNL     1      -3.535  34.780 100.099  1.00  0.00    -0.000 C 
BRANCH  27  28
ATOM     28  C   UNL     1      -2.868  35.220  98.782  1.00  0.00    -0.000 C 
BRANCH  28  29
ATOM     29  C   UNL     1      -3.816  35.986  97.834  1.00  0.00    -0.000 C 
BRANCH  29  30
ATOM     30  C   UNL     1      -3.488  37.489  97.769  1.00  0.00    -0.000 C 
BRANCH  30  31
ATOM     31  C   UNL     1      -4.714  38.373  98.044  1.00  0.00    -0.003 C 
ATOM     32  C   UNL     1      -5.981  37.859  97.357  1.00  0.00     0.004 C 
ENDBRANCH  30  31
ENDBRANCH  29  30
ENDBRANCH  28  29
ENDBRANCH  27  28
ENDBRANCH  26  27
ENDBRANCH  25  26
ENDBRANCH  24  25
ENDBRANCH  23  24
ENDBRANCH  22  23
ENDBRANCH  21  22
ENDBRANCH  20  21
ENDBRANCH  19  20
ENDBRANCH  18  19
ENDBRANCH   1  18
TORSDOF 28
ENDMDL
MODEL 2
REMARK VINA RESULT:    -6.293      2.272      8.176
REMARK INTER + INTRA:         -20.087
REMARK INTER:                 -16.094
REMARK INTRA:                  -3.993
REMARK UNBOUND:                -3.493
REMARK SMILES CCCCCCCCCCCCCCCCCCCCCCCCCCCCCC(=O)[O-]
REMARK SMILES IDX 16 1 17 2 18 3 19 4 20 5 21 6 22 7 23 8 24 9 25 10 26 11
REMARK SMILES IDX 27 12 28 13 29 14 30 15 31 16 32 17 15 18 14 19 13 20 12 21
REMARK SMILES IDX 11 22 10 23 9 24 8 25 7 26 6 27 5 28 4 29 3 30 2 31 1 32
REMARK H PARENT
REMARK Flexibility Score: inf
ROOT
ATOM      1  C   UNL     1      -0.481  41.615 103.047  1.00  0.00     0.000 C 
ENDROOT
BRANCH   1   2
ATOM      2  C   UNL     1      -0.985  40.156 103.027  1.00  0.00     0.000 C 
BRANCH   2   3
ATOM      3  C   UNL     1      -2.497  39.976 102.768  1.00  0.00     0.000 C 
BRANCH   3   4
ATOM      4  C   UNL     1      -2.923  40.085 101.289  1.00  0.00     0.000 C 
BRANCH   4   5
ATOM      5  C   UNL     1      -3.061  38.720 100.588  1.00  0.00     0.000 C 
BRANCH   5   6
ATOM      6  C   UNL     1      -2.595  37.549 101.483  1.00  0.00     0.000 C 
BRANCH   6   7
ATOM      7  C   UNL     1      -3.748  36.618 101.896  1.00  0.00     0.000 C 
BRANCH   7   8
ATOM      8  C   UNL     1      -4.948  36.744 100.945  1.00  0.00     0.000 C 
BRANCH   8   9
ATOM      9  C   UNL     1      -5.441  35.366 100.483  1.00  0.00     0.000 C 
BRANCH   9  10
ATOM     10  C   UNL     1      -4.261  34.493 100.030  1.00  0.00     0.000 C 
BRANCH  10  11
ATOM     11  C   UNL     1      -3.947  34.643  98.533  1.00  0.00     0.000 C 
BRANCH  11  12
ATOM     12  C   UNL     1      -2.802  35.634  98.264  1.00  0.00     0.000 C 
BRANCH  12  13
ATOM     13  C   UNL     1      -3.239  36.712  97.262  1.00  0.00     0.006 C 
BRANCH  13  14
ATOM     14  C   UNL     1      -4.737  36.631  96.929  1.00  0.00     0.053 C 
BRANCH  14  15
ATOM     15  C   UNL     1      -5.456  37.907  97.247  1.00  0.00     0.041 C 
ATOM     16  O   UNL     1      -4.821  38.900  97.694  1.00  0.00    -0.550 OA
ATOM     17  O   UNL     1      -6.829  37.998  97.051  1.00  0.00    -0.550 OA
ENDBRANCH  14  15
ENDBRANCH  13  14
ENDBRANCH  12  13
ENDBRANCH  11  12
ENDBRANCH  10  11
ENDBRANCH   9  10
ENDBRANCH   8   9
ENDBRANCH   7   8
ENDBRANCH   6   7
ENDBRANCH   5   6
ENDBRANCH   4   5
ENDBRANCH   3   4
ENDBRANCH   2   3
ENDBRANCH   1   2
BRANCH   1  18
ATOM     18  C   UNL     1      -1.450  42.630 103.681  1.00  0.00     0.000 C 
BRANCH  18  19
ATOM     19  C   UNL     1      -1.577  43.919 102.850  1.00  0.00     0.000 C 
BRANCH  19  20
ATOM     20  C   UNL     1      -2.815  44.752 103.223  1.00  0.00     0.000 C 
BRANCH  20  21
ATOM     21  C   UNL     1      -3.804  44.920 102.054  1.00  0.00     0.000 C 
BRANCH  21  22
ATOM     22  C   UNL     1      -4.350  43.576 101.548  1.00  0.00     0.000 C 
BRANCH  22  23
ATOM     23  C   UNL     1      -4.067  43.343 100.053  1.00  0.00     0.000 C 
BRANCH  23  24
ATOM     24  C   UNL     1      -4.271  44.611  99.208  1.00  0.00    -0.000 C 
BRANCH  24  25
ATOM     25  C   UNL     1      -5.755  44.881  98.900  1.00  0.00    -0.000 C 
BRANCH  25  26
ATOM     26  C   UNL     1      -6.186  46.320  99.223  1.00  0.00    -0.000 C 
BRANCH  26  27
ATOM     27  C   UNL     1      -6.817  46.455 100.616  1.00  0.00    -0.000 C 
BRANCH  27  28
ATOM     28  C   UNL     1      -7.683  45.241 101.001  1.00  0.00    -0.000 C 
BRANCH  28  29
ATOM     29  C   UNL     1      -9.028  45.622 101.654  1.00  0.00    -0.000 C 
BRANCH  29  30
ATOM     30  C   UNL     1      -9.035  45.363 103.172  1.00  0.00    -0.000 C 
BRANCH  30  31
ATOM     31  C   UNL     1      -7.834  44.521 103.632  1.00  0.00    -0.003 C 
ATOM     32  C   UNL     1      -6.787  45.345 104.384  1.00  0.00     0.004 C 
ENDBRANCH  30  31
ENDBRANCH  29  30
ENDBRANCH  28  29
ENDBRANCH  27  28
ENDBRANCH  26  27
ENDBRANCH  25  26
ENDBRANCH  24  25
ENDBRANCH  23  24
ENDBRANCH  22  23
ENDBRANCH  21  22
ENDBRANCH  20  21
ENDBRANCH  19  20
ENDBRANCH  18  19
ENDBRANCH   1  18
TORSDOF 28
ENDMDL
MODEL 3
REMARK VINA RESULT:    -6.199      2.060      7.181
REMARK INTER + INTRA:         -19.838
REMARK INTER:                 -16.240
REMARK INTRA:                  -3.597
REMARK UNBOUND:                -3.493
REMARK SMILES CCCCCCCCCCCCCCCCCCCCCCCCCCCCCC(=O)[O-]
REMARK SMILES IDX 16 1 17 2 18 3 19 4 20 5 21 6 22 7 23 8 24 9 25 10 26 11
REMARK SMILES IDX 27 12 28 13 29 14 30 15 31 16 32 17 15 18 14 19 13 20 12 21
REMARK SMILES IDX 11 22 10 23 9 24 8 25 7 26 6 27 5 28 4 29 3 30 2 31 1 32
REMARK H PARENT
REMARK Flexibility Score: inf
ROOT
ATOM      1  C   UNL     1      -5.419  35.490 100.560  1.00  0.00     0.000 C 
ENDROOT
BRANCH   1   2
ATOM      2  C   UNL     1      -4.847  36.779 101.187  1.00  0.00     0.000 C 
BRANCH   2   3
ATOM      3  C   UNL     1      -3.364  36.714 101.610  1.00  0.00     0.000 C 
BRANCH   3   4
ATOM      4  C   UNL     1      -2.899  37.856 102.538  1.00  0.00     0.000 C 
BRANCH   4   5
ATOM      5  C   UNL     1      -2.907  39.240 101.862  1.00  0.00     0.000 C 
BRANCH   5   6
ATOM      6  C   UNL     1      -2.027  40.267 102.612  1.00  0.00     0.000 C 
BRANCH   6   7
ATOM      7  C   UNL     1      -2.847  41.398 103.253  1.00  0.00     0.000 C 
BRANCH   7   8
ATOM      8  C   UNL     1      -3.447  42.336 102.195  1.00  0.00     0.000 C 
BRANCH   8   9
ATOM      9  C   UNL     1      -4.398  43.360 102.831  1.00  0.00     0.000 C 
BRANCH   9  10
ATOM     10  C   UNL     1      -4.323  43.289 104.364  1.00  0.00     0.000 C 
BRANCH  10  11
ATOM     11  C   UNL     1      -5.695  43.457 105.036  1.00  0.00     0.000 C 
BRANCH  11  12
ATOM     12  C   UNL     1      -6.864  43.192 104.074  1.00  0.00     0.000 C 
BRANCH  12  13
ATOM     13  C   UNL     1      -7.794  44.411 103.997  1.00  0.00     0.006 C 
BRANCH  13  14
ATOM     14  C   UNL     1      -7.620  45.200 102.691  1.00  0.00     0.053 C 
BRANCH  14  15
ATOM     15  C   UNL     1      -8.935  45.608 102.099  1.00  0.00     0.041 C 
ATOM     16  O   UNL     1      -9.016  45.916 100.879  1.00  0.00    -0.550 OA
ATOM     17  O   UNL     1     -10.072  45.652 102.897  1.00  0.00    -0.550 OA
ENDBRANCH  14  15
ENDBRANCH  13  14
ENDBRANCH  12  13
ENDBRANCH  11  12
ENDBRANCH  10  11
ENDBRANCH   9  10
ENDBRANCH   8   9
ENDBRANCH   7   8
ENDBRANCH   6   7
ENDBRANCH   5   6
ENDBRANCH   4   5
ENDBRANCH   3   4
ENDBRANCH   2   3
ENDBRANCH   1   2
BRANCH   1  18
ATOM     18  C   UNL     1      -4.363  34.457 100.120  1.00  0.00     0.000 C 
BRANCH  18  19
ATOM     19  C   UNL     1      -4.102  34.493  98.604  1.00  0.00     0.000 C 
BRANCH  19  20
ATOM     20  C   UNL     1      -2.865  35.325  98.231  1.00  0.00     0.000 C 
BRANCH  20  21
ATOM     21  C   UNL     1      -3.208  36.579  97.403  1.00  0.00     0.000 C 
BRANCH  21  22
ATOM     22  C   UNL     1      -4.678  36.604  96.957  1.00  0.00     0.000 C 
BRANCH  22  23
ATOM     23  C   UNL     1      -5.455  37.802  97.532  1.00  0.00     0.000 C 
BRANCH  23  24
ATOM     24  C   UNL     1      -4.543  38.803  98.260  1.00  0.00    -0.000 C 
BRANCH  24  25
ATOM     25  C   UNL     1      -4.791  40.256  97.815  1.00  0.00    -0.000 C 
BRANCH  25  26
ATOM     26  C   UNL     1      -5.424  40.359  96.419  1.00  0.00    -0.000 C 
BRANCH  26  27
ATOM     27  C   UNL     1      -5.022  41.641  95.675  1.00  0.00    -0.000 C 
BRANCH  27  28
ATOM     28  C   UNL     1      -5.900  42.850  96.051  1.00  0.00    -0.000 C 
BRANCH  28  29
ATOM     29  C   UNL     1      -5.110  44.015  96.684  1.00  0.00    -0.000 C 
BRANCH  29  30
ATOM     30  C   UNL     1      -4.414  43.604  97.995  1.00  0.00    -0.000 C 
BRANCH  30  31
ATOM     31  C   UNL     1      -5.071  44.232  99.235  1.00  0.00    -0.003 C 
ATOM     32  C   UNL     1      -6.152  45.253  98.877  1.00  0.00     0.004 C 
ENDBRANCH  30  31
ENDBRANCH  29  30
ENDBRANCH  28  29
ENDBRANCH  27  28
ENDBRANCH  26  27
ENDBRANCH  25  26
ENDBRANCH  24  25
ENDBRANCH  23  24
ENDBRANCH  22  23
ENDBRANCH  21  22
ENDBRANCH  20  21
ENDBRANCH  19  20
ENDBRANCH  18  19
ENDBRANCH   1  18
TORSDOF 28
ENDMDL
MODEL 4
REMARK VINA RESULT:    -6.111      2.513      3.197
REMARK INTER + INTRA:         -19.608
REMARK INTER:                 -16.227
REMARK INTRA:                  -3.380
REMARK UNBOUND:                -3.493
REMARK SMILES CCCCCCCCCCCCCCCCCCCCCCCCCCCCCC(=O)[O-]
REMARK SMILES IDX 16 1 17 2 18 3 19 4 20 5 21 6 22 7 23 8 24 9 25 10 26 11
REMARK SMILES IDX 27 12 28 13 29 14 30 15 31 16 32 17 15 18 14 19 13 20 12 21
REMARK SMILES IDX 11 22 10 23 9 24 8 25 7 26 6 27 5 28 4 29 3 30 2 31 1 32
REMARK H PARENT
REMARK Flexibility Score: inf
ROOT
ATOM      1  C   UNL     1      -4.453  42.597 104.474  1.00  0.00     0.000 C 
ENDROOT
BRANCH   1   2
ATOM      2  C   UNL     1      -5.456  43.655 104.980  1.00  0.00     0.000 C 
BRANCH   2   3
ATOM      3  C   UNL     1      -6.815  43.690 104.247  1.00  0.00     0.000 C 
BRANCH   3   4
ATOM      4  C   UNL     1      -6.734  43.997 102.737  1.00  0.00     0.000 C 
BRANCH   4   5
ATOM      5  C   UNL     1      -6.272  45.433 102.425  1.00  0.00     0.000 C 
BRANCH   5   6
ATOM      6  C   UNL     1      -4.929  45.466 101.660  1.00  0.00     0.000 C 
BRANCH   6   7
ATOM      7  C   UNL     1      -4.685  44.196 100.828  1.00  0.00     0.000 C 
BRANCH   7   8
ATOM      8  C   UNL     1      -5.110  44.386  99.364  1.00  0.00     0.000 C 
BRANCH   8   9
ATOM      9  C   UNL     1      -4.131  43.692  98.405  1.00  0.00     0.000 C 
BRANCH   9  10
ATOM     10  C   UNL     1      -4.839  43.303  97.098  1.00  0.00     0.000 C 
BRANCH  10  11
ATOM     11  C   UNL     1      -3.948  43.485  95.860  1.00  0.00     0.000 C 
BRANCH  11  12
ATOM     12  C   UNL     1      -2.958  44.652  96.008  1.00  0.00     0.000 C 
BRANCH  12  13
ATOM     13  C   UNL     1      -1.515  44.174  95.790  1.00  0.00     0.006 C 
BRANCH  13  14
ATOM     14  C   UNL     1      -0.489  45.054  96.521  1.00  0.00     0.053 C 
BRANCH  14  15
ATOM     15  C   UNL     1       0.325  45.878  95.571  1.00  0.00     0.041 C 
ATOM     16  O   UNL     1       0.133  47.120  95.479  1.00  0.00    -0.550 OA
ATOM     17  O   UNL     1       1.298  45.272  94.783  1.00  0.00    -0.550 OA
ENDBRANCH  14  15
ENDBRANCH  13  14
ENDBRANCH  12  13
ENDBRANCH  11  12
ENDBRANCH  10  11
ENDBRANCH   9  10
ENDBRANCH   8   9
ENDBRANCH   7   8
ENDBRANCH   6   7
ENDBRANCH   5   6
ENDBRANCH   4   5
ENDBRANCH   3   4
ENDBRANCH   2   3
ENDBRANCH   1   2
BRANCH   1  18
ATOM     18  C   UNL     1      -3.111  43.160 103.971  1.00  0.00     0.000 C 
BRANCH  18  19
ATOM     19  C   UNL     1      -2.266  42.102 103.240  1.00  0.00     0.000 C 
BRANCH  19  20
ATOM     20  C   UNL     1      -3.100  41.219 102.297  1.00  0.00     0.000 C 
BRANCH  20  21
ATOM     21  C   UNL     1      -2.538  39.793 102.151  1.00  0.00     0.000 C 
BRANCH  21  22
ATOM     22  C   UNL     1      -2.774  38.937 103.405  1.00  0.00     0.000 C 
BRANCH  22  23
ATOM     23  C   UNL     1      -3.144  37.481 103.070  1.00  0.00     0.000 C 
BRANCH  23  24
ATOM     24  C   UNL     1      -3.514  37.289 101.590  1.00  0.00    -0.000 C 
BRANCH  24  25
ATOM     25  C   UNL     1      -4.864  36.571 101.410  1.00  0.00    -0.000 C 
BRANCH  25  26
ATOM     26  C   UNL     1      -4.839  35.512 100.296  1.00  0.00    -0.000 C 
BRANCH  26  27
ATOM     27  C   UNL     1      -3.424  35.009  99.982  1.00  0.00    -0.000 C 
BRANCH  27  28
ATOM     28  C   UNL     1      -3.075  35.098  98.484  1.00  0.00    -0.000 C 
BRANCH  28  29
ATOM     29  C   UNL     1      -3.097  36.538  97.928  1.00  0.00    -0.000 C 
BRANCH  29  30
ATOM     30  C   UNL     1      -4.298  36.786  96.997  1.00  0.00    -0.000 C 
BRANCH  30  31
ATOM     31  C   UNL     1      -5.073  38.063  97.360  1.00  0.00    -0.003 C 
ATOM     32  C   UNL     1      -4.388  38.879  98.457  1.00  0.00     0.004 C 
ENDBRANCH  30  31
ENDBRANCH  29  30
ENDBRANCH  28  29
ENDBRANCH  27  28
ENDBRANCH  26  27
ENDBRANCH  25  26
ENDBRANCH  24  25
ENDBRANCH  23  24
ENDBRANCH  22  23
ENDBRANCH  21  22
ENDBRANCH  20  21
ENDBRANCH  19  20
ENDBRANCH  18  19
ENDBRANCH   1  18
TORSDOF 28
ENDMDL
MODEL 5
REMARK VINA RESULT:    -6.094      3.775      5.177
REMARK INTER + INTRA:         -19.562
REMARK INTER:                 -15.504
REMARK INTRA:                  -4.057
REMARK UNBOUND:                -3.493
REMARK SMILES CCCCCCCCCCCCCCCCCCCCCCCCCCCCCC(=O)[O-]
REMARK SMILES IDX 16 1 17 2 18 3 19 4 20 5 21 6 22 7 23 8 24 9 25 10 26 11
REMARK SMILES IDX 27 12 28 13 29 14 30 15 31 16 32 17 15 18 14 19 13 20 12 21
REMARK SMILES IDX 11 22 10 23 9 24 8 25 7 26 6 27 5 28 4 29 3 30 2 31 1 32
REMARK H PARENT
REMARK Flexibility Score: inf
ROOT
ATOM      1  C   UNL     1      -3.859  43.002 103.321  1.00  0.00     0.000 C 
ENDROOT
BRANCH   1   2
ATOM      2  C   UNL     1      -4.658  42.608 104.582  1.00  0.00     0.000 C 
BRANCH   2   3
ATOM      3  C   UNL     1      -6.035  43.289 104.739  1.00  0.00     0.000 C 
BRANCH   3   4
ATOM      4  C   UNL     1      -6.644  43.840 103.432  1.00  0.00     0.000 C 
BRANCH   4   5
ATOM      5  C   UNL     1      -7.805  44.826 103.663  1.00  0.00     0.000 C 
BRANCH   5   6
ATOM      6  C   UNL     1      -8.412  45.340 102.338  1.00  0.00     0.000 C 
BRANCH   6   7
ATOM      7  C   UNL     1      -7.422  45.274 101.163  1.00  0.00     0.000 C 
BRANCH   7   8
ATOM      8  C   UNL     1      -7.142  46.666 100.576  1.00  0.00     0.000 C 
BRANCH   8   9
ATOM      9  C   UNL     1      -6.007  47.372 101.331  1.00  0.00     0.000 C 
BRANCH   9  10
ATOM     10  C   UNL     1      -4.764  46.471 101.404  1.00  0.00     0.000 C 
BRANCH  10  11
ATOM     11  C   UNL     1      -4.118  46.459 102.799  1.00  0.00     0.000 C 
BRANCH  11  12
ATOM     12  C   UNL     1      -4.978  47.169 103.857  1.00  0.00     0.000 C 
BRANCH  12  13
ATOM     13  C   UNL     1      -4.524  46.787 105.274  1.00  0.00     0.006 C 
BRANCH  13  14
ATOM     14  C   UNL     1      -3.139  47.355 105.618  1.00  0.00     0.053 C 
BRANCH  14  15
ATOM     15  C   UNL     1      -2.191  46.289 106.079  1.00  0.00     0.041 C 
ATOM     16  O   UNL     1      -1.034  46.595 106.475  1.00  0.00    -0.550 OA
ATOM     17  O   UNL     1      -2.585  44.956 106.066  1.00  0.00    -0.550 OA
ENDBRANCH  14  15
ENDBRANCH  13  14
ENDBRANCH  12  13
ENDBRANCH  11  12
ENDBRANCH  10  11
ENDBRANCH   9  10
ENDBRANCH   8   9
ENDBRANCH   7   8
ENDBRANCH   6   7
ENDBRANCH   5   6
ENDBRANCH   4   5
ENDBRANCH   3   4
ENDBRANCH   2   3
ENDBRANCH   1   2
BRANCH   1  18
ATOM     18  C   UNL     1      -3.269  41.820 102.528  1.00  0.00     0.000 C 
BRANCH  18  19
ATOM     19  C   UNL     1      -1.954  41.304 103.138  1.00  0.00     0.000 C 
BRANCH  19  20
ATOM     20  C   UNL     1      -1.479  39.985 102.505  1.00  0.00     0.000 C 
BRANCH  20  21
ATOM     21  C   UNL     1      -2.502  38.843 102.655  1.00  0.00     0.000 C 
BRANCH  21  22
ATOM     22  C   UNL     1      -2.752  38.100 101.334  1.00  0.00     0.000 C 
BRANCH  22  23
ATOM     23  C   UNL     1      -3.377  36.709 101.542  1.00  0.00     0.000 C 
BRANCH  23  24
ATOM     24  C   UNL     1      -4.893  36.695 101.285  1.00  0.00    -0.000 C 
BRANCH  24  25
ATOM     25  C   UNL     1      -5.360  35.405 100.587  1.00  0.00    -0.000 C 
BRANCH  25  26
ATOM     26  C   UNL     1      -4.198  34.481 100.188  1.00  0.00    -0.000 C 
BRANCH  26  27
ATOM     27  C   UNL     1      -3.993  34.402  98.669  1.00  0.00    -0.000 C 
BRANCH  27  28
ATOM     28  C   UNL     1      -2.804  35.251  98.181  1.00  0.00    -0.000 C 
BRANCH  28  29
ATOM     29  C   UNL     1      -3.203  36.671  97.724  1.00  0.00    -0.000 C 
BRANCH  29  30
ATOM     30  C   UNL     1      -4.636  36.722  97.164  1.00  0.00    -0.000 C 
BRANCH  30  31
ATOM     31  C   UNL     1      -5.489  37.819  97.822  1.00  0.00    -0.003 C 
ATOM     32  C   UNL     1      -6.745  38.154  97.017  1.00  0.00     0.004 C 
ENDBRANCH  30  31
ENDBRANCH  29  30
ENDBRANCH  28  29
ENDBRANCH  27  28
ENDBRANCH  26  27
ENDBRANCH  25  26
ENDBRANCH  24  25
ENDBRANCH  23  24
ENDBRANCH  22  23
ENDBRANCH  21  22
ENDBRANCH  20  21
ENDBRANCH  19  20
ENDBRANCH  18  19
ENDBRANCH   1  18
TORSDOF 28
ENDMDL
MODEL 6
REMARK VINA RESULT:    -6.074      1.445      2.068
REMARK INTER + INTRA:         -19.509
REMARK INTER:                 -15.907
REMARK INTRA:                  -3.602
REMARK UNBOUND:                -3.493
REMARK SMILES CCCCCCCCCCCCCCCCCCCCCCCCCCCCCC(=O)[O-]
REMARK SMILES IDX 16 1 17 2 18 3 19 4 20 5 21 6 22 7 23 8 24 9 25 10 26 11
REMARK SMILES IDX 27 12 28 13 29 14 30 15 31 16 32 17 15 18 14 19 13 20 12 21
REMARK SMILES IDX 11 22 10 23 9 24 8 25 7 26 6 27 5 28 4 29 3 30 2 31 1 32
REMARK H PARENT
REMARK Flexibility Score: inf
ROOT
ATOM      1  C   UNL     1      -3.436  42.671 103.880  1.00  0.00     0.000 C 
ENDROOT
BRANCH   1   2
ATOM      2  C   UNL     1      -4.742  43.451 103.616  1.00  0.00     0.000 C 
BRANCH   2   3
ATOM      3  C   UNL     1      -5.889  43.190 104.617  1.00  0.00     0.000 C 
BRANCH   3   4
ATOM      4  C   UNL     1      -7.221  43.891 104.281  1.00  0.00     0.000 C 
BRANCH   4   5
ATOM      5  C   UNL     1      -7.333  44.325 102.807  1.00  0.00     0.000 C 
BRANCH   5   6
ATOM      6  C   UNL     1      -8.484  45.331 102.575  1.00  0.00     0.000 C 
BRANCH   6   7
ATOM      7  C   UNL     1      -8.689  45.671 101.089  1.00  0.00     0.000 C 
BRANCH   7   8
ATOM      8  C   UNL     1      -7.430  45.375 100.259  1.00  0.00     0.000 C 
BRANCH   8   9
ATOM      9  C   UNL     1      -6.678  46.666  99.907  1.00  0.00     0.000 C 
BRANCH   9  10
ATOM     10  C   UNL     1      -5.669  47.022 101.009  1.00  0.00     0.000 C 
BRANCH  10  11
ATOM     11  C   UNL     1      -4.209  46.858 100.557  1.00  0.00     0.000 C 
BRANCH  11  12
ATOM     12  C   UNL     1      -3.706  45.411 100.689  1.00  0.00     0.000 C 
BRANCH  12  13
ATOM     13  C   UNL     1      -3.441  44.798  99.306  1.00  0.00     0.006 C 
BRANCH  13  14
ATOM     14  C   UNL     1      -4.334  43.580  99.025  1.00  0.00     0.053 C 
BRANCH  14  15
ATOM     15  C   UNL     1      -4.877  43.589  97.628  1.00  0.00     0.041 C 
ATOM     16  O   UNL     1      -4.785  42.563  96.902  1.00  0.00    -0.550 OA
ATOM     17  O   UNL     1      -5.485  44.735  97.127  1.00  0.00    -0.550 OA
ENDBRANCH  14  15
ENDBRANCH  13  14
ENDBRANCH  12  13
ENDBRANCH  11  12
ENDBRANCH  10  11
ENDBRANCH   9  10
ENDBRANCH   8   9
ENDBRANCH   7   8
ENDBRANCH   6   7
ENDBRANCH   5   6
ENDBRANCH   4   5
ENDBRANCH   3   4
ENDBRANCH   2   3
ENDBRANCH   1   2
BRANCH   1  18
ATOM     18  C   UNL     1      -3.057  41.649 102.791  1.00  0.00     0.000 C 
BRANCH  18  19
ATOM     19  C   UNL     1      -1.604  41.162 102.924  1.00  0.00     0.000 C 
BRANCH  19  20
ATOM     20  C   UNL     1      -1.410  39.718 102.434  1.00  0.00     0.000 C 
BRANCH  20  21
ATOM     21  C   UNL     1      -2.607  39.193 101.618  1.00  0.00     0.000 C 
BRANCH  21  22
ATOM     22  C   UNL     1      -2.622  37.660 101.517  1.00  0.00     0.000 C 
BRANCH  22  23
ATOM     23  C   UNL     1      -3.855  37.031 102.189  1.00  0.00     0.000 C 
BRANCH  23  24
ATOM     24  C   UNL     1      -4.992  36.748 101.194  1.00  0.00    -0.000 C 
BRANCH  24  25
ATOM     25  C   UNL     1      -5.031  35.274 100.749  1.00  0.00    -0.000 C 
BRANCH  25  26
ATOM     26  C   UNL     1      -5.763  35.067  99.414  1.00  0.00    -0.000 C 
BRANCH  26  27
ATOM     27  C   UNL     1      -4.820  34.659  98.273  1.00  0.00    -0.000 C 
BRANCH  27  28
ATOM     28  C   UNL     1      -3.486  35.429  98.296  1.00  0.00    -0.000 C 
BRANCH  28  29
ATOM     29  C   UNL     1      -3.476  36.675  97.385  1.00  0.00    -0.000 C 
BRANCH  29  30
ATOM     30  C   UNL     1      -3.723  37.976  98.171  1.00  0.00    -0.000 C 
BRANCH  30  31
ATOM     31  C   UNL     1      -4.906  38.786  97.618  1.00  0.00    -0.003 C 
ATOM     32  C   UNL     1      -6.045  37.899  97.113  1.00  0.00     0.004 C 
ENDBRANCH  30  31
ENDBRANCH  29  30
ENDBRANCH  28  29
ENDBRANCH  27  28
ENDBRANCH  26  27
ENDBRANCH  25  26
ENDBRANCH  24  25
ENDBRANCH  23  24
ENDBRANCH  22  23
ENDBRANCH  21  22
ENDBRANCH  20  21
ENDBRANCH  19  20
ENDBRANCH  18  19
ENDBRANCH   1  18
TORSDOF 28
ENDMDL
MODEL 7
REMARK VINA RESULT:    -6.072      2.070      6.295
REMARK INTER + INTRA:         -19.503
REMARK INTER:                 -15.534
REMARK INTRA:                  -3.969
REMARK UNBOUND:                -3.493
REMARK SMILES CCCCCCCCCCCCCCCCCCCCCCCCCCCCCC(=O)[O-]
REMARK SMILES IDX 16 1 17 2 18 3 19 4 20 5 21 6 22 7 23 8 24 9 25 10 26 11
REMARK SMILES IDX 27 12 28 13 29 14 30 15 31 16 32 17 15 18 14 19 13 20 12 21
REMARK SMILES IDX 11 22 10 23 9 24 8 25 7 26 6 27 5 28 4 29 3 30 2 31 1 32
REMARK H PARENT
REMARK Flexibility Score: inf
ROOT
ATOM      1  C   UNL     1      -5.568  38.186  97.818  1.00  0.00     0.000 C 
ENDROOT
BRANCH   1   2
ATOM      2  C   UNL     1      -6.064  39.039  96.630  1.00  0.00     0.000 C 
BRANCH   2   3
ATOM      3  C   UNL     1      -5.168  40.238  96.252  1.00  0.00     0.000 C 
BRANCH   3   4
ATOM      4  C   UNL     1      -5.928  41.517  95.841  1.00  0.00     0.000 C 
BRANCH   4   5
ATOM      5  C   UNL     1      -5.038  42.564  95.146  1.00  0.00     0.000 C 
BRANCH   5   6
ATOM      6  C   UNL     1      -4.106  43.297  96.139  1.00  0.00     0.000 C 
BRANCH   6   7
ATOM      7  C   UNL     1      -4.867  43.927  97.317  1.00  0.00     0.000 C 
BRANCH   7   8
ATOM      8  C   UNL     1      -4.213  43.586  98.664  1.00  0.00     0.000 C 
BRANCH   8   9
ATOM      9  C   UNL     1      -3.469  44.796  99.246  1.00  0.00     0.000 C 
BRANCH   9  10
ATOM     10  C   UNL     1      -3.944  45.087 100.678  1.00  0.00     0.000 C 
BRANCH  10  11
ATOM     11  C   UNL     1      -5.043  44.121 101.149  1.00  0.00     0.000 C 
BRANCH  11  12
ATOM     12  C   UNL     1      -5.987  44.755 102.183  1.00  0.00     0.000 C 
BRANCH  12  13
ATOM     13  C   UNL     1      -7.424  44.816 101.645  1.00  0.00     0.006 C 
BRANCH  13  14
ATOM     14  C   UNL     1      -7.504  45.478 100.261  1.00  0.00     0.053 C 
BRANCH  14  15
ATOM     15  C   UNL     1      -7.297  46.960 100.332  1.00  0.00     0.041 C 
ATOM     16  O   UNL     1      -6.494  47.529  99.543  1.00  0.00    -0.550 OA
ATOM     17  O   UNL     1      -7.988  47.714 101.273  1.00  0.00    -0.550 OA
ENDBRANCH  14  15
ENDBRANCH  13  14
ENDBRANCH  12  13
ENDBRANCH  11  12
ENDBRANCH  10  11
ENDBRANCH   9  10
ENDBRANCH   8   9
ENDBRANCH   7   8
ENDBRANCH   6   7
ENDBRANCH   5   6
ENDBRANCH   4   5
ENDBRANCH   3   4
ENDBRANCH   2   3
ENDBRANCH   1   2
BRANCH   1  18
ATOM     18  C   UNL     1      -4.354  38.761  98.571  1.00  0.00     0.000 C 
BRANCH  18  19
ATOM     19  C   UNL     1      -3.088  37.906  98.383  1.00  0.00     0.000 C 
BRANCH  19  20
ATOM     20  C   UNL     1      -3.338  36.648  97.534  1.00  0.00     0.000 C 
BRANCH  20  21
ATOM     21  C   UNL     1      -2.899  35.350  98.238  1.00  0.00     0.000 C 
BRANCH  21  22
ATOM     22  C   UNL     1      -4.089  34.456  98.618  1.00  0.00     0.000 C 
BRANCH  22  23
ATOM     23  C   UNL     1      -4.442  34.540 100.114  1.00  0.00     0.000 C 
BRANCH  23  24
ATOM     24  C   UNL     1      -5.360  35.729 100.440  1.00  0.00    -0.000 C 
BRANCH  24  25
ATOM     25  C   UNL     1      -4.884  36.521 101.671  1.00  0.00    -0.000 C 
BRANCH  25  26
ATOM     26  C   UNL     1      -3.382  36.846 101.635  1.00  0.00    -0.000 C 
BRANCH  26  27
ATOM     27  C   UNL     1      -2.983  37.937 102.639  1.00  0.00    -0.000 C 
BRANCH  27  28
ATOM     28  C   UNL     1      -2.314  39.151 101.968  1.00  0.00    -0.000 C 
BRANCH  28  29
ATOM     29  C   UNL     1      -2.051  40.325 102.934  1.00  0.00    -0.000 C 
BRANCH  29  30
ATOM     30  C   UNL     1      -2.941  41.544 102.628  1.00  0.00    -0.000 C 
BRANCH  30  31
ATOM     31  C   UNL     1      -2.648  42.737 103.552  1.00  0.00    -0.003 C 
ATOM     32  C   UNL     1      -1.322  43.426 103.225  1.00  0.00     0.004 C 
ENDBRANCH  30  31
ENDBRANCH  29  30
ENDBRANCH  28  29
ENDBRANCH  27  28
ENDBRANCH  26  27
ENDBRANCH  25  26
ENDBRANCH  24  25
ENDBRANCH  23  24
ENDBRANCH  22  23
ENDBRANCH  21  22
ENDBRANCH  20  21
ENDBRANCH  19  20
ENDBRANCH  18  19
ENDBRANCH   1  18
TORSDOF 28
ENDMDL
MODEL 8
REMARK VINA RESULT:    -5.948      3.133      3.889
REMARK INTER + INTRA:         -19.177
REMARK INTER:                 -15.725
REMARK INTRA:                  -3.452
REMARK UNBOUND:                -3.493
REMARK SMILES CCCCCCCCCCCCCCCCCCCCCCCCCCCCCC(=O)[O-]
REMARK SMILES IDX 16 1 17 2 18 3 19 4 20 5 21 6 22 7 23 8 24 9 25 10 26 11
REMARK SMILES IDX 27 12 28 13 29 14 30 15 31 16 32 17 15 18 14 19 13 20 12 21
REMARK SMILES IDX 11 22 10 23 9 24 8 25 7 26 6 27 5 28 4 29 3 30 2 31 1 32
REMARK H PARENT
REMARK Flexibility Score: inf
ROOT
ATOM      1  C   UNL     1      -4.481  43.430 102.768  1.00  0.00     0.000 C 
ENDROOT
BRANCH   1   2
ATOM      2  C   UNL     1      -4.502  43.434 104.312  1.00  0.00     0.000 C 
BRANCH   2   3
ATOM      3  C   UNL     1      -5.903  43.477 104.959  1.00  0.00     0.000 C 
BRANCH   3   4
ATOM      4  C   UNL     1      -7.030  43.999 104.044  1.00  0.00     0.000 C 
BRANCH   4   5
ATOM      5  C   UNL     1      -7.182  45.532 104.068  1.00  0.00     0.000 C 
BRANCH   5   6
ATOM      6  C   UNL     1      -8.656  45.975 104.216  1.00  0.00     0.000 C 
BRANCH   6   7
ATOM      7  C   UNL     1      -9.577  45.344 103.159  1.00  0.00     0.000 C 
BRANCH   7   8
ATOM      8  C   UNL     1      -9.971  46.356 102.072  1.00  0.00     0.000 C 
BRANCH   8   9
ATOM      9  C   UNL     1      -8.890  46.457 100.986  1.00  0.00     0.000 C 
BRANCH   9  10
ATOM     10  C   UNL     1      -8.321  45.069 100.658  1.00  0.00     0.000 C 
BRANCH  10  11
ATOM     11  C   UNL     1      -6.804  45.090 100.410  1.00  0.00     0.000 C 
BRANCH  11  12
ATOM     12  C   UNL     1      -6.312  46.437  99.857  1.00  0.00     0.000 C 
BRANCH  12  13
ATOM     13  C   UNL     1      -5.189  47.009 100.736  1.00  0.00     0.006 C 
BRANCH  13  14
ATOM     14  C   UNL     1      -5.404  48.493 101.069  1.00  0.00     0.053 C 
BRANCH  14  15
ATOM     15  C   UNL     1      -6.000  48.685 102.430  1.00  0.00     0.041 C 
ATOM     16  O   UNL     1      -5.320  48.442 103.463  1.00  0.00    -0.550 OA
ATOM     17  O   UNL     1      -7.312  49.130 102.557  1.00  0.00    -0.550 OA
ENDBRANCH  14  15
ENDBRANCH  13  14
ENDBRANCH  12  13
ENDBRANCH  11  12
ENDBRANCH  10  11
ENDBRANCH   9  10
ENDBRANCH   8   9
ENDBRANCH   7   8
ENDBRANCH   6   7
ENDBRANCH   5   6
ENDBRANCH   4   5
ENDBRANCH   3   4
ENDBRANCH   2   3
ENDBRANCH   1   2
BRANCH   1  18
ATOM     18  C   UNL     1      -3.543  42.387 102.133  1.00  0.00     0.000 C 
BRANCH  18  19
ATOM     19  C   UNL     1      -2.911  41.452 103.179  1.00  0.00     0.000 C 
BRANCH  19  20
ATOM     20  C   UNL     1      -2.021  40.367 102.551  1.00  0.00     0.000 C 
BRANCH  20  21
ATOM     21  C   UNL     1      -2.652  38.962 102.608  1.00  0.00     0.000 C 
BRANCH  21  22
ATOM     22  C   UNL     1      -2.298  38.108 101.381  1.00  0.00     0.000 C 
BRANCH  22  23
ATOM     23  C   UNL     1      -2.931  36.706 101.429  1.00  0.00     0.000 C 
BRANCH  23  24
ATOM     24  C   UNL     1      -4.459  36.752 101.595  1.00  0.00    -0.000 C 
BRANCH  24  25
ATOM     25  C   UNL     1      -5.177  35.706 100.723  1.00  0.00    -0.000 C 
BRANCH  25  26
ATOM     26  C   UNL     1      -4.238  34.603 100.208  1.00  0.00    -0.000 C 
BRANCH  26  27
ATOM     27  C   UNL     1      -4.119  34.588  98.677  1.00  0.00    -0.000 C 
BRANCH  27  28
ATOM     28  C   UNL     1      -2.861  35.316  98.168  1.00  0.00    -0.000 C 
BRANCH  28  29
ATOM     29  C   UNL     1      -3.167  36.628  97.414  1.00  0.00    -0.000 C 
BRANCH  29  30
ATOM     30  C   UNL     1      -4.642  36.724  96.985  1.00  0.00    -0.000 C 
BRANCH  30  31
ATOM     31  C   UNL     1      -5.421  37.783  97.781  1.00  0.00    -0.003 C 
ATOM     32  C   UNL     1      -6.684  38.256  97.058  1.00  0.00     0.004 C 
ENDBRANCH  30  31
ENDBRANCH  29  30
ENDBRANCH  28  29
ENDBRANCH  27  28
ENDBRANCH  26  27
ENDBRANCH  25  26
ENDBRANCH  24  25
ENDBRANCH  23  24
ENDBRANCH  22  23
ENDBRANCH  21  22
ENDBRANCH  20  21
ENDBRANCH  19  20
ENDBRANCH  18  19
ENDBRANCH   1  18
TORSDOF 28
ENDMDL
MODEL 9
REMARK VINA RESULT:    -5.936      3.574      5.186
REMARK INTER + INTRA:         -19.145
REMARK INTER:                 -15.853
REMARK INTRA:                  -3.292
REMARK UNBOUND:                -3.493
REMARK SMILES CCCCCCCCCCCCCCCCCCCCCCCCCCCCCC(=O)[O-]
REMARK SMILES IDX 16 1 17 2 18 3 19 4 20 5 21 6 22 7 23 8 24 9 25 10 26 11
REMARK SMILES IDX 27 12 28 13 29 14 30 15 31 16 32 17 15 18 14 19 13 20 12 21
REMARK SMILES IDX 11 22 10 23 9 24 8 25 7 26 6 27 5 28 4 29 3 30 2 31 1 32
REMARK H PARENT
REMARK Flexibility Score: inf
ROOT
ATOM      1  C   UNL     1      -4.042  42.558 104.207  1.00  0.00     0.000 C 
ENDROOT
BRANCH   1   2
ATOM      2  C   UNL     1      -4.909  43.606 104.938  1.00  0.00     0.000 C 
BRANCH   2   3
ATOM      3  C   UNL     1      -6.433  43.475 104.729  1.00  0.00     0.000 C 
BRANCH   3   4
ATOM      4  C   UNL     1      -6.936  43.878 103.327  1.00  0.00     0.000 C 
BRANCH   4   5
ATOM      5  C   UNL     1      -6.161  45.059 102.712  1.00  0.00     0.000 C 
BRANCH   5   6
ATOM      6  C   UNL     1      -5.665  44.755 101.280  1.00  0.00     0.000 C 
BRANCH   6   7
ATOM      7  C   UNL     1      -6.708  45.094 100.202  1.00  0.00     0.000 C 
BRANCH   7   8
ATOM      8  C   UNL     1      -6.873  46.611 100.028  1.00  0.00     0.000 C 
BRANCH   8   9
ATOM      9  C   UNL     1      -8.248  47.084 100.522  1.00  0.00     0.000 C 
BRANCH   9  10
ATOM     10  C   UNL     1      -8.092  48.122 101.643  1.00  0.00     0.000 C 
BRANCH  10  11
ATOM     11  C   UNL     1      -8.828  47.722 102.932  1.00  0.00     0.000 C 
BRANCH  11  12
ATOM     12  C   UNL     1      -9.557  46.375 102.805  1.00  0.00     0.000 C 
BRANCH  12  13
ATOM     13  C   UNL     1      -9.833  45.772 104.191  1.00  0.00     0.006 C 
BRANCH  13  14
ATOM     14  C   UNL     1     -11.317  45.851 104.580  1.00  0.00     0.053 C 
BRANCH  14  15
ATOM     15  C   UNL     1     -11.763  47.262 104.816  1.00  0.00     0.041 C 
ATOM     16  O   UNL     1     -11.381  47.887 105.842  1.00  0.00    -0.550 OA
ATOM     17  O   UNL     1     -12.605  47.887 103.903  1.00  0.00    -0.550 OA
ENDBRANCH  14  15
ENDBRANCH  13  14
ENDBRANCH  12  13
ENDBRANCH  11  12
ENDBRANCH  10  11
ENDBRANCH   9  10
ENDBRANCH   8   9
ENDBRANCH   7   8
ENDBRANCH   6   7
ENDBRANCH   5   6
ENDBRANCH   4   5
ENDBRANCH   3   4
ENDBRANCH   2   3
ENDBRANCH   1   2
BRANCH   1  18
ATOM     18  C   UNL     1      -2.721  43.097 103.626  1.00  0.00     0.000 C 
BRANCH  18  19
ATOM     19  C   UNL     1      -1.801  41.973 103.119  1.00  0.00     0.000 C 
BRANCH  19  20
ATOM     20  C   UNL     1      -2.486  40.596 103.117  1.00  0.00     0.000 C 
BRANCH  20  21
ATOM     21  C   UNL     1      -2.845  40.104 101.702  1.00  0.00     0.000 C 
BRANCH  21  22
ATOM     22  C   UNL     1      -2.376  38.664 101.443  1.00  0.00     0.000 C 
BRANCH  22  23
ATOM     23  C   UNL     1      -3.036  37.644 102.389  1.00  0.00     0.000 C 
BRANCH  23  24
ATOM     24  C   UNL     1      -3.472  36.361 101.664  1.00  0.00    -0.000 C 
BRANCH  24  25
ATOM     25  C   UNL     1      -4.950  36.401 101.234  1.00  0.00    -0.000 C 
BRANCH  25  26
ATOM     26  C   UNL     1      -5.298  35.350 100.168  1.00  0.00    -0.000 C 
BRANCH  26  27
ATOM     27  C   UNL     1      -4.114  34.435  99.825  1.00  0.00    -0.000 C 
BRANCH  27  28
ATOM     28  C   UNL     1      -3.235  34.995  98.690  1.00  0.00    -0.000 C 
BRANCH  28  29
ATOM     29  C   UNL     1      -3.941  36.065  97.831  1.00  0.00    -0.000 C 
BRANCH  29  30
ATOM     30  C   UNL     1      -3.334  37.467  98.030  1.00  0.00    -0.000 C 
BRANCH  30  31
ATOM     31  C   UNL     1      -4.399  38.536  98.322  1.00  0.00    -0.003 C 
ATOM     32  C   UNL     1      -5.737  38.240  97.642  1.00  0.00     0.004 C 
ENDBRANCH  30  31
ENDBRANCH  29  30
ENDBRANCH  28  29
ENDBRANCH  27  28
ENDBRANCH  26  27
ENDBRANCH  25  26
ENDBRANCH  24  25
ENDBRANCH  23  24
ENDBRANCH  22  23
ENDBRANCH  21  22
ENDBRANCH  20  21
ENDBRANCH  19  20
ENDBRANCH  18  19
ENDBRANCH   1  18
TORSDOF 28
ENDMDL
