MODEL 1
REMARK VINA RESULT:    -3.644      0.000      0.000
REMARK INTER + INTRA:          -9.356
REMARK INTER:                  -7.053
REMARK INTRA:                  -2.303
REMARK UNBOUND:                -2.303
REMARK SMILES CCCCCCCCCCCCCCCCCC(=O)[O-]
REMARK SMILES IDX 10 1 11 2 12 3 13 4 14 5 15 6 16 7 17 8 18 9 19 10 20 11
REMARK SMILES IDX 9 12 8 13 7 14 6 15 5 16 4 17 3 18 2 19 1 20
REMARK H PARENT
REMARK Flexibility Score: inf
ROOT
ATOM      1  C   UNL     1      39.121   8.627  11.786  1.00  0.00     0.000 C 
ENDROOT
BRANCH   1   2
ATOM      2  C   UNL     1      40.626   8.917  11.665  1.00  0.00     0.000 C 
BRANCH   2   3
ATOM      3  C   UNL     1      40.968  10.393  11.917  1.00  0.00     0.000 C 
BRANCH   3   4
ATOM      4  C   UNL     1      39.844  11.312  11.412  1.00  0.00     0.000 C 
BRANCH   4   5
ATOM      5  C   UNL     1      39.337  12.275  12.497  1.00  0.00     0.000 C 
BRANCH   5   6
ATOM      6  C   UNL     1      40.439  12.677  13.492  1.00  0.00     0.000 C 
BRANCH   6   7
ATOM      7  C   UNL     1      39.947  13.683  14.549  1.00  0.00     0.006 C 
BRANCH   7   8
ATOM      8  C   UNL     1      40.848  14.917  14.713  1.00  0.00     0.053 C 
BRANCH   8   9
ATOM      9  C   UNL     1      40.133  16.047  15.389  1.00  0.00     0.041 C 
ATOM     10  O   UNL     1      40.770  16.859  16.109  1.00  0.00    -0.550 OA
ATOM     11  O   UNL     1      38.757  16.178  15.253  1.00  0.00    -0.550 OA
ENDBRANCH   8   9
ENDBRANCH   7   8
ENDBRANCH   6   7
ENDBRANCH   5   6
ENDBRANCH   4   5
ENDBRANCH   3   4
ENDBRANCH   2   3
ENDBRANCH   1   2
BRANCH   1  12
ATOM     12  C   UNL     1      38.746   7.982  13.130  1.00  0.00     0.000 C 
BRANCH  12  13
ATOM     13  C   UNL     1      38.029   8.960  14.075  1.00  0.00    -0.000 C 
BRANCH  13  14
ATOM     14  C   UNL     1      38.989   9.649  15.061  1.00  0.00    -0.000 C 
BRANCH  14  15
ATOM     15  C   UNL     1      38.270  10.695  15.940  1.00  0.00    -0.000 C 
BRANCH  15  16
ATOM     16  C   UNL     1      38.930  10.897  17.315  1.00  0.00    -0.000 C 
BRANCH  16  17
ATOM     17  C   UNL     1      40.309  10.224  17.419  1.00  0.00    -0.000 C 
BRANCH  17  18
ATOM     18  C   UNL     1      41.167  10.795  18.562  1.00  0.00    -0.000 C 
BRANCH  18  19
ATOM     19  C   UNL     1      42.136  11.915  18.142  1.00  0.00    -0.003 C 
ATOM     20  C   UNL     1      42.330  12.000  16.629  1.00  0.00     0.004 C 
ENDBRANCH  18  19
ENDBRANCH  17  18
ENDBRANCH  16  17
ENDBRANCH  15  16
ENDBRANCH  14  15
ENDBRANCH  13  14
ENDBRANCH  12  13
ENDBRANCH   1  12
TORSDOF 16
ENDMDL
MODEL 2
REMARK VINA RESULT:    -3.625      2.650      5.145
REMARK INTER + INTRA:          -9.319
REMARK INTER:                  -6.350
REMARK INTRA:                  -2.968
REMARK UNBOUND:                -2.303
REMARK SMILES CCCCCCCCCCCCCCCCCC(=O)[O-]
REMARK SMILES IDX 10 1 11 2 12 3 13 4 14 5 15 6 16 7 17 8 18 9 19 10 20 11
REMARK SMILES IDX 9 12 8 13 7 14 6 15 5 16 4 17 3 18 2 19 1 20
REMARK H PARENT
REMARK Flexibility Score: inf
ROOT
ATOM      1  C   UNL     1      40.832  13.034  13.744  1.00  0.00     0.000 C 
ENDROOT
BRANCH   1   2
ATOM      2  C   UNL     1      39.418  13.235  14.314  1.00  0.00     0.000 C 
BRANCH   2   3
ATOM      3  C   UNL     1      38.451  12.109  13.914  1.00  0.00     0.000 C 
BRANCH   3   4
ATOM      4  C   UNL     1      38.158  11.187  15.108  1.00  0.00     0.000 C 
BRANCH   4   5
ATOM      5  C   UNL     1      38.732   9.774  14.917  1.00  0.00     0.000 C 
BRANCH   5   6
ATOM      6  C   UNL     1      38.394   9.181  13.539  1.00  0.00     0.000 C 
BRANCH   6   7
ATOM      7  C   UNL     1      39.501   8.256  13.002  1.00  0.00     0.006 C 
BRANCH   7   8
ATOM      8  C   UNL     1      39.919   8.548  11.552  1.00  0.00     0.053 C 
BRANCH   8   9
ATOM      9  C   UNL     1      40.549   9.900  11.411  1.00  0.00     0.041 C 
ATOM     10  O   UNL     1      41.750  10.077  11.743  1.00  0.00    -0.550 OA
ATOM     11  O   UNL     1      39.797  10.972  10.949  1.00  0.00    -0.550 OA
ENDBRANCH   8   9
ENDBRANCH   7   8
ENDBRANCH   6   7
ENDBRANCH   5   6
ENDBRANCH   4   5
ENDBRANCH   3   4
ENDBRANCH   2   3
ENDBRANCH   1   2
BRANCH   1  12
ATOM     12  C   UNL     1      41.641  11.981  14.520  1.00  0.00     0.000 C 
BRANCH  12  13
ATOM     13  C   UNL     1      41.957  12.421  15.958  1.00  0.00    -0.000 C 
BRANCH  13  14
ATOM     14  C   UNL     1      41.779  11.286  16.983  1.00  0.00    -0.000 C 
BRANCH  14  15
ATOM     15  C   UNL     1      40.587  11.538  17.930  1.00  0.00    -0.000 C 
BRANCH  15  16
ATOM     16  C   UNL     1      40.391  13.022  18.287  1.00  0.00    -0.000 C 
BRANCH  16  17
ATOM     17  C   UNL     1      38.977  13.532  17.961  1.00  0.00    -0.000 C 
BRANCH  17  18
ATOM     18  C   UNL     1      38.971  14.980  17.439  1.00  0.00    -0.000 C 
BRANCH  18  19
ATOM     19  C   UNL     1      40.361  15.550  17.106  1.00  0.00    -0.003 C 
ATOM     20  C   UNL     1      40.355  16.468  15.884  1.00  0.00     0.004 C 
ENDBRANCH  18  19
ENDBRANCH  17  18
ENDBRANCH  16  17
ENDBRANCH  15  16
ENDBRANCH  14  15
ENDBRANCH  13  14
ENDBRANCH  12  13
ENDBRANCH   1  12
TORSDOF 16
ENDMDL
MODEL 3
REMARK VINA RESULT:    -3.620      1.565      4.793
REMARK INTER + INTRA:          -9.309
REMARK INTER:                  -6.620
REMARK INTRA:                  -2.689
REMARK UNBOUND:                -2.303
REMARK SMILES CCCCCCCCCCCCCCCCCC(=O)[O-]
REMARK SMILES IDX 10 1 11 2 12 3 13 4 14 5 15 6 16 7 17 8 18 9 19 10 20 11
REMARK SMILES IDX 9 12 8 13 7 14 6 15 5 16 4 17 3 18 2 19 1 20
REMARK H PARENT
REMARK Flexibility Score: inf
ROOT
ATOM      1  C   UNL     1      41.944  12.477  16.000  1.00  0.00     0.000 C 
ENDROOT
BRANCH   1   2
ATOM      2  C   UNL     1      40.917  11.818  16.935  1.00  0.00     0.000 C 
BRANCH   2   3
ATOM      3  C   UNL     1      40.271  12.817  17.907  1.00  0.00     0.000 C 
BRANCH   3   4
ATOM      4  C   UNL     1      38.763  12.948  17.636  1.00  0.00     0.000 C 
BRANCH   4   5
ATOM      5  C   UNL     1      38.352  14.386  17.283  1.00  0.00     0.000 C 
BRANCH   5   6
ATOM      6  C   UNL     1      38.345  14.643  15.767  1.00  0.00     0.000 C 
BRANCH   6   7
ATOM      7  C   UNL     1      38.980  15.995  15.390  1.00  0.00     0.006 C 
BRANCH   7   8
ATOM      8  C   UNL     1      40.420  16.178  15.895  1.00  0.00     0.053 C 
BRANCH   8   9
ATOM      9  C   UNL     1      40.563  17.403  16.747  1.00  0.00     0.041 C 
ATOM     10  O   UNL     1      41.701  17.895  16.962  1.00  0.00    -0.550 OA
ATOM     11  O   UNL     1      39.442  17.977  17.332  1.00  0.00    -0.550 OA
ENDBRANCH   8   9
ENDBRANCH   7   8
ENDBRANCH   6   7
ENDBRANCH   5   6
ENDBRANCH   4   5
ENDBRANCH   3   4
ENDBRANCH   2   3
ENDBRANCH   1   2
BRANCH   1  12
ATOM     12  C   UNL     1      41.786  12.033  14.536  1.00  0.00     0.000 C 
BRANCH  12  13
ATOM     13  C   UNL     1      40.789  12.907  13.758  1.00  0.00    -0.000 C 
BRANCH  13  14
ATOM     14  C   UNL     1      40.004  12.115  12.696  1.00  0.00    -0.000 C 
BRANCH  14  15
ATOM     15  C   UNL     1      38.516  11.953  13.073  1.00  0.00    -0.000 C 
BRANCH  15  16
ATOM     16  C   UNL     1      38.294  11.116  14.344  1.00  0.00    -0.000 C 
BRANCH  16  17
ATOM     17  C   UNL     1      38.949   9.727  14.265  1.00  0.00    -0.000 C 
BRANCH  17  18
ATOM     18  C   UNL     1      38.268   8.804  13.239  1.00  0.00    -0.000 C 
BRANCH  18  19
ATOM     19  C   UNL     1      39.228   7.879  12.468  1.00  0.00    -0.003 C 
ATOM     20  C   UNL     1      40.356   8.637  11.770  1.00  0.00     0.004 C 
ENDBRANCH  18  19
ENDBRANCH  17  18
ENDBRANCH  16  17
ENDBRANCH  15  16
ENDBRANCH  14  15
ENDBRANCH  13  14
ENDBRANCH  12  13
ENDBRANCH   1  12
TORSDOF 16
ENDMDL
MODEL 4
REMARK VINA RESULT:    -3.568      2.366      4.434
REMARK INTER + INTRA:          -9.209
REMARK INTER:                  -6.420
REMARK INTRA:                  -2.788
REMARK UNBOUND:                -2.303
REMARK SMILES CCCCCCCCCCCCCCCCCC(=O)[O-]
REMARK SMILES IDX 10 1 11 2 12 3 13 4 14 5 15 6 16 7 17 8 18 9 19 10 20 11
REMARK SMILES IDX 9 12 8 13 7 14 6 15 5 16 4 17 3 18 2 19 1 20
REMARK H PARENT
REMARK Flexibility Score: inf
ROOT
ATOM      1  C   UNL     1      40.924  10.118  11.601  1.00  0.00     0.000 C 
ENDROOT
BRANCH   1   2
ATOM      2  C   UNL     1      40.212   8.766  11.768  1.00  0.00     0.000 C 
BRANCH   2   3
ATOM      3  C   UNL     1      38.684   8.906  11.856  1.00  0.00     0.000 C 
BRANCH   3   4
ATOM      4  C   UNL     1      38.165   8.404  13.213  1.00  0.00     0.000 C 
BRANCH   4   5
ATOM      5  C   UNL     1      38.891   9.057  14.400  1.00  0.00     0.000 C 
BRANCH   5   6
ATOM      6  C   UNL     1      37.996  10.040  15.172  1.00  0.00     0.000 C 
BRANCH   6   7
ATOM      7  C   UNL     1      38.161   9.921  16.699  1.00  0.00     0.006 C 
BRANCH   7   8
ATOM      8  C   UNL     1      39.538   9.403  17.145  1.00  0.00     0.053 C 
BRANCH   8   9
ATOM      9  C   UNL     1      40.153  10.279  18.195  1.00  0.00     0.041 C 
ATOM     10  O   UNL     1      41.378  10.179  18.465  1.00  0.00    -0.550 OA
ATOM     11  O   UNL     1      39.363  11.179  18.898  1.00  0.00    -0.550 OA
ENDBRANCH   8   9
ENDBRANCH   7   8
ENDBRANCH   6   7
ENDBRANCH   5   6
ENDBRANCH   4   5
ENDBRANCH   3   4
ENDBRANCH   2   3
ENDBRANCH   1   2
BRANCH   1  12
ATOM     12  C   UNL     1      39.943  11.301  11.526  1.00  0.00     0.000 C 
BRANCH  12  13
ATOM     13  C   UNL     1      40.052  12.236  12.740  1.00  0.00    -0.000 C 
BRANCH  13  14
ATOM     14  C   UNL     1      41.390  12.091  13.488  1.00  0.00    -0.000 C 
BRANCH  14  15
ATOM     15  C   UNL     1      41.189  11.792  14.989  1.00  0.00    -0.000 C 
BRANCH  15  16
ATOM     16  C   UNL     1      41.949  12.760  15.913  1.00  0.00    -0.000 C 
BRANCH  16  17
ATOM     17  C   UNL     1      41.009  13.624  16.771  1.00  0.00    -0.000 C 
BRANCH  17  18
ATOM     18  C   UNL     1      39.555  13.606  16.266  1.00  0.00    -0.000 C 
BRANCH  18  19
ATOM     19  C   UNL     1      39.184  14.773  15.332  1.00  0.00    -0.003 C 
ATOM     20  C   UNL     1      40.216  15.900  15.345  1.00  0.00     0.004 C 
ENDBRANCH  18  19
ENDBRANCH  17  18
ENDBRANCH  16  17
ENDBRANCH  15  16
ENDBRANCH  14  15
ENDBRANCH  13  14
ENDBRANCH  12  13
ENDBRANCH   1  12
TORSDOF 16
ENDMDL
MODEL 5
REMARK VINA RESULT:    -3.526      2.433      4.598
REMARK INTER + INTRA:          -9.128
REMARK INTER:                  -6.679
REMARK INTRA:                  -2.449
REMARK UNBOUND:                -2.303
REMARK SMILES CCCCCCCCCCCCCCCCCC(=O)[O-]
REMARK SMILES IDX 10 1 11 2 12 3 13 4 14 5 15 6 16 7 17 8 18 9 19 10 20 11
REMARK SMILES IDX 9 12 8 13 7 14 6 15 5 16 4 17 3 18 2 19 1 20
REMARK H PARENT
REMARK Flexibility Score: inf
ROOT
ATOM      1  C   UNL     1      40.787   9.623  11.860  1.00  0.00     0.000 C 
ENDROOT
BRANCH   1   2
ATOM      2  C   UNL     1      40.000   8.311  11.716  1.00  0.00     0.000 C 
BRANCH   2   3
ATOM      3  C   UNL     1      38.712   8.295  12.554  1.00  0.00     0.000 C 
BRANCH   3   4
ATOM      4  C   UNL     1      38.970   8.845  13.966  1.00  0.00     0.000 C 
BRANCH   4   5
ATOM      5  C   UNL     1      37.919   9.881  14.395  1.00  0.00     0.000 C 
BRANCH   5   6
ATOM      6  C   UNL     1      38.335  10.658  15.656  1.00  0.00     0.000 C 
BRANCH   6   7
ATOM      7  C   UNL     1      39.524  10.009  16.388  1.00  0.00     0.006 C 
BRANCH   7   8
ATOM      8  C   UNL     1      39.870  10.666  17.734  1.00  0.00     0.053 C 
BRANCH   8   9
ATOM      9  C   UNL     1      41.305  10.449  18.110  1.00  0.00     0.041 C 
ATOM     10  O   UNL     1      41.794   9.290  18.103  1.00  0.00    -0.550 OA
ATOM     11  O   UNL     1      42.089  11.526  18.505  1.00  0.00    -0.550 OA
ENDBRANCH   8   9
ENDBRANCH   7   8
ENDBRANCH   6   7
ENDBRANCH   5   6
ENDBRANCH   4   5
ENDBRANCH   3   4
ENDBRANCH   2   3
ENDBRANCH   1   2
BRANCH   1  12
ATOM     12  C   UNL     1      40.144  10.789  11.089  1.00  0.00     0.000 C 
BRANCH  12  13
ATOM     13  C   UNL     1      39.819  11.987  11.994  1.00  0.00    -0.000 C 
BRANCH  13  14
ATOM     14  C   UNL     1      40.745  12.078  13.220  1.00  0.00    -0.000 C 
BRANCH  14  15
ATOM     15  C   UNL     1      40.417  13.297  14.108  1.00  0.00    -0.000 C 
BRANCH  15  16
ATOM     16  C   UNL     1      41.207  13.323  15.429  1.00  0.00    -0.000 C 
BRANCH  16  17
ATOM     17  C   UNL     1      40.538  14.193  16.506  1.00  0.00    -0.000 C 
BRANCH  17  18
ATOM     18  C   UNL     1      39.509  15.178  15.922  1.00  0.00    -0.000 C 
BRANCH  18  19
ATOM     19  C   UNL     1      40.070  16.571  15.585  1.00  0.00    -0.003 C 
ATOM     20  C   UNL     1      40.866  17.189  16.734  1.00  0.00     0.004 C 
ENDBRANCH  18  19
ENDBRANCH  17  18
ENDBRANCH  16  17
ENDBRANCH  15  16
ENDBRANCH  14  15
ENDBRANCH  13  14
ENDBRANCH  12  13
ENDBRANCH   1  12
TORSDOF 16
ENDMDL
MODEL 6
REMARK VINA RESULT:    -3.480      1.631      4.728
REMARK INTER + INTRA:          -9.039
REMARK INTER:                  -6.045
REMARK INTRA:                  -2.994
REMARK UNBOUND:                -2.303
REMARK SMILES CCCCCCCCCCCCCCCCCC(=O)[O-]
REMARK SMILES IDX 10 1 11 2 12 3 13 4 14 5 15 6 16 7 17 8 18 9 19 10 20 11
REMARK SMILES IDX 9 12 8 13 7 14 6 15 5 16 4 17 3 18 2 19 1 20
REMARK H PARENT
REMARK Flexibility Score: inf
ROOT
ATOM      1  C   UNL     1      40.145  13.872  14.872  1.00  0.00     0.000 C 
ENDROOT
BRANCH   1   2
ATOM      2  C   UNL     1      40.872  12.932  13.897  1.00  0.00     0.000 C 
BRANCH   2   3
ATOM      3  C   UNL     1      41.916  12.045  14.594  1.00  0.00     0.000 C 
BRANCH   3   4
ATOM      4  C   UNL     1      42.119  12.481  16.054  1.00  0.00     0.000 C 
BRANCH   4   5
ATOM      5  C   UNL     1      41.828  11.349  17.053  1.00  0.00     0.000 C 
BRANCH   5   6
ATOM      6  C   UNL     1      40.673  11.688  18.010  1.00  0.00     0.000 C 
BRANCH   6   7
ATOM      7  C   UNL     1      40.898  13.011  18.766  1.00  0.00     0.006 C 
BRANCH   7   8
ATOM      8  C   UNL     1      39.779  14.046  18.572  1.00  0.00     0.053 C 
BRANCH   8   9
ATOM      9  C   UNL     1      40.324  15.428  18.370  1.00  0.00     0.041 C 
ATOM     10  O   UNL     1      39.761  16.221  17.571  1.00  0.00    -0.550 OA
ATOM     11  O   UNL     1      41.474  15.825  19.039  1.00  0.00    -0.550 OA
ENDBRANCH   8   9
ENDBRANCH   7   8
ENDBRANCH   6   7
ENDBRANCH   5   6
ENDBRANCH   4   5
ENDBRANCH   3   4
ENDBRANCH   2   3
ENDBRANCH   1   2
BRANCH   1  12
ATOM     12  C   UNL     1      38.671  13.487  15.080  1.00  0.00     0.000 C 
BRANCH  12  13
ATOM     13  C   UNL     1      38.308  12.153  14.409  1.00  0.00    -0.000 C 
BRANCH  13  14
ATOM     14  C   UNL     1      38.111  11.010  15.422  1.00  0.00    -0.000 C 
BRANCH  14  15
ATOM     15  C   UNL     1      39.010   9.795  15.110  1.00  0.00    -0.000 C 
BRANCH  15  16
ATOM     16  C   UNL     1      38.379   8.804  14.116  1.00  0.00    -0.000 C 
BRANCH  16  17
ATOM     17  C   UNL     1      39.196   8.657  12.822  1.00  0.00    -0.000 C 
BRANCH  17  18
ATOM     18  C   UNL     1      38.710   9.593  11.700  1.00  0.00    -0.000 C 
BRANCH  18  19
ATOM     19  C   UNL     1      39.726  10.668  11.274  1.00  0.00    -0.003 C 
ATOM     20  C   UNL     1      41.177  10.237  11.486  1.00  0.00     0.004 C 
ENDBRANCH  18  19
ENDBRANCH  17  18
ENDBRANCH  16  17
ENDBRANCH  15  16
ENDBRANCH  14  15
ENDBRANCH  13  14
ENDBRANCH  12  13
ENDBRANCH   1  12
TORSDOF 16
ENDMDL
MODEL 7
REMARK VINA RESULT:    -3.435      2.594      4.299
REMARK INTER + INTRA:          -8.952
REMARK INTER:                  -6.206
REMARK INTRA:                  -2.746
REMARK UNBOUND:                -2.303
REMARK SMILES CCCCCCCCCCCCCCCCCC(=O)[O-]
REMARK SMILES IDX 10 1 11 2 12 3 13 4 14 5 15 6 16 7 17 8 18 9 19 10 20 11
REMARK SMILES IDX 9 12 8 13 7 14 6 15 5 16 4 17 3 18 2 19 1 20
REMARK H PARENT
REMARK Flexibility Score: inf
ROOT
ATOM      1  C   UNL     1      40.400  10.777  11.778  1.00  0.00     0.000 C 
ENDROOT
BRANCH   1   2
ATOM      2  C   UNL     1      40.903   9.347  11.524  1.00  0.00     0.000 C 
BRANCH   2   3
ATOM      3  C   UNL     1      39.860   8.277  11.884  1.00  0.00     0.000 C 
BRANCH   3   4
ATOM      4  C   UNL     1      38.648   8.908  12.589  1.00  0.00     0.000 C 
BRANCH   4   5
ATOM      5  C   UNL     1      38.556   8.510  14.071  1.00  0.00     0.000 C 
BRANCH   5   6
ATOM      6  C   UNL     1      38.164   9.690  14.977  1.00  0.00     0.000 C 
BRANCH   6   7
ATOM      7  C   UNL     1      39.291  10.098  15.943  1.00  0.00     0.006 C 
BRANCH   7   8
ATOM      8  C   UNL     1      39.507   9.121  17.109  1.00  0.00     0.053 C 
BRANCH   8   9
ATOM      9  C   UNL     1      40.131   9.792  18.295  1.00  0.00     0.041 C 
ATOM     10  O   UNL     1      41.301   9.491  18.650  1.00  0.00    -0.550 OA
ATOM     11  O   UNL     1      39.406  10.723  19.028  1.00  0.00    -0.550 OA
ENDBRANCH   8   9
ENDBRANCH   7   8
ENDBRANCH   6   7
ENDBRANCH   5   6
ENDBRANCH   4   5
ENDBRANCH   3   4
ENDBRANCH   2   3
ENDBRANCH   1   2
BRANCH   1  12
ATOM     12  C   UNL     1      41.168  11.486  12.906  1.00  0.00     0.000 C 
BRANCH  12  13
ATOM     13  C   UNL     1      40.466  12.765  13.387  1.00  0.00    -0.000 C 
BRANCH  13  14
ATOM     14  C   UNL     1      38.940  12.720  13.183  1.00  0.00    -0.000 C 
BRANCH  14  15
ATOM     15  C   UNL     1      38.174  13.299  14.392  1.00  0.00    -0.000 C 
BRANCH  15  16
ATOM     16  C   UNL     1      39.018  14.258  15.250  1.00  0.00    -0.000 C 
BRANCH  16  17
ATOM     17  C   UNL     1      39.327  13.691  16.646  1.00  0.00    -0.000 C 
BRANCH  17  18
ATOM     18  C   UNL     1      40.676  14.180  17.204  1.00  0.00    -0.000 C 
BRANCH  18  19
ATOM     19  C   UNL     1      41.629  13.060  17.658  1.00  0.00    -0.003 C 
ATOM     20  C   UNL     1      42.232  12.279  16.492  1.00  0.00     0.004 C 
ENDBRANCH  18  19
ENDBRANCH  17  18
ENDBRANCH  16  17
ENDBRANCH  15  16
ENDBRANCH  14  15
ENDBRANCH  13  14
ENDBRANCH  12  13
ENDBRANCH   1  12
TORSDOF 16
ENDMDL
MODEL 8
REMARK VINA RESULT:    -3.417      2.354      4.707
REMARK INTER + INTRA:          -8.916
REMARK INTER:                  -6.896
REMARK INTRA:                  -2.020
REMARK UNBOUND:                -2.303
REMARK SMILES CCCCCCCCCCCCCCCCCC(=O)[O-]
REMARK SMILES IDX 10 1 11 2 12 3 13 4 14 5 15 6 16 7 17 8 18 9 19 10 20 11
REMARK SMILES IDX 9 12 8 13 7 14 6 15 5 16 4 17 3 18 2 19 1 20
REMARK H PARENT
REMARK Flexibility Score: inf
ROOT
ATOM      1  C   UNL     1      41.188  11.226  12.849  1.00  0.00     0.000 C 
ENDROOT
BRANCH   1   2
ATOM      2  C   UNL     1      40.768  10.577  11.520  1.00  0.00     0.000 C 
BRANCH   2   3
ATOM      3  C   UNL     1      40.478   9.075  11.658  1.00  0.00     0.000 C 
BRANCH   3   4
ATOM      4  C   UNL     1      39.016   8.833  12.067  1.00  0.00     0.000 C 
BRANCH   4   5
ATOM      5  C   UNL     1      38.885   8.330  13.513  1.00  0.00     0.000 C 
BRANCH   5   6
ATOM      6  C   UNL     1      38.390   9.423  14.476  1.00  0.00     0.000 C 
BRANCH   6   7
ATOM      7  C   UNL     1      39.154   9.427  15.813  1.00  0.00     0.006 C 
BRANCH   7   8
ATOM      8  C   UNL     1      39.438  10.830  16.372  1.00  0.00     0.053 C 
BRANCH   8   9
ATOM      9  C   UNL     1      40.838  10.951  16.896  1.00  0.00     0.041 C 
ATOM     10  O   UNL     1      41.248  10.169  17.793  1.00  0.00    -0.550 OA
ATOM     11  O   UNL     1      41.674  11.951  16.418  1.00  0.00    -0.550 OA
ENDBRANCH   8   9
ENDBRANCH   7   8
ENDBRANCH   6   7
ENDBRANCH   5   6
ENDBRANCH   4   5
ENDBRANCH   3   4
ENDBRANCH   2   3
ENDBRANCH   1   2
BRANCH   1  12
ATOM     12  C   UNL     1      40.445  12.544  13.128  1.00  0.00     0.000 C 
BRANCH  12  13
ATOM     13  C   UNL     1      38.942  12.451  12.821  1.00  0.00    -0.000 C 
BRANCH  13  14
ATOM     14  C   UNL     1      38.069  13.100  13.910  1.00  0.00    -0.000 C 
BRANCH  14  15
ATOM     15  C   UNL     1      38.899  13.967  14.881  1.00  0.00    -0.000 C 
BRANCH  15  16
ATOM     16  C   UNL     1      38.142  15.203  15.399  1.00  0.00    -0.000 C 
BRANCH  16  17
ATOM     17  C   UNL     1      39.043  16.442  15.526  1.00  0.00    -0.000 C 
BRANCH  17  18
ATOM     18  C   UNL     1      39.910  16.422  16.799  1.00  0.00    -0.000 C 
BRANCH  18  19
ATOM     19  C   UNL     1      41.056  17.450  16.813  1.00  0.00    -0.003 C 
ATOM     20  C   UNL     1      41.373  17.972  18.214  1.00  0.00     0.004 C 
ENDBRANCH  18  19
ENDBRANCH  17  18
ENDBRANCH  16  17
ENDBRANCH  15  16
ENDBRANCH  14  15
ENDBRANCH  13  14
ENDBRANCH  12  13
ENDBRANCH   1  12
TORSDOF 16
ENDMDL
MODEL 9
REMARK VINA RESULT:    -3.386      1.596      5.094
REMARK INTER + INTRA:          -8.856
REMARK INTER:                  -6.594
REMARK INTRA:                  -2.262
REMARK UNBOUND:                -2.303
REMARK SMILES CCCCCCCCCCCCCCCCCC(=O)[O-]
REMARK SMILES IDX 10 1 11 2 12 3 13 4 14 5 15 6 16 7 17 8 18 9 19 10 20 11
REMARK SMILES IDX 9 12 8 13 7 14 6 15 5 16 4 17 3 18 2 19 1 20
REMARK H PARENT
REMARK Flexibility Score: inf
ROOT
ATOM      1  C   UNL     1      41.882  12.784  15.891  1.00  0.00     0.000 C 
ENDROOT
BRANCH   1   2
ATOM      2  C   UNL     1      42.344  11.928  17.080  1.00  0.00     0.000 C 
BRANCH   2   3
ATOM      3  C   UNL     1      41.506  12.167  18.346  1.00  0.00     0.000 C 
BRANCH   3   4
ATOM      4  C   UNL     1      41.618  13.628  18.810  1.00  0.00     0.000 C 
BRANCH   4   5
ATOM      5  C   UNL     1      40.245  14.295  18.991  1.00  0.00     0.000 C 
BRANCH   5   6
ATOM      6  C   UNL     1      39.184  13.734  18.030  1.00  0.00     0.000 C 
BRANCH   6   7
ATOM      7  C   UNL     1      38.815  14.722  16.909  1.00  0.00     0.006 C 
BRANCH   7   8
ATOM      8  C   UNL     1      39.303  16.159  17.149  1.00  0.00     0.053 C 
BRANCH   8   9
ATOM      9  C   UNL     1      40.360  16.564  16.166  1.00  0.00     0.041 C 
ATOM     10  O   UNL     1      40.463  15.964  15.064  1.00  0.00    -0.550 OA
ATOM     11  O   UNL     1      41.253  17.578  16.485  1.00  0.00    -0.550 OA
ENDBRANCH   8   9
ENDBRANCH   7   8
ENDBRANCH   6   7
ENDBRANCH   5   6
ENDBRANCH   4   5
ENDBRANCH   3   4
ENDBRANCH   2   3
ENDBRANCH   1   2
BRANCH   1  12
ATOM     12  C   UNL     1      41.201  11.954  14.790  1.00  0.00     0.000 C 
BRANCH  12  13
ATOM     13  C   UNL     1      39.922  11.259  15.280  1.00  0.00    -0.000 C 
BRANCH  13  14
ATOM     14  C   UNL     1      38.703  11.552  14.386  1.00  0.00    -0.000 C 
BRANCH  14  15
ATOM     15  C   UNL     1      37.970  10.263  13.959  1.00  0.00    -0.000 C 
BRANCH  15  16
ATOM     16  C   UNL     1      38.909   9.059  13.768  1.00  0.00    -0.000 C 
BRANCH  16  17
ATOM     17  C   UNL     1      38.969   8.575  12.310  1.00  0.00    -0.000 C 
BRANCH  17  18
ATOM     18  C   UNL     1      40.393   8.608  11.728  1.00  0.00    -0.000 C 
BRANCH  18  19
ATOM     19  C   UNL     1      41.025  10.010  11.651  1.00  0.00    -0.003 C 
ATOM     20  C   UNL     1      40.134  11.029  10.943  1.00  0.00     0.004 C 
ENDBRANCH  18  19
ENDBRANCH  17  18
ENDBRANCH  16  17
ENDBRANCH  15  16
ENDBRANCH  14  15
ENDBRANCH  13  14
ENDBRANCH  12  13
ENDBRANCH   1  12
TORSDOF 16
ENDMDL
