MODEL 1
REMARK VINA RESULT:    -4.010      0.000      0.000
REMARK INTER + INTRA:         -13.182
REMARK INTER:                 -10.104
REMARK INTRA:                  -3.078
REMARK UNBOUND:                -3.078
REMARK SMILES CCCCCCCCCCCCCCCCCCCCCCCCCCCC(=O)[O-]
REMARK SMILES IDX 15 1 16 2 17 3 18 4 19 5 20 6 21 7 22 8 23 9 24 10 25 11
REMARK SMILES IDX 26 12 27 13 28 14 29 15 30 16 14 17 13 18 12 19 11 20 10 21
REMARK SMILES IDX 9 22 8 23 7 24 6 25 5 26 4 27 3 28 2 29 1 30
REMARK H PARENT
REMARK Flexibility Score: inf
ROOT
ATOM      1  C   UNL     1       2.191   4.512   7.494  1.00  0.00     0.000 C 
ENDROOT
BRANCH   1   2
ATOM      2  C   UNL     1       1.462   3.349   8.203  1.00  0.00     0.000 C 
BRANCH   2   3
ATOM      3  C   UNL     1       0.329   3.772   9.158  1.00  0.00     0.000 C 
BRANCH   3   4
ATOM      4  C   UNL     1      -0.516   2.617   9.728  1.00  0.00     0.000 C 
BRANCH   4   5
ATOM      5  C   UNL     1      -1.938   2.522   9.134  1.00  0.00     0.000 C 
BRANCH   5   6
ATOM      6  C   UNL     1      -2.743   1.339   9.699  1.00  0.00     0.000 C 
BRANCH   6   7
ATOM      7  C   UNL     1      -1.888   0.077   9.906  1.00  0.00     0.000 C 
BRANCH   7   8
ATOM      8  C   UNL     1      -2.501  -1.197   9.288  1.00  0.00     0.000 C 
BRANCH   8   9
ATOM      9  C   UNL     1      -1.735  -1.664   8.039  1.00  0.00     0.000 C 
BRANCH   9  10
ATOM     10  C   UNL     1      -0.217  -1.404   8.152  1.00  0.00     0.000 C 
BRANCH  10  11
ATOM     11  C   UNL     1       0.395  -0.775   6.886  1.00  0.00     0.000 C 
BRANCH  11  12
ATOM     12  C   UNL     1      -0.043   0.674   6.613  1.00  0.00     0.006 C 
BRANCH  12  13
ATOM     13  C   UNL     1      -0.522   0.886   5.170  1.00  0.00     0.053 C 
BRANCH  13  14
ATOM     14  C   UNL     1       0.505   1.631   4.378  1.00  0.00     0.041 C 
ATOM     15  O   UNL     1       1.704   1.240   4.366  1.00  0.00    -0.550 OA
ATOM     16  O   UNL     1       0.137   2.749   3.635  1.00  0.00    -0.550 OA
ENDBRANCH  13  14
ENDBRANCH  12  13
ENDBRANCH  11  12
ENDBRANCH  10  11
ENDBRANCH   9  10
ENDBRANCH   8   9
ENDBRANCH   7   8
ENDBRANCH   6   7
ENDBRANCH   5   6
ENDBRANCH   4   5
ENDBRANCH   3   4
ENDBRANCH   2   3
ENDBRANCH   1   2
BRANCH   1  17
ATOM     17  C   UNL     1       2.044   5.883   8.176  1.00  0.00     0.000 C 
BRANCH  17  18
ATOM     18  C   UNL     1       3.381   6.433   8.701  1.00  0.00     0.000 C 
BRANCH  18  19
ATOM     19  C   UNL     1       4.042   5.496   9.724  1.00  0.00     0.000 C 
BRANCH  19  20
ATOM     20  C   UNL     1       5.577   5.611   9.720  1.00  0.00     0.000 C 
BRANCH  20  21
ATOM     21  C   UNL     1       6.068   7.039  10.003  1.00  0.00     0.000 C 
BRANCH  21  22
ATOM     22  C   UNL     1       7.164   7.492   9.023  1.00  0.00    -0.000 C 
BRANCH  22  23
ATOM     23  C   UNL     1       6.908   8.900   8.461  1.00  0.00    -0.000 C 
BRANCH  23  24
ATOM     24  C   UNL     1       5.435   9.330   8.576  1.00  0.00    -0.000 C 
BRANCH  24  25
ATOM     25  C   UNL     1       4.904   9.958   7.270  1.00  0.00    -0.000 C 
BRANCH  25  26
ATOM     26  C   UNL     1       4.419   8.922   6.241  1.00  0.00    -0.000 C 
BRANCH  26  27
ATOM     27  C   UNL     1       5.573   8.234   5.494  1.00  0.00    -0.000 C 
BRANCH  27  28
ATOM     28  C   UNL     1       5.588   8.563   3.990  1.00  0.00    -0.000 C 
BRANCH  28  29
ATOM     29  C   UNL     1       6.833   9.333   3.513  1.00  0.00    -0.003 C 
ATOM     30  C   UNL     1       7.762   9.735   4.659  1.00  0.00     0.004 C 
ENDBRANCH  28  29
ENDBRANCH  27  28
ENDBRANCH  26  27
ENDBRANCH  25  26
ENDBRANCH  24  25
ENDBRANCH  23  24
ENDBRANCH  22  23
ENDBRANCH  21  22
ENDBRANCH  20  21
ENDBRANCH  19  20
ENDBRANCH  18  19
ENDBRANCH  17  18
ENDBRANCH   1  17
TORSDOF 26
ENDMDL
MODEL 2
REMARK VINA RESULT:    -3.591      1.534      2.576
REMARK INTER + INTRA:         -12.128
REMARK INTER:                 -10.132
REMARK INTRA:                  -1.996
REMARK UNBOUND:                -3.078
REMARK SMILES CCCCCCCCCCCCCCCCCCCCCCCCCCCC(=O)[O-]
REMARK SMILES IDX 15 1 16 2 17 3 18 4 19 5 20 6 21 7 22 8 23 9 24 10 25 11
REMARK SMILES IDX 26 12 27 13 28 14 29 15 30 16 14 17 13 18 12 19 11 20 10 21
REMARK SMILES IDX 9 22 8 23 7 24 6 25 5 26 4 27 3 28 2 29 1 30
REMARK H PARENT
REMARK Flexibility Score: inf
ROOT
ATOM      1  C   UNL     1       2.047   6.043   8.623  1.00  0.00     0.000 C 
ENDROOT
BRANCH   1   2
ATOM      2  C   UNL     1       1.534   5.571  10.001  1.00  0.00     0.000 C 
BRANCH   2   3
ATOM      3  C   UNL     1       1.273   4.057  10.120  1.00  0.00     0.000 C 
BRANCH   3   4
ATOM      4  C   UNL     1       0.159   3.508   9.210  1.00  0.00     0.000 C 
BRANCH   4   5
ATOM      5  C   UNL     1      -1.046   2.917   9.974  1.00  0.00     0.000 C 
BRANCH   5   6
ATOM      6  C   UNL     1      -2.060   2.224   9.045  1.00  0.00     0.000 C 
BRANCH   6   7
ATOM      7  C   UNL     1      -2.811   1.072   9.733  1.00  0.00     0.000 C 
BRANCH   7   8
ATOM      8  C   UNL     1      -2.199  -0.318   9.462  1.00  0.00     0.000 C 
BRANCH   8   9
ATOM      9  C   UNL     1      -2.084  -0.620   7.959  1.00  0.00     0.000 C 
BRANCH   9  10
ATOM     10  C   UNL     1      -1.070  -1.746   7.662  1.00  0.00     0.000 C 
BRANCH  10  11
ATOM     11  C   UNL     1       0.311  -1.228   7.217  1.00  0.00     0.000 C 
BRANCH  11  12
ATOM     12  C   UNL     1       0.381   0.289   6.975  1.00  0.00     0.006 C 
BRANCH  12  13
ATOM     13  C   UNL     1       0.759   0.641   5.530  1.00  0.00     0.053 C 
BRANCH  13  14
ATOM     14  C   UNL     1      -0.330   1.432   4.877  1.00  0.00     0.041 C 
ATOM     15  O   UNL     1      -0.045   2.414   4.139  1.00  0.00    -0.550 OA
ATOM     16  O   UNL     1      -1.662   1.075   5.067  1.00  0.00    -0.550 OA
ENDBRANCH  13  14
ENDBRANCH  12  13
ENDBRANCH  11  12
ENDBRANCH  10  11
ENDBRANCH   9  10
ENDBRANCH   8   9
ENDBRANCH   7   8
ENDBRANCH   6   7
ENDBRANCH   5   6
ENDBRANCH   4   5
ENDBRANCH   3   4
ENDBRANCH   2   3
ENDBRANCH   1   2
BRANCH   1  17
ATOM     17  C   UNL     1       3.575   6.178   8.510  1.00  0.00     0.000 C 
BRANCH  17  18
ATOM     18  C   UNL     1       4.209   6.827   9.751  1.00  0.00     0.000 C 
BRANCH  18  19
ATOM     19  C   UNL     1       5.719   6.555   9.851  1.00  0.00     0.000 C 
BRANCH  19  20
ATOM     20  C   UNL     1       6.545   7.852   9.942  1.00  0.00     0.000 C 
BRANCH  20  21
ATOM     21  C   UNL     1       7.389   8.108   8.683  1.00  0.00     0.000 C 
BRANCH  21  22
ATOM     22  C   UNL     1       6.554   8.660   7.515  1.00  0.00    -0.000 C 
BRANCH  22  23
ATOM     23  C   UNL     1       6.590   7.747   6.280  1.00  0.00    -0.000 C 
BRANCH  23  24
ATOM     24  C   UNL     1       6.837   8.521   4.972  1.00  0.00    -0.000 C 
BRANCH  24  25
ATOM     25  C   UNL     1       6.221   9.936   5.003  1.00  0.00    -0.000 C 
BRANCH  25  26
ATOM     26  C   UNL     1       4.716   9.945   5.318  1.00  0.00    -0.000 C 
BRANCH  26  27
ATOM     27  C   UNL     1       3.840   9.789   4.065  1.00  0.00    -0.000 C 
BRANCH  27  28
ATOM     28  C   UNL     1       2.342   9.999   4.355  1.00  0.00    -0.000 C 
BRANCH  28  29
ATOM     29  C   UNL     1       1.873   9.472   5.723  1.00  0.00    -0.003 C 
ATOM     30  C   UNL     1       0.402   9.054   5.730  1.00  0.00     0.004 C 
ENDBRANCH  28  29
ENDBRANCH  27  28
ENDBRANCH  26  27
ENDBRANCH  25  26
ENDBRANCH  24  25
ENDBRANCH  23  24
ENDBRANCH  22  23
ENDBRANCH  21  22
ENDBRANCH  20  21
ENDBRANCH  19  20
ENDBRANCH  18  19
ENDBRANCH  17  18
ENDBRANCH   1  17
TORSDOF 26
ENDMDL
MODEL 3
REMARK VINA RESULT:    -3.563      2.732      4.402
REMARK INTER + INTRA:         -12.057
REMARK INTER:                  -8.985
REMARK INTRA:                  -3.072
REMARK UNBOUND:                -3.078
REMARK SMILES CCCCCCCCCCCCCCCCCCCCCCCCCCCC(=O)[O-]
REMARK SMILES IDX 15 1 16 2 17 3 18 4 19 5 20 6 21 7 22 8 23 9 24 10 25 11
REMARK SMILES IDX 26 12 27 13 28 14 29 15 30 16 14 17 13 18 12 19 11 20 10 21
REMARK SMILES IDX 9 22 8 23 7 24 6 25 5 26 4 27 3 28 2 29 1 30
REMARK H PARENT
REMARK Flexibility Score: inf
ROOT
ATOM      1  C   UNL     1       0.167   3.324   9.872  1.00  0.00     0.000 C 
ENDROOT
BRANCH   1   2
ATOM      2  C   UNL     1      -0.877   2.328   9.322  1.00  0.00     0.000 C 
BRANCH   2   3
ATOM      3  C   UNL     1      -1.180   2.461   7.817  1.00  0.00     0.000 C 
BRANCH   3   4
ATOM      4  C   UNL     1      -2.438   1.717   7.331  1.00  0.00     0.000 C 
BRANCH   4   5
ATOM      5  C   UNL     1      -2.317   1.138   5.905  1.00  0.00     0.000 C 
BRANCH   5   6
ATOM      6  C   UNL     1      -1.030   1.582   5.188  1.00  0.00     0.000 C 
BRANCH   6   7
ATOM      7  C   UNL     1      -0.243   0.405   4.587  1.00  0.00     0.000 C 
BRANCH   7   8
ATOM      8  C   UNL     1       0.978  -0.020   5.430  1.00  0.00     0.000 C 
BRANCH   8   9
ATOM      9  C   UNL     1       0.661  -0.059   6.934  1.00  0.00     0.000 C 
BRANCH   9  10
ATOM     10  C   UNL     1       0.602  -1.501   7.483  1.00  0.00     0.000 C 
BRANCH  10  11
ATOM     11  C   UNL     1      -0.389  -1.676   8.649  1.00  0.00     0.000 C 
BRANCH  11  12
ATOM     12  C   UNL     1      -1.861  -1.814   8.225  1.00  0.00     0.006 C 
BRANCH  12  13
ATOM     13  C   UNL     1      -2.729  -2.475   9.304  1.00  0.00     0.053 C 
BRANCH  13  14
ATOM     14  C   UNL     1      -2.876  -3.940   9.039  1.00  0.00     0.041 C 
ATOM     15  O   UNL     1      -1.865  -4.694   9.071  1.00  0.00    -0.550 OA
ATOM     16  O   UNL     1      -4.131  -4.479   8.776  1.00  0.00    -0.550 OA
ENDBRANCH  13  14
ENDBRANCH  12  13
ENDBRANCH  11  12
ENDBRANCH  10  11
ENDBRANCH   9  10
ENDBRANCH   8   9
ENDBRANCH   7   8
ENDBRANCH   6   7
ENDBRANCH   5   6
ENDBRANCH   4   5
ENDBRANCH   3   4
ENDBRANCH   2   3
ENDBRANCH   1   2
BRANCH   1  17
ATOM     17  C   UNL     1       1.211   3.803   8.847  1.00  0.00     0.000 C 
BRANCH  17  18
ATOM     18  C   UNL     1       1.823   5.166   9.213  1.00  0.00     0.000 C 
BRANCH  18  19
ATOM     19  C   UNL     1       3.313   5.258   8.849  1.00  0.00     0.000 C 
BRANCH  19  20
ATOM     20  C   UNL     1       4.068   6.279   9.720  1.00  0.00     0.000 C 
BRANCH  20  21
ATOM     21  C   UNL     1       5.595   6.131   9.621  1.00  0.00     0.000 C 
BRANCH  21  22
ATOM     22  C   UNL     1       6.169   6.779   8.350  1.00  0.00    -0.000 C 
BRANCH  22  23
ATOM     23  C   UNL     1       5.834   8.276   8.246  1.00  0.00    -0.000 C 
BRANCH  23  24
ATOM     24  C   UNL     1       6.185   8.872   6.871  1.00  0.00    -0.000 C 
BRANCH  24  25
ATOM     25  C   UNL     1       5.116   9.868   6.373  1.00  0.00    -0.000 C 
BRANCH  25  26
ATOM     26  C   UNL     1       3.994   9.207   5.553  1.00  0.00    -0.000 C 
BRANCH  26  27
ATOM     27  C   UNL     1       2.599   9.428   6.160  1.00  0.00    -0.000 C 
BRANCH  27  28
ATOM     28  C   UNL     1       2.239   8.377   7.226  1.00  0.00    -0.000 C 
BRANCH  28  29
ATOM     29  C   UNL     1       1.543   8.944   8.477  1.00  0.00    -0.003 C 
ATOM     30  C   UNL     1       2.503   9.671   9.418  1.00  0.00     0.004 C 
ENDBRANCH  28  29
ENDBRANCH  27  28
ENDBRANCH  26  27
ENDBRANCH  25  26
ENDBRANCH  24  25
ENDBRANCH  23  24
ENDBRANCH  22  23
ENDBRANCH  21  22
ENDBRANCH  20  21
ENDBRANCH  19  20
ENDBRANCH  18  19
ENDBRANCH  17  18
ENDBRANCH   1  17
TORSDOF 26
ENDMDL
MODEL 4
REMARK VINA RESULT:    -3.498      1.268      2.018
REMARK INTER + INTRA:         -11.893
REMARK INTER:                  -8.755
REMARK INTRA:                  -3.138
REMARK UNBOUND:                -3.078
REMARK SMILES CCCCCCCCCCCCCCCCCCCCCCCCCCCC(=O)[O-]
REMARK SMILES IDX 15 1 16 2 17 3 18 4 19 5 20 6 21 7 22 8 23 9 24 10 25 11
REMARK SMILES IDX 26 12 27 13 28 14 29 15 30 16 14 17 13 18 12 19 11 20 10 21
REMARK SMILES IDX 9 22 8 23 7 24 6 25 5 26 4 27 3 28 2 29 1 30
REMARK H PARENT
REMARK Flexibility Score: inf
ROOT
ATOM      1  C   UNL     1       2.133   4.420   7.293  1.00  0.00     0.000 C 
ENDROOT
BRANCH   1   2
ATOM      2  C   UNL     1       1.644   3.577   8.491  1.00  0.00     0.000 C 
BRANCH   2   3
ATOM      3  C   UNL     1       0.298   2.859   8.280  1.00  0.00     0.000 C 
BRANCH   3   4
ATOM      4  C   UNL     1      -0.765   3.120   9.365  1.00  0.00     0.000 C 
BRANCH   4   5
ATOM      5  C   UNL     1      -1.215   1.853  10.125  1.00  0.00     0.000 C 
BRANCH   5   6
ATOM      6  C   UNL     1      -2.528   1.265   9.579  1.00  0.00     0.000 C 
BRANCH   6   7
ATOM      7  C   UNL     1      -2.472  -0.261   9.402  1.00  0.00     0.000 C 
BRANCH   7   8
ATOM      8  C   UNL     1      -1.111  -0.881   9.781  1.00  0.00     0.000 C 
BRANCH   8   9
ATOM      9  C   UNL     1      -0.595  -1.852   8.706  1.00  0.00     0.000 C 
BRANCH   9  10
ATOM     10  C   UNL     1      -0.644  -1.239   7.289  1.00  0.00     0.000 C 
BRANCH  10  11
ATOM     11  C   UNL     1       0.461  -0.198   7.030  1.00  0.00     0.000 C 
BRANCH  11  12
ATOM     12  C   UNL     1       1.010  -0.189   5.594  1.00  0.00     0.006 C 
BRANCH  12  13
ATOM     13  C   UNL     1      -0.079   0.080   4.545  1.00  0.00     0.053 C 
BRANCH  13  14
ATOM     14  C   UNL     1      -0.792   1.360   4.842  1.00  0.00     0.041 C 
ATOM     15  O   UNL     1      -1.977   1.341   5.273  1.00  0.00    -0.550 OA
ATOM     16  O   UNL     1      -0.144   2.578   4.661  1.00  0.00    -0.550 OA
ENDBRANCH  13  14
ENDBRANCH  12  13
ENDBRANCH  11  12
ENDBRANCH  10  11
ENDBRANCH   9  10
ENDBRANCH   8   9
ENDBRANCH   7   8
ENDBRANCH   6   7
ENDBRANCH   5   6
ENDBRANCH   4   5
ENDBRANCH   3   4
ENDBRANCH   2   3
ENDBRANCH   1   2
BRANCH   1  17
ATOM     17  C   UNL     1       3.031   5.614   7.663  1.00  0.00     0.000 C 
BRANCH  17  18
ATOM     18  C   UNL     1       3.584   5.523   9.095  1.00  0.00     0.000 C 
BRANCH  18  19
ATOM     19  C   UNL     1       3.638   6.891   9.793  1.00  0.00     0.000 C 
BRANCH  19  20
ATOM     20  C   UNL     1       2.741   7.937   9.105  1.00  0.00     0.000 C 
BRANCH  20  21
ATOM     21  C   UNL     1       3.302   9.364   9.212  1.00  0.00     0.000 C 
BRANCH  21  22
ATOM     22  C   UNL     1       4.762   9.389   9.694  1.00  0.00    -0.000 C 
BRANCH  22  23
ATOM     23  C   UNL     1       5.747   9.771   8.577  1.00  0.00    -0.000 C 
BRANCH  23  24
ATOM     24  C   UNL     1       6.703   8.624   8.207  1.00  0.00    -0.000 C 
BRANCH  24  25
ATOM     25  C   UNL     1       6.193   7.800   7.005  1.00  0.00    -0.000 C 
BRANCH  25  26
ATOM     26  C   UNL     1       6.902   8.137   5.682  1.00  0.00    -0.000 C 
BRANCH  26  27
ATOM     27  C   UNL     1       5.939   8.205   4.486  1.00  0.00    -0.000 C 
BRANCH  27  28
ATOM     28  C   UNL     1       5.559   9.649   4.109  1.00  0.00    -0.000 C 
BRANCH  28  29
ATOM     29  C   UNL     1       4.048   9.944   4.137  1.00  0.00    -0.003 C 
ATOM     30  C   UNL     1       3.414   9.684   5.504  1.00  0.00     0.004 C 
ENDBRANCH  28  29
ENDBRANCH  27  28
ENDBRANCH  26  27
ENDBRANCH  25  26
ENDBRANCH  24  25
ENDBRANCH  23  24
ENDBRANCH  22  23
ENDBRANCH  21  22
ENDBRANCH  20  21
ENDBRANCH  19  20
ENDBRANCH  18  19
ENDBRANCH  17  18
ENDBRANCH   1  17
TORSDOF 26
ENDMDL
MODEL 5
REMARK VINA RESULT:    -3.482      1.585      3.380
REMARK INTER + INTRA:         -11.853
REMARK INTER:                  -8.567
REMARK INTRA:                  -3.287
REMARK UNBOUND:                -3.078
REMARK SMILES CCCCCCCCCCCCCCCCCCCCCCCCCCCC(=O)[O-]
REMARK SMILES IDX 15 1 16 2 17 3 18 4 19 5 20 6 21 7 22 8 23 9 24 10 25 11
REMARK SMILES IDX 26 12 27 13 28 14 29 15 30 16 14 17 13 18 12 19 11 20 10 21
REMARK SMILES IDX 9 22 8 23 7 24 6 25 5 26 4 27 3 28 2 29 1 30
REMARK H PARENT
REMARK Flexibility Score: inf
ROOT
ATOM      1  C   UNL     1       0.822   3.976   8.619  1.00  0.00     0.000 C 
ENDROOT
BRANCH   1   2
ATOM      2  C   UNL     1       0.157   2.990   9.603  1.00  0.00     0.000 C 
BRANCH   2   3
ATOM      3  C   UNL     1      -1.372   3.127   9.735  1.00  0.00     0.000 C 
BRANCH   3   4
ATOM      4  C   UNL     1      -2.193   2.005   9.073  1.00  0.00     0.000 C 
BRANCH   4   5
ATOM      5  C   UNL     1      -2.877   1.049  10.074  1.00  0.00     0.000 C 
BRANCH   5   6
ATOM      6  C   UNL     1      -2.689  -0.434   9.708  1.00  0.00     0.000 C 
BRANCH   6   7
ATOM      7  C   UNL     1      -1.314  -0.984  10.125  1.00  0.00     0.000 C 
BRANCH   7   8
ATOM      8  C   UNL     1      -0.579  -1.738   8.997  1.00  0.00     0.000 C 
BRANCH   8   9
ATOM      9  C   UNL     1      -1.315  -1.632   7.651  1.00  0.00     0.000 C 
BRANCH   9  10
ATOM     10  C   UNL     1      -0.847  -0.417   6.821  1.00  0.00     0.000 C 
BRANCH  10  11
ATOM     11  C   UNL     1       0.590   0.033   7.144  1.00  0.00     0.000 C 
BRANCH  11  12
ATOM     12  C   UNL     1       1.042   1.309   6.415  1.00  0.00     0.006 C 
BRANCH  12  13
ATOM     13  C   UNL     1       1.246   1.091   4.909  1.00  0.00     0.053 C 
BRANCH  13  14
ATOM     14  C   UNL     1       0.313   1.954   4.120  1.00  0.00     0.041 C 
ATOM     15  O   UNL     1       0.749   2.642   3.158  1.00  0.00    -0.550 OA
ATOM     16  O   UNL     1      -1.042   1.985   4.433  1.00  0.00    -0.550 OA
ENDBRANCH  13  14
ENDBRANCH  12  13
ENDBRANCH  11  12
ENDBRANCH  10  11
ENDBRANCH   9  10
ENDBRANCH   8   9
ENDBRANCH   7   8
ENDBRANCH   6   7
ENDBRANCH   5   6
ENDBRANCH   4   5
ENDBRANCH   3   4
ENDBRANCH   2   3
ENDBRANCH   1   2
BRANCH   1  17
ATOM     17  C   UNL     1       1.877   4.906   9.244  1.00  0.00     0.000 C 
BRANCH  17  18
ATOM     18  C   UNL     1       1.256   6.122   9.951  1.00  0.00     0.000 C 
BRANCH  18  19
ATOM     19  C   UNL     1       1.796   7.455   9.412  1.00  0.00     0.000 C 
BRANCH  19  20
ATOM     20  C   UNL     1       0.693   8.321   8.774  1.00  0.00     0.000 C 
BRANCH  20  21
ATOM     21  C   UNL     1       1.254   9.410   7.846  1.00  0.00     0.000 C 
BRANCH  21  22
ATOM     22  C   UNL     1       1.725   8.848   6.494  1.00  0.00    -0.000 C 
BRANCH  22  23
ATOM     23  C   UNL     1       3.095   9.399   6.069  1.00  0.00    -0.000 C 
BRANCH  23  24
ATOM     24  C   UNL     1       4.260   8.476   6.470  1.00  0.00    -0.000 C 
BRANCH  24  25
ATOM     25  C   UNL     1       5.256   9.168   7.425  1.00  0.00    -0.000 C 
BRANCH  25  26
ATOM     26  C   UNL     1       4.607   9.690   8.719  1.00  0.00    -0.000 C 
BRANCH  26  27
ATOM     27  C   UNL     1       5.092   8.947   9.974  1.00  0.00    -0.000 C 
BRANCH  27  28
ATOM     28  C   UNL     1       6.178   7.900   9.664  1.00  0.00    -0.000 C 
BRANCH  28  29
ATOM     29  C   UNL     1       5.763   6.444   9.945  1.00  0.00    -0.003 C 
ATOM     30  C   UNL     1       5.103   5.767   8.743  1.00  0.00     0.004 C 
ENDBRANCH  28  29
ENDBRANCH  27  28
ENDBRANCH  26  27
ENDBRANCH  25  26
ENDBRANCH  24  25
ENDBRANCH  23  24
ENDBRANCH  22  23
ENDBRANCH  21  22
ENDBRANCH  20  21
ENDBRANCH  19  20
ENDBRANCH  18  19
ENDBRANCH  17  18
ENDBRANCH   1  17
TORSDOF 26
ENDMDL
MODEL 6
REMARK VINA RESULT:    -3.419      2.685      9.842
REMARK INTER + INTRA:         -11.694
REMARK INTER:                  -8.465
REMARK INTRA:                  -3.229
REMARK UNBOUND:                -3.078
REMARK SMILES CCCCCCCCCCCCCCCCCCCCCCCCCCCC(=O)[O-]
REMARK SMILES IDX 15 1 16 2 17 3 18 4 19 5 20 6 21 7 22 8 23 9 24 10 25 11
REMARK SMILES IDX 26 12 27 13 28 14 29 15 30 16 14 17 13 18 12 19 11 20 10 21
REMARK SMILES IDX 9 22 8 23 7 24 6 25 5 26 4 27 3 28 2 29 1 30
REMARK H PARENT
REMARK Flexibility Score: inf
ROOT
ATOM      1  C   UNL     1       1.901   4.048   8.682  1.00  0.00     0.000 C 
ENDROOT
BRANCH   1   2
ATOM      2  C   UNL     1       2.476   5.179   9.562  1.00  0.00     0.000 C 
BRANCH   2   3
ATOM      3  C   UNL     1       2.416   6.588   8.940  1.00  0.00     0.000 C 
BRANCH   3   4
ATOM      4  C   UNL     1       1.378   7.539   9.566  1.00  0.00     0.000 C 
BRANCH   4   5
ATOM      5  C   UNL     1       0.522   8.306   8.534  1.00  0.00     0.000 C 
BRANCH   5   6
ATOM      6  C   UNL     1       1.310   8.682   7.267  1.00  0.00     0.000 C 
BRANCH   6   7
ATOM      7  C   UNL     1       2.141   9.965   7.437  1.00  0.00     0.000 C 
BRANCH   7   8
ATOM      8  C   UNL     1       3.544   9.886   6.799  1.00  0.00     0.000 C 
BRANCH   8   9
ATOM      9  C   UNL     1       3.962   8.438   6.493  1.00  0.00     0.000 C 
BRANCH   9  10
ATOM     10  C   UNL     1       5.153   8.367   5.512  1.00  0.00     0.000 C 
BRANCH  10  11
ATOM     11  C   UNL     1       6.475   7.945   6.178  1.00  0.00     0.000 C 
BRANCH  11  12
ATOM     12  C   UNL     1       6.880   8.793   7.395  1.00  0.00     0.006 C 
BRANCH  12  13
ATOM     13  C   UNL     1       7.297   7.938   8.601  1.00  0.00     0.053 C 
BRANCH  13  14
ATOM     14  C   UNL     1       6.097   7.503   9.379  1.00  0.00     0.041 C 
ATOM     15  O   UNL     1       5.264   8.357   9.790  1.00  0.00    -0.550 OA
ATOM     16  O   UNL     1       5.884   6.153   9.637  1.00  0.00    -0.550 OA
ENDBRANCH  13  14
ENDBRANCH  12  13
ENDBRANCH  11  12
ENDBRANCH  10  11
ENDBRANCH   9  10
ENDBRANCH   8   9
ENDBRANCH   7   8
ENDBRANCH   6   7
ENDBRANCH   5   6
ENDBRANCH   4   5
ENDBRANCH   3   4
ENDBRANCH   2   3
ENDBRANCH   1   2
BRANCH   1  17
ATOM     17  C   UNL     1       0.369   3.911   8.720  1.00  0.00     0.000 C 
BRANCH  17  18
ATOM     18  C   UNL     1      -0.127   3.101   9.930  1.00  0.00     0.000 C 
BRANCH  18  19
ATOM     19  C   UNL     1      -1.655   3.151  10.085  1.00  0.00     0.000 C 
BRANCH  19  20
ATOM     20  C   UNL     1      -2.364   2.053   9.270  1.00  0.00     0.000 C 
BRANCH  20  21
ATOM     21  C   UNL     1      -2.391   0.698   9.995  1.00  0.00     0.000 C 
BRANCH  21  22
ATOM     22  C   UNL     1      -2.702  -0.472   9.047  1.00  0.00    -0.000 C 
BRANCH  22  23
ATOM     23  C   UNL     1      -2.223  -1.824   9.600  1.00  0.00    -0.000 C 
BRANCH  23  24
ATOM     24  C   UNL     1      -1.226  -2.532   8.664  1.00  0.00    -0.000 C 
BRANCH  24  25
ATOM     25  C   UNL     1      -0.750  -1.619   7.514  1.00  0.00    -0.000 C 
BRANCH  25  26
ATOM     26  C   UNL     1       0.521  -0.820   7.850  1.00  0.00    -0.000 C 
BRANCH  26  27
ATOM     27  C   UNL     1       0.584   0.537   7.130  1.00  0.00    -0.000 C 
BRANCH  27  28
ATOM     28  C   UNL     1       0.119   0.455   5.664  1.00  0.00    -0.000 C 
BRANCH  28  29
ATOM     29  C   UNL     1      -0.973   1.469   5.279  1.00  0.00    -0.003 C 
ATOM     30  C   UNL     1      -2.379   1.008   5.664  1.00  0.00     0.004 C 
ENDBRANCH  28  29
ENDBRANCH  27  28
ENDBRANCH  26  27
ENDBRANCH  25  26
ENDBRANCH  24  25
ENDBRANCH  23  24
ENDBRANCH  22  23
ENDBRANCH  21  22
ENDBRANCH  20  21
ENDBRANCH  19  20
ENDBRANCH  18  19
ENDBRANCH  17  18
ENDBRANCH   1  17
TORSDOF 26
ENDMDL
MODEL 7
REMARK VINA RESULT:    -3.365      2.806      9.649
REMARK INTER + INTRA:         -11.559
REMARK INTER:                  -9.200
REMARK INTRA:                  -2.359
REMARK UNBOUND:                -3.078
REMARK SMILES CCCCCCCCCCCCCCCCCCCCCCCCCCCC(=O)[O-]
REMARK SMILES IDX 15 1 16 2 17 3 18 4 19 5 20 6 21 7 22 8 23 9 24 10 25 11
REMARK SMILES IDX 26 12 27 13 28 14 29 15 30 16 14 17 13 18 12 19 11 20 10 21
REMARK SMILES IDX 9 22 8 23 7 24 6 25 5 26 4 27 3 28 2 29 1 30
REMARK H PARENT
REMARK Flexibility Score: inf
ROOT
ATOM      1  C   UNL     1      -0.093   3.274   8.971  1.00  0.00     0.000 C 
ENDROOT
BRANCH   1   2
ATOM      2  C   UNL     1       1.058   3.004   7.977  1.00  0.00     0.000 C 
BRANCH   2   3
ATOM      3  C   UNL     1       2.084   4.145   7.839  1.00  0.00     0.000 C 
BRANCH   3   4
ATOM      4  C   UNL     1       1.857   5.352   8.768  1.00  0.00     0.000 C 
BRANCH   4   5
ATOM      5  C   UNL     1       2.699   6.595   8.406  1.00  0.00     0.000 C 
BRANCH   5   6
ATOM      6  C   UNL     1       2.201   7.875   9.101  1.00  0.00     0.000 C 
BRANCH   6   7
ATOM      7  C   UNL     1       0.839   8.353   8.570  1.00  0.00     0.000 C 
BRANCH   7   8
ATOM      8  C   UNL     1       0.744   8.371   7.030  1.00  0.00     0.000 C 
BRANCH   8   9
ATOM      9  C   UNL     1       0.829   9.797   6.459  1.00  0.00     0.000 C 
BRANCH   9  10
ATOM     10  C   UNL     1       1.983   9.955   5.445  1.00  0.00     0.000 C 
BRANCH  10  11
ATOM     11  C   UNL     1       3.219   9.100   5.782  1.00  0.00     0.000 C 
BRANCH  11  12
ATOM     12  C   UNL     1       4.531   9.590   5.146  1.00  0.00     0.006 C 
BRANCH  12  13
ATOM     13  C   UNL     1       5.707   9.582   6.133  1.00  0.00     0.053 C 
BRANCH  13  14
ATOM     14  C   UNL     1       6.682   8.504   5.783  1.00  0.00     0.041 C 
ATOM     15  O   UNL     1       7.254   8.507   4.659  1.00  0.00    -0.550 OA
ATOM     16  O   UNL     1       6.977   7.503   6.704  1.00  0.00    -0.550 OA
ENDBRANCH  13  14
ENDBRANCH  12  13
ENDBRANCH  11  12
ENDBRANCH  10  11
ENDBRANCH   9  10
ENDBRANCH   8   9
ENDBRANCH   7   8
ENDBRANCH   6   7
ENDBRANCH   5   6
ENDBRANCH   4   5
ENDBRANCH   3   4
ENDBRANCH   2   3
ENDBRANCH   1   2
BRANCH   1  17
ATOM     17  C   UNL     1      -1.257   2.270   8.906  1.00  0.00     0.000 C 
BRANCH  17  18
ATOM     18  C   UNL     1      -1.304   1.333  10.125  1.00  0.00     0.000 C 
BRANCH  18  19
ATOM     19  C   UNL     1      -2.511   0.382  10.090  1.00  0.00     0.000 C 
BRANCH  19  20
ATOM     20  C   UNL     1      -2.534  -0.493   8.823  1.00  0.00     0.000 C 
BRANCH  20  21
ATOM     21  C   UNL     1      -2.377  -1.990   9.132  1.00  0.00     0.000 C 
BRANCH  21  22
ATOM     22  C   UNL     1      -1.022  -2.319   9.782  1.00  0.00    -0.000 C 
BRANCH  22  23
ATOM     23  C   UNL     1       0.169  -1.974   8.873  1.00  0.00    -0.000 C 
BRANCH  23  24
ATOM     24  C   UNL     1      -0.267  -1.456   7.490  1.00  0.00    -0.000 C 
BRANCH  24  25
ATOM     25  C   UNL     1       0.580  -0.254   7.020  1.00  0.00    -0.000 C 
BRANCH  25  26
ATOM     26  C   UNL     1       0.957  -0.312   5.529  1.00  0.00    -0.000 C 
BRANCH  26  27
ATOM     27  C   UNL     1       0.670   1.003   4.788  1.00  0.00    -0.000 C 
BRANCH  27  28
ATOM     28  C   UNL     1      -0.722   1.578   5.109  1.00  0.00    -0.000 C 
BRANCH  28  29
ATOM     29  C   UNL     1      -1.899   0.668   4.711  1.00  0.00    -0.003 C 
ATOM     30  C   UNL     1      -3.113   0.827   5.626  1.00  0.00     0.004 C 
ENDBRANCH  28  29
ENDBRANCH  27  28
ENDBRANCH  26  27
ENDBRANCH  25  26
ENDBRANCH  24  25
ENDBRANCH  23  24
ENDBRANCH  22  23
ENDBRANCH  21  22
ENDBRANCH  20  21
ENDBRANCH  19  20
ENDBRANCH  18  19
ENDBRANCH  17  18
ENDBRANCH   1  17
TORSDOF 26
ENDMDL
MODEL 8
REMARK VINA RESULT:    -3.320      1.637      3.667
REMARK INTER + INTRA:         -11.444
REMARK INTER:                  -9.381
REMARK INTRA:                  -2.063
REMARK UNBOUND:                -3.078
REMARK SMILES CCCCCCCCCCCCCCCCCCCCCCCCCCCC(=O)[O-]
REMARK SMILES IDX 15 1 16 2 17 3 18 4 19 5 20 6 21 7 22 8 23 9 24 10 25 11
REMARK SMILES IDX 26 12 27 13 28 14 29 15 30 16 14 17 13 18 12 19 11 20 10 21
REMARK SMILES IDX 9 22 8 23 7 24 6 25 5 26 4 27 3 28 2 29 1 30
REMARK H PARENT
REMARK Flexibility Score: inf
ROOT
ATOM      1  C   UNL     1       1.230   1.480   5.071  1.00  0.00     0.000 C 
ENDROOT
BRANCH   1   2
ATOM      2  C   UNL     1       0.985   0.017   5.503  1.00  0.00     0.000 C 
BRANCH   2   3
ATOM      3  C   UNL     1       0.632  -0.175   6.990  1.00  0.00     0.000 C 
BRANCH   3   4
ATOM      4  C   UNL     1       0.554  -1.639   7.465  1.00  0.00     0.000 C 
BRANCH   4   5
ATOM      5  C   UNL     1       0.743  -1.821   8.986  1.00  0.00     0.000 C 
BRANCH   5   6
ATOM      6  C   UNL     1      -0.326  -2.731   9.616  1.00  0.00     0.000 C 
BRANCH   6   7
ATOM      7  C   UNL     1      -1.617  -2.802   8.783  1.00  0.00     0.000 C 
BRANCH   7   8
ATOM      8  C   UNL     1      -2.709  -1.813   9.244  1.00  0.00     0.000 C 
BRANCH   8   9
ATOM      9  C   UNL     1      -2.139  -0.687  10.124  1.00  0.00     0.000 C 
BRANCH   9  10
ATOM     10  C   UNL     1      -2.796   0.678   9.826  1.00  0.00     0.000 C 
BRANCH  10  11
ATOM     11  C   UNL     1      -1.860   1.667   9.107  1.00  0.00     0.000 C 
BRANCH  11  12
ATOM     12  C   UNL     1      -2.139   1.837   7.604  1.00  0.00     0.006 C 
BRANCH  12  13
ATOM     13  C   UNL     1      -2.457   0.507   6.906  1.00  0.00     0.053 C 
BRANCH  13  14
ATOM     14  C   UNL     1      -2.766   0.730   5.460  1.00  0.00     0.041 C 
ATOM     15  O   UNL     1      -2.010   1.452   4.755  1.00  0.00    -0.550 OA
ATOM     16  O   UNL     1      -3.878   0.126   4.882  1.00  0.00    -0.550 OA
ENDBRANCH  13  14
ENDBRANCH  12  13
ENDBRANCH  11  12
ENDBRANCH  10  11
ENDBRANCH   9  10
ENDBRANCH   8   9
ENDBRANCH   7   8
ENDBRANCH   6   7
ENDBRANCH   5   6
ENDBRANCH   4   5
ENDBRANCH   3   4
ENDBRANCH   2   3
ENDBRANCH   1   2
BRANCH   1  17
ATOM     17  C   UNL     1       0.826   2.541   6.109  1.00  0.00     0.000 C 
BRANCH  17  18
ATOM     18  C   UNL     1       2.019   3.053   6.933  1.00  0.00     0.000 C 
BRANCH  18  19
ATOM     19  C   UNL     1       1.759   4.439   7.545  1.00  0.00     0.000 C 
BRANCH  19  20
ATOM     20  C   UNL     1       1.724   4.404   9.084  1.00  0.00     0.000 C 
BRANCH  20  21
ATOM     21  C   UNL     1       1.708   5.808   9.710  1.00  0.00     0.000 C 
BRANCH  21  22
ATOM     22  C   UNL     1       3.064   6.524   9.588  1.00  0.00    -0.000 C 
BRANCH  22  23
ATOM     23  C   UNL     1       4.252   5.592   9.873  1.00  0.00    -0.000 C 
BRANCH  23  24
ATOM     24  C   UNL     1       5.552   6.058   9.194  1.00  0.00    -0.000 C 
BRANCH  24  25
ATOM     25  C   UNL     1       5.979   7.470   9.651  1.00  0.00    -0.000 C 
BRANCH  25  26
ATOM     26  C   UNL     1       6.016   8.501   8.510  1.00  0.00    -0.000 C 
BRANCH  26  27
ATOM     27  C   UNL     1       5.200   8.065   7.282  1.00  0.00    -0.000 C 
BRANCH  27  28
ATOM     28  C   UNL     1       5.424   8.979   6.063  1.00  0.00    -0.000 C 
BRANCH  28  29
ATOM     29  C   UNL     1       5.833   8.242   4.774  1.00  0.00    -0.003 C 
ATOM     30  C   UNL     1       7.318   8.395   4.445  1.00  0.00     0.004 C 
ENDBRANCH  28  29
ENDBRANCH  27  28
ENDBRANCH  26  27
ENDBRANCH  25  26
ENDBRANCH  24  25
ENDBRANCH  23  24
ENDBRANCH  22  23
ENDBRANCH  21  22
ENDBRANCH  20  21
ENDBRANCH  19  20
ENDBRANCH  18  19
ENDBRANCH  17  18
ENDBRANCH   1  17
TORSDOF 26
ENDMDL
MODEL 9
REMARK VINA RESULT:    -2.945      2.344      9.803
REMARK INTER + INTRA:         -10.500
REMARK INTER:                  -7.746
REMARK INTRA:                  -2.755
REMARK UNBOUND:                -3.078
REMARK SMILES CCCCCCCCCCCCCCCCCCCCCCCCCCCC(=O)[O-]
REMARK SMILES IDX 15 1 16 2 17 3 18 4 19 5 20 6 21 7 22 8 23 9 24 10 25 11
REMARK SMILES IDX 26 12 27 13 28 14 29 15 30 16 14 17 13 18 12 19 11 20 10 21
REMARK SMILES IDX 9 22 8 23 7 24 6 25 5 26 4 27 3 28 2 29 1 30
REMARK H PARENT
REMARK Flexibility Score: inf
ROOT
ATOM      1  C   UNL     1       1.407   3.325   7.747  1.00  0.00     0.000 C 
ENDROOT
BRANCH   1   2
ATOM      2  C   UNL     1       2.019   4.464   8.592  1.00  0.00     0.000 C 
BRANCH   2   3
ATOM      3  C   UNL     1       3.214   5.190   7.944  1.00  0.00     0.000 C 
BRANCH   3   4
ATOM      4  C   UNL     1       3.676   6.470   8.665  1.00  0.00     0.000 C 
BRANCH   4   5
ATOM      5  C   UNL     1       5.209   6.628   8.752  1.00  0.00     0.000 C 
BRANCH   5   6
ATOM      6  C   UNL     1       5.682   8.055   8.426  1.00  0.00     0.000 C 
BRANCH   6   7
ATOM      7  C   UNL     1       6.941   8.081   7.542  1.00  0.00     0.000 C 
BRANCH   7   8
ATOM      8  C   UNL     1       6.642   7.982   6.032  1.00  0.00     0.000 C 
BRANCH   8   9
ATOM      9  C   UNL     1       5.134   8.029   5.734  1.00  0.00     0.000 C 
BRANCH   9  10
ATOM     10  C   UNL     1       4.653   9.450   5.367  1.00  0.00     0.000 C 
BRANCH  10  11
ATOM     11  C   UNL     1       3.475   9.943   6.229  1.00  0.00     0.000 C 
BRANCH  11  12
ATOM     12  C   UNL     1       2.208   9.076   6.140  1.00  0.00     0.006 C 
BRANCH  12  13
ATOM     13  C   UNL     1       1.099   9.550   7.090  1.00  0.00     0.053 C 
BRANCH  13  14
ATOM     14  C   UNL     1      -0.249   9.201   6.542  1.00  0.00     0.041 C 
ATOM     15  O   UNL     1      -0.362   8.779   5.359  1.00  0.00    -0.550 OA
ATOM     16  O   UNL     1      -1.381   9.323   7.342  1.00  0.00    -0.550 OA
ENDBRANCH  13  14
ENDBRANCH  12  13
ENDBRANCH  11  12
ENDBRANCH  10  11
ENDBRANCH   9  10
ENDBRANCH   8   9
ENDBRANCH   7   8
ENDBRANCH   6   7
ENDBRANCH   5   6
ENDBRANCH   4   5
ENDBRANCH   3   4
ENDBRANCH   2   3
ENDBRANCH   1   2
BRANCH   1  17
ATOM     17  C   UNL     1      -0.107   3.123   7.929  1.00  0.00     0.000 C 
BRANCH  17  18
ATOM     18  C   UNL     1      -0.471   2.551   9.309  1.00  0.00     0.000 C 
BRANCH  18  19
ATOM     19  C   UNL     1      -1.844   3.034   9.802  1.00  0.00     0.000 C 
BRANCH  19  20
ATOM     20  C   UNL     1      -2.796   1.867  10.125  1.00  0.00     0.000 C 
BRANCH  20  21
ATOM     21  C   UNL     1      -2.087   0.503  10.122  1.00  0.00     0.000 C 
BRANCH  21  22
ATOM     22  C   UNL     1      -2.510  -0.380   8.935  1.00  0.00    -0.000 C 
BRANCH  22  23
ATOM     23  C   UNL     1      -1.787  -1.736   8.920  1.00  0.00    -0.000 C 
BRANCH  23  24
ATOM     24  C   UNL     1      -1.005  -1.981   7.617  1.00  0.00    -0.000 C 
BRANCH  24  25
ATOM     25  C   UNL     1       0.431  -1.419   7.681  1.00  0.00    -0.000 C 
BRANCH  25  26
ATOM     26  C   UNL     1       0.578  -0.030   7.035  1.00  0.00    -0.000 C 
BRANCH  26  27
ATOM     27  C   UNL     1       0.417  -0.059   5.507  1.00  0.00    -0.000 C 
BRANCH  27  28
ATOM     28  C   UNL     1      -0.329   1.173   4.963  1.00  0.00    -0.000 C 
BRANCH  28  29
ATOM     29  C   UNL     1      -1.693   1.443   5.625  1.00  0.00    -0.003 C 
ATOM     30  C   UNL     1      -2.749   0.398   5.265  1.00  0.00     0.004 C 
ENDBRANCH  28  29
ENDBRANCH  27  28
ENDBRANCH  26  27
ENDBRANCH  25  26
ENDBRANCH  24  25
ENDBRANCH  23  24
ENDBRANCH  22  23
ENDBRANCH  21  22
ENDBRANCH  20  21
ENDBRANCH  19  20
ENDBRANCH  18  19
ENDBRANCH  17  18
ENDBRANCH   1  17
TORSDOF 26
ENDMDL
