MODEL 1
REMARK VINA RESULT:    -6.270      0.000      0.000
REMARK INTER + INTRA:          -7.667
REMARK INTER:                  -7.369
REMARK INTRA:                  -0.298
REMARK UNBOUND:                -0.298
REMARK SMILES O=c1cc(-c2ccc(O)c(O)c2)oc2cc(O)cc(O)c12
REMARK SMILES IDX 4 1 3 2 2 3 1 4 21 5 19 6 18 7 16 8 15 9 14 10 13 11 5 12
REMARK SMILES IDX 6 13 7 14 8 15 12 16 10 17 9 18 11 20 20 22 17 24
REMARK H PARENT 9 19 11 21 20 23 17 25
REMARK Flexibility Score: inf
ROOT
ATOM      1  C   UNL     1      -0.697  34.665  63.157  1.00  0.00     0.138 A 
ATOM      2  C   UNL     1       0.041  33.573  63.633  1.00  0.00     0.100 A 
ATOM      3  C   UNL     1       1.436  33.614  63.594  1.00  0.00     0.197 A 
ATOM      4  O   UNL     1       2.071  32.642  64.081  1.00  0.00    -0.289 OA
ATOM      5  C   UNL     1       2.092  34.739  63.041  1.00  0.00     0.107 A 
ATOM      6  C   UNL     1       3.508  34.877  62.917  1.00  0.00     0.134 A 
ATOM      7  C   UNL     1       4.045  36.080  62.444  1.00  0.00     0.093 A 
ATOM      8  C   UNL     1       3.217  37.129  62.034  1.00  0.00     0.123 A 
ATOM      9  C   UNL     1       1.833  36.985  62.104  1.00  0.00     0.094 A 
ATOM     10  C   UNL     1       1.268  35.811  62.605  1.00  0.00     0.146 A 
ATOM     11  O   UNL     1      -0.056  35.723  62.671  1.00  0.00    -0.456 OA
ENDROOT
BRANCH   1  12
ATOM     12  C   UNL     1      -2.183  34.674  63.171  1.00  0.00     0.021 A 
ATOM     13  C   UNL     1      -2.866  34.109  64.261  1.00  0.00     0.016 A 
ATOM     14  C   UNL     1      -4.263  34.099  64.295  1.00  0.00     0.051 A 
ATOM     15  C   UNL     1      -5.000  34.643  63.237  1.00  0.00     0.157 A 
ATOM     16  C   UNL     1      -2.930  35.208  62.103  1.00  0.00     0.062 A 
ATOM     17  C   UNL     1      -4.329  35.196  62.134  1.00  0.00     0.158 A 
BRANCH  15  18
ATOM     18  O   UNL     1      -6.395  34.632  63.275  1.00  0.00    -0.504 OA
ATOM     19  H   UNL     1      -6.948  35.073  62.549  1.00  0.00     0.293 HD
ENDBRANCH  15  18
BRANCH  17  20
ATOM     20  O   UNL     1      -5.035  35.735  61.059  1.00  0.00    -0.504 OA
ATOM     21  H   UNL     1      -5.396  35.159  60.308  1.00  0.00     0.293 HD
ENDBRANCH  17  20
ENDBRANCH   1  12
BRANCH   6  22
ATOM     22  O   UNL     1       4.423  33.865  63.221  1.00  0.00    -0.507 OA
ATOM     23  H   UNL     1       4.237  32.876  63.154  1.00  0.00     0.293 HD
ENDBRANCH   6  22
BRANCH   8  24
ATOM     24  O   UNL     1       3.762  38.316  61.549  1.00  0.00    -0.508 OA
ATOM     25  H   UNL     1       3.291  38.865  60.840  1.00  0.00     0.293 HD
ENDBRANCH   8  24
TORSDOF 5
ENDMDL
MODEL 2
REMARK VINA RESULT:    -5.949      5.403      8.989
REMARK INTER + INTRA:          -7.290
REMARK INTER:                  -6.983
REMARK INTRA:                  -0.307
REMARK UNBOUND:                -0.298
REMARK SMILES O=c1cc(-c2ccc(O)c(O)c2)oc2cc(O)cc(O)c12
REMARK SMILES IDX 4 1 3 2 2 3 1 4 21 5 19 6 18 7 16 8 15 9 14 10 13 11 5 12
REMARK SMILES IDX 6 13 7 14 8 15 12 16 10 17 9 18 11 20 20 22 17 24
REMARK H PARENT 9 19 11 21 20 23 17 25
REMARK Flexibility Score: inf
ROOT
ATOM      1  C   UNL     1       5.669  36.759  60.857  1.00  0.00     0.138 A 
ATOM      2  C   UNL     1       4.368  36.796  61.376  1.00  0.00     0.100 A 
ATOM      3  C   UNL     1       3.952  35.805  62.267  1.00  0.00     0.197 A 
ATOM      4  O   UNL     1       2.797  35.898  62.758  1.00  0.00    -0.289 OA
ATOM      5  C   UNL     1       4.833  34.751  62.609  1.00  0.00     0.107 A 
ATOM      6  C   UNL     1       4.506  33.668  63.479  1.00  0.00     0.134 A 
ATOM      7  C   UNL     1       5.494  32.737  63.822  1.00  0.00     0.093 A 
ATOM      8  C   UNL     1       6.779  32.816  63.280  1.00  0.00     0.123 A 
ATOM      9  C   UNL     1       7.094  33.841  62.391  1.00  0.00     0.094 A 
ATOM     10  C   UNL     1       6.140  34.805  62.057  1.00  0.00     0.146 A 
ATOM     11  O   UNL     1       6.487  35.776  61.219  1.00  0.00    -0.456 OA
ENDROOT
BRANCH   1  12
ATOM     12  C   UNL     1       6.164  37.785  59.903  1.00  0.00     0.021 A 
ATOM     13  C   UNL     1       5.255  38.420  59.040  1.00  0.00     0.016 A 
ATOM     14  C   UNL     1       5.697  39.383  58.129  1.00  0.00     0.051 A 
ATOM     15  C   UNL     1       7.053  39.720  58.057  1.00  0.00     0.157 A 
ATOM     16  C   UNL     1       7.530  38.119  59.818  1.00  0.00     0.062 A 
ATOM     17  C   UNL     1       7.974  39.081  58.904  1.00  0.00     0.158 A 
BRANCH  15  18
ATOM     18  O   UNL     1       7.490  40.683  57.147  1.00  0.00    -0.504 OA
ATOM     19  H   UNL     1       6.987  40.866  56.286  1.00  0.00     0.293 HD
ENDBRANCH  15  18
BRANCH  17  20
ATOM     20  O   UNL     1       9.334  39.387  58.848  1.00  0.00    -0.504 OA
ATOM     21  H   UNL     1       9.685  40.193  58.346  1.00  0.00     0.293 HD
ENDBRANCH  17  20
ENDBRANCH   1  12
BRANCH   6  22
ATOM     22  O   UNL     1       3.232  33.448  64.014  1.00  0.00    -0.507 OA
ATOM     23  H   UNL     1       2.472  32.996  63.531  1.00  0.00     0.293 HD
ENDBRANCH   6  22
BRANCH   8  24
ATOM     24  O   UNL     1       7.751  31.875  63.616  1.00  0.00    -0.508 OA
ATOM     25  H   UNL     1       7.584  31.170  64.324  1.00  0.00     0.293 HD
ENDBRANCH   8  24
TORSDOF 5
ENDMDL
MODEL 3
REMARK VINA RESULT:    -5.678     12.978     14.639
REMARK INTER + INTRA:          -6.971
REMARK INTER:                  -6.691
REMARK INTRA:                  -0.280
REMARK UNBOUND:                -0.298
REMARK SMILES O=c1cc(-c2ccc(O)c(O)c2)oc2cc(O)cc(O)c12
REMARK SMILES IDX 4 1 3 2 2 3 1 4 21 5 19 6 18 7 16 8 15 9 14 10 13 11 5 12
REMARK SMILES IDX 6 13 7 14 8 15 12 16 10 17 9 18 11 20 20 22 17 24
REMARK H PARENT 9 19 11 21 20 23 17 25
REMARK Flexibility Score: inf
ROOT
ATOM      1  C   UNL     1       9.543  44.172  62.817  1.00  0.00     0.138 A 
ATOM      2  C   UNL     1       9.389  43.184  63.799  1.00  0.00     0.100 A 
ATOM      3  C   UNL     1       8.882  43.529  65.053  1.00  0.00     0.197 A 
ATOM      4  O   UNL     1       8.703  42.610  65.893  1.00  0.00    -0.289 OA
ATOM      5  C   UNL     1       8.563  44.879  65.336  1.00  0.00     0.107 A 
ATOM      6  C   UNL     1       8.072  45.354  66.589  1.00  0.00     0.134 A 
ATOM      7  C   UNL     1       7.697  46.697  66.719  1.00  0.00     0.093 A 
ATOM      8  C   UNL     1       7.850  47.595  65.660  1.00  0.00     0.123 A 
ATOM      9  C   UNL     1       8.375  47.152  64.448  1.00  0.00     0.094 A 
ATOM     10  C   UNL     1       8.726  45.811  64.276  1.00  0.00     0.146 A 
ATOM     11  O   UNL     1       9.206  45.427  63.098  1.00  0.00    -0.456 OA
ENDROOT
BRANCH   1  12
ATOM     12  C   UNL     1      10.080  43.862  61.468  1.00  0.00     0.021 A 
ATOM     13  C   UNL     1      10.984  44.753  60.864  1.00  0.00     0.016 A 
ATOM     14  C   UNL     1      11.499  44.488  59.592  1.00  0.00     0.051 A 
ATOM     15  C   UNL     1      11.111  43.336  58.898  1.00  0.00     0.157 A 
ATOM     16  C   UNL     1       9.683  42.712  60.759  1.00  0.00     0.062 A 
ATOM     17  C   UNL     1      10.195  42.446  59.484  1.00  0.00     0.158 A 
BRANCH  15  18
ATOM     18  O   UNL     1      11.627  43.074  57.629  1.00  0.00    -0.504 OA
ATOM     19  H   UNL     1      12.497  43.489  57.315  1.00  0.00     0.293 HD
ENDBRANCH  15  18
BRANCH  17  20
ATOM     20  O   UNL     1       9.780  41.296  58.813  1.00  0.00    -0.504 OA
ATOM     21  H   UNL     1       9.802  41.224  57.803  1.00  0.00     0.293 HD
ENDBRANCH  17  20
ENDBRANCH   1  12
BRANCH   6  22
ATOM     22  O   UNL     1       7.954  44.562  67.736  1.00  0.00    -0.507 OA
ATOM     23  H   UNL     1       8.381  43.658  67.862  1.00  0.00     0.293 HD
ENDBRANCH   6  22
BRANCH   8  24
ATOM     24  O   UNL     1       7.489  48.932  65.804  1.00  0.00    -0.508 OA
ATOM     25  H   UNL     1       7.334  49.344  66.717  1.00  0.00     0.293 HD
ENDBRANCH   8  24
TORSDOF 5
ENDMDL
MODEL 4
REMARK VINA RESULT:    -5.675      4.531      6.912
REMARK INTER + INTRA:          -6.969
REMARK INTER:                  -6.677
REMARK INTRA:                  -0.291
REMARK UNBOUND:                -0.298
REMARK SMILES O=c1cc(-c2ccc(O)c(O)c2)oc2cc(O)cc(O)c12
REMARK SMILES IDX 4 1 3 2 2 3 1 4 21 5 19 6 18 7 16 8 15 9 14 10 13 11 5 12
REMARK SMILES IDX 6 13 7 14 8 15 12 16 10 17 9 18 11 20 20 22 17 24
REMARK H PARENT 9 19 11 21 20 23 17 25
REMARK Flexibility Score: inf
ROOT
ATOM      1  C   UNL     1      -3.114  33.762  58.850  1.00  0.00     0.138 A 
ATOM      2  C   UNL     1      -1.767  34.041  59.118  1.00  0.00     0.100 A 
ATOM      3  C   UNL     1      -1.380  34.393  60.412  1.00  0.00     0.197 A 
ATOM      4  O   UNL     1      -0.156  34.583  60.633  1.00  0.00    -0.289 OA
ATOM      5  C   UNL     1      -2.354  34.503  61.433  1.00  0.00     0.107 A 
ATOM      6  C   UNL     1      -2.081  34.888  62.781  1.00  0.00     0.134 A 
ATOM      7  C   UNL     1      -3.113  34.864  63.727  1.00  0.00     0.093 A 
ATOM      8  C   UNL     1      -4.419  34.527  63.363  1.00  0.00     0.123 A 
ATOM      9  C   UNL     1      -4.705  34.198  62.040  1.00  0.00     0.094 A 
ATOM     10  C   UNL     1      -3.691  34.178  61.080  1.00  0.00     0.146 A 
ATOM     11  O   UNL     1      -4.004  33.841  59.834  1.00  0.00    -0.456 OA
ENDROOT
BRANCH   1  12
ATOM     12  C   UNL     1      -3.583  33.385  57.492  1.00  0.00     0.021 A 
ATOM     13  C   UNL     1      -4.932  33.582  57.148  1.00  0.00     0.016 A 
ATOM     14  C   UNL     1      -5.399  33.229  55.879  1.00  0.00     0.051 A 
ATOM     15  C   UNL     1      -4.532  32.665  54.937  1.00  0.00     0.157 A 
ATOM     16  C   UNL     1      -2.718  32.805  56.544  1.00  0.00     0.062 A 
ATOM     17  C   UNL     1      -3.185  32.448  55.274  1.00  0.00     0.158 A 
BRANCH  15  18
ATOM     18  O   UNL     1      -5.002  32.315  53.671  1.00  0.00    -0.504 OA
ATOM     19  H   UNL     1      -5.958  32.502  53.391  1.00  0.00     0.293 HD
ENDBRANCH  15  18
BRANCH  17  20
ATOM     20  O   UNL     1      -2.299  31.876  54.362  1.00  0.00    -0.504 OA
ATOM     21  H   UNL     1      -1.460  32.353  54.054  1.00  0.00     0.293 HD
ENDBRANCH  17  20
ENDBRANCH   1  12
BRANCH   6  22
ATOM     22  O   UNL     1      -0.831  35.320  63.234  1.00  0.00    -0.507 OA
ATOM     23  H   UNL     1       0.036  34.821  63.106  1.00  0.00     0.293 HD
ENDBRANCH   6  22
BRANCH   8  24
ATOM     24  O   UNL     1      -5.441  34.522  64.309  1.00  0.00    -0.508 OA
ATOM     25  H   UNL     1      -6.189  33.840  64.278  1.00  0.00     0.293 HD
ENDBRANCH   8  24
TORSDOF 5
ENDMDL
MODEL 5
REMARK VINA RESULT:    -5.611      6.201      8.678
REMARK INTER + INTRA:          -6.893
REMARK INTER:                  -6.623
REMARK INTRA:                  -0.270
REMARK UNBOUND:                -0.298
REMARK SMILES O=c1cc(-c2ccc(O)c(O)c2)oc2cc(O)cc(O)c12
REMARK SMILES IDX 4 1 3 2 2 3 1 4 21 5 19 6 18 7 16 8 15 9 14 10 13 11 5 12
REMARK SMILES IDX 6 13 7 14 8 15 12 16 10 17 9 18 11 20 20 22 17 24
REMARK H PARENT 9 19 11 21 20 23 17 25
REMARK Flexibility Score: inf
ROOT
ATOM      1  C   UNL     1       5.740  37.071  61.760  1.00  0.00     0.138 A 
ATOM      2  C   UNL     1       5.203  35.778  61.830  1.00  0.00     0.100 A 
ATOM      3  C   UNL     1       4.869  35.234  63.071  1.00  0.00     0.197 A 
ATOM      4  O   UNL     1       4.338  34.094  63.095  1.00  0.00    -0.289 OA
ATOM      5  C   UNL     1       5.109  35.978  64.252  1.00  0.00     0.107 A 
ATOM      6  C   UNL     1       4.842  35.512  65.575  1.00  0.00     0.134 A 
ATOM      7  C   UNL     1       5.028  36.377  66.661  1.00  0.00     0.093 A 
ATOM      8  C   UNL     1       5.529  37.669  66.477  1.00  0.00     0.123 A 
ATOM      9  C   UNL     1       5.840  38.114  65.195  1.00  0.00     0.094 A 
ATOM     10  C   UNL     1       5.632  37.288  64.088  1.00  0.00     0.146 A 
ATOM     11  O   UNL     1       5.926  37.759  62.881  1.00  0.00    -0.456 OA
ENDROOT
BRANCH   1  12
ATOM     12  C   UNL     1       6.116  37.697  60.466  1.00  0.00     0.021 A 
ATOM     13  C   UNL     1       5.106  38.139  59.594  1.00  0.00     0.016 A 
ATOM     14  C   UNL     1       5.433  38.725  58.369  1.00  0.00     0.051 A 
ATOM     15  C   UNL     1       6.773  38.869  57.989  1.00  0.00     0.157 A 
ATOM     16  C   UNL     1       7.461  37.833  60.073  1.00  0.00     0.062 A 
ATOM     17  C   UNL     1       7.791  38.416  58.845  1.00  0.00     0.158 A 
BRANCH  15  18
ATOM     18  O   UNL     1       7.096  39.455  56.765  1.00  0.00    -0.504 OA
ATOM     19  H   UNL     1       6.527  39.307  55.940  1.00  0.00     0.293 HD
ENDBRANCH  15  18
BRANCH  17  20
ATOM     20  O   UNL     1       9.134  38.535  58.489  1.00  0.00    -0.504 OA
ATOM     21  H   UNL     1       9.789  37.769  58.594  1.00  0.00     0.293 HD
ENDBRANCH  17  20
ENDBRANCH   1  12
BRANCH   6  22
ATOM     22  O   UNL     1       4.415  34.216  65.879  1.00  0.00    -0.507 OA
ATOM     23  H   UNL     1       4.726  33.379  65.410  1.00  0.00     0.293 HD
ENDBRANCH   6  22
BRANCH   8  24
ATOM     24  O   UNL     1       5.725  38.515  67.566  1.00  0.00    -0.508 OA
ATOM     25  H   UNL     1       6.318  39.334  67.501  1.00  0.00     0.293 HD
ENDBRANCH   8  24
TORSDOF 5
ENDMDL
MODEL 6
REMARK VINA RESULT:    -5.495     13.990     14.929
REMARK INTER + INTRA:          -6.757
REMARK INTER:                  -6.469
REMARK INTRA:                  -0.287
REMARK UNBOUND:                -0.298
REMARK SMILES O=c1cc(-c2ccc(O)c(O)c2)oc2cc(O)cc(O)c12
REMARK SMILES IDX 4 1 3 2 2 3 1 4 21 5 19 6 18 7 16 8 15 9 14 10 13 11 5 12
REMARK SMILES IDX 6 13 7 14 8 15 12 16 10 17 9 18 11 20 20 22 17 24
REMARK H PARENT 9 19 11 21 20 23 17 25
REMARK Flexibility Score: inf
ROOT
ATOM      1  C   UNL     1       9.381  45.558  62.459  1.00  0.00     0.138 A 
ATOM      2  C   UNL     1      10.457  44.661  62.500  1.00  0.00     0.100 A 
ATOM      3  C   UNL     1      11.058  44.249  61.310  1.00  0.00     0.197 A 
ATOM      4  O   UNL     1      12.057  43.487  61.384  1.00  0.00    -0.289 OA
ATOM      5  C   UNL     1      10.555  44.710  60.070  1.00  0.00     0.107 A 
ATOM      6  C   UNL     1      11.065  44.331  58.792  1.00  0.00     0.134 A 
ATOM      7  C   UNL     1      10.549  44.931  57.637  1.00  0.00     0.093 A 
ATOM      8  C   UNL     1       9.500  45.852  57.710  1.00  0.00     0.123 A 
ATOM      9  C   UNL     1       8.962  46.191  58.949  1.00  0.00     0.094 A 
ATOM     10  C   UNL     1       9.479  45.636  60.121  1.00  0.00     0.146 A 
ATOM     11  O   UNL     1       8.947  46.001  61.283  1.00  0.00    -0.456 OA
ENDROOT
BRANCH   1  12
ATOM     12  C   UNL     1       8.701  46.027  63.694  1.00  0.00     0.021 A 
ATOM     13  C   UNL     1       8.253  45.085  64.636  1.00  0.00     0.016 A 
ATOM     14  C   UNL     1       7.605  45.500  65.801  1.00  0.00     0.051 A 
ATOM     15  C   UNL     1       7.382  46.861  66.041  1.00  0.00     0.157 A 
ATOM     16  C   UNL     1       8.463  47.394  63.934  1.00  0.00     0.062 A 
ATOM     17  C   UNL     1       7.811  47.812  65.100  1.00  0.00     0.158 A 
BRANCH  15  18
ATOM     18  O   UNL     1       6.736  47.272  67.207  1.00  0.00    -0.504 OA
ATOM     19  H   UNL     1       5.813  47.691  67.181  1.00  0.00     0.293 HD
ENDBRANCH  15  18
BRANCH  17  20
ATOM     20  O   UNL     1       7.594  49.174  65.304  1.00  0.00    -0.504 OA
ATOM     21  H   UNL     1       8.355  49.840  65.349  1.00  0.00     0.293 HD
ENDBRANCH  17  20
ENDBRANCH   1  12
BRANCH   6  22
ATOM     22  O   UNL     1      12.056  43.362  58.600  1.00  0.00    -0.507 OA
ATOM     23  H   UNL     1      12.966  43.371  59.033  1.00  0.00     0.293 HD
ENDBRANCH   6  22
BRANCH   8  24
ATOM     24  O   UNL     1       8.983  46.431  56.553  1.00  0.00    -0.508 OA
ATOM     25  H   UNL     1       8.029  46.264  56.258  1.00  0.00     0.293 HD
ENDBRANCH   8  24
TORSDOF 5
ENDMDL
MODEL 7
REMARK VINA RESULT:    -5.458     13.697     15.871
REMARK INTER + INTRA:          -6.714
REMARK INTER:                  -6.417
REMARK INTRA:                  -0.297
REMARK UNBOUND:                -0.298
REMARK SMILES O=c1cc(-c2ccc(O)c(O)c2)oc2cc(O)cc(O)c12
REMARK SMILES IDX 4 1 3 2 2 3 1 4 21 5 19 6 18 7 16 8 15 9 14 10 13 11 5 12
REMARK SMILES IDX 6 13 7 14 8 15 12 16 10 17 9 18 11 20 20 22 17 24
REMARK H PARENT 9 19 11 21 20 23 17 25
REMARK Flexibility Score: inf
ROOT
ATOM      1  C   UNL     1       9.561  45.610  63.107  1.00  0.00     0.138 A 
ATOM      2  C   UNL     1       8.790  44.814  63.964  1.00  0.00     0.100 A 
ATOM      3  C   UNL     1       8.228  45.378  65.111  1.00  0.00     0.197 A 
ATOM      4  O   UNL     1       7.495  44.652  65.830  1.00  0.00    -0.289 OA
ATOM      5  C   UNL     1       8.472  46.738  65.419  1.00  0.00     0.107 A 
ATOM      6  C   UNL     1       7.981  47.412  66.578  1.00  0.00     0.134 A 
ATOM      7  C   UNL     1       8.206  48.786  66.723  1.00  0.00     0.093 A 
ATOM      8  C   UNL     1       8.955  49.499  65.784  1.00  0.00     0.123 A 
ATOM      9  C   UNL     1       9.481  48.841  64.675  1.00  0.00     0.094 A 
ATOM     10  C   UNL     1       9.244  47.478  64.482  1.00  0.00     0.146 A 
ATOM     11  O   UNL     1       9.749  46.892  63.402  1.00  0.00    -0.456 OA
ENDROOT
BRANCH   1  12
ATOM     12  C   UNL     1      10.185  45.062  61.875  1.00  0.00     0.021 A 
ATOM     13  C   UNL     1      10.779  43.789  61.910  1.00  0.00     0.016 A 
ATOM     14  C   UNL     1      11.378  43.254  60.767  1.00  0.00     0.051 A 
ATOM     15  C   UNL     1      11.405  43.984  59.574  1.00  0.00     0.157 A 
ATOM     16  C   UNL     1      10.226  45.798  60.675  1.00  0.00     0.062 A 
ATOM     17  C   UNL     1      10.829  45.265  59.530  1.00  0.00     0.158 A 
BRANCH  15  18
ATOM     18  O   UNL     1      12.003  43.447  58.435  1.00  0.00    -0.504 OA
ATOM     19  H   UNL     1      11.857  43.853  57.518  1.00  0.00     0.293 HD
ENDBRANCH  15  18
BRANCH  17  20
ATOM     20  O   UNL     1      10.849  46.023  58.360  1.00  0.00    -0.504 OA
ATOM     21  H   UNL     1      10.000  46.329  57.900  1.00  0.00     0.293 HD
ENDBRANCH  17  20
ENDBRANCH   1  12
BRANCH   6  22
ATOM     22  O   UNL     1       7.291  46.781  67.617  1.00  0.00    -0.507 OA
ATOM     23  H   UNL     1       6.310  46.897  67.816  1.00  0.00     0.293 HD
ENDBRANCH   6  22
BRANCH   8  24
ATOM     24  O   UNL     1       9.186  50.863  65.947  1.00  0.00    -0.508 OA
ATOM     25  H   UNL     1       8.678  51.555  65.409  1.00  0.00     0.293 HD
ENDBRANCH   8  24
TORSDOF 5
ENDMDL
