MODEL 1
REMARK VINA RESULT:    -5.129      0.000      0.000
REMARK INTER + INTRA:         -14.067
REMARK INTER:                 -11.725
REMARK INTRA:                  -2.342
REMARK UNBOUND:                -2.342
REMARK SMILES CCCCCCCCCCCCCCCCCCCCCCCC(=O)[O-]
REMARK SMILES IDX 13 1 14 2 15 3 16 4 17 5 18 6 19 7 20 8 21 9 22 10 23 11
REMARK SMILES IDX 24 12 25 13 26 14 12 15 11 16 10 17 9 18 8 19 7 20 6 21 5 22
REMARK SMILES IDX 4 23 3 24 2 25 1 26
REMARK H PARENT
REMARK Flexibility Score: inf
ROOT
ATOM      1  C   UNL     1      11.411   9.028  11.655  1.00  0.00     0.000 C 
ENDROOT
BRANCH   1   2
ATOM      2  C   UNL     1      11.825   9.478  10.242  1.00  0.00     0.000 C 
BRANCH   2   3
ATOM      3  C   UNL     1      12.821  10.653  10.192  1.00  0.00     0.000 C 
BRANCH   3   4
ATOM      4  C   UNL     1      12.298  11.922   9.492  1.00  0.00     0.000 C 
BRANCH   4   5
ATOM      5  C   UNL     1      11.989  13.105  10.431  1.00  0.00     0.000 C 
BRANCH   5   6
ATOM      6  C   UNL     1      12.435  12.907  11.892  1.00  0.00     0.000 C 
BRANCH   6   7
ATOM      7  C   UNL     1      11.294  13.136  12.897  1.00  0.00     0.000 C 
BRANCH   7   8
ATOM      8  C   UNL     1       9.909  12.938  12.259  1.00  0.00     0.000 C 
BRANCH   8   9
ATOM      9  C   UNL     1       9.232  11.639  12.730  1.00  0.00     0.000 C 
BRANCH   9  10
ATOM     10  C   UNL     1       9.840  11.089  14.029  1.00  0.00     0.006 C 
BRANCH  10  11
ATOM     11  C   UNL     1       9.016  11.454  15.271  1.00  0.00     0.053 C 
BRANCH  11  12
ATOM     12  C   UNL     1       9.892  11.493  16.484  1.00  0.00     0.041 C 
ATOM     13  O   UNL     1      10.024  10.466  17.202  1.00  0.00    -0.550 OA
ATOM     14  O   UNL     1      10.518  12.676  16.851  1.00  0.00    -0.550 OA
ENDBRANCH  11  12
ENDBRANCH  10  11
ENDBRANCH   9  10
ENDBRANCH   8   9
ENDBRANCH   7   8
ENDBRANCH   6   7
ENDBRANCH   5   6
ENDBRANCH   4   5
ENDBRANCH   3   4
ENDBRANCH   2   3
ENDBRANCH   1   2
BRANCH   1  15
ATOM     15  C   UNL     1      11.363   7.499  11.808  1.00  0.00     0.000 C 
BRANCH  15  16
ATOM     16  C   UNL     1      11.938   6.762  10.584  1.00  0.00     0.000 C 
BRANCH  16  17
ATOM     17  C   UNL     1      11.917   5.221  10.675  1.00  0.00     0.000 C 
BRANCH  17  18
ATOM     18  C   UNL     1      10.553   4.565  10.391  1.00  0.00    -0.000 C 
BRANCH  18  19
ATOM     19  C   UNL     1      10.582   3.409   9.372  1.00  0.00    -0.000 C 
BRANCH  19  20
ATOM     20  C   UNL     1      11.926   2.644   9.329  1.00  0.00    -0.000 C 
BRANCH  20  21
ATOM     21  C   UNL     1      11.837   1.151   9.710  1.00  0.00    -0.000 C 
BRANCH  21  22
ATOM     22  C   UNL     1      12.235   0.818  11.161  1.00  0.00    -0.000 C 
BRANCH  22  23
ATOM     23  C   UNL     1      13.097   1.915  11.813  1.00  0.00    -0.000 C 
BRANCH  23  24
ATOM     24  C   UNL     1      12.583   2.319  13.208  1.00  0.00    -0.000 C 
BRANCH  24  25
ATOM     25  C   UNL     1      13.669   2.329  14.301  1.00  0.00    -0.003 C 
ATOM     26  C   UNL     1      13.302   1.450  15.497  1.00  0.00     0.004 C 
ENDBRANCH  24  25
ENDBRANCH  23  24
ENDBRANCH  22  23
ENDBRANCH  21  22
ENDBRANCH  20  21
ENDBRANCH  19  20
ENDBRANCH  18  19
ENDBRANCH  17  18
ENDBRANCH  16  17
ENDBRANCH  15  16
ENDBRANCH   1  15
TORSDOF 22
ENDMDL
MODEL 2
REMARK VINA RESULT:    -5.055      3.284      9.076
REMARK INTER + INTRA:         -13.898
REMARK INTER:                 -10.858
REMARK INTRA:                  -3.041
REMARK UNBOUND:                -2.342
REMARK SMILES CCCCCCCCCCCCCCCCCCCCCCCC(=O)[O-]
REMARK SMILES IDX 13 1 14 2 15 3 16 4 17 5 18 6 19 7 20 8 21 9 22 10 23 11
REMARK SMILES IDX 24 12 25 13 26 14 12 15 11 16 10 17 9 18 8 19 7 20 6 21 5 22
REMARK SMILES IDX 4 23 3 24 2 25 1 26
REMARK H PARENT
REMARK Flexibility Score: inf
ROOT
ATOM      1  C   UNL     1      10.425   7.257  13.685  1.00  0.00     0.000 C 
ENDROOT
BRANCH   1   2
ATOM      2  C   UNL     1      10.234   5.813  14.183  1.00  0.00     0.000 C 
BRANCH   2   3
ATOM      3  C   UNL     1      10.198   4.737  13.080  1.00  0.00     0.000 C 
BRANCH   3   4
ATOM      4  C   UNL     1      10.276   3.283  13.583  1.00  0.00     0.000 C 
BRANCH   4   5
ATOM      5  C   UNL     1      11.089   2.327  12.688  1.00  0.00     0.000 C 
BRANCH   5   6
ATOM      6  C   UNL     1      12.618   2.481  12.794  1.00  0.00     0.000 C 
BRANCH   6   7
ATOM      7  C   UNL     1      13.269   2.876  11.458  1.00  0.00     0.000 C 
BRANCH   7   8
ATOM      8  C   UNL     1      13.593   4.378  11.391  1.00  0.00     0.000 C 
BRANCH   8   9
ATOM      9  C   UNL     1      12.713   5.116  10.367  1.00  0.00     0.000 C 
BRANCH   9  10
ATOM     10  C   UNL     1      11.827   4.165   9.550  1.00  0.00     0.006 C 
BRANCH  10  11
ATOM     11  C   UNL     1      10.367   4.631   9.473  1.00  0.00     0.053 C 
BRANCH  11  12
ATOM     12  C   UNL     1       9.441   3.460   9.553  1.00  0.00     0.041 C 
ATOM     13  O   UNL     1       9.765   2.359   9.031  1.00  0.00    -0.550 OA
ATOM     14  O   UNL     1       8.197   3.597  10.155  1.00  0.00    -0.550 OA
ENDBRANCH  11  12
ENDBRANCH  10  11
ENDBRANCH   9  10
ENDBRANCH   8   9
ENDBRANCH   7   8
ENDBRANCH   6   7
ENDBRANCH   5   6
ENDBRANCH   4   5
ENDBRANCH   3   4
ENDBRANCH   2   3
ENDBRANCH   1   2
BRANCH   1  15
ATOM     15  C   UNL     1      11.042   7.329  12.278  1.00  0.00     0.000 C 
BRANCH  15  16
ATOM     16  C   UNL     1      11.338   8.773  11.833  1.00  0.00     0.000 C 
BRANCH  16  17
ATOM     17  C   UNL     1      11.923   8.915  10.411  1.00  0.00     0.000 C 
BRANCH  17  18
ATOM     18  C   UNL     1      12.304  10.349   9.998  1.00  0.00    -0.000 C 
BRANCH  18  19
ATOM     19  C   UNL     1      12.639  11.299  11.164  1.00  0.00    -0.000 C 
BRANCH  19  20
ATOM     20  C   UNL     1      11.693  12.518  11.275  1.00  0.00    -0.000 C 
BRANCH  20  21
ATOM     21  C   UNL     1      11.545  13.101  12.695  1.00  0.00    -0.000 C 
BRANCH  21  22
ATOM     22  C   UNL     1      10.138  12.981  13.313  1.00  0.00    -0.000 C 
BRANCH  22  23
ATOM     23  C   UNL     1       9.521  11.582  13.128  1.00  0.00    -0.000 C 
BRANCH  23  24
ATOM     24  C   UNL     1       9.479  10.777  14.441  1.00  0.00    -0.000 C 
BRANCH  24  25
ATOM     25  C   UNL     1       9.562  11.642  15.713  1.00  0.00    -0.003 C 
ATOM     26  C   UNL     1      10.287  10.931  16.857  1.00  0.00     0.004 C 
ENDBRANCH  24  25
ENDBRANCH  23  24
ENDBRANCH  22  23
ENDBRANCH  21  22
ENDBRANCH  20  21
ENDBRANCH  19  20
ENDBRANCH  18  19
ENDBRANCH  17  18
ENDBRANCH  16  17
ENDBRANCH  15  16
ENDBRANCH   1  15
TORSDOF 22
ENDMDL
MODEL 3
REMARK VINA RESULT:    -5.036      1.062      2.266
REMARK INTER + INTRA:         -13.854
REMARK INTER:                 -10.936
REMARK INTRA:                  -2.918
REMARK UNBOUND:                -2.342
REMARK SMILES CCCCCCCCCCCCCCCCCCCCCCCC(=O)[O-]
REMARK SMILES IDX 13 1 14 2 15 3 16 4 17 5 18 6 19 7 20 8 21 9 22 10 23 11
REMARK SMILES IDX 24 12 25 13 26 14 12 15 11 16 10 17 9 18 8 19 7 20 6 21 5 22
REMARK SMILES IDX 4 23 3 24 2 25 1 26
REMARK H PARENT
REMARK Flexibility Score: inf
ROOT
ATOM      1  C   UNL     1      11.622   9.284  11.716  1.00  0.00     0.000 C 
ENDROOT
BRANCH   1   2
ATOM      2  C   UNL     1      11.885   9.640  10.241  1.00  0.00     0.000 C 
BRANCH   2   3
ATOM      3  C   UNL     1      12.915  10.763  10.010  1.00  0.00     0.000 C 
BRANCH   3   4
ATOM      4  C   UNL     1      12.354  12.040   9.358  1.00  0.00     0.000 C 
BRANCH   4   5
ATOM      5  C   UNL     1      11.966  13.160  10.344  1.00  0.00     0.000 C 
BRANCH   5   6
ATOM      6  C   UNL     1      12.392  12.915  11.803  1.00  0.00     0.000 C 
BRANCH   6   7
ATOM      7  C   UNL     1      11.223  13.053  12.795  1.00  0.00     0.000 C 
BRANCH   7   8
ATOM      8  C   UNL     1       9.887  12.599  12.185  1.00  0.00     0.000 C 
BRANCH   8   9
ATOM      9  C   UNL     1       9.214  11.493  13.017  1.00  0.00     0.000 C 
BRANCH   9  10
ATOM     10  C   UNL     1       9.366  11.713  14.530  1.00  0.00     0.006 C 
BRANCH  10  11
ATOM     11  C   UNL     1       9.332  10.403  15.327  1.00  0.00     0.053 C 
BRANCH  11  12
ATOM     12  C   UNL     1       9.573  10.670  16.779  1.00  0.00     0.041 C 
ATOM     13  O   UNL     1       8.620  11.022  17.525  1.00  0.00    -0.550 OA
ATOM     14  O   UNL     1      10.858  10.584  17.298  1.00  0.00    -0.550 OA
ENDBRANCH  11  12
ENDBRANCH  10  11
ENDBRANCH   9  10
ENDBRANCH   8   9
ENDBRANCH   7   8
ENDBRANCH   6   7
ENDBRANCH   5   6
ENDBRANCH   4   5
ENDBRANCH   3   4
ENDBRANCH   2   3
ENDBRANCH   1   2
BRANCH   1  15
ATOM     15  C   UNL     1      11.270   7.801  11.921  1.00  0.00     0.000 C 
BRANCH  15  16
ATOM     16  C   UNL     1      11.672   6.924  10.721  1.00  0.00     0.000 C 
BRANCH  16  17
ATOM     17  C   UNL     1      11.533   5.403  10.944  1.00  0.00     0.000 C 
BRANCH  17  18
ATOM     18  C   UNL     1      10.100   4.851  10.832  1.00  0.00    -0.000 C 
BRANCH  18  19
ATOM     19  C   UNL     1       9.577   4.129  12.090  1.00  0.00    -0.000 C 
BRANCH  19  20
ATOM     20  C   UNL     1      10.124   4.704  13.417  1.00  0.00    -0.000 C 
BRANCH  20  21
ATOM     21  C   UNL     1      10.874   3.690  14.306  1.00  0.00    -0.000 C 
BRANCH  21  22
ATOM     22  C   UNL     1      11.332   2.402  13.593  1.00  0.00    -0.000 C 
BRANCH  22  23
ATOM     23  C   UNL     1      12.855   2.351  13.371  1.00  0.00    -0.000 C 
BRANCH  23  24
ATOM     24  C   UNL     1      13.233   2.315  11.878  1.00  0.00    -0.000 C 
BRANCH  24  25
ATOM     25  C   UNL     1      12.605   1.146  11.096  1.00  0.00    -0.003 C 
ATOM     26  C   UNL     1      11.743   1.621   9.926  1.00  0.00     0.004 C 
ENDBRANCH  24  25
ENDBRANCH  23  24
ENDBRANCH  22  23
ENDBRANCH  21  22
ENDBRANCH  20  21
ENDBRANCH  19  20
ENDBRANCH  18  19
ENDBRANCH  17  18
ENDBRANCH  16  17
ENDBRANCH  15  16
ENDBRANCH   1  15
TORSDOF 22
ENDMDL
MODEL 4
REMARK VINA RESULT:    -5.020      2.862      6.763
REMARK INTER + INTRA:         -13.818
REMARK INTER:                 -10.001
REMARK INTRA:                  -3.816
REMARK UNBOUND:                -2.342
REMARK SMILES CCCCCCCCCCCCCCCCCCCCCCCC(=O)[O-]
REMARK SMILES IDX 13 1 14 2 15 3 16 4 17 5 18 6 19 7 20 8 21 9 22 10 23 11
REMARK SMILES IDX 24 12 25 13 26 14 12 15 11 16 10 17 9 18 8 19 7 20 6 21 5 22
REMARK SMILES IDX 4 23 3 24 2 25 1 26
REMARK H PARENT
REMARK Flexibility Score: inf
ROOT
ATOM      1  C   UNL     1      13.589   2.104  14.477  1.00  0.00     0.000 C 
ENDROOT
BRANCH   1   2
ATOM      2  C   UNL     1      13.155   1.120  13.375  1.00  0.00     0.000 C 
BRANCH   2   3
ATOM      3  C   UNL     1      13.166   1.690  11.943  1.00  0.00     0.000 C 
BRANCH   3   4
ATOM      4  C   UNL     1      12.942   3.211  11.844  1.00  0.00     0.000 C 
BRANCH   4   5
ATOM      5  C   UNL     1      12.527   3.720  10.450  1.00  0.00     0.000 C 
BRANCH   5   6
ATOM      6  C   UNL     1      12.281   5.238  10.360  1.00  0.00     0.000 C 
BRANCH   6   7
ATOM      7  C   UNL     1      10.804   5.614  10.571  1.00  0.00     0.000 C 
BRANCH   7   8
ATOM      8  C   UNL     1      10.577   6.351  11.902  1.00  0.00     0.000 C 
BRANCH   8   9
ATOM      9  C   UNL     1      11.680   7.384  12.190  1.00  0.00     0.000 C 
BRANCH   9  10
ATOM     10  C   UNL     1      11.282   8.808  11.774  1.00  0.00     0.006 C 
BRANCH  10  11
ATOM     11  C   UNL     1      11.853   9.210  10.408  1.00  0.00     0.053 C 
BRANCH  11  12
ATOM     12  C   UNL     1      12.276  10.645  10.422  1.00  0.00     0.041 C 
ATOM     13  O   UNL     1      11.831  11.428  11.303  1.00  0.00    -0.550 OA
ATOM     14  O   UNL     1      13.116  11.132   9.429  1.00  0.00    -0.550 OA
ENDBRANCH  11  12
ENDBRANCH  10  11
ENDBRANCH   9  10
ENDBRANCH   8   9
ENDBRANCH   7   8
ENDBRANCH   6   7
ENDBRANCH   5   6
ENDBRANCH   4   5
ENDBRANCH   3   4
ENDBRANCH   2   3
ENDBRANCH   1   2
BRANCH   1  15
ATOM     15  C   UNL     1      13.075   1.708  15.871  1.00  0.00     0.000 C 
BRANCH  15  16
ATOM     16  C   UNL     1      11.573   1.369  15.875  1.00  0.00     0.000 C 
BRANCH  16  17
ATOM     17  C   UNL     1      10.667   2.408  16.570  1.00  0.00     0.000 C 
BRANCH  17  18
ATOM     18  C   UNL     1       9.650   3.111  15.651  1.00  0.00    -0.000 C 
BRANCH  18  19
ATOM     19  C   UNL     1      10.210   3.582  14.295  1.00  0.00    -0.000 C 
BRANCH  19  20
ATOM     20  C   UNL     1       9.290   3.268  13.092  1.00  0.00    -0.000 C 
BRANCH  20  21
ATOM     21  C   UNL     1       9.539   1.902  12.420  1.00  0.00    -0.000 C 
BRANCH  21  22
ATOM     22  C   UNL     1       8.632   1.586  11.215  1.00  0.00    -0.000 C 
BRANCH  22  23
ATOM     23  C   UNL     1       8.568   2.738  10.195  1.00  0.00    -0.000 C 
BRANCH  23  24
ATOM     24  C   UNL     1       9.533   2.534   9.011  1.00  0.00    -0.000 C 
BRANCH  24  25
ATOM     25  C   UNL     1       9.791   1.057   8.657  1.00  0.00    -0.003 C 
ATOM     26  C   UNL     1      11.258   0.662   8.831  1.00  0.00     0.004 C 
ENDBRANCH  24  25
ENDBRANCH  23  24
ENDBRANCH  22  23
ENDBRANCH  21  22
ENDBRANCH  20  21
ENDBRANCH  19  20
ENDBRANCH  18  19
ENDBRANCH  17  18
ENDBRANCH  16  17
ENDBRANCH  15  16
ENDBRANCH   1  15
TORSDOF 22
ENDMDL
MODEL 5
REMARK VINA RESULT:    -5.013      5.208      9.178
REMARK INTER + INTRA:         -13.802
REMARK INTER:                  -9.104
REMARK INTRA:                  -4.698
REMARK UNBOUND:                -2.342
REMARK SMILES CCCCCCCCCCCCCCCCCCCCCCCC(=O)[O-]
REMARK SMILES IDX 13 1 14 2 15 3 16 4 17 5 18 6 19 7 20 8 21 9 22 10 23 11
REMARK SMILES IDX 24 12 25 13 26 14 12 15 11 16 10 17 9 18 8 19 7 20 6 21 5 22
REMARK SMILES IDX 4 23 3 24 2 25 1 26
REMARK H PARENT
REMARK Flexibility Score: inf
ROOT
ATOM      1  C   UNL     1      13.461   1.576  15.121  1.00  0.00     0.000 C 
ENDROOT
BRANCH   1   2
ATOM      2  C   UNL     1      12.327   1.587  16.162  1.00  0.00     0.000 C 
BRANCH   2   3
ATOM      3  C   UNL     1      11.365   0.383  16.098  1.00  0.00     0.000 C 
BRANCH   3   4
ATOM      4  C   UNL     1      10.204   0.528  15.096  1.00  0.00     0.000 C 
BRANCH   4   5
ATOM      5  C   UNL     1      10.290  -0.388  13.860  1.00  0.00     0.000 C 
BRANCH   5   6
ATOM      6  C   UNL     1       9.828   0.258  12.541  1.00  0.00     0.000 C 
BRANCH   6   7
ATOM      7  C   UNL     1       9.606   1.775  12.667  1.00  0.00     0.000 C 
BRANCH   7   8
ATOM      8  C   UNL     1       8.352   2.243  11.911  1.00  0.00     0.000 C 
BRANCH   8   9
ATOM      9  C   UNL     1       8.644   3.435  10.983  1.00  0.00     0.000 C 
BRANCH   9  10
ATOM     10  C   UNL     1       8.659   3.042   9.498  1.00  0.00     0.006 C 
BRANCH  10  11
ATOM     11  C   UNL     1      10.065   2.694   8.990  1.00  0.00     0.053 C 
BRANCH  11  12
ATOM     12  C   UNL     1      10.231   1.211   8.892  1.00  0.00     0.041 C 
ATOM     13  O   UNL     1      11.384   0.701   8.901  1.00  0.00    -0.550 OA
ATOM     14  O   UNL     1       9.119   0.395   8.733  1.00  0.00    -0.550 OA
ENDBRANCH  11  12
ENDBRANCH  10  11
ENDBRANCH   9  10
ENDBRANCH   8   9
ENDBRANCH   7   8
ENDBRANCH   6   7
ENDBRANCH   5   6
ENDBRANCH   4   5
ENDBRANCH   3   4
ENDBRANCH   2   3
ENDBRANCH   1   2
BRANCH   1  15
ATOM     15  C   UNL     1      13.172   2.480  13.911  1.00  0.00     0.000 C 
BRANCH  15  16
ATOM     16  C   UNL     1      13.211   1.715  12.576  1.00  0.00     0.000 C 
BRANCH  16  17
ATOM     17  C   UNL     1      13.142   2.597  11.311  1.00  0.00     0.000 C 
BRANCH  17  18
ATOM     18  C   UNL     1      12.345   3.906  11.465  1.00  0.00    -0.000 C 
BRANCH  18  19
ATOM     19  C   UNL     1      12.776   5.048  10.525  1.00  0.00    -0.000 C 
BRANCH  19  20
ATOM     20  C   UNL     1      11.936   6.338  10.677  1.00  0.00    -0.000 C 
BRANCH  20  21
ATOM     21  C   UNL     1      10.744   6.228  11.650  1.00  0.00    -0.000 C 
BRANCH  21  22
ATOM     22  C   UNL     1      10.776   7.203  12.843  1.00  0.00    -0.000 C 
BRANCH  22  23
ATOM     23  C   UNL     1      10.263   6.568  14.149  1.00  0.00    -0.000 C 
BRANCH  23  24
ATOM     24  C   UNL     1      10.404   5.034  14.155  1.00  0.00    -0.000 C 
BRANCH  24  25
ATOM     25  C   UNL     1       9.889   4.360  15.441  1.00  0.00    -0.003 C 
ATOM     26  C   UNL     1       8.401   4.016  15.365  1.00  0.00     0.004 C 
ENDBRANCH  24  25
ENDBRANCH  23  24
ENDBRANCH  22  23
ENDBRANCH  21  22
ENDBRANCH  20  21
ENDBRANCH  19  20
ENDBRANCH  18  19
ENDBRANCH  17  18
ENDBRANCH  16  17
ENDBRANCH  15  16
ENDBRANCH   1  15
TORSDOF 22
ENDMDL
MODEL 6
REMARK VINA RESULT:    -4.982      4.985      8.133
REMARK INTER + INTRA:         -13.732
REMARK INTER:                  -9.128
REMARK INTRA:                  -4.603
REMARK UNBOUND:                -2.342
REMARK SMILES CCCCCCCCCCCCCCCCCCCCCCCC(=O)[O-]
REMARK SMILES IDX 13 1 14 2 15 3 16 4 17 5 18 6 19 7 20 8 21 9 22 10 23 11
REMARK SMILES IDX 24 12 25 13 26 14 12 15 11 16 10 17 9 18 8 19 7 20 6 21 5 22
REMARK SMILES IDX 4 23 3 24 2 25 1 26
REMARK H PARENT
REMARK Flexibility Score: inf
ROOT
ATOM      1  C   UNL     1      12.947   5.144  10.707  1.00  0.00     0.000 C 
ENDROOT
BRANCH   1   2
ATOM      2  C   UNL     1      12.427   4.016  11.617  1.00  0.00     0.000 C 
BRANCH   2   3
ATOM      3  C   UNL     1      12.407   2.613  10.978  1.00  0.00     0.000 C 
BRANCH   3   4
ATOM      4  C   UNL     1      12.119   2.589   9.465  1.00  0.00     0.000 C 
BRANCH   4   5
ATOM      5  C   UNL     1      10.635   2.417   9.085  1.00  0.00     0.000 C 
BRANCH   5   6
ATOM      6  C   UNL     1       9.851   3.732   8.922  1.00  0.00     0.000 C 
BRANCH   6   7
ATOM      7  C   UNL     1       8.666   3.843   9.896  1.00  0.00     0.000 C 
BRANCH   7   8
ATOM      8  C   UNL     1       8.476   2.563  10.727  1.00  0.00     0.000 C 
BRANCH   8   9
ATOM      9  C   UNL     1       8.872   2.762  12.200  1.00  0.00     0.000 C 
BRANCH   9  10
ATOM     10  C   UNL     1       9.273   1.449  12.889  1.00  0.00     0.006 C 
BRANCH  10  11
ATOM     11  C   UNL     1       9.539   0.312  11.893  1.00  0.00     0.053 C 
BRANCH  11  12
ATOM     12  C   UNL     1      10.823  -0.381  12.224  1.00  0.00     0.041 C 
ATOM     13  O   UNL     1      11.196  -0.485  13.423  1.00  0.00    -0.550 OA
ATOM     14  O   UNL     1      11.635  -0.863  11.205  1.00  0.00    -0.550 OA
ENDBRANCH  11  12
ENDBRANCH  10  11
ENDBRANCH   9  10
ENDBRANCH   8   9
ENDBRANCH   7   8
ENDBRANCH   6   7
ENDBRANCH   5   6
ENDBRANCH   4   5
ENDBRANCH   3   4
ENDBRANCH   2   3
ENDBRANCH   1   2
BRANCH   1  15
ATOM     15  C   UNL     1      11.982   6.339  10.623  1.00  0.00     0.000 C 
BRANCH  15  16
ATOM     16  C   UNL     1      10.798   6.215  11.600  1.00  0.00     0.000 C 
BRANCH  16  17
ATOM     17  C   UNL     1      10.788   7.241  12.753  1.00  0.00     0.000 C 
BRANCH  17  18
ATOM     18  C   UNL     1      10.489   6.660  14.148  1.00  0.00    -0.000 C 
BRANCH  18  19
ATOM     19  C   UNL     1       9.564   5.427  14.158  1.00  0.00    -0.000 C 
BRANCH  19  20
ATOM     20  C   UNL     1       8.736   5.273  15.455  1.00  0.00    -0.000 C 
BRANCH  20  21
ATOM     21  C   UNL     1       8.613   3.828  15.982  1.00  0.00    -0.000 C 
BRANCH  21  22
ATOM     22  C   UNL     1       9.796   3.338  16.839  1.00  0.00    -0.000 C 
BRANCH  22  23
ATOM     23  C   UNL     1      10.191   1.881  16.537  1.00  0.00    -0.000 C 
BRANCH  23  24
ATOM     24  C   UNL     1      11.696   1.724  16.250  1.00  0.00    -0.000 C 
BRANCH  24  25
ATOM     25  C   UNL     1      12.187   2.507  15.018  1.00  0.00    -0.003 C 
ATOM     26  C   UNL     1      13.591   2.087  14.580  1.00  0.00     0.004 C 
ENDBRANCH  24  25
ENDBRANCH  23  24
ENDBRANCH  22  23
ENDBRANCH  21  22
ENDBRANCH  20  21
ENDBRANCH  19  20
ENDBRANCH  18  19
ENDBRANCH  17  18
ENDBRANCH  16  17
ENDBRANCH  15  16
ENDBRANCH   1  15
TORSDOF 22
ENDMDL
MODEL 7
REMARK VINA RESULT:    -4.975      4.617      8.463
REMARK INTER + INTRA:         -13.715
REMARK INTER:                  -9.822
REMARK INTRA:                  -3.894
REMARK UNBOUND:                -2.342
REMARK SMILES CCCCCCCCCCCCCCCCCCCCCCCC(=O)[O-]
REMARK SMILES IDX 13 1 14 2 15 3 16 4 17 5 18 6 19 7 20 8 21 9 22 10 23 11
REMARK SMILES IDX 24 12 25 13 26 14 12 15 11 16 10 17 9 18 8 19 7 20 6 21 5 22
REMARK SMILES IDX 4 23 3 24 2 25 1 26
REMARK H PARENT
REMARK Flexibility Score: inf
ROOT
ATOM      1  C   UNL     1      12.334   4.235  10.635  1.00  0.00     0.000 C 
ENDROOT
BRANCH   1   2
ATOM      2  C   UNL     1      13.329   3.524  11.572  1.00  0.00     0.000 C 
BRANCH   2   3
ATOM      3  C   UNL     1      13.108   2.007  11.735  1.00  0.00     0.000 C 
BRANCH   3   4
ATOM      4  C   UNL     1      12.894   1.531  13.184  1.00  0.00     0.000 C 
BRANCH   4   5
ATOM      5  C   UNL     1      13.684   2.313  14.252  1.00  0.00     0.000 C 
BRANCH   5   6
ATOM      6  C   UNL     1      13.556   1.764  15.685  1.00  0.00     0.000 C 
BRANCH   6   7
ATOM      7  C   UNL     1      12.208   1.067  15.937  1.00  0.00     0.000 C 
BRANCH   7   8
ATOM      8  C   UNL     1      11.206   1.983  16.658  1.00  0.00     0.000 C 
BRANCH   8   9
ATOM      9  C   UNL     1       9.835   1.312  16.845  1.00  0.00     0.000 C 
BRANCH   9  10
ATOM     10  C   UNL     1       9.333   1.379  18.295  1.00  0.00     0.006 C 
BRANCH  10  11
ATOM     11  C   UNL     1       9.966   0.307  19.193  1.00  0.00     0.053 C 
BRANCH  11  12
ATOM     12  C   UNL     1      10.527   0.930  20.432  1.00  0.00     0.041 C 
ATOM     13  O   UNL     1      10.948   0.203  21.371  1.00  0.00    -0.550 OA
ATOM     14  O   UNL     1      10.536   2.312  20.573  1.00  0.00    -0.550 OA
ENDBRANCH  11  12
ENDBRANCH  10  11
ENDBRANCH   9  10
ENDBRANCH   8   9
ENDBRANCH   7   8
ENDBRANCH   6   7
ENDBRANCH   5   6
ENDBRANCH   4   5
ENDBRANCH   3   4
ENDBRANCH   2   3
ENDBRANCH   1   2
BRANCH   1  15
ATOM     15  C   UNL     1      12.744   5.682  10.313  1.00  0.00     0.000 C 
BRANCH  15  16
ATOM     16  C   UNL     1      11.691   6.710  10.765  1.00  0.00     0.000 C 
BRANCH  16  17
ATOM     17  C   UNL     1      10.614   6.168  11.729  1.00  0.00     0.000 C 
BRANCH  17  18
ATOM     18  C   UNL     1      10.637   6.770  13.146  1.00  0.00    -0.000 C 
BRANCH  18  19
ATOM     19  C   UNL     1      10.277   5.790  14.280  1.00  0.00    -0.000 C 
BRANCH  19  20
ATOM     20  C   UNL     1      10.427   4.300  13.893  1.00  0.00    -0.000 C 
BRANCH  20  21
ATOM     21  C   UNL     1       9.105   3.507  13.833  1.00  0.00    -0.000 C 
BRANCH  21  22
ATOM     22  C   UNL     1       9.212   2.095  13.224  1.00  0.00    -0.000 C 
BRANCH  22  23
ATOM     23  C   UNL     1       9.496   2.116  11.710  1.00  0.00    -0.000 C 
BRANCH  23  24
ATOM     24  C   UNL     1       8.530   3.038  10.941  1.00  0.00    -0.000 C 
BRANCH  24  25
ATOM     25  C   UNL     1       8.694   2.984   9.410  1.00  0.00    -0.003 C 
ATOM     26  C   UNL     1       9.143   4.324   8.823  1.00  0.00     0.004 C 
ENDBRANCH  24  25
ENDBRANCH  23  24
ENDBRANCH  22  23
ENDBRANCH  21  22
ENDBRANCH  20  21
ENDBRANCH  19  20
ENDBRANCH  18  19
ENDBRANCH  17  18
ENDBRANCH  16  17
ENDBRANCH  15  16
ENDBRANCH   1  15
TORSDOF 22
ENDMDL
MODEL 8
REMARK VINA RESULT:    -4.974      5.082      7.864
REMARK INTER + INTRA:         -13.712
REMARK INTER:                  -9.659
REMARK INTRA:                  -4.053
REMARK UNBOUND:                -2.342
REMARK SMILES CCCCCCCCCCCCCCCCCCCCCCCC(=O)[O-]
REMARK SMILES IDX 13 1 14 2 15 3 16 4 17 5 18 6 19 7 20 8 21 9 22 10 23 11
REMARK SMILES IDX 24 12 25 13 26 14 12 15 11 16 10 17 9 18 8 19 7 20 6 21 5 22
REMARK SMILES IDX 4 23 3 24 2 25 1 26
REMARK H PARENT
REMARK Flexibility Score: inf
ROOT
ATOM      1  C   UNL     1      10.139   6.318  12.779  1.00  0.00     0.000 C 
ENDROOT
BRANCH   1   2
ATOM      2  C   UNL     1      11.262   7.131  12.110  1.00  0.00     0.000 C 
BRANCH   2   3
ATOM      3  C   UNL     1      11.641   6.679  10.686  1.00  0.00     0.000 C 
BRANCH   3   4
ATOM      4  C   UNL     1      12.460   5.377  10.610  1.00  0.00     0.000 C 
BRANCH   4   5
ATOM      5  C   UNL     1      11.746   4.197   9.921  1.00  0.00     0.000 C 
BRANCH   5   6
ATOM      6  C   UNL     1      10.417   4.556   9.231  1.00  0.00     0.000 C 
BRANCH   6   7
ATOM      7  C   UNL     1       9.187   4.158  10.064  1.00  0.00     0.000 C 
BRANCH   7   8
ATOM      8  C   UNL     1       8.720   2.725   9.763  1.00  0.00     0.000 C 
BRANCH   8   9
ATOM      9  C   UNL     1       9.332   2.175   8.463  1.00  0.00     0.000 C 
BRANCH   9  10
ATOM     10  C   UNL     1      10.150   0.895   8.687  1.00  0.00     0.006 C 
BRANCH  10  11
ATOM     11  C   UNL     1      10.031   0.357  10.119  1.00  0.00     0.053 C 
BRANCH  11  12
ATOM     12  C   UNL     1      11.382   0.009  10.659  1.00  0.00     0.041 C 
ATOM     13  O   UNL     1      11.503  -0.895  11.530  1.00  0.00    -0.550 OA
ATOM     14  O   UNL     1      12.501   0.718  10.243  1.00  0.00    -0.550 OA
ENDBRANCH  11  12
ENDBRANCH  10  11
ENDBRANCH   9  10
ENDBRANCH   8   9
ENDBRANCH   7   8
ENDBRANCH   6   7
ENDBRANCH   5   6
ENDBRANCH   4   5
ENDBRANCH   3   4
ENDBRANCH   2   3
ENDBRANCH   1   2
BRANCH   1  15
ATOM     15  C   UNL     1      10.359   6.121  14.288  1.00  0.00     0.000 C 
BRANCH  15  16
ATOM     16  C   UNL     1      10.511   4.639  14.677  1.00  0.00     0.000 C 
BRANCH  16  17
ATOM     17  C   UNL     1       9.833   3.636  13.719  1.00  0.00     0.000 C 
BRANCH  17  18
ATOM     18  C   UNL     1      10.768   2.570  13.117  1.00  0.00    -0.000 C 
BRANCH  18  19
ATOM     19  C   UNL     1      12.271   2.904  13.184  1.00  0.00    -0.000 C 
BRANCH  19  20
ATOM     20  C   UNL     1      13.160   1.715  13.616  1.00  0.00    -0.000 C 
BRANCH  20  21
ATOM     21  C   UNL     1      13.706   1.799  15.056  1.00  0.00    -0.000 C 
BRANCH  21  22
ATOM     22  C   UNL     1      12.636   1.925  16.159  1.00  0.00    -0.000 C 
BRANCH  22  23
ATOM     23  C   UNL     1      11.662   0.733  16.186  1.00  0.00    -0.000 C 
BRANCH  23  24
ATOM     24  C   UNL     1      10.569   0.888  17.262  1.00  0.00    -0.000 C 
BRANCH  24  25
ATOM     25  C   UNL     1      10.644   2.210  18.050  1.00  0.00    -0.003 C 
ATOM     26  C   UNL     1       9.452   3.126  17.768  1.00  0.00     0.004 C 
ENDBRANCH  24  25
ENDBRANCH  23  24
ENDBRANCH  22  23
ENDBRANCH  21  22
ENDBRANCH  20  21
ENDBRANCH  19  20
ENDBRANCH  18  19
ENDBRANCH  17  18
ENDBRANCH  16  17
ENDBRANCH  15  16
ENDBRANCH   1  15
TORSDOF 22
ENDMDL
MODEL 9
REMARK VINA RESULT:    -4.889      5.468      8.403
REMARK INTER + INTRA:         -13.518
REMARK INTER:                  -9.347
REMARK INTRA:                  -4.171
REMARK UNBOUND:                -2.342
REMARK SMILES CCCCCCCCCCCCCCCCCCCCCCCC(=O)[O-]
REMARK SMILES IDX 13 1 14 2 15 3 16 4 17 5 18 6 19 7 20 8 21 9 22 10 23 11
REMARK SMILES IDX 24 12 25 13 26 14 12 15 11 16 10 17 9 18 8 19 7 20 6 21 5 22
REMARK SMILES IDX 4 23 3 24 2 25 1 26
REMARK H PARENT
REMARK Flexibility Score: inf
ROOT
ATOM      1  C   UNL     1      11.622   6.513  10.903  1.00  0.00     0.000 C 
ENDROOT
BRANCH   1   2
ATOM      2  C   UNL     1      12.811   5.587  10.585  1.00  0.00     0.000 C 
BRANCH   2   3
ATOM      3  C   UNL     1      12.496   4.078  10.621  1.00  0.00     0.000 C 
BRANCH   3   4
ATOM      4  C   UNL     1      13.409   3.242  11.537  1.00  0.00     0.000 C 
BRANCH   4   5
ATOM      5  C   UNL     1      13.080   1.737  11.588  1.00  0.00     0.000 C 
BRANCH   5   6
ATOM      6  C   UNL     1      13.144   1.107  12.992  1.00  0.00     0.000 C 
BRANCH   6   7
ATOM      7  C   UNL     1      13.336   2.151  14.105  1.00  0.00     0.000 C 
BRANCH   7   8
ATOM      8  C   UNL     1      13.227   1.532  15.508  1.00  0.00     0.000 C 
BRANCH   8   9
ATOM      9  C   UNL     1      11.949   1.973  16.241  1.00  0.00     0.000 C 
BRANCH   9  10
ATOM     10  C   UNL     1      10.826   0.928  16.158  1.00  0.00     0.006 C 
BRANCH  10  11
ATOM     11  C   UNL     1      11.303  -0.485  16.519  1.00  0.00     0.053 C 
BRANCH  11  12
ATOM     12  C   UNL     1      10.765  -1.482  15.542  1.00  0.00     0.041 C 
ATOM     13  O   UNL     1       9.880  -2.306  15.899  1.00  0.00    -0.550 OA
ATOM     14  O   UNL     1      11.279  -1.539  14.253  1.00  0.00    -0.550 OA
ENDBRANCH  11  12
ENDBRANCH  10  11
ENDBRANCH   9  10
ENDBRANCH   8   9
ENDBRANCH   7   8
ENDBRANCH   6   7
ENDBRANCH   5   6
ENDBRANCH   4   5
ENDBRANCH   3   4
ENDBRANCH   2   3
ENDBRANCH   1   2
BRANCH   1  15
ATOM     15  C   UNL     1      10.441   5.771  11.549  1.00  0.00     0.000 C 
BRANCH  15  16
ATOM     16  C   UNL     1      10.506   5.777  13.087  1.00  0.00     0.000 C 
BRANCH  16  17
ATOM     17  C   UNL     1      10.280   4.406  13.760  1.00  0.00     0.000 C 
BRANCH  17  18
ATOM     18  C   UNL     1       9.220   3.512  13.089  1.00  0.00    -0.000 C 
BRANCH  18  19
ATOM     19  C   UNL     1       9.697   2.092  12.726  1.00  0.00    -0.000 C 
BRANCH  19  20
ATOM     20  C   UNL     1       9.172   1.583  11.363  1.00  0.00    -0.000 C 
BRANCH  20  21
ATOM     21  C   UNL     1       9.522   2.476  10.155  1.00  0.00    -0.000 C 
BRANCH  21  22
ATOM     22  C   UNL     1       9.725   1.731   8.821  1.00  0.00    -0.000 C 
BRANCH  22  23
ATOM     23  C   UNL     1      10.934   0.778   8.846  1.00  0.00    -0.000 C 
BRANCH  23  24
ATOM     24  C   UNL     1      10.619  -0.593   8.217  1.00  0.00    -0.000 C 
BRANCH  24  25
ATOM     25  C   UNL     1      10.893  -1.791   9.147  1.00  0.00    -0.003 C 
ATOM     26  C   UNL     1      11.288  -1.356  10.559  1.00  0.00     0.004 C 
ENDBRANCH  24  25
ENDBRANCH  23  24
ENDBRANCH  22  23
ENDBRANCH  21  22
ENDBRANCH  20  21
ENDBRANCH  19  20
ENDBRANCH  18  19
ENDBRANCH  17  18
ENDBRANCH  16  17
ENDBRANCH  15  16
ENDBRANCH   1  15
TORSDOF 22
ENDMDL
