MODEL 1
REMARK VINA RESULT:    -7.479      0.000      0.000
REMARK INTER + INTRA:         -10.988
REMARK INTER:                  -9.884
REMARK INTRA:                  -1.104
REMARK UNBOUND:                -1.104
REMARK SMILES CC[C@@H](C=C[C@H](C)[C@H]1CC[C@@H]2C3=CC[C@@H]4C[C@@H](O)CC[C@]4(C)[C@@H]3CC[C@]21C)C(C)C
REMARK SMILES IDX 6 1 7 2 5 3 4 4 3 5 2 6 1 7 28 8 29 9 30 10 8 11 9 12 26 13
REMARK SMILES IDX 10 14 11 15 25 16 27 17 12 18 24 19 23 20 13 21 21 22 14 23
REMARK SMILES IDX 15 24 20 25 22 26 16 27 19 28 17 29 18 30
REMARK H PARENT 18 31
REMARK Flexibility Score: inf
ROOT
ATOM      1  C   UNL     1      38.228  33.281   2.771  1.00  0.00     0.012 C 
ATOM      2  C   UNL     1      37.388  32.717   1.606  1.00  0.00     0.012 C 
ENDROOT
BRANCH   1   3
ATOM      3  C   UNL     1      38.595  34.701   2.413  1.00  0.00    -0.028 C 
ATOM      4  C   UNL     1      38.714  35.097   1.137  1.00  0.00    -0.027 C 
BRANCH   4   5
ATOM      5  C   UNL     1      39.260  36.462   0.756  1.00  0.00     0.014 C 
BRANCH   5   6
ATOM      6  C   UNL     1      40.534  36.336  -0.125  1.00  0.00     0.004 C 
ATOM      7  C   UNL     1      41.144  34.936  -0.103  1.00  0.00     0.004 C 
ENDBRANCH   5   6
BRANCH   5   8
ATOM      8  C   UNL     1      39.472  37.379   2.010  1.00  0.00    -0.011 C 
ATOM      9  C   UNL     1      40.857  38.050   1.985  1.00  0.00     0.008 C 
ATOM     10  C   UNL     1      38.406  38.490   2.106  1.00  0.00     0.008 C 
ENDBRANCH   5   8
ENDBRANCH   4   5
ENDBRANCH   1   3
BRANCH   1  11
ATOM     11  C   UNL     1      37.460  33.224   4.134  1.00  0.00     0.002 C 
ATOM     12  C   UNL     1      36.016  32.660   3.971  1.00  0.00     0.005 C 
ATOM     13  C   UNL     1      38.100  32.345   5.282  1.00  0.00    -0.023 C 
ATOM     14  C   UNL     1      35.825  31.559   5.012  1.00  0.00     0.009 C 
ATOM     15  C   UNL     1      37.241  31.078   5.260  1.00  0.00     0.021 C 
ATOM     16  C   UNL     1      39.580  31.875   5.158  1.00  0.00     0.008 C 
ATOM     17  C   UNL     1      37.928  33.132   6.618  1.00  0.00     0.012 C 
ATOM     18  C   UNL     1      37.562  30.172   6.429  1.00  0.00    -0.067 C 
ATOM     19  C   UNL     1      39.993  30.911   6.290  1.00  0.00     0.009 C 
ATOM     20  C   UNL     1      39.019  29.709   6.491  1.00  0.00     0.021 C 
ATOM     21  C   UNL     1      36.592  29.633   7.186  1.00  0.00    -0.027 C 
ATOM     22  C   UNL     1      39.388  28.767   7.708  1.00  0.00    -0.023 C 
ATOM     23  C   UNL     1      36.886  28.688   8.306  1.00  0.00     0.031 C 
ATOM     24  C   UNL     1      38.161  27.855   8.052  1.00  0.00     0.002 C 
ATOM     25  C   UNL     1      39.798  29.566   8.990  1.00  0.00     0.010 C 
ATOM     26  C   UNL     1      40.591  27.887   7.254  1.00  0.00     0.012 C 
ATOM     27  C   UNL     1      38.437  26.930   9.262  1.00  0.00     0.036 C 
ATOM     28  C   UNL     1      40.063  28.665  10.212  1.00  0.00     0.032 C 
ATOM     29  C   UNL     1      38.902  27.702  10.514  1.00  0.00     0.114 C 
BRANCH  29  30
ATOM     30  O   UNL     1      39.261  26.809  11.535  1.00  0.00    -0.393 OA
ATOM     31  H   UNL     1      40.228  26.934  11.733  1.00  0.00     0.210 HD
ENDBRANCH  29  30
ENDBRANCH   1  11
TORSDOF 6
ENDMDL
MODEL 2
REMARK VINA RESULT:    -7.393      8.996     10.909
REMARK INTER + INTRA:         -10.873
REMARK INTER:                  -9.727
REMARK INTRA:                  -1.146
REMARK UNBOUND:                -1.104
REMARK SMILES CC[C@@H](C=C[C@H](C)[C@H]1CC[C@@H]2C3=CC[C@@H]4C[C@@H](O)CC[C@]4(C)[C@@H]3CC[C@]21C)C(C)C
REMARK SMILES IDX 6 1 7 2 5 3 4 4 3 5 2 6 1 7 28 8 29 9 30 10 8 11 9 12 26 13
REMARK SMILES IDX 10 14 11 15 25 16 27 17 12 18 24 19 23 20 13 21 21 22 14 23
REMARK SMILES IDX 15 24 20 25 22 26 16 27 19 28 17 29 18 30
REMARK H PARENT 18 31
REMARK Flexibility Score: inf
ROOT
ATOM      1  C   UNL     1      44.211  37.009   5.570  1.00  0.00     0.012 C 
ATOM      2  C   UNL     1      42.789  36.768   6.118  1.00  0.00     0.012 C 
ENDROOT
BRANCH   1   3
ATOM      3  C   UNL     1      44.095  37.157   4.073  1.00  0.00    -0.028 C 
ATOM      4  C   UNL     1      43.521  38.232   3.513  1.00  0.00    -0.027 C 
BRANCH   4   5
ATOM      5  C   UNL     1      43.228  38.316   2.025  1.00  0.00     0.014 C 
BRANCH   5   6
ATOM      6  C   UNL     1      43.786  39.632   1.413  1.00  0.00     0.004 C 
ATOM      7  C   UNL     1      44.312  39.457  -0.010  1.00  0.00     0.004 C 
ENDBRANCH   5   6
BRANCH   5   8
ATOM      8  C   UNL     1      41.708  38.093   1.712  1.00  0.00    -0.011 C 
ATOM      9  C   UNL     1      41.481  36.776   0.950  1.00  0.00     0.008 C 
ATOM     10  C   UNL     1      40.850  38.056   2.993  1.00  0.00     0.008 C 
ENDBRANCH   5   8
ENDBRANCH   4   5
ENDBRANCH   1   3
BRANCH   1  11
ATOM     11  C   UNL     1      44.885  38.269   6.212  1.00  0.00     0.002 C 
ATOM     12  C   UNL     1      43.897  39.066   7.116  1.00  0.00     0.005 C 
ATOM     13  C   UNL     1      46.147  38.018   7.129  1.00  0.00    -0.023 C 
ATOM     14  C   UNL     1      44.586  39.308   8.458  1.00  0.00     0.009 C 
ATOM     15  C   UNL     1      45.576  38.162   8.542  1.00  0.00     0.021 C 
ATOM     16  C   UNL     1      46.870  36.638   7.086  1.00  0.00     0.008 C 
ATOM     17  C   UNL     1      47.181  39.142   6.811  1.00  0.00     0.012 C 
ATOM     18  C   UNL     1      46.671  38.156   9.585  1.00  0.00    -0.067 C 
ATOM     19  C   UNL     1      47.985  36.520   8.147  1.00  0.00     0.009 C 
ATOM     20  C   UNL     1      47.533  36.891   9.593  1.00  0.00     0.021 C 
ATOM     21  C   UNL     1      46.709  39.070  10.570  1.00  0.00    -0.027 C 
ATOM     22  C   UNL     1      48.693  36.858  10.668  1.00  0.00    -0.023 C 
ATOM     23  C   UNL     1      47.748  39.043  11.644  1.00  0.00     0.031 C 
ATOM     24  C   UNL     1      48.228  37.610  11.961  1.00  0.00     0.002 C 
ATOM     25  C   UNL     1      50.017  37.514  10.151  1.00  0.00     0.010 C 
ATOM     26  C   UNL     1      48.966  35.359  10.997  1.00  0.00     0.012 C 
ATOM     27  C   UNL     1      49.330  37.652  13.047  1.00  0.00     0.036 C 
ATOM     28  C   UNL     1      51.124  37.580  11.221  1.00  0.00     0.032 C 
ATOM     29  C   UNL     1      50.660  38.240  12.529  1.00  0.00     0.114 C 
BRANCH  29  30
ATOM     30  O   UNL     1      51.657  38.134  13.512  1.00  0.00    -0.393 OA
ATOM     31  H   UNL     1      52.097  37.247  13.414  1.00  0.00     0.210 HD
ENDBRANCH  29  30
ENDBRANCH   1  11
TORSDOF 6
ENDMDL
MODEL 3
REMARK VINA RESULT:    -7.308      3.408      9.750
REMARK INTER + INTRA:         -10.762
REMARK INTER:                  -9.618
REMARK INTRA:                  -1.144
REMARK UNBOUND:                -1.104
REMARK SMILES CC[C@@H](C=C[C@H](C)[C@H]1CC[C@@H]2C3=CC[C@@H]4C[C@@H](O)CC[C@]4(C)[C@@H]3CC[C@]21C)C(C)C
REMARK SMILES IDX 6 1 7 2 5 3 4 4 3 5 2 6 1 7 28 8 29 9 30 10 8 11 9 12 26 13
REMARK SMILES IDX 10 14 11 15 25 16 27 17 12 18 24 19 23 20 13 21 21 22 14 23
REMARK SMILES IDX 15 24 20 25 22 26 16 27 19 28 17 29 18 30
REMARK H PARENT 18 31
REMARK Flexibility Score: inf
ROOT
ATOM      1  C   UNL     1      39.159  28.684   8.403  1.00  0.00     0.012 C 
ATOM      2  C   UNL     1      38.494  27.859   7.280  1.00  0.00     0.012 C 
ENDROOT
BRANCH   1   3
ATOM      3  C   UNL     1      39.265  27.790   9.614  1.00  0.00    -0.028 C 
ATOM      4  C   UNL     1      39.915  28.176  10.721  1.00  0.00    -0.027 C 
BRANCH   4   5
ATOM      5  C   UNL     1      40.192  27.229  11.875  1.00  0.00     0.014 C 
BRANCH   5   6
ATOM      6  C   UNL     1      39.735  25.781  11.539  1.00  0.00     0.004 C 
ATOM      7  C   UNL     1      40.117  24.766  12.615  1.00  0.00     0.004 C 
ENDBRANCH   5   6
BRANCH   5   8
ATOM      8  C   UNL     1      39.599  27.760  13.225  1.00  0.00    -0.011 C 
ATOM      9  C   UNL     1      40.531  28.796  13.877  1.00  0.00     0.008 C 
ATOM     10  C   UNL     1      38.216  28.415  13.036  1.00  0.00     0.008 C 
ENDBRANCH   5   8
ENDBRANCH   4   5
ENDBRANCH   1   3
BRANCH   1  11
ATOM     11  C   UNL     1      40.563  29.231   7.980  1.00  0.00     0.002 C 
ATOM     12  C   UNL     1      41.324  28.240   7.048  1.00  0.00     0.005 C 
ATOM     13  C   UNL     1      40.593  30.607   7.203  1.00  0.00    -0.023 C 
ATOM     14  C   UNL     1      41.812  29.025   5.832  1.00  0.00     0.009 C 
ATOM     15  C   UNL     1      40.826  30.175   5.752  1.00  0.00     0.021 C 
ATOM     16  C   UNL     1      39.326  31.514   7.193  1.00  0.00     0.008 C 
ATOM     17  C   UNL     1      41.799  31.427   7.758  1.00  0.00     0.012 C 
ATOM     18  C   UNL     1      41.088  31.364   4.856  1.00  0.00    -0.067 C 
ATOM     19  C   UNL     1      39.483  32.742   6.270  1.00  0.00     0.009 C 
ATOM     20  C   UNL     1      39.959  32.397   4.825  1.00  0.00     0.021 C 
ATOM     21  C   UNL     1      42.109  31.373   3.982  1.00  0.00    -0.027 C 
ATOM     22  C   UNL     1      40.208  33.658   3.902  1.00  0.00    -0.023 C 
ATOM     23  C   UNL     1      42.348  32.513   3.045  1.00  0.00     0.031 C 
ATOM     24  C   UNL     1      41.039  33.228   2.645  1.00  0.00     0.002 C 
ATOM     25  C   UNL     1      40.968  34.809   4.641  1.00  0.00     0.010 C 
ATOM     26  C   UNL     1      38.808  34.180   3.458  1.00  0.00     0.012 C 
ATOM     27  C   UNL     1      41.355  34.423   1.712  1.00  0.00     0.036 C 
ATOM     28  C   UNL     1      41.307  36.003   3.726  1.00  0.00     0.032 C 
ATOM     29  C   UNL     1      42.050  35.589   2.445  1.00  0.00     0.114 C 
BRANCH  29  30
ATOM     30  O   UNL     1      42.194  36.690   1.587  1.00  0.00    -0.393 OA
ATOM     31  H   UNL     1      42.828  36.439   0.862  1.00  0.00     0.210 HD
ENDBRANCH  29  30
ENDBRANCH   1  11
TORSDOF 6
ENDMDL
MODEL 4
REMARK VINA RESULT:    -7.303      6.819      9.257
REMARK INTER + INTRA:         -10.755
REMARK INTER:                  -9.474
REMARK INTRA:                  -1.281
REMARK UNBOUND:                -1.104
REMARK SMILES CC[C@@H](C=C[C@H](C)[C@H]1CC[C@@H]2C3=CC[C@@H]4C[C@@H](O)CC[C@]4(C)[C@@H]3CC[C@]21C)C(C)C
REMARK SMILES IDX 6 1 7 2 5 3 4 4 3 5 2 6 1 7 28 8 29 9 30 10 8 11 9 12 26 13
REMARK SMILES IDX 10 14 11 15 25 16 27 17 12 18 24 19 23 20 13 21 21 22 14 23
REMARK SMILES IDX 15 24 20 25 22 26 16 27 19 28 17 29 18 30
REMARK H PARENT 18 31
REMARK Flexibility Score: inf
ROOT
ATOM      1  C   UNL     1      43.038  37.498   3.056  1.00  0.00     0.012 C 
ATOM      2  C   UNL     1      43.749  36.288   2.414  1.00  0.00     0.012 C 
ENDROOT
BRANCH   1   3
ATOM      3  C   UNL     1      41.881  37.865   2.160  1.00  0.00    -0.028 C 
ATOM      4  C   UNL     1      40.632  37.983   2.635  1.00  0.00    -0.027 C 
BRANCH   4   5
ATOM      5  C   UNL     1      39.430  38.168   1.725  1.00  0.00     0.014 C 
BRANCH   5   6
ATOM      6  C   UNL     1      38.410  39.171   2.334  1.00  0.00     0.004 C 
ATOM      7  C   UNL     1      38.453  40.548   1.673  1.00  0.00     0.004 C 
ENDBRANCH   5   6
BRANCH   5   8
ATOM      8  C   UNL     1      38.778  36.799   1.328  1.00  0.00    -0.011 C 
ATOM      9  C   UNL     1      39.365  36.261   0.011  1.00  0.00     0.008 C 
ATOM     10  C   UNL     1      38.978  35.723   2.414  1.00  0.00     0.008 C 
ENDBRANCH   5   8
ENDBRANCH   4   5
ENDBRANCH   1   3
BRANCH   1  11
ATOM     11  C   UNL     1      42.551  37.192   4.512  1.00  0.00     0.002 C 
ATOM     12  C   UNL     1      42.464  35.661   4.793  1.00  0.00     0.005 C 
ATOM     13  C   UNL     1      43.427  37.763   5.697  1.00  0.00    -0.023 C 
ATOM     14  C   UNL     1      43.203  35.386   6.101  1.00  0.00     0.009 C 
ATOM     15  C   UNL     1      44.195  36.529   6.178  1.00  0.00     0.021 C 
ATOM     16  C   UNL     1      44.494  38.860   5.407  1.00  0.00     0.008 C 
ATOM     17  C   UNL     1      42.444  38.288   6.788  1.00  0.00     0.012 C 
ATOM     18  C   UNL     1      44.957  36.814   7.453  1.00  0.00    -0.067 C 
ATOM     19  C   UNL     1      45.353  39.194   6.645  1.00  0.00     0.009 C 
ATOM     20  C   UNL     1      45.980  37.947   7.342  1.00  0.00     0.021 C 
ATOM     21  C   UNL     1      44.907  35.976   8.503  1.00  0.00    -0.027 C 
ATOM     22  C   UNL     1      46.787  38.275   8.663  1.00  0.00    -0.023 C 
ATOM     23  C   UNL     1      45.700  36.210   9.748  1.00  0.00     0.031 C 
ATOM     24  C   UNL     1      47.024  36.953   9.471  1.00  0.00     0.002 C 
ATOM     25  C   UNL     1      46.049  39.303   9.584  1.00  0.00     0.010 C 
ATOM     26  C   UNL     1      48.153  38.880   8.224  1.00  0.00     0.012 C 
ATOM     27  C   UNL     1      47.777  37.203  10.800  1.00  0.00     0.036 C 
ATOM     28  C   UNL     1      46.773  39.555  10.921  1.00  0.00     0.032 C 
ATOM     29  C   UNL     1      47.091  38.261  11.689  1.00  0.00     0.114 C 
BRANCH  29  30
ATOM     30  O   UNL     1      47.881  38.542  12.815  1.00  0.00    -0.393 OA
ATOM     31  H   UNL     1      47.278  38.810  13.559  1.00  0.00     0.210 HD
ENDBRANCH  29  30
ENDBRANCH   1  11
TORSDOF 6
ENDMDL
MODEL 5
REMARK VINA RESULT:    -7.228      7.608      9.976
REMARK INTER + INTRA:         -10.655
REMARK INTER:                  -9.495
REMARK INTRA:                  -1.161
REMARK UNBOUND:                -1.104
REMARK SMILES CC[C@@H](C=C[C@H](C)[C@H]1CC[C@@H]2C3=CC[C@@H]4C[C@@H](O)CC[C@]4(C)[C@@H]3CC[C@]21C)C(C)C
REMARK SMILES IDX 6 1 7 2 5 3 4 4 3 5 2 6 1 7 28 8 29 9 30 10 8 11 9 12 26 13
REMARK SMILES IDX 10 14 11 15 25 16 27 17 12 18 24 19 23 20 13 21 21 22 14 23
REMARK SMILES IDX 15 24 20 25 22 26 16 27 19 28 17 29 18 30
REMARK H PARENT 18 31
REMARK Flexibility Score: inf
ROOT
ATOM      1  C   UNL     1      43.213  36.460   4.182  1.00  0.00     0.012 C 
ATOM      2  C   UNL     1      42.382  35.567   5.128  1.00  0.00     0.012 C 
ENDROOT
BRANCH   1   3
ATOM      3  C   UNL     1      42.432  36.601   2.898  1.00  0.00    -0.028 C 
ATOM      4  C   UNL     1      41.095  36.501   2.872  1.00  0.00    -0.027 C 
BRANCH   4   5
ATOM      5  C   UNL     1      40.307  36.456   1.574  1.00  0.00     0.014 C 
BRANCH   5   6
ATOM      6  C   UNL     1      39.113  37.451   1.603  1.00  0.00     0.004 C 
ATOM      7  C   UNL     1      39.403  38.714   2.411  1.00  0.00     0.004 C 
ENDBRANCH   5   6
BRANCH   5   8
ATOM      8  C   UNL     1      39.877  34.995   1.200  1.00  0.00    -0.011 C 
ATOM      9  C   UNL     1      39.589  34.157   2.459  1.00  0.00     0.008 C 
ATOM     10  C   UNL     1      38.617  34.969   0.312  1.00  0.00     0.008 C 
ENDBRANCH   5   8
ENDBRANCH   4   5
ENDBRANCH   1   3
BRANCH   1  11
ATOM     11  C   UNL     1      43.523  37.859   4.812  1.00  0.00     0.002 C 
ATOM     12  C   UNL     1      42.327  38.402   5.652  1.00  0.00     0.005 C 
ATOM     13  C   UNL     1      44.764  37.948   5.786  1.00  0.00    -0.023 C 
ATOM     14  C   UNL     1      42.872  38.834   7.012  1.00  0.00     0.009 C 
ATOM     15  C   UNL     1      44.110  37.972   7.171  1.00  0.00     0.021 C 
ATOM     16  C   UNL     1      45.807  36.792   5.813  1.00  0.00     0.008 C 
ATOM     17  C   UNL     1      45.501  39.288   5.476  1.00  0.00     0.012 C 
ATOM     18  C   UNL     1      45.123  38.258   8.256  1.00  0.00    -0.067 C 
ATOM     19  C   UNL     1      46.867  36.975   6.920  1.00  0.00     0.009 C 
ATOM     20  C   UNL     1      46.271  37.249   8.336  1.00  0.00     0.021 C 
ATOM     21  C   UNL     1      44.888  39.172   9.213  1.00  0.00    -0.027 C 
ATOM     22  C   UNL     1      47.352  37.526   9.457  1.00  0.00    -0.023 C 
ATOM     23  C   UNL     1      45.850  39.425  10.329  1.00  0.00     0.031 C 
ATOM     24  C   UNL     1      46.656  38.163  10.707  1.00  0.00     0.002 C 
ATOM     25  C   UNL     1      48.494  38.481   8.974  1.00  0.00     0.010 C 
ATOM     26  C   UNL     1      47.973  36.150   9.840  1.00  0.00     0.012 C 
ATOM     27  C   UNL     1      47.662  38.499  11.834  1.00  0.00     0.036 C 
ATOM     28  C   UNL     1      49.500  38.842  10.085  1.00  0.00     0.032 C 
ATOM     29  C   UNL     1      48.826  39.390  11.353  1.00  0.00     0.114 C 
BRANCH  29  30
ATOM     30  O   UNL     1      49.772  39.554  12.377  1.00  0.00    -0.393 OA
ATOM     31  H   UNL     1      49.301  39.482  13.251  1.00  0.00     0.210 HD
ENDBRANCH  29  30
ENDBRANCH   1  11
TORSDOF 6
ENDMDL
MODEL 6
REMARK VINA RESULT:    -7.030      5.231      7.351
REMARK INTER + INTRA:         -10.394
REMARK INTER:                  -9.280
REMARK INTRA:                  -1.113
REMARK UNBOUND:                -1.104
REMARK SMILES CC[C@@H](C=C[C@H](C)[C@H]1CC[C@@H]2C3=CC[C@@H]4C[C@@H](O)CC[C@]4(C)[C@@H]3CC[C@]21C)C(C)C
REMARK SMILES IDX 6 1 7 2 5 3 4 4 3 5 2 6 1 7 28 8 29 9 30 10 8 11 9 12 26 13
REMARK SMILES IDX 10 14 11 15 25 16 27 17 12 18 24 19 23 20 13 21 21 22 14 23
REMARK SMILES IDX 15 24 20 25 22 26 16 27 19 28 17 29 18 30
REMARK H PARENT 18 31
REMARK Flexibility Score: inf
ROOT
ATOM      1  C   UNL     1      44.845  31.142   5.175  1.00  0.00     0.012 C 
ATOM      2  C   UNL     1      44.962  31.695   6.611  1.00  0.00     0.012 C 
ENDROOT
BRANCH   1   3
ATOM      3  C   UNL     1      46.240  31.084   4.602  1.00  0.00    -0.028 C 
ATOM      4  C   UNL     1      47.326  31.179   5.382  1.00  0.00    -0.027 C 
BRANCH   4   5
ATOM      5  C   UNL     1      48.728  31.308   4.812  1.00  0.00     0.014 C 
BRANCH   5   6
ATOM      6  C   UNL     1      49.695  30.271   5.450  1.00  0.00     0.004 C 
ATOM      7  C   UNL     1      51.087  30.280   4.821  1.00  0.00     0.004 C 
ENDBRANCH   5   6
BRANCH   5   8
ATOM      8  C   UNL     1      49.265  32.779   4.901  1.00  0.00    -0.011 C 
ATOM      9  C   UNL     1      48.815  33.612   3.687  1.00  0.00     0.008 C 
ATOM     10  C   UNL     1      48.784  33.498   6.177  1.00  0.00     0.008 C 
ENDBRANCH   5   8
ENDBRANCH   4   5
ENDBRANCH   1   3
BRANCH   1  11
ATOM     11  C   UNL     1      44.159  29.735   5.138  1.00  0.00     0.002 C 
ATOM     12  C   UNL     1      44.636  28.819   6.306  1.00  0.00     0.005 C 
ATOM     13  C   UNL     1      42.582  29.703   5.228  1.00  0.00    -0.023 C 
ATOM     14  C   UNL     1      43.393  28.249   6.987  1.00  0.00     0.009 C 
ATOM     15  C   UNL     1      42.332  29.287   6.680  1.00  0.00     0.021 C 
ATOM     16  C   UNL     1      41.770  31.013   5.000  1.00  0.00     0.008 C 
ATOM     17  C   UNL     1      42.083  28.616   4.226  1.00  0.00     0.012 C 
ATOM     18  C   UNL     1      40.868  29.000   6.929  1.00  0.00    -0.067 C 
ATOM     19  C   UNL     1      40.261  30.829   5.268  1.00  0.00     0.009 C 
ATOM     20  C   UNL     1      39.933  30.178   6.647  1.00  0.00     0.021 C 
ATOM     21  C   UNL     1      40.470  27.891   7.576  1.00  0.00    -0.027 C 
ATOM     22  C   UNL     1      38.393  29.906   6.890  1.00  0.00    -0.023 C 
ATOM     23  C   UNL     1      39.033  27.621   7.885  1.00  0.00     0.031 C 
ATOM     24  C   UNL     1      38.222  28.918   8.094  1.00  0.00     0.002 C 
ATOM     25  C   UNL     1      37.680  29.301   5.635  1.00  0.00     0.010 C 
ATOM     26  C   UNL     1      37.737  31.277   7.233  1.00  0.00     0.012 C 
ATOM     27  C   UNL     1      36.737  28.573   8.366  1.00  0.00     0.036 C 
ATOM     28  C   UNL     1      36.204  28.936   5.888  1.00  0.00     0.032 C 
ATOM     29  C   UNL     1      36.008  28.034   7.118  1.00  0.00     0.114 C 
BRANCH  29  30
ATOM     30  O   UNL     1      34.641  27.863   7.386  1.00  0.00    -0.393 OA
ATOM     31  H   UNL     1      34.284  27.177   6.759  1.00  0.00     0.210 HD
ENDBRANCH  29  30
ENDBRANCH   1  11
TORSDOF 6
ENDMDL
MODEL 7
REMARK VINA RESULT:    -7.002      4.218      6.523
REMARK INTER + INTRA:         -10.357
REMARK INTER:                  -8.687
REMARK INTRA:                  -1.670
REMARK UNBOUND:                -1.104
REMARK SMILES CC[C@@H](C=C[C@H](C)[C@H]1CC[C@@H]2C3=CC[C@@H]4C[C@@H](O)CC[C@]4(C)[C@@H]3CC[C@]21C)C(C)C
REMARK SMILES IDX 6 1 7 2 5 3 4 4 3 5 2 6 1 7 28 8 29 9 30 10 8 11 9 12 26 13
REMARK SMILES IDX 10 14 11 15 25 16 27 17 12 18 24 19 23 20 13 21 21 22 14 23
REMARK SMILES IDX 15 24 20 25 22 26 16 27 19 28 17 29 18 30
REMARK H PARENT 18 31
REMARK Flexibility Score: inf
ROOT
ATOM      1  C   UNL     1      44.712  31.248   5.172  1.00  0.00     0.012 C 
ATOM      2  C   UNL     1      44.770  31.876   3.764  1.00  0.00     0.012 C 
ENDROOT
BRANCH   1   3
ATOM      3  C   UNL     1      43.927  32.190   6.051  1.00  0.00    -0.028 C 
ATOM      4  C   UNL     1      44.261  32.402   7.333  1.00  0.00    -0.027 C 
BRANCH   4   5
ATOM      5  C   UNL     1      43.382  33.198   8.282  1.00  0.00     0.014 C 
BRANCH   5   6
ATOM      6  C   UNL     1      44.041  33.333   9.683  1.00  0.00     0.004 C 
ATOM      7  C   UNL     1      44.715  34.686   9.904  1.00  0.00     0.004 C 
ENDBRANCH   5   6
BRANCH   5   8
ATOM      8  C   UNL     1      41.922  32.630   8.345  1.00  0.00    -0.011 C 
ATOM      9  C   UNL     1      41.536  32.238   9.783  1.00  0.00     0.008 C 
ATOM     10  C   UNL     1      40.880  33.644   7.832  1.00  0.00     0.008 C 
ENDBRANCH   5   8
ENDBRANCH   4   5
ENDBRANCH   1   3
BRANCH   1  11
ATOM     11  C   UNL     1      44.067  29.821   5.157  1.00  0.00     0.002 C 
ATOM     12  C   UNL     1      44.577  28.933   6.333  1.00  0.00     0.005 C 
ATOM     13  C   UNL     1      42.492  29.744   5.257  1.00  0.00    -0.023 C 
ATOM     14  C   UNL     1      43.355  28.336   7.028  1.00  0.00     0.009 C 
ATOM     15  C   UNL     1      42.262  29.339   6.716  1.00  0.00     0.021 C 
ATOM     16  C   UNL     1      41.641  31.027   5.018  1.00  0.00     0.008 C 
ATOM     17  C   UNL     1      42.019  28.632   4.271  1.00  0.00     0.012 C 
ATOM     18  C   UNL     1      40.809  29.013   6.977  1.00  0.00    -0.067 C 
ATOM     19  C   UNL     1      40.140  30.804   5.298  1.00  0.00     0.009 C 
ATOM     20  C   UNL     1      39.839  30.160   6.687  1.00  0.00     0.021 C 
ATOM     21  C   UNL     1      40.447  27.901   7.640  1.00  0.00    -0.027 C 
ATOM     22  C   UNL     1      38.309  29.847   6.943  1.00  0.00    -0.023 C 
ATOM     23  C   UNL     1      39.020  27.593   7.961  1.00  0.00     0.031 C 
ATOM     24  C   UNL     1      38.173  28.869   8.159  1.00  0.00     0.002 C 
ATOM     25  C   UNL     1      37.606  29.206   5.700  1.00  0.00     0.010 C 
ATOM     26  C   UNL     1      37.616  31.202   7.273  1.00  0.00     0.012 C 
ATOM     27  C   UNL     1      36.701  28.485   8.445  1.00  0.00     0.036 C 
ATOM     28  C   UNL     1      36.142  28.802   5.966  1.00  0.00     0.032 C 
ATOM     29  C   UNL     1      35.980  27.910   7.208  1.00  0.00     0.114 C 
BRANCH  29  30
ATOM     30  O   UNL     1      34.620  27.703   7.487  1.00  0.00    -0.393 OA
ATOM     31  H   UNL     1      34.201  28.587   7.670  1.00  0.00     0.210 HD
ENDBRANCH  29  30
ENDBRANCH   1  11
TORSDOF 6
ENDMDL
MODEL 8
REMARK VINA RESULT:    -6.941      9.311     12.106
REMARK INTER + INTRA:         -10.276
REMARK INTER:                  -8.689
REMARK INTRA:                  -1.587
REMARK UNBOUND:                -1.104
REMARK SMILES CC[C@@H](C=C[C@H](C)[C@H]1CC[C@@H]2C3=CC[C@@H]4C[C@@H](O)CC[C@]4(C)[C@@H]3CC[C@]21C)C(C)C
REMARK SMILES IDX 6 1 7 2 5 3 4 4 3 5 2 6 1 7 28 8 29 9 30 10 8 11 9 12 26 13
REMARK SMILES IDX 10 14 11 15 25 16 27 17 12 18 24 19 23 20 13 21 21 22 14 23
REMARK SMILES IDX 15 24 20 25 22 26 16 27 19 28 17 29 18 30
REMARK H PARENT 18 31
REMARK Flexibility Score: inf
ROOT
ATOM      1  C   UNL     1      47.897  32.232   4.940  1.00  0.00     0.012 C 
ATOM      2  C   UNL     1      48.958  31.528   4.068  1.00  0.00     0.012 C 
ENDROOT
BRANCH   1   3
ATOM      3  C   UNL     1      46.573  31.562   4.664  1.00  0.00    -0.028 C 
ATOM      4  C   UNL     1      45.794  31.105   5.655  1.00  0.00    -0.027 C 
BRANCH   4   5
ATOM      5  C   UNL     1      44.554  30.268   5.395  1.00  0.00     0.014 C 
BRANCH   5   6
ATOM      6  C   UNL     1      43.269  30.992   5.887  1.00  0.00     0.004 C 
ATOM      7  C   UNL     1      43.563  32.196   6.780  1.00  0.00     0.004 C 
ENDBRANCH   5   6
BRANCH   5   8
ATOM      8  C   UNL     1      44.695  28.816   5.971  1.00  0.00    -0.011 C 
ATOM      9  C   UNL     1      45.850  28.727   6.985  1.00  0.00     0.008 C 
ATOM     10  C   UNL     1      43.407  28.340   6.672  1.00  0.00     0.008 C 
ENDBRANCH   5   8
ENDBRANCH   4   5
ENDBRANCH   1   3
BRANCH   1  11
ATOM     11  C   UNL     1      48.252  32.175   6.464  1.00  0.00     0.002 C 
ATOM     12  C   UNL     1      49.771  31.923   6.704  1.00  0.00     0.005 C 
ATOM     13  C   UNL     1      47.923  33.457   7.326  1.00  0.00    -0.023 C 
ATOM     14  C   UNL     1      50.266  32.972   7.697  1.00  0.00     0.009 C 
ATOM     15  C   UNL     1      49.294  34.117   7.494  1.00  0.00     0.021 C 
ATOM     16  C   UNL     1      46.975  34.552   6.750  1.00  0.00     0.008 C 
ATOM     17  C   UNL     1      47.354  32.963   8.693  1.00  0.00     0.012 C 
ATOM     18  C   UNL     1      49.237  35.272   8.468  1.00  0.00    -0.067 C 
ATOM     19  C   UNL     1      46.882  35.795   7.660  1.00  0.00     0.009 C 
ATOM     20  C   UNL     1      48.264  36.387   8.076  1.00  0.00     0.021 C 
ATOM     21  C   UNL     1      50.146  35.409   9.449  1.00  0.00    -0.027 C 
ATOM     22  C   UNL     1      48.176  37.606   9.081  1.00  0.00    -0.023 C 
ATOM     23  C   UNL     1      50.143  36.576  10.383  1.00  0.00     0.031 C 
ATOM     24  C   UNL     1      49.583  37.855   9.724  1.00  0.00     0.002 C 
ATOM     25  C   UNL     1      47.133  37.373  10.225  1.00  0.00     0.010 C 
ATOM     26  C   UNL     1      47.745  38.851   8.250  1.00  0.00     0.012 C 
ATOM     27  C   UNL     1      49.564  39.013  10.751  1.00  0.00     0.036 C 
ATOM     28  C   UNL     1      47.108  38.507  11.269  1.00  0.00     0.032 C 
ATOM     29  C   UNL     1      48.497  38.824  11.849  1.00  0.00     0.114 C 
BRANCH  29  30
ATOM     30  O   UNL     1      48.436  39.958  12.673  1.00  0.00    -0.393 OA
ATOM     31  H   UNL     1      47.768  40.588  12.287  1.00  0.00     0.210 HD
ENDBRANCH  29  30
ENDBRANCH   1  11
TORSDOF 6
ENDMDL
MODEL 9
REMARK VINA RESULT:    -6.889      8.155     10.830
REMARK INTER + INTRA:         -10.207
REMARK INTER:                  -8.516
REMARK INTRA:                  -1.692
REMARK UNBOUND:                -1.104
REMARK SMILES CC[C@@H](C=C[C@H](C)[C@H]1CC[C@@H]2C3=CC[C@@H]4C[C@@H](O)CC[C@]4(C)[C@@H]3CC[C@]21C)C(C)C
REMARK SMILES IDX 6 1 7 2 5 3 4 4 3 5 2 6 1 7 28 8 29 9 30 10 8 11 9 12 26 13
REMARK SMILES IDX 10 14 11 15 25 16 27 17 12 18 24 19 23 20 13 21 21 22 14 23
REMARK SMILES IDX 15 24 20 25 22 26 16 27 19 28 17 29 18 30
REMARK H PARENT 18 31
REMARK Flexibility Score: inf
ROOT
ATOM      1  C   UNL     1      43.641  36.105   4.228  1.00  0.00     0.012 C 
ATOM      2  C   UNL     1      44.507  35.851   2.976  1.00  0.00     0.012 C 
ENDROOT
BRANCH   1   3
ATOM      3  C   UNL     1      43.980  35.031   5.232  1.00  0.00    -0.028 C 
ATOM      4  C   UNL     1      43.044  34.486   6.023  1.00  0.00    -0.027 C 
BRANCH   4   5
ATOM      5  C   UNL     1      43.390  33.543   7.163  1.00  0.00     0.014 C 
BRANCH   5   6
ATOM      6  C   UNL     1      42.159  33.285   8.076  1.00  0.00     0.004 C 
ATOM      7  C   UNL     1      41.807  31.804   8.207  1.00  0.00     0.004 C 
ENDBRANCH   5   6
BRANCH   5   8
ATOM      8  C   UNL     1      44.653  34.023   7.959  1.00  0.00    -0.011 C 
ATOM      9  C   UNL     1      44.320  34.266   9.442  1.00  0.00     0.008 C 
ATOM     10  C   UNL     1      45.807  33.003   7.890  1.00  0.00     0.008 C 
ENDBRANCH   5   8
ENDBRANCH   4   5
ENDBRANCH   1   3
BRANCH   1  11
ATOM     11  C   UNL     1      43.874  37.533   4.827  1.00  0.00     0.002 C 
ATOM     12  C   UNL     1      42.629  38.053   5.606  1.00  0.00     0.005 C 
ATOM     13  C   UNL     1      45.073  37.697   5.843  1.00  0.00    -0.023 C 
ATOM     14  C   UNL     1      43.105  38.544   6.972  1.00  0.00     0.009 C 
ATOM     15  C   UNL     1      44.368  37.736   7.201  1.00  0.00     0.021 C 
ATOM     16  C   UNL     1      46.158  36.583   5.942  1.00  0.00     0.008 C 
ATOM     17  C   UNL     1      45.770  39.055   5.520  1.00  0.00     0.012 C 
ATOM     18  C   UNL     1      45.328  38.092   8.314  1.00  0.00    -0.067 C 
ATOM     19  C   UNL     1      47.168  36.839   7.081  1.00  0.00     0.009 C 
ATOM     20  C   UNL     1      46.509  37.130   8.465  1.00  0.00     0.021 C 
ATOM     21  C   UNL     1      45.023  39.022   9.234  1.00  0.00    -0.027 C 
ATOM     22  C   UNL     1      47.536  37.480   9.616  1.00  0.00    -0.023 C 
ATOM     23  C   UNL     1      45.932  39.344  10.376  1.00  0.00     0.031 C 
ATOM     24  C   UNL     1      46.769  38.126  10.821  1.00  0.00     0.002 C 
ATOM     25  C   UNL     1      48.658  38.465   9.147  1.00  0.00     0.010 C 
ATOM     26  C   UNL     1      48.193  36.140  10.063  1.00  0.00     0.012 C 
ATOM     27  C   UNL     1      47.720  38.532  11.973  1.00  0.00     0.036 C 
ATOM     28  C   UNL     1      49.608  38.895  10.283  1.00  0.00     0.032 C 
ATOM     29  C   UNL     1      48.867  39.453  11.509  1.00  0.00     0.114 C 
BRANCH  29  30
ATOM     30  O   UNL     1      49.767  39.683  12.561  1.00  0.00    -0.393 OA
ATOM     31  H   UNL     1      49.801  38.864  13.126  1.00  0.00     0.210 HD
ENDBRANCH  29  30
ENDBRANCH   1  11
TORSDOF 6
ENDMDL
